data_PCOD8012464
_publ_section_title
;
Structure prediction by ZEFSAII (Michael W. Deem and Ramdas Pophale) SiO2 
 PCOD8012464
Probable space group: P -1
;
_chemical_formula_sum "Si O2"
_cell_formula_units_Z 16
_cell_length_a 17.746425
_cell_length_b 7.720069
_cell_length_c 7.947507
_cell_angle_alpha 123.186541
_cell_angle_beta 114.402576
_cell_angle_gamma 95.772181
_cell_volume 749.716459
_symmetry_space_group_name_H-M "P -1"
_symmetry_group_IT_number 2
_symmetry_cell_setting 'triclinic'
loop_
_space_group_symop_operation_xyz
x,y,z
-x,-y,-z
loop_
_atom_site_type_symbol
_atom_site_label
_atom_site_fract_x
_atom_site_fract_y
_atom_site_fract_z
Si Si1 0.137708 0.947105 0.734423
Si Si2 0.297845 0.663342 0.286003
Si Si3 0.854903 0.689344 0.826720
Si Si4 0.312200 0.267269 0.900410
Si Si5 0.394650 0.918353 0.823980
Si Si6 0.006525 0.492288 0.200876
Si Si7 0.189812 0.699234 0.918741
Si Si8 0.271486 0.455547 0.656148
O O1 0.053053 0.742104 0.461028
O O2 0.202781 0.875168 0.873804
O O3 0.204275 0.101334 0.732749
O O4 0.099382 0.090043 0.893733
O O5 0.203267 0.531647 0.230865
O O6 0.374779 0.843831 0.571226
O O7 0.337933 0.489559 0.160778
O O8 0.271160 0.797887 0.185290
O O9 0.933329 0.646903 0.777769
O O10 0.784958 0.713446 0.637498
O O11 0.326748 0.342870 0.756182
O O12 0.372682 0.137530 0.944659
O O13 0.338488 0.706996 0.783058
O O14 0.500000 0.000000 0.000000
O O15 0.908635 0.363035 0.125006
O O16 0.000000 0.500000 0.000000
O O17 0.197772 0.479134 0.728437
#
# Coordination Sequence:
#
# PCOD8012464 Si02
#       8
#     2   2   2   2   2   2   2   2
#     4  11  23  39  63  90 123 174 220 248 320 370
#     4   9  21  41  61  94 125 163 212 253 311 385
#     4  10  21  40  59  91 124 169 215 260 307 366
#     4  10  22  42  66  93 128 170 205 259 317 379
#     4  11  23  43  71  98 125 160 204 261 326 388
#     4  12  24  39  58  90 133 166 216 281 302 343
#     4  11  21  40  63  86 131 173 208 266 312 366
#     4  10  22  43  67  92 132 164 214 260 314 386
#
# _framework density 21.341403
#
# number of rings (size 3 to 8) (size 9 to 14) (size 15 to 20)
#    0.000    1.500    3.750    1.125    1.750    2.000 
#    0.000    2.500    0.000    0.000    0.000    0.000 
#    0.000    0.000    0.000    0.000    0.000    0.000 
#
# Total GULP energy -198330.490078 kJ/mol
# GULP energy per Si atom -12395.655630 kJ/mol
# Density = 2.129283 g / cm^3
# Si number density = 21.341403 Si / 1000 Ang^3
#
#
#
# Elastic Constant Matrix: (Units=GPa)
#
#
# Indices 1 2 3 4 5 6 
#
# 1 86.8175 28.2018 49.2105 0.6111 1.3306 -12.9723
# 2 28.2018 105.3423 34.3153 -17.4292 5.8046 1.5396
# 3 49.2105 34.3153 137.2734 -8.9668 -2.8448 -6.4506
# 4 0.6111 -17.4292 -8.9668 30.0357 -3.4808 -10.2394
# 5 1.3306 5.8046 -2.8448 -3.4808 23.2027 -6.1796
# 6 -12.9723 1.5396 -6.4506 -10.2394 -6.1796 24.4071
#
#
#
# Elastic Compliance Matrix: (Units=1/GPa)
#
#
# Indices 1 2 3 4 5 6 
#
# 1 0.016353 -0.003147 -0.004753 -0.000867 0.001151 0.007562
# 2 -0.003147 0.011975 -0.001571 0.005946 -0.002368 -0.000948
# 3 -0.004753 -0.001571 0.009756 0.003202 0.002938 0.002238
# 4 -0.000867 0.005946 0.003202 0.046856 0.012033 0.022714
# 5 0.001151 -0.002368 0.002938 0.012033 0.050982 0.019494
# 6 0.007562 -0.000948 0.002238 0.022714 0.019494 0.060107
#
#
# Mechanical properties :
#
#
# Convention : Reuss Voigt Hill
#
# Bulk Modulus (GPa) = 52.23708 61.43203 56.83456
# Shear Modulus (GPa) = 22.58835 30.04280 26.31558
#
# Velocity S-wave (km/s) = 3.25688 3.75604 3.51533
# Velocity P-wave (km/s) = 6.21876 6.90350 6.57006
#
# Compressibility (1/GPa) = 0.01914349
#
# Stress axis : x y z
#
# Youngs Moduli (GPa) = 61.14997 83.50600 102.49587
#
# Poissons Ratio (x) = 0.26279 0.48718
# Poissons Ratio (y) = 0.19244 0.16098
# Poissons Ratio (z) = 0.29065 0.13115
#
# Static dielectric constant tensor:
#      x y z
#    x 3.758640 -0.003360 -0.333570 
#    y -0.003360 4.102540 -0.229110 
#    z -0.333570 -0.229110 3.822600 
# 
# 
# High freq. dielectric constant tensor:
#      x y z
#    x 1.818320 -0.005020 -0.026320 
#    y -0.005020 1.842860 -0.017140 
#    z -0.026320 -0.017140 1.829240 
# 
# From -- ./inp_files/329648.got.cif
#   From: 2010.06.25/outbox.cif.g09.slc.cpg/sg2_165_cif.got.tgz:329648.got - 2010.06.27 13:26:56.
