data_PCOD8012688
_publ_section_title
;
Structure prediction by ZEFSAII (Michael W. Deem and Ramdas Pophale) SiO2 
 PCOD8012688
Probable space group: P -1
;
_chemical_formula_sum "Si O2"
_cell_formula_units_Z 16
_cell_length_a 28.873412
_cell_length_b 8.730679
_cell_length_c 11.907742
_cell_angle_alpha 127.101448
_cell_angle_beta 32.822758
_cell_angle_gamma 149.915905
_cell_volume 725.842018
_symmetry_space_group_name_H-M "P -1"
_symmetry_group_IT_number 2
_symmetry_cell_setting 'triclinic'
loop_
_space_group_symop_operation_xyz
x,y,z
-x,-y,-z
loop_
_atom_site_type_symbol
_atom_site_label
_atom_site_fract_x
_atom_site_fract_y
_atom_site_fract_z
Si Si1 0.471744 0.869837 0.685847
Si Si2 0.186416 0.354904 0.167922
Si Si3 0.245503 0.831792 0.679606
Si Si4 0.877758 0.415740 0.762703
Si Si5 0.317805 0.317351 0.593416
Si Si6 0.535580 0.695528 0.122351
Si Si7 0.986203 0.336719 0.171132
Si Si8 0.098666 0.412079 0.580913
O O1 0.386721 0.646751 0.644949
O O2 0.621574 0.021099 0.456474
O O3 0.509978 0.166345 0.741687
O O4 0.359210 0.612505 0.905440
O O5 0.135004 0.424443 0.218429
O O6 0.178794 0.407464 0.335205
O O7 0.074881 0.968719 0.205182
O O8 0.198410 0.601839 0.573761
O O9 0.297842 0.133890 0.657112
O O10 0.101771 0.590221 0.946483
O O11 0.931804 0.588616 0.851833
O O12 0.000000 0.500000 0.500000
O O13 0.714277 0.005373 0.924984
O O14 0.432272 0.432481 0.320647
O O15 0.153208 0.061654 0.759378
O O16 0.500000 0.500000 0.000000
O O17 0.904862 0.389233 0.385968
#
# Coordination Sequence:
#
# PCOD8012688 Si02
#       8
#     2   2   2   2   2   2   2   2
#     4  11  24  43  64  95 136 170 220 264 331 387
#     4  10  22  40  63  91 130 170 212 268 329 378
#     4  11  24  40  67  98 131 171 222 261 332 388
#     4  11  22  41  65  93 126 169 220 264 320 385
#     4  11  23  44  68  95 136 172 217 272 328 384
#     4  11  26  44  65  94 135 177 219 269 328 385
#     4  11  22  41  69  96 129 168 222 265 325 388
#     4  10  21  40  62  94 129 167 217 269 319 386
#
# _framework density 22.043365000000001
#
# number of rings (size 3 to 8) (size 9 to 14) (size 15 to 20)
#    0.000    1.250    1.250    5.250    5.250    4.500 
#    0.000    3.750    0.000    0.000    0.000    0.000 
#    0.000    0.000    0.000    0.000    0.000    0.000 
#
# Total GULP energy -198431.400023 kJ/mol
# GULP energy per Si atom -12401.962501 kJ/mol
# Density = 2.199319 g / cm^3
# Si number density = 22.043365 Si / 1000 Ang^3
#
#
#
# Elastic Constant Matrix: (Units=GPa)
#
#
# Indices 1 2 3 4 5 6 
#
# 1 81.2296 37.5022 19.3198 -0.8873 6.7154 24.9751
# 2 37.5022 123.3506 27.7812 6.0546 4.4563 25.9718
# 3 19.3198 27.7812 106.7637 -13.4890 8.9437 8.9625
# 4 -0.8873 6.0546 -13.4890 34.1560 3.4823 1.5906
# 5 6.7154 4.4563 8.9437 3.4823 38.0106 -5.5772
# 6 24.9751 25.9718 8.9625 1.5906 -5.5772 31.6173
#
#
#
# Elastic Compliance Matrix: (Units=1/GPa)
#
#
# Indices 1 2 3 4 5 6 
#
# 1 0.018038 -0.002473 -0.000942 0.001614 -0.004710 -0.012863
# 2 -0.002473 0.010829 -0.002041 -0.002380 -0.001079 -0.006434
# 3 -0.000942 -0.002041 0.011075 0.005074 -0.002883 -0.001482
# 4 0.001614 -0.002380 0.005074 0.032367 -0.004635 -0.003204
# 5 -0.004710 -0.001079 -0.002883 -0.004635 0.029976 0.010945
# 6 -0.012863 -0.006434 -0.001482 -0.003204 0.010945 0.049586
#
#
# Mechanical properties :
#
#
# Convention : Reuss Voigt Hill
#
# Bulk Modulus (GPa) = 34.44639 53.39450 43.92044
# Shear Modulus (GPa) = 28.99237 35.87283 32.43260
#
# Velocity S-wave (km/s) = 3.63056 4.03845 3.83993
# Velocity P-wave (km/s) = 5.76500 6.78384 6.29507
#
# Compressibility (1/GPa) = 0.02903062
#
# Stress axis : x y z
#
# Youngs Moduli (GPa) = 55.43740 92.34602 90.29349
#
# Poissons Ratio (x) = 0.22835 0.08510
# Poissons Ratio (y) = 0.13708 0.18425
# Poissons Ratio (z) = 0.05225 0.18844
#
# Static dielectric constant tensor:
#      x y z
#    x 3.762500 0.182010 0.151030 
#    y 0.182010 4.137150 -0.178640 
#    z 0.151030 -0.178640 4.220400 
# 
# 
# High freq. dielectric constant tensor:
#      x y z
#    x 1.850120 0.011620 0.015780 
#    y 0.011620 1.877020 -0.007140 
#    z 0.015780 -0.007140 1.881930 
# 
# From -- ./inp_files/186707.got.cif
#   From: 2010.06.25/outbox.cif.g09.slc.cpg/sg2_94_cif.got.tgz:186707.got - 2010.06.27 13:26:56.
