data_PCOD8012785
_publ_section_title
;
Structure prediction by ZEFSAII (Michael W. Deem and Ramdas Pophale) SiO2 
 PCOD8012785
Probable space group: P -1
;
_chemical_formula_sum "Si O2"
_cell_formula_units_Z 16
_cell_length_a 7.436031
_cell_length_b 12.937809
_cell_length_c 9.478139
_cell_angle_alpha 45.758197
_cell_angle_beta 69.089863
_cell_angle_gamma 68.830526
_cell_volume 601.605604
_symmetry_space_group_name_H-M "P -1"
_symmetry_group_IT_number 2
_symmetry_cell_setting 'triclinic'
loop_
_space_group_symop_operation_xyz
x,y,z
-x,-y,-z
loop_
_atom_site_type_symbol
_atom_site_label
_atom_site_fract_x
_atom_site_fract_y
_atom_site_fract_z
Si Si1 0.947639 0.214249 0.824724
Si Si2 0.405983 0.035767 0.144311
Si Si3 0.968438 0.104598 0.627294
Si Si4 0.675194 0.096027 0.226731
Si Si5 0.932752 0.587246 0.731377
Si Si6 0.318257 0.498840 0.368799
Si Si7 0.252409 0.328656 0.801273
Si Si8 0.426358 0.386530 0.028776
O O1 0.977867 0.095067 0.804940
O O2 0.854962 0.376998 0.638343
O O3 0.150516 0.215634 0.844689
O O4 0.791984 0.185832 0.007483
O O5 0.559238 0.987557 0.273502
O O6 0.221880 0.958477 0.307483
O O7 0.364231 0.216316 0.994184
O O8 0.500000 0.000000 0.000000
O O9 0.962382 0.270374 0.424126
O O10 0.170473 0.000760 0.617288
O O11 0.520692 0.225209 0.217325
O O12 0.781285 0.590376 0.638526
O O13 0.096474 0.444385 0.817263
O O14 0.808388 0.588867 0.910101
O O15 0.386943 0.396594 0.583826
O O16 0.507586 0.567210 0.193552
O O17 0.500000 0.500000 0.000000
#
# Coordination Sequence:
#
# PCOD8012785 Si02
#       8
#     2   2   2   2   2   2   2   2
#     4  10  16  33  58  92 122 164 202 261 317 374
#     4  12  26  38  62 103 140 168 214 264 332 393
#     4  12  21  38  66  93 134 173 210 262 335 385
#     4  11  23  40  62  93 139 173 210 268 328 386
#     4  10  20  37  67  95 125 174 224 265 325 385
#     4   9  17  32  62  98 126 159 222 272 318 380
#     4  11  19  37  66  97 128 168 222 269 323 390
#     4   9  21  40  65  96 129 168 226 273 316 391
#
# _framework density 26.595495
#
# number of rings (size 3 to 8) (size 9 to 14) (size 15 to 20)
#    0.000    1.500    5.000    2.625    0.000    0.500 
#    0.000    6.875    0.000    0.000    0.000    0.000 
#    0.000    0.000    0.000    0.000    0.000    0.000 
#
# Total GULP energy -198311.464717 kJ/mol
# GULP energy per Si atom -12394.466545 kJ/mol
# Density = 2.653496 g / cm^3
# Si number density = 26.595495 Si / 1000 Ang^3
#
#
#
# Elastic Constant Matrix: (Units=GPa)
#
#
# Indices 1 2 3 4 5 6 
#
# 1 89.5703 11.4956 33.5561 -8.2216 -35.1165 -10.9049
# 2 11.4956 92.4880 16.0214 -13.0735 -12.3873 -24.4683
# 3 33.5561 16.0214 86.3932 -6.4201 -28.1305 -6.0823
# 4 -8.2216 -13.0735 -6.4201 37.9985 1.4729 -4.5884
# 5 -35.1165 -12.3873 -28.1305 1.4729 40.8467 -3.4662
# 6 -10.9049 -24.4683 -6.0823 -4.5884 -3.4662 38.4440
#
#
#
# Elastic Compliance Matrix: (Units=1/GPa)
#
#
# Indices 1 2 3 4 5 6 
#
# 1 0.020080 0.003686 -0.001464 0.005891 0.018021 0.010138
# 2 0.003686 0.016029 -0.000066 0.007521 0.008810 0.012929
# 3 -0.001464 -0.000066 0.015723 0.002324 0.009736 0.003185
# 4 0.005891 0.007521 0.002324 0.031607 0.008773 0.011389
# 5 0.018021 0.008810 0.009736 0.008773 0.050551 0.017865
# 6 0.010138 0.012929 0.003185 0.011389 0.017865 0.040591
#
#
# Mechanical properties :
#
#
# Convention : Reuss Voigt Hill
#
# Bulk Modulus (GPa) = 17.81111 43.39973 30.60542
# Shear Modulus (GPa) = 26.45735 37.28307 31.87021
#
# Velocity S-wave (km/s) = 3.15748 3.74820 3.46545
# Velocity P-wave (km/s) = 4.47263 5.92333 5.24835
#
# Compressibility (1/GPa) = 0.05614473
#
# Stress axis : x y z
#
# Youngs Moduli (GPa) = 49.80110 62.38612 63.60130
#
# Poissons Ratio (x) = -0.22997 0.09308
# Poissons Ratio (y) = -0.18358 0.00423
# Poissons Ratio (z) = 0.07288 0.00415
#
# Static dielectric constant tensor:
#      x y z
#    x 4.767690 -0.086060 -0.132470 
#    y -0.086060 5.018190 -0.209170 
#    z -0.132470 -0.209170 4.847990 
# 
# 
# High freq. dielectric constant tensor:
#      x y z
#    x 2.068990 -0.001150 -0.022090 
#    y -0.001150 2.072870 -0.016050 
#    z -0.022090 -0.016050 2.058590 
# 
# From -- ./inp_files/396927.got.cif
#   From: 2010.06.25/outbox.cif.g09.slc.cpg/sg2_199_cif.got.tgz:396927.got - 2010.06.27 13:26:56.
