data_PCOD8012223
_publ_section_title
;
Structure prediction by ZEFSAII (Michael W. Deem and Ramdas Pophale) SiO2 
 PCOD8012223
Probable space group: P -1
;
_chemical_formula_sum "Si O2"
_cell_formula_units_Z 14
_cell_length_a 8.788791
_cell_length_b 12.262713
_cell_length_c 21.239449
_cell_angle_alpha 27.449478
_cell_angle_beta 34.705402
_cell_angle_gamma 45.716869
_cell_volume 596.479632
_symmetry_space_group_name_H-M "P -1"
_symmetry_group_IT_number 2
_symmetry_cell_setting 'triclinic'
loop_
_space_group_symop_operation_xyz
x,y,z
-x,-y,-z
loop_
_atom_site_type_symbol
_atom_site_label
_atom_site_fract_x
_atom_site_fract_y
_atom_site_fract_z
Si Si1 0.624965 0.592976 0.226601
Si Si2 0.303084 0.447165 0.920556
Si Si3 0.435436 0.127163 0.311782
Si Si4 0.786106 0.420456 0.460810
Si Si5 0.167422 0.225141 0.633518
Si Si6 0.690472 0.061026 0.783944
Si Si7 0.010994 0.692182 0.685557
O O1 0.612973 0.622326 0.141678
O O2 0.391488 0.395409 0.432078
O O3 0.580390 0.844295 0.145043
O O4 0.919145 0.519106 0.183936
O O5 0.493682 0.681813 0.755388
O O6 0.000000 0.500000 0.000000
O O7 0.347414 0.224026 0.064622
O O8 0.302181 0.255440 0.231736
O O9 0.697929 0.001437 0.268222
O O10 0.202767 0.929914 0.518379
O O11 0.500000 0.500000 0.500000
O O12 0.939318 0.627879 0.347108
O O13 0.756089 0.170889 0.636653
O O14 0.947935 0.386152 0.360465
O O15 0.927776 0.137301 0.713887
#
# Coordination Sequence:
#
# PCOD8012223 Si02
#       7
#     2   2   2   2   2   2   2
#     4  10  22  42  64  94 126 167 219 266 308 372
#     4  12  26  43  61  94 137 174 210 249 330 386
#     4  10  22  41  60  92 131 167 209 260 315 376
#     4  11  19  39  68  96 123 158 219 265 313 369
#     4  10  21  39  67  99 122 163 220 269 311 361
#     4  11  23  41  66  98 127 167 208 271 316 376
#     4  10  22  41  67  96 124 164 218 270 312 369
#
# _framework density 23.471043999999999
#
# number of rings (size 3 to 8) (size 9 to 14) (size 15 to 20)
#    0.000    1.429    5.714    2.143    4.000    5.714 
#    0.000    5.000    0.000    0.000    0.000    0.000 
#    0.000    0.000    0.000    0.000    0.000    0.000 
#
# Total GULP energy -173533.975079 kJ/mol
# GULP energy per Si atom -12395.283934 kJ/mol
# Density = 2.341762 g / cm^3
# Si number density = 23.471044 Si / 1000 Ang^3
#
#
#
# Elastic Constant Matrix: (Units=GPa)
#
#
# Indices 1 2 3 4 5 6 
#
# 1 102.5618 21.1594 30.9698 -12.9225 10.9832 -22.0520
# 2 21.1594 79.7672 35.1286 -32.7964 13.9847 -13.1946
# 3 30.9698 35.1286 51.7809 -22.9786 14.8514 4.8563
# 4 -12.9225 -32.7964 -22.9786 26.8223 -7.6640 8.9614
# 5 10.9832 13.9847 14.8514 -7.6640 25.0542 -7.5500
# 6 -22.0520 -13.1946 4.8563 8.9614 -7.5500 56.0635
#
#
#
# Elastic Compliance Matrix: (Units=1/GPa)
#
#
# Indices 1 2 3 4 5 6 
#
# 1 0.014247 0.000540 -0.012428 -0.005303 0.001568 0.007866
# 2 0.000540 0.026749 -0.006531 0.025748 -0.002635 0.002603
# 3 -0.012428 -0.006531 0.052000 0.031689 -0.017570 -0.018361
# 4 -0.005303 0.025748 0.031689 0.096725 -0.005766 -0.015009
# 5 0.001568 -0.002635 -0.017570 -0.005766 0.052201 0.009470
# 6 0.007866 0.002603 -0.018361 -0.015009 0.009470 0.026809
#
#
# Mechanical properties :
#
#
# Convention : Reuss Voigt Hill
#
# Bulk Modulus (GPa) = 17.80763 45.40284 31.60523
# Shear Modulus (GPa) = 15.41835 31.37815 23.39825
#
# Velocity S-wave (km/s) = 2.56581 3.66031 3.16080
# Velocity P-wave (km/s) = 4.04739 6.10328 5.17839
#
# Compressibility (1/GPa) = 0.05615571
#
# Stress axis : x y z
#
# Youngs Moduli (GPa) = 70.19064 37.38511 19.23075
#
# Poissons Ratio (x) = -0.02018 0.23900
# Poissons Ratio (y) = -0.03789 0.12561
# Poissons Ratio (z) = 0.87235 0.24418
#
# Static dielectric constant tensor:
#      x y z
#    x 4.652300 -0.414630 0.145740 
#    y -0.414630 5.007520 -0.411690 
#    z 0.145740 -0.411690 3.940450 
# 
# 
# High freq. dielectric constant tensor:
#      x y z
#    x 1.941840 -0.019190 0.005290 
#    y -0.019190 1.944070 -0.028110 
#    z 0.005290 -0.028110 1.885920 
# 
# From -- ./inp_files/244063.got.cif
#   From: 2010.06.25/outbox.cif.g09.slc.cpg/sg2_123_cif.got.tgz:244063.got - 2010.06.27 13:26:56.
