data_PCOD8012587
_publ_section_title
;
Structure prediction by ZEFSAII (Michael W. Deem and Ramdas Pophale) SiO2 
 PCOD8012587
Probable space group: P -1
;
_chemical_formula_sum "Si O2"
_cell_formula_units_Z 16
_cell_length_a 13.246313
_cell_length_b 18.583110
_cell_length_c 10.754421
_cell_angle_alpha 144.939044
_cell_angle_beta 146.165174
_cell_angle_gamma 28.786057
_cell_volume 668.098671
_symmetry_space_group_name_H-M "P -1"
_symmetry_group_IT_number 2
_symmetry_cell_setting 'triclinic'
loop_
_space_group_symop_operation_xyz
x,y,z
-x,-y,-z
loop_
_atom_site_type_symbol
_atom_site_label
_atom_site_fract_x
_atom_site_fract_y
_atom_site_fract_z
Si Si1 0.184759 0.267869 0.389136
Si Si2 0.105194 0.520354 0.824899
Si Si3 0.856740 0.666898 0.019739
Si Si4 0.475343 0.541477 0.335673
Si Si5 0.579116 0.238514 0.600321
Si Si6 0.175165 0.736402 0.529908
Si Si7 0.616352 0.073258 0.172040
Si Si8 0.930017 0.940789 0.086193
O O1 0.152005 0.353200 0.607407
O O2 0.409541 0.229228 0.497565
O O3 0.961259 0.384248 0.237525
O O4 0.195952 0.112036 0.203797
O O5 0.896626 0.628627 0.859476
O O6 0.335108 0.479012 0.061257
O O7 0.579921 0.772822 0.897292
O O8 0.000000 0.500000 0.000000
O O9 0.936977 0.769533 0.295208
O O10 0.545029 0.591478 0.355094
O O11 0.325460 0.686595 0.486938
O O12 0.706235 0.401199 0.440819
O O13 0.698536 0.110841 0.431077
O O14 0.796200 0.193288 0.839268
O O15 0.136069 0.887667 0.768929
O O16 0.842539 0.946764 0.144936
O O17 0.500000 0.000000 0.000000
#
# Coordination Sequence:
#
# PCOD8012587 Si02
#       8
#     2   2   2   2   2   2   2   2
#     4  11  24  43  67  97 132 179 219 270 322 389
#     4  10  22  44  66  96 134 169 225 273 319 388
#     4  11  23  41  69 102 128 172 218 272 334 386
#     4  10  21  40  61  94 126 172 216 271 325 381
#     4  12  22  38  65  96 126 172 223 266 329 380
#     4  10  23  37  62  95 136 165 210 275 333 387
#     4  12  22  36  63  99 133 169 211 275 338 383
#     4  12  24  40  62  99 137 168 216 273 331 390
#
# _framework density 23.948560000000001
#
# number of rings (size 3 to 8) (size 9 to 14) (size 15 to 20)
#    0.000    1.000    5.000    1.875    5.250    0.500 
#    0.000    0.625    0.000    1.500    0.000    0.000 
#    0.000    0.000    0.000    0.000    0.000    0.000 
#
# Total GULP energy -198323.144249 kJ/mol
# GULP energy per Si atom -12395.196516 kJ/mol
# Density = 2.389405 g / cm^3
# Si number density = 23.948560 Si / 1000 Ang^3
#
#
#
# Elastic Constant Matrix: (Units=GPa)
#
#
# Indices 1 2 3 4 5 6 
#
# 1 33.6129 18.9115 28.3040 -3.8828 14.4659 -1.9475
# 2 18.9115 65.9219 35.0983 0.6236 7.0865 -0.7496
# 3 28.3040 35.0983 163.4577 20.2160 8.0833 -17.3414
# 4 -3.8828 0.6236 20.2160 46.2078 -3.0189 7.7269
# 5 14.4659 7.0865 8.0833 -3.0189 35.7504 0.3096
# 6 -1.9475 -0.7496 -17.3414 7.7269 0.3096 26.7967
#
#
#
# Elastic Compliance Matrix: (Units=1/GPa)
#
#
# Indices 1 2 3 4 5 6 
#
# 1 0.047395 -0.008446 -0.006740 0.006516 -0.015405 -0.002855
# 2 -0.008446 0.019109 -0.002988 0.000738 0.000387 -0.002230
# 3 -0.006740 -0.002988 0.009367 -0.005776 0.000652 0.007146
# 4 0.006516 0.000738 -0.005776 0.026589 0.000863 -0.010921
# 5 -0.015405 0.000387 0.000652 0.000863 0.034065 -0.001329
# 6 -0.002855 -0.002230 0.007146 -0.010921 -0.001329 0.044837
#
#
# Mechanical properties :
#
#
# Convention : Reuss Voigt Hill
#
# Bulk Modulus (GPa) = 25.30157 47.51336 36.40746
# Shear Modulus (GPa) = 21.65579 33.79622 27.72601
#
# Velocity S-wave (km/s) = 3.01036 3.76067 3.40624
# Velocity P-wave (km/s) = 4.76140 6.22412 5.54124
#
# Compressibility (1/GPa) = 0.03952324
#
# Stress axis : x y z
#
# Youngs Moduli (GPa) = 21.09917 52.33073 106.76025
#
# Poissons Ratio (x) = 0.44199 0.71959
# Poissons Ratio (y) = 0.17821 0.31896
# Poissons Ratio (z) = 0.14221 0.15635
#
# Static dielectric constant tensor:
#      x y z
#    x 4.188870 -0.257150 0.292420 
#    y -0.257150 4.402030 -0.001230 
#    z 0.292420 -0.001230 4.808420 
# 
# 
# High freq. dielectric constant tensor:
#      x y z
#    x 1.910470 -0.005910 0.025230 
#    y -0.005910 1.932870 0.002170 
#    z 0.025230 0.002170 1.975610 
# 
# From -- ./inp_files/457569.got.cif
#   From: 2010.06.25/outbox.cif.g09.slc.cpg/sg2_229_cif.got.tgz:457569.got - 2010.06.27 13:26:56.
