data_PCOD8012694
_publ_section_title
;
Structure prediction by ZEFSAII (Michael W. Deem and Ramdas Pophale) SiO2 
 PCOD8012694
Probable space group: P -1
;
_chemical_formula_sum "Si O2"
_cell_formula_units_Z 16
_cell_length_a 15.321265
_cell_length_b 14.678691
_cell_length_c 14.989410
_cell_angle_alpha 28.918094
_cell_angle_beta 28.408600
_cell_angle_gamma 45.410747
_cell_volume 741.000645
_symmetry_space_group_name_H-M "P -1"
_symmetry_group_IT_number 2
_symmetry_cell_setting 'triclinic'
loop_
_space_group_symop_operation_xyz
x,y,z
-x,-y,-z
loop_
_atom_site_type_symbol
_atom_site_label
_atom_site_fract_x
_atom_site_fract_y
_atom_site_fract_z
Si Si1 0.637050 0.661629 0.801007
Si Si2 0.631621 0.947871 0.852060
Si Si3 0.044955 0.712259 0.322851
Si Si4 0.259884 0.424315 0.884516
Si Si5 0.576483 0.031426 0.304996
Si Si6 0.514611 0.411868 0.290132
Si Si7 0.295822 0.687736 0.281388
Si Si8 0.162464 0.644948 0.638880
O O1 0.533335 0.831847 0.765513
O O2 0.842832 0.755923 0.486661
O O3 0.500000 0.500000 0.000000
O O4 0.661356 0.547855 0.968218
O O5 0.793083 0.154459 0.512855
O O6 0.738070 0.799877 0.925280
O O7 0.506578 0.854215 0.956810
O O8 0.500000 0.000000 0.000000
O O9 0.153479 0.743344 0.293471
O O10 0.000000 0.500000 0.500000
O O11 0.191615 0.867797 0.992038
O O12 0.416163 0.551280 0.702684
O O13 0.287727 0.511506 0.683795
O O14 0.062375 0.457389 0.066770
O O15 0.500000 0.000000 0.500000
O O16 0.529569 0.818401 0.486370
O O17 0.321640 0.481114 0.399673
O O18 0.210089 0.672319 0.469557
#
# Coordination Sequence:
#
# PCOD8012694 Si02
#       8
#     2   2   2   2   2   2   2   2
#     4  12  23  47  67  95 138 174 221 288 339 394
#     4   9  20  37  62  88 125 171 215 266 328 387
#     4  12  24  44  73  96 136 180 223 277 344 403
#     4  10  22  38  63  94 133 172 216 279 329 393
#     4  12  26  45  70 101 131 178 230 275 338 405
#     4  11  23  43  67  95 139 177 223 283 336 399
#     4  10  22  42  65  94 131 176 222 273 336 399
#     4  10  21  40  62  95 131 171 225 271 331 396
#
# _framework density 21.592424000000001
#
# number of rings (size 3 to 8) (size 9 to 14) (size 15 to 20)
#    0.000    1.250    3.750    1.125    1.750    5.000 
#    6.750    2.500    0.000    0.000    0.000    0.000 
#    0.000    0.000    0.000    0.000    0.000    0.000 
#
# Total GULP energy -198280.256968 kJ/mol
# GULP energy per Si atom -12392.516060 kJ/mol
# Density = 2.154328 g / cm^3
# Si number density = 21.592424 Si / 1000 Ang^3
#
#
#
# Elastic Constant Matrix: (Units=GPa)
#
#
# Indices 1 2 3 4 5 6 
#
# 1 90.5862 9.3467 22.4029 3.5016 6.7003 0.0126
# 2 9.3467 107.8251 32.8718 -15.0966 -8.0910 -7.8050
# 3 22.4029 32.8718 102.7251 -4.8236 3.2828 -4.9072
# 4 3.5016 -15.0966 -4.8236 34.3152 -4.4490 1.2837
# 5 6.7003 -8.0910 3.2828 -4.4490 25.1251 4.6767
# 6 0.0126 -7.8050 -4.9072 1.2837 4.6767 33.4444
#
#
#
# Elastic Compliance Matrix: (Units=1/GPa)
#
#
# Indices 1 2 3 4 5 6 
#
# 1 0.012079 -0.000954 -0.002325 -0.002456 -0.003667 0.000039
# 2 -0.000954 0.011609 -0.003358 0.005350 0.005138 0.001293
# 3 -0.002325 -0.003358 0.011445 0.000042 -0.002172 0.001199
# 4 -0.002456 0.005350 0.000042 0.032888 0.008416 -0.001183
# 5 -0.003667 0.005138 -0.002172 0.008416 0.045282 -0.005773
# 6 0.000039 0.001293 0.001199 -0.001183 -0.005773 0.031231
#
#
# Mechanical properties :
#
#
# Convention : Reuss Voigt Hill
#
# Bulk Modulus (GPa) = 45.75002 47.81991 46.78496
# Shear Modulus (GPa) = 30.28575 34.34460 32.31518
#
# Velocity S-wave (km/s) = 3.74921 3.99254 3.87279
# Velocity P-wave (km/s) = 6.32266 6.59155 6.45851
#
# Compressibility (1/GPa) = 0.02185791
#
# Stress axis : x y z
#
# Youngs Moduli (GPa) = 82.78911 86.13994 87.37454
#
# Poissons Ratio (x) = 0.08222 0.20316
# Poissons Ratio (y) = 0.07902 0.29340
# Poissons Ratio (z) = 0.19250 0.28925
#
# Static dielectric constant tensor:
#      x y z
#    x 3.987000 -0.634530 0.969420 
#    y -0.634530 1.678250 4.670270 
#    z 0.969420 4.670270 -4.807200 
# 
# 
# High freq. dielectric constant tensor:
#      x y z
#    x 1.851180 0.002990 0.001010 
#    y 0.002990 1.853720 0.002410 
#    z 0.001010 0.002410 1.842290 
# 
# From -- ./inp_files/534095.got.cif
#   From: 2010.06.25/outbox.cif.g09.slc.cpg/sg2_268_cif.got.tgz:534095.got - 2010.06.27 13:26:56.
