data_PCOD8012480
_publ_section_title
;
Structure prediction by ZEFSAII (Michael W. Deem and Ramdas Pophale) SiO2 
 PCOD8012480
Probable space group: P -1
;
_chemical_formula_sum "Si O2"
_cell_formula_units_Z 16
_cell_length_a 22.178878
_cell_length_b 7.779257
_cell_length_c 17.388498
_cell_angle_alpha 130.394706
_cell_angle_beta 160.098840
_cell_angle_gamma 58.642933
_cell_volume 730.527940
_symmetry_space_group_name_H-M "P -1"
_symmetry_group_IT_number 2
_symmetry_cell_setting 'triclinic'
loop_
_space_group_symop_operation_xyz
x,y,z
-x,-y,-z
loop_
_atom_site_type_symbol
_atom_site_label
_atom_site_fract_x
_atom_site_fract_y
_atom_site_fract_z
Si Si1 0.512291 0.070413 0.448575
Si Si2 0.363289 0.493035 0.718092
Si Si3 0.349067 0.728828 0.617493
Si Si4 0.973037 0.742766 0.115608
Si Si5 0.613940 0.244901 0.029743
Si Si6 0.140220 0.012159 0.240204
Si Si7 0.757319 0.018543 0.013667
Si Si8 0.579840 0.466360 0.501125
O O1 0.312964 0.886034 0.120735
O O2 0.521083 0.349082 0.539652
O O3 0.500000 0.000000 0.500000
O O4 0.685175 0.044433 0.601893
O O5 0.422812 0.696868 0.781834
O O6 0.532871 0.403371 0.922155
O O7 0.193777 0.276482 0.416990
O O8 0.290627 0.600923 0.736521
O O9 0.391088 0.532385 0.555883
O O10 0.122566 0.664613 0.321483
O O11 0.448100 0.004227 0.788574
O O12 0.936480 0.943236 0.186710
O O13 0.779952 0.524805 0.803431
O O14 0.052019 0.834275 0.152713
O O15 0.781545 0.189177 0.167021
O O16 0.000000 0.000000 0.000000
O O17 0.558572 0.800282 0.725033
#
# Coordination Sequence:
#
# PCOD8012480 Si02
#       8
#     2   2   2   2   2   2   2   2
#     4  11  20  35  55  86 122 160 202 248 300 376
#     4  11  22  40  67  91 117 168 207 258 313 365
#     4  11  21  39  64  93 121 156 212 261 313 366
#     4  11  21  37  58  90 130 164 200 260 319 366
#     4  10  22  43  66  86 123 160 221 254 298 381
#     4  12  23  38  60  95 130 157 205 262 315 371
#     4  10  21  40  60  83 121 171 205 252 309 372
#     4  10  22  36  59  87 121 170 202 243 318 377
#
# _framework density 21.901968
#
# number of rings (size 3 to 8) (size 9 to 14) (size 15 to 20)
#    0.000    1.250    2.500    6.000    0.000    3.000 
#    0.000    1.250    0.000    0.000    0.000    0.000 
#    0.000    0.000    0.000    0.000    0.000    0.000 
#
# Total GULP energy -198208.879638 kJ/mol
# GULP energy per Si atom -12388.054977 kJ/mol
# Density = 2.185212 g / cm^3
# Si number density = 21.901968 Si / 1000 Ang^3
#
#
#
# Elastic Constant Matrix: (Units=GPa)
#
#
# Indices 1 2 3 4 5 6 
#
# 1 167.3066 57.5142 42.2559 -10.9941 -27.0348 -27.2579
# 2 57.5142 88.3959 31.0902 -10.4156 -12.4966 -8.0651
# 3 42.2559 31.0902 68.7852 -5.1321 -16.6389 -11.2125
# 4 -10.9941 -10.4156 -5.1321 27.2749 -2.8237 -7.5574
# 5 -27.0348 -12.4966 -16.6389 -2.8237 42.9404 3.4467
# 6 -27.2579 -8.0651 -11.2125 -7.5574 3.4467 55.6366
#
#
#
# Elastic Compliance Matrix: (Units=1/GPa)
#
#
# Indices 1 2 3 4 5 6 
#
# 1 0.009357 -0.004075 -0.002132 0.003251 0.003790 0.003771
# 2 -0.004075 0.016002 -0.004303 0.003705 0.000674 -0.000083
# 3 -0.002132 -0.004303 0.019532 0.002315 0.004943 0.002276
# 4 0.003251 0.003705 0.002315 0.042685 0.006186 0.008011
# 5 0.003790 0.000674 0.004943 0.006186 0.028028 0.002055
# 6 0.003771 -0.000083 0.002276 0.008011 0.002055 0.021229
#
#
# Mechanical properties :
#
#
# Convention : Reuss Voigt Hill
#
# Bulk Modulus (GPa) = 41.89316 65.13425 53.51371
# Shear Modulus (GPa) = 30.15483 38.07887 34.11685
#
# Velocity S-wave (km/s) = 3.71456 4.17418 3.95106
# Velocity P-wave (km/s) = 6.12914 7.28253 6.73059
#
# Compressibility (1/GPa) = 0.02387024
#
# Stress axis : x y z
#
# Youngs Moduli (GPa) = 106.87393 62.49175 51.19691
#
# Poissons Ratio (x) = 0.25466 0.10916
# Poissons Ratio (y) = 0.43553 0.22031
# Poissons Ratio (z) = 0.22787 0.26892
#
# Static dielectric constant tensor:
#      x y z
#    x 4.819170 -0.022350 -0.251480 
#    y -0.022350 4.198400 0.013900 
#    z -0.251480 0.013900 3.779930 
# 
# 
# High freq. dielectric constant tensor:
#      x y z
#    x 1.890280 -0.011200 -0.017200 
#    y -0.011200 1.863060 -0.001540 
#    z -0.017200 -0.001540 1.825870 
# 
# From -- ./inp_files/578963.got.cif
#   From: 2010.06.25/outbox.cif.g09.slc.cpg/sg2_290_cif.got.tgz:578963.got - 2010.06.27 13:26:56.
