data_PCOD8012502
_publ_section_title
;
Structure prediction by ZEFSAII (Michael W. Deem and Ramdas Pophale) SiO2 
 PCOD8012502
Probable space group: P -1
;
_chemical_formula_sum "Si O2"
_cell_formula_units_Z 14
_cell_length_a 5.253047
_cell_length_b 5.393133
_cell_length_c 26.155153
_cell_angle_alpha 79.306250
_cell_angle_beta 50.556339
_cell_angle_gamma 82.579033
_cell_volume 562.225944
_symmetry_space_group_name_H-M "P -1"
_symmetry_group_IT_number 2
_symmetry_cell_setting 'triclinic'
loop_
_space_group_symop_operation_xyz
x,y,z
-x,-y,-z
loop_
_atom_site_type_symbol
_atom_site_label
_atom_site_fract_x
_atom_site_fract_y
_atom_site_fract_z
Si Si1 0.989210 0.791224 0.692355
Si Si2 0.321304 0.636890 0.428687
Si Si3 0.391466 0.162977 0.894581
Si Si4 0.373812 0.105042 0.458805
Si Si5 0.277132 0.652980 0.061673
Si Si6 0.094770 0.666182 0.343050
Si Si7 0.736145 0.659167 0.831912
O O1 0.790512 0.563223 0.699466
O O2 0.016768 0.728488 0.751800
O O3 0.343758 0.800334 0.619781
O O4 0.791255 0.058078 0.701579
O O5 0.196366 0.378325 0.482750
O O6 0.277190 0.617490 0.374887
O O7 0.698039 0.680552 0.397178
O O8 0.157686 0.899294 0.462066
O O9 0.497581 0.154018 0.941407
O O10 0.527166 0.426673 0.843543
O O11 0.996443 0.182093 0.939379
O O12 0.515375 0.911683 0.859548
O O13 0.500000 0.000000 0.500000
O O14 0.114155 0.446296 0.129589
O O15 0.500000 0.500000 0.000000
#
# Coordination Sequence:
#
# PCOD8012502 Si02
#       7
#     2   2   2   2   2   2   2
#     4  10  21  43  61  93 127 172 212 272 324 387
#     4  10  21  40  60  89 120 158 205 262 317 382
#     4  10  24  42  67 101 133 178 223 269 331 393
#     4  10  21  40  65  94 126 167 216 268 326 387
#     4  10  24  45  70 101 137 176 222 273 329 394
#     4  10  21  40  62  89 119 163 208 256 320 379
#     4  10  24  43  65  98 136 176 225 274 331 397
#
# _framework density 24.901021
#
# number of rings (size 3 to 8) (size 9 to 14) (size 15 to 20)
#    0.857    1.143    0.000    2.571    2.000    1.143 
#   15.429   17.143    0.000    0.000    0.000    0.000 
#    0.000    0.000    0.000    0.000    0.000    0.000 
#
# Total GULP energy -173487.761571 kJ/mol
# GULP energy per Si atom -12391.982969 kJ/mol
# Density = 2.484434 g / cm^3
# Si number density = 24.901021 Si / 1000 Ang^3
#
#
#
# Elastic Constant Matrix: (Units=GPa)
#
#
# Indices 1 2 3 4 5 6 
#
# 1 115.5740 23.5489 16.1358 4.3062 21.7010 -0.8163
# 2 23.5489 193.1867 -7.7218 0.2109 10.7486 25.5006
# 3 16.1358 -7.7218 68.3855 9.9541 20.4489 15.5091
# 4 4.3062 0.2109 9.9541 27.3333 -4.1657 1.6692
# 5 21.7010 10.7486 20.4489 -4.1657 30.7411 4.5496
# 6 -0.8163 25.5006 15.5091 1.6692 4.5496 33.4022
#
#
#
# Elastic Compliance Matrix: (Units=1/GPa)
#
#
# Indices 1 2 3 4 5 6 
#
# 1 0.010482 -0.001241 -0.000638 -0.002681 -0.007294 0.002628
# 2 -0.001241 0.006432 0.003446 -0.001183 -0.002925 -0.006084
# 3 -0.000638 0.003446 0.024196 -0.010598 -0.016645 -0.011084
# 4 -0.002681 -0.001183 -0.010598 0.043060 0.014959 0.001569
# 5 -0.007294 -0.002925 -0.016645 0.014959 0.051501 0.002021
# 6 0.002628 -0.006084 -0.011084 0.001569 0.002021 0.039440
#
#
# Mechanical properties :
#
#
# Convention : Reuss Voigt Hill
#
# Bulk Modulus (GPa) = 22.60227 49.00801 35.80514
# Shear Modulus (GPa) = 26.77686 41.30754 34.04220
#
# Velocity S-wave (km/s) = 3.28278 4.07734 3.70144
# Velocity P-wave (km/s) = 4.84411 6.47226 5.71645
#
# Compressibility (1/GPa) = 0.04424334
#
# Stress axis : x y z
#
# Youngs Moduli (GPa) = 95.39730 155.46213 41.32861
#
# Poissons Ratio (x) = 0.19299 0.02638
# Poissons Ratio (y) = 0.11843 -0.14241
# Poissons Ratio (z) = 0.06089 -0.53568
#
# Static dielectric constant tensor:
#      x y z
#    x 4.124630 0.111570 0.072970 
#    y 0.111570 5.800440 -0.024580 
#    z 0.072970 -0.024580 4.273400 
# 
# 
# High freq. dielectric constant tensor:
#      x y z
#    x 1.977270 0.003720 0.001460 
#    y 0.003720 2.045190 -0.000360 
#    z 0.001460 -0.000360 1.981890 
# 
# From -- ./inp_files/13109.got.cif
#   From: 2010.06.25/outbox.cif.g09.slc.cpg/sg2_7_cif.got.tgz:13109.got - 2010.06.27 13:26:56.
