data_PCOD8012358
_publ_section_title
;
Structure prediction by ZEFSAII (Michael W. Deem and Ramdas Pophale) SiO2 
 PCOD8012358
Probable space group: P -1
;
_chemical_formula_sum "Si O2"
_cell_formula_units_Z 16
_cell_length_a 8.521365
_cell_length_b 12.195313
_cell_length_c 8.377942
_cell_angle_alpha 108.056200
_cell_angle_beta 59.567308
_cell_angle_gamma 99.430054
_cell_volume 713.694770
_symmetry_space_group_name_H-M "P -1"
_symmetry_group_IT_number 2
_symmetry_cell_setting 'triclinic'
loop_
_space_group_symop_operation_xyz
x,y,z
-x,-y,-z
loop_
_atom_site_type_symbol
_atom_site_label
_atom_site_fract_x
_atom_site_fract_y
_atom_site_fract_z
Si Si1 0.413152 0.282911 0.437854
Si Si2 0.906674 0.725060 0.167286
Si Si3 0.070640 0.126607 0.060296
Si Si4 0.633344 0.514647 0.687419
Si Si5 0.229324 0.717150 0.549707
Si Si6 0.742931 0.269737 0.821491
Si Si7 0.427705 0.126070 0.071627
Si Si8 0.721695 0.541963 0.992224
O O1 0.217746 0.284981 0.619612
O O2 0.434055 0.401631 0.379975
O O3 0.571422 0.260632 0.471984
O O4 0.416191 0.173780 0.275211
O O5 0.104881 0.764562 0.143644
O O6 0.841747 0.824581 0.125869
O O7 0.892033 0.603653 0.020371
O O8 0.224732 0.119618 0.108540
O O9 0.916049 0.217027 0.237027
O O10 0.000000 0.000000 0.000000
O O11 0.788447 0.424367 0.505866
O O12 0.704606 0.589001 0.838349
O O13 0.461850 0.433987 0.799123
O O14 0.209130 0.763897 0.400224
O O15 0.736565 0.406016 0.908254
O O16 0.556101 0.205669 0.931238
O O17 0.500000 0.000000 0.000000
#
# Coordination Sequence:
#
# PCOD8012358 Si02
#       8
#     2   2   2   2   2   2   2   2
#     4  12  23  41  71 105 141 182 231 278 347 408
#     4  12  25  41  69 106 138 186 229 282 340 412
#     4  12  28  50  71 100 137 177 236 291 344 409
#     4  10  21  39  70 102 145 184 225 279 343 412
#     4  11  24  43  70 101 137 184 226 286 339 410
#     4  11  24  44  68 102 144 181 233 283 340 408
#     4  12  26  48  74  98 133 185 229 289 349 408
#     4  10  21  40  68 102 146 184 227 276 345 406
#
# _framework density 22.418547
#
# number of rings (size 3 to 8) (size 9 to 14) (size 15 to 20)
#    0.000    0.750    2.500    5.250    1.750    2.000 
#    0.000    8.125    0.000    0.000    0.000    0.000 
#    0.000    0.000    0.000    0.000    0.000    0.000 
#
# Total GULP energy -198328.328265 kJ/mol
# GULP energy per Si atom -12395.520517 kJ/mol
# Density = 2.236752 g / cm^3
# Si number density = 22.418547 Si / 1000 Ang^3
#
#
#
# Elastic Constant Matrix: (Units=GPa)
#
#
# Indices 1 2 3 4 5 6 
#
# 1 114.1006 34.4691 40.5258 13.1013 11.3666 5.8522
# 2 34.4691 115.7703 47.7745 12.9337 10.8804 6.5820
# 3 40.5258 47.7745 96.9437 11.5672 10.7843 6.4998
# 4 13.1013 12.9337 11.5672 31.9216 -4.4296 -1.9015
# 5 11.3666 10.8804 10.7843 -4.4296 35.3318 2.8699
# 6 5.8522 6.5820 6.4998 -1.9015 2.8699 36.1456
#
#
#
# Elastic Compliance Matrix: (Units=1/GPa)
#
#
# Indices 1 2 3 4 5 6 
#
# 1 0.010962 -0.001288 -0.003228 -0.003206 -0.002471 -0.000932
# 2 -0.001288 0.011427 -0.004461 -0.002827 -0.002011 -0.001059
# 3 -0.003228 -0.004461 0.014491 -0.002501 -0.002225 -0.001226
# 4 -0.003206 -0.002827 -0.002501 0.035823 0.006927 0.002818
# 5 -0.002471 -0.002011 -0.002225 0.006927 0.031343 -0.000958
# 6 -0.000932 -0.001059 -0.001226 0.002818 -0.000958 0.028454
#
#
# Mechanical properties :
#
#
# Convention : Reuss Voigt Hill
#
# Bulk Modulus (GPa) = 52.83630 63.59482 58.21556
# Shear Modulus (GPa) = 31.89534 34.28283 33.08908
#
# Velocity S-wave (km/s) = 3.77599 3.91476 3.84600
# Velocity P-wave (km/s) = 6.52917 6.99017 6.76360
#
# Compressibility (1/GPa) = 0.01892638
#
# Stress axis : x y z
#
# Youngs Moduli (GPa) = 91.22551 87.50981 69.00894
#
# Poissons Ratio (x) = 0.11275 0.22273
# Poissons Ratio (y) = 0.11754 0.30783
# Poissons Ratio (z) = 0.29444 0.39036
#
# Static dielectric constant tensor:
#      x y z
#    x 4.360210 0.043740 0.253210 
#    y 0.043740 4.119500 -0.159820 
#    z 0.253210 -0.159820 4.532350 
# 
# 
# High freq. dielectric constant tensor:
#      x y z
#    x 1.901020 0.000030 0.018920 
#    y 0.000030 1.870380 0.005390 
#    z 0.018920 0.005390 1.888490 
# 
# From -- ./inp_files/188232.got.cif
#   From: 2010.06.25/outbox.cif.g09.slc.cpg/sg2_95_cif.got.tgz:188232.got - 2010.06.27 13:26:56.
