data_PCOD8012845
_publ_section_title
;
Structure prediction by ZEFSAII (Michael W. Deem and Ramdas Pophale) SiO2 
 PCOD8012845
Probable space group: P -1
;
_chemical_formula_sum "Si O2"
_cell_formula_units_Z 16
_cell_length_a 11.936826
_cell_length_b 16.244716
_cell_length_c 14.527207
_cell_angle_alpha 141.921976
_cell_angle_beta 37.570828
_cell_angle_gamma 155.281803
_cell_volume 692.845525
_symmetry_space_group_name_H-M "P -1"
_symmetry_group_IT_number 2
_symmetry_cell_setting 'triclinic'
loop_
_space_group_symop_operation_xyz
x,y,z
-x,-y,-z
loop_
_atom_site_type_symbol
_atom_site_label
_atom_site_fract_x
_atom_site_fract_y
_atom_site_fract_z
Si Si1 0.090106 0.739334 0.330205
Si Si2 0.836986 0.354273 0.230639
Si Si3 0.777288 0.421366 0.649246
Si Si4 0.370877 0.108812 0.927775
Si Si5 0.176211 0.991571 0.654778
Si Si6 0.795901 0.006670 0.668697
Si Si7 0.857819 0.747284 0.829558
Si Si8 0.152123 0.928876 0.095347
O O1 0.388453 0.831920 0.232794
O O2 0.850282 0.495067 0.282475
O O3 0.065269 0.847028 0.513014
O O4 0.065350 0.785754 0.284397
O O5 0.523845 0.181843 0.327942
O O6 0.074911 0.502079 0.281766
O O7 0.917450 0.265991 0.042924
O O8 0.513201 0.176095 0.606991
O O9 0.685633 0.518888 0.761723
O O10 0.000000 0.500000 0.500000
O O11 0.379997 0.269519 0.036007
O O12 0.066643 0.883165 0.899261
O O13 0.401150 0.101615 0.012142
O O14 0.096560 0.103767 0.794103
O O15 0.039816 0.847176 0.705429
O O16 0.751792 0.997111 0.797715
O O17 0.000000 0.000000 0.500000
#
# Coordination Sequence:
#
# PCOD8012845 Si02
#       8
#     2   2   2   2   2   2   2   2
#     4  12  25  46  70 106 139 185 235 288 353 415
#     4  12  27  44  74 109 136 183 242 286 348 422
#     4  12  24  40  71 103 146 187 232 276 349 425
#     4  10  21  41  67  97 145 179 227 288 342 403
#     4  11  25  43  69 104 145 185 228 286 347 415
#     4  12  26  51  76  96 142 186 234 302 355 406
#     4  10  21  40  63  99 140 189 226 275 338 416
#     4  11  24  47  71 102 139 184 238 292 346 415
#
# _framework density 23.093171000000002
#
# number of rings (size 3 to 8) (size 9 to 14) (size 15 to 20)
#    0.000    0.750    3.750    3.375    1.750    3.000 
#    0.000    0.000    0.000    0.000    0.000    0.000 
#    0.000    0.000    0.000    0.000    0.000    0.000 
#
# Total GULP energy -198356.648829 kJ/mol
# GULP energy per Si atom -12397.290552 kJ/mol
# Density = 2.304061 g / cm^3
# Si number density = 23.093171 Si / 1000 Ang^3
#
#
#
# Elastic Constant Matrix: (Units=GPa)
#
#
# Indices 1 2 3 4 5 6 
#
# 1 74.4263 21.0119 17.6747 -2.0045 6.2555 -20.2695
# 2 21.0119 82.6786 20.9194 4.2395 -10.2230 -18.8331
# 3 17.6747 20.9194 123.6232 -4.1689 -5.8921 -2.5661
# 4 -2.0045 4.2395 -4.1689 31.7083 -4.6146 -5.1819
# 5 6.2555 -10.2230 -5.8921 -4.6146 36.6095 3.3250
# 6 -20.2695 -18.8331 -2.5661 -5.1819 3.3250 35.2783
#
#
#
# Elastic Compliance Matrix: (Units=1/GPa)
#
#
# Indices 1 2 3 4 5 6 
#
# 1 0.017630 -0.002501 -0.002055 0.002037 -0.004637 0.009381
# 2 -0.002501 0.015084 -0.001926 -0.000914 0.003670 0.005995
# 3 -0.002055 -0.001926 0.008792 0.001256 0.001525 -0.001529
# 4 0.002037 -0.000914 0.001256 0.033311 0.003311 0.005354
# 5 -0.004637 0.003670 0.001525 0.003311 0.030062 -0.002941
# 6 0.009381 0.005995 -0.001529 0.005354 -0.002941 0.037889
#
#
# Mechanical properties :
#
#
# Convention : Reuss Voigt Hill
#
# Bulk Modulus (GPa) = 35.03751 44.43778 39.73764
# Shear Modulus (GPa) = 30.25773 35.46069 32.85921
#
# Velocity S-wave (km/s) = 3.62366 3.92286 3.77622
# Velocity P-wave (km/s) = 5.71953 6.30896 6.02146
#
# Compressibility (1/GPa) = 0.02854084
#
# Stress axis : x y z
#
# Youngs Moduli (GPa) = 56.72259 66.29343 113.73737
#
# Poissons Ratio (x) = 0.16583 0.23371
# Poissons Ratio (y) = 0.14189 0.21911
# Poissons Ratio (z) = 0.11656 0.12771
#
# Static dielectric constant tensor:
#      x y z
#    x 4.125830 -0.323220 -0.125500 
#    y -0.323220 4.044080 0.096570 
#    z -0.125500 0.096570 4.511750 
# 
# 
# High freq. dielectric constant tensor:
#      x y z
#    x 1.913360 -0.030390 -0.012450 
#    y -0.030390 1.897730 -0.005590 
#    z -0.012450 -0.005590 1.927550 
# 
# From -- ./inp_files/521750.got.cif
#   From: 2010.06.25/outbox.cif.g09.slc.cpg/sg2_261_cif.got.tgz:521750.got - 2010.06.27 13:26:56.
