data_PCOD8012360
_publ_section_title
;
Structure prediction by ZEFSAII (Michael W. Deem and Ramdas Pophale) SiO2 
 PCOD8012360
Probable space group: P -1
;
_chemical_formula_sum "Si O2"
_cell_formula_units_Z 16
_cell_length_a 11.536517
_cell_length_b 9.570391
_cell_length_c 9.365220
_cell_angle_alpha 83.689615
_cell_angle_beta 100.308781
_cell_angle_gamma 49.532549
_cell_volume 737.804862
_symmetry_space_group_name_H-M "P -1"
_symmetry_group_IT_number 2
_symmetry_cell_setting 'triclinic'
loop_
_space_group_symop_operation_xyz
x,y,z
-x,-y,-z
loop_
_atom_site_type_symbol
_atom_site_label
_atom_site_fract_x
_atom_site_fract_y
_atom_site_fract_z
Si Si1 0.929633 0.367976 0.129447
Si Si2 0.567753 0.431496 0.678335
Si Si3 0.268396 0.984958 0.173943
Si Si4 0.507049 0.966178 0.838742
Si Si5 0.340604 0.635569 0.850092
Si Si6 0.012017 0.538372 0.335873
Si Si7 0.746275 0.564029 0.799372
Si Si8 0.785819 0.955583 0.181419
O O1 0.792956 0.365678 0.132668
O O2 0.907564 0.517017 0.216177
O O3 0.111402 0.160380 0.208974
O O4 0.905725 0.424800 0.950967
O O5 0.500000 0.500000 0.500000
O O6 0.405621 0.540396 0.720783
O O7 0.669891 0.480706 0.745410
O O8 0.692125 0.202558 0.745842
O O9 0.425178 0.955770 0.244061
O O10 0.237494 0.021161 0.995390
O O11 0.619411 0.743083 0.853013
O O12 0.327143 0.062110 0.751828
O O13 0.500000 0.000000 0.000000
O O14 0.248467 0.859686 0.792960
O O15 0.500000 0.500000 0.000000
O O16 0.000000 0.500000 0.500000
O O17 0.196722 0.393214 0.332463
O O18 0.958253 0.747013 0.282600
#
# Coordination Sequence:
#
# PCOD8012360 Si02
#       8
#     2   2   2   2   2   2   2   2
#     4  12  24  44  74 103 139 181 242 290 339 427
#     4  12  29  46  68 103 147 184 229 295 357 413
#     4  11  23  42  70 105 134 184 236 283 353 412
#     4  10  21  39  70 103 132 172 238 293 335 401
#     4  12  24  45  71 105 135 183 241 286 343 419
#     4  12  29  45  67 107 147 185 227 294 363 412
#     4  12  23  48  73 100 141 188 237 285 349 425
#     4  11  22  42  71  98 136 184 237 287 339 419
#
# _framework density 21.685949000000001
#
# number of rings (size 3 to 8) (size 9 to 14) (size 15 to 20)
#    0.000    0.500    6.250    1.875    7.000    2.000 
#    0.000    2.500    0.000    0.000    0.000    0.000 
#    0.000    0.000    0.000    0.000    0.000    0.000 
#
# Total GULP energy -198274.218127 kJ/mol
# GULP energy per Si atom -12392.138633 kJ/mol
# Density = 2.163659 g / cm^3
# Si number density = 21.685949 Si / 1000 Ang^3
#
#
#
# Elastic Constant Matrix: (Units=GPa)
#
#
# Indices 1 2 3 4 5 6 
#
# 1 106.1306 14.6625 29.6368 10.0257 -9.7972 -1.1851
# 2 14.6625 132.1171 46.9175 3.7067 -3.2658 9.1446
# 3 29.6368 46.9175 115.0555 2.5532 -16.5186 1.1281
# 4 10.0257 3.7067 2.5532 23.1569 0.3240 -5.0150
# 5 -9.7972 -3.2658 -16.5186 0.3240 29.6088 8.4749
# 6 -1.1851 9.1446 1.1281 -5.0150 8.4749 37.6614
#
#
#
# Elastic Compliance Matrix: (Units=1/GPa)
#
#
# Indices 1 2 3 4 5 6 
#
# 1 0.010724 -0.000158 -0.002223 -0.004568 0.002553 -0.000740
# 2 -0.000158 0.009071 -0.003670 -0.001446 -0.000458 -0.002187
# 3 -0.002223 -0.003670 0.011561 0.000032 0.005528 -0.000765
# 4 -0.004568 -0.001446 0.000032 0.047061 -0.004298 0.007440
# 5 0.002553 -0.000458 0.005528 -0.004298 0.040462 -0.009651
# 6 -0.000740 -0.002187 -0.000765 0.007440 -0.009651 0.030246
#
#
# Mechanical properties :
#
#
# Convention : Reuss Voigt Hill
#
# Bulk Modulus (GPa) = 51.93937 59.52632 55.73284
# Shear Modulus (GPa) = 29.82515 35.55784 32.69150
#
# Velocity S-wave (km/s) = 3.71256 4.05368 3.88686
# Velocity P-wave (km/s) = 6.51000 7.02984 6.77491
#
# Compressibility (1/GPa) = 0.01925322
#
# Stress axis : x y z
#
# Youngs Moduli (GPa) = 93.25017 110.24605 86.49701
#
# Poissons Ratio (x) = 0.01746 0.19225
# Poissons Ratio (y) = 0.01476 0.31746
# Poissons Ratio (z) = 0.20726 0.40463
#
# Static dielectric constant tensor:
#      x y z
#    x 5.093890 -0.529760 -0.771750 
#    y -0.529760 4.505530 0.610740 
#    z -0.771750 0.610740 3.950470 
# 
# 
# High freq. dielectric constant tensor:
#      x y z
#    x 1.870850 -0.002730 -0.015120 
#    y -0.002730 1.869180 0.017960 
#    z -0.015120 0.017960 1.815380 
# 
# From -- ./inp_files/243878.got.cif
#   From: 2010.06.25/outbox.cif.g09.slc.cpg/sg2_122_cif.got.tgz:243878.got - 2010.06.27 13:26:56.
