data_PCOD8012763
_publ_section_title
;
Structure prediction by ZEFSAII (Michael W. Deem and Ramdas Pophale) SiO2 
 PCOD8012763
Probable space group: P -1
;
_chemical_formula_sum "Si O2"
_cell_formula_units_Z 16
_cell_length_a 24.259841
_cell_length_b 9.602575
_cell_length_c 8.622086
_cell_angle_alpha 62.185054
_cell_angle_beta 55.971384
_cell_angle_gamma 26.934767
_cell_volume 751.240213
_symmetry_space_group_name_H-M "P -1"
_symmetry_group_IT_number 2
_symmetry_cell_setting 'triclinic'
loop_
_space_group_symop_operation_xyz
x,y,z
-x,-y,-z
loop_
_atom_site_type_symbol
_atom_site_label
_atom_site_fract_x
_atom_site_fract_y
_atom_site_fract_z
Si Si1 0.826633 0.235699 0.367150
Si Si2 0.540920 0.166787 0.619831
Si Si3 0.296074 0.448057 0.299395
Si Si4 0.876314 0.284497 0.834077
Si Si5 0.492555 0.291812 0.967213
Si Si6 0.235769 0.796949 0.798924
Si Si7 0.679171 0.100444 0.197937
Si Si8 0.273902 0.263506 0.902564
O O1 0.772810 0.307408 0.585709
O O2 0.822617 0.084203 0.347382
O O3 0.731772 0.558145 0.268375
O O4 0.969925 0.015185 0.267492
O O5 0.581883 0.105002 0.768751
O O6 0.387586 0.452515 0.716388
O O7 0.583141 0.225331 0.415071
O O8 0.611222 0.868367 0.598835
O O9 0.188220 0.570276 0.308871
O O10 0.379600 0.388653 0.085044
O O11 0.824079 0.528120 0.905053
O O12 0.842723 0.179956 0.003204
O O13 0.413684 0.617487 0.924600
O O14 0.580052 0.077402 0.091381
O O15 0.219597 0.991689 0.820711
O O16 0.763078 0.800558 0.127121
#
# Coordination Sequence:
#
# PCOD8012763 Si02
#       8
#     2   2   2   2   2   2   2   2
#     4  11  25  40  64  92 123 172 215 260 296 363
#     4  11  21  39  65  95 128 163 196 258 324 371
#     4  12  21  40  67  92 125 160 221 257 306 365
#     4  11  22  44  64  88 124 170 217 259 300 356
#     4  11  22  38  65  96 129 163 197 261 320 374
#     4  10  21  40  63  90 126 161 205 253 314 371
#     4  11  23  41  62 100 130 164 191 255 335 378
#     4  11  22  39  65  94 126 159 211 253 312 377
#
# _framework density 21.298116
#
# number of rings (size 3 to 8) (size 9 to 14) (size 15 to 20)
#    0.000    1.000    5.000    5.625    1.750    1.000 
#    2.250    2.500    0.000    1.500    0.000    0.000 
#    0.000    0.000    0.000    0.000    0.000    0.000 
#
# Total GULP energy -198286.011151 kJ/mol
# GULP energy per Si atom -12392.875697 kJ/mol
# Density = 2.124964 g / cm^3
# Si number density = 21.298116 Si / 1000 Ang^3
#
#
#
# Elastic Constant Matrix: (Units=GPa)
#
#
# Indices 1 2 3 4 5 6 
#
# 1 126.9946 32.5814 36.3511 8.3208 14.0288 10.7506
# 2 32.5814 45.2099 25.1394 -4.2608 0.0963 5.1931
# 3 36.3511 25.1394 74.9293 2.8032 2.3577 -3.2364
# 4 8.3208 -4.2608 2.8032 24.8973 5.7546 4.7987
# 5 14.0288 0.0963 2.3577 5.7546 33.5245 4.5955
# 6 10.7506 5.1931 -3.2364 4.7987 4.5955 31.2492
#
#
#
# Elastic Compliance Matrix: (Units=1/GPa)
#
#
# Indices 1 2 3 4 5 6 
#
# 1 0.011200 -0.006378 -0.003149 -0.003244 -0.003603 -0.002091
# 2 -0.006378 0.033126 -0.008706 0.009384 0.002399 -0.006006
# 3 -0.003149 -0.008706 0.018137 -0.003426 -0.000021 0.004938
# 4 -0.003244 0.009384 -0.003426 0.045832 -0.005329 -0.007053
# 5 -0.003603 0.002399 -0.000021 -0.005329 0.032678 -0.003148
# 6 -0.002091 -0.006006 0.004938 -0.007053 -0.003148 0.035776
#
#
# Mechanical properties :
#
#
# Convention : Reuss Voigt Hill
#
# Bulk Modulus (GPa) = 38.46697 48.36416 43.41556
# Shear Modulus (GPa) = 22.53488 28.13832 25.33660
#
# Velocity S-wave (km/s) = 3.25633 3.63873 3.45282
# Velocity P-wave (km/s) = 5.67791 6.35698 6.02702
#
# Compressibility (1/GPa) = 0.02599633
#
# Stress axis : x y z
#
# Youngs Moduli (GPa) = 89.28784 30.18816 55.13718
#
# Poissons Ratio (x) = 0.19254 0.17363
# Poissons Ratio (y) = 0.56949 0.48000
# Poissons Ratio (z) = 0.28118 0.26281
#
# Static dielectric constant tensor:
#      x y z
#    x 4.141110 0.079420 0.312040 
#    y 0.079420 3.644980 -0.033790 
#    z 0.312040 -0.033790 3.753630 
# 
# 
# High freq. dielectric constant tensor:
#      x y z
#    x 1.839540 0.003940 0.020440 
#    y 0.003940 1.811250 0.003370 
#    z 0.020440 0.003370 1.827140 
# 
# From -- ./inp_files/189217.got.cif
#   From: 2010.06.25/outbox.cif.g09.slc.cpg/sg2_95_cif.got.tgz:189217.got - 2010.06.27 13:26:56.
