data_PCOD8012580
_publ_section_title
;
Structure prediction by ZEFSAII (Michael W. Deem and Ramdas Pophale) SiO2 
 PCOD8012580
Probable space group: P -1
;
_chemical_formula_sum "Si O2"
_cell_formula_units_Z 16
_cell_length_a 7.081244
_cell_length_b 19.611063
_cell_length_c 8.254418
_cell_angle_alpha 139.930819
_cell_angle_beta 80.119362
_cell_angle_gamma 103.727607
_cell_volume 716.715676
_symmetry_space_group_name_H-M "P -1"
_symmetry_group_IT_number 2
_symmetry_cell_setting 'triclinic'
loop_
_space_group_symop_operation_xyz
x,y,z
-x,-y,-z
loop_
_atom_site_type_symbol
_atom_site_label
_atom_site_fract_x
_atom_site_fract_y
_atom_site_fract_z
Si Si1 0.599827 0.590319 0.528313
Si Si2 0.363623 0.595141 0.014055
Si Si3 0.736590 0.722381 0.029431
Si Si4 0.863923 0.134112 0.248512
Si Si5 0.856096 0.234885 0.779161
Si Si6 0.596764 0.286021 0.460685
Si Si7 0.507914 0.884325 0.225433
Si Si8 0.708463 0.896428 0.878712
O O1 0.500000 0.500000 0.500000
O O2 0.761356 0.669617 0.751517
O O3 0.446959 0.664186 0.616631
O O4 0.689614 0.531528 0.257443
O O5 0.198445 0.652366 0.062786
O O6 0.363653 0.612824 0.238938
O O7 0.578277 0.641208 0.003580
O O8 0.663311 0.835483 0.223079
O O9 0.933279 0.742485 0.134604
O O10 0.850860 0.155261 0.481306
O O11 0.782078 0.224161 0.318238
O O12 0.084962 0.135997 0.164621
O O13 0.739567 0.015638 0.013547
O O14 0.706839 0.184223 0.847044
O O15 0.411214 0.196755 0.388542
O O16 0.500000 0.000000 0.500000
O O17 0.566596 0.889527 0.040177
#
# Coordination Sequence:
#
# PCOD8012580 Si02
#       8
#     2   2   2   2   2   2   2   2
#     4  10  21  41  64  95 129 163 214 272 328 375
#     4   9  21  39  66  91 125 166 213 268 322 377
#     4  10  21  40  61  92 130 168 211 264 317 382
#     4  10  23  41  63  94 131 169 216 256 317 381
#     4  10  21  40  64  91 128 172 213 261 317 378
#     4  11  21  41  66  91 129 171 211 260 323 382
#     4  11  22  40  60  93 132 169 214 258 319 378
#     4  11  22  41  62  98 129 168 214 263 312 383
#
# _framework density 22.324052999999999
#
# number of rings (size 3 to 8) (size 9 to 14) (size 15 to 20)
#    0.000    1.750    2.500    1.500    0.000    2.000 
#    4.500    2.500    0.000    9.000    0.000    0.000 
#    0.000    0.000    0.000    0.000    0.000    0.000 
#
# Total GULP energy -198327.140327 kJ/mol
# GULP energy per Si atom -12395.446270 kJ/mol
# Density = 2.227324 g / cm^3
# Si number density = 22.324053 Si / 1000 Ang^3
#
#
#
# Elastic Constant Matrix: (Units=GPa)
#
#
# Indices 1 2 3 4 5 6 
#
# 1 111.8363 22.9888 36.4106 3.2930 5.1985 -18.6353
# 2 22.9888 66.8056 25.7181 6.0425 -2.3238 -16.5481
# 3 36.4106 25.7181 115.5683 19.4648 -1.7474 -14.5434
# 4 3.2930 6.0425 19.4648 28.6661 -1.8276 -5.7349
# 5 5.1985 -2.3238 -1.7474 -1.8276 28.2369 -7.5112
# 6 -18.6353 -16.5481 -14.5434 -5.7349 -7.5112 29.4602
#
#
#
# Elastic Compliance Matrix: (Units=1/GPa)
#
#
# Indices 1 2 3 4 5 6 
#
# 1 0.010989 -0.001736 -0.002818 0.001897 -0.000965 0.004709
# 2 -0.001736 0.018989 -0.002426 0.000006 0.004248 0.009455
# 3 -0.002818 -0.002426 0.011379 -0.006538 0.000986 0.001451
# 4 0.001897 0.000006 -0.006538 0.040710 0.003702 0.006845
# 5 -0.000965 0.004248 0.000986 0.003702 0.039731 0.013113
# 6 0.004709 0.009455 0.001451 0.006845 0.013113 0.047626
#
#
# Mechanical properties :
#
#
# Convention : Reuss Voigt Hill
#
# Bulk Modulus (GPa) = 36.49704 51.60502 44.05103
# Shear Modulus (GPa) = 25.97187 31.21218 28.59203
#
# Velocity S-wave (km/s) = 3.41457 3.74323 3.58267
# Velocity P-wave (km/s) = 5.65066 6.46907 6.07367
#
# Compressibility (1/GPa) = 0.02739949
#
# Stress axis : x y z
#
# Youngs Moduli (GPa) = 90.99704 52.66134 87.87942
#
# Poissons Ratio (x) = 0.09140 0.24761
# Poissons Ratio (y) = 0.15794 0.21319
# Poissons Ratio (z) = 0.25639 0.12775
#
# Static dielectric constant tensor:
#      x y z
#    x 3.988720 -0.107990 0.173960 
#    y -0.107990 3.637150 0.276000 
#    z 0.173960 0.276000 5.078530 
# 
# 
# High freq. dielectric constant tensor:
#      x y z
#    x 1.863610 -0.016120 -0.003200 
#    y -0.016120 1.865820 0.009030 
#    z -0.003200 0.009030 1.901290 
# 
# From -- ./inp_files/141270.got.cif
#   From: 2010.06.25/outbox.cif.g09.slc.cpg/sg2_71_cif.got.tgz:141270.got - 2010.06.27 13:26:56.
