data_PCOD8012241
_publ_section_title
;
Structure prediction by ZEFSAII (Michael W. Deem and Ramdas Pophale) SiO2 
 PCOD8012241
Probable space group: P -1
;
_chemical_formula_sum "Si O2"
_cell_formula_units_Z 16
_cell_length_a 9.243424
_cell_length_b 23.031868
_cell_length_c 9.284377
_cell_angle_alpha 150.251193
_cell_angle_beta 52.199504
_cell_angle_gamma 125.513964
_cell_volume 768.943141
_symmetry_space_group_name_H-M "P -1"
_symmetry_group_IT_number 2
_symmetry_cell_setting 'triclinic'
loop_
_space_group_symop_operation_xyz
x,y,z
-x,-y,-z
loop_
_atom_site_type_symbol
_atom_site_label
_atom_site_fract_x
_atom_site_fract_y
_atom_site_fract_z
Si Si1 0.951585 0.811464 0.399565
Si Si2 0.951736 0.624208 0.744637
Si Si3 0.305612 0.030219 0.242233
Si Si4 0.150043 0.219167 0.287288
Si Si5 0.616642 0.622958 0.726339
Si Si6 0.552674 0.188761 0.600179
Si Si7 0.825120 0.218623 0.262372
Si Si8 0.296075 0.971523 0.626830
O O1 0.800321 0.899917 0.658410
O O2 0.908394 0.750709 0.450597
O O3 0.928951 0.707442 0.073266
O O4 0.154240 0.888024 0.431964
O O5 0.768373 0.609953 0.728293
O O6 0.000000 0.500000 0.500000
O O7 0.126577 0.678305 0.659708
O O8 0.350039 0.112755 0.534309
O O9 0.500000 0.000000 0.000000
O O10 0.186520 0.905768 0.085205
O O11 0.302722 0.321573 0.353738
O O12 0.977081 0.219155 0.291702
O O13 0.219452 0.092078 0.969919
O O14 0.500000 0.500000 0.500000
O O15 0.470185 0.706003 0.051665
O O16 0.634932 0.237262 0.500307
O O17 0.690839 0.102110 0.392770
O O18 0.500000 0.000000 0.500000
#
# Coordination Sequence:
#
# PCOD8012241 Si02
#       8
#     2   2   2   2   2   2   2   2
#     4  12  24  44  69 101 139 174 222 280 327 405
#     4  11  28  47  65  93 127 180 238 277 326 383
#     4  10  21  39  68 102 135 167 212 271 341 405
#     4  11  22  42  68 100 132 175 215 268 339 403
#     4  11  26  47  66  91 130 175 228 279 330 395
#     4  11  22  43  64 103 134 170 216 268 342 404
#     4  10  22  42  69  93 135 176 211 270 338 399
#     4  12  24  38  68 106 142 174 215 266 339 413
#
# _framework density 20.807779
#
# number of rings (size 3 to 8) (size 9 to 14) (size 15 to 20)
#    0.000    1.000    5.000    1.875    3.500    1.500 
#    4.500    3.750    0.000    0.000    0.000    0.000 
#    0.000    0.000    0.000    0.000    0.000    0.000 
#
# Total GULP energy -198355.922054 kJ/mol
# GULP energy per Si atom -12397.245128 kJ/mol
# Density = 2.076042 g / cm^3
# Si number density = 20.807779 Si / 1000 Ang^3
#
#
#
# Elastic Constant Matrix: (Units=GPa)
#
#
# Indices 1 2 3 4 5 6 
#
# 1 97.8290 54.3291 50.3159 12.6054 13.3878 -5.6730
# 2 54.3291 150.2534 82.0884 14.4141 8.0042 0.5811
# 3 50.3159 82.0884 111.8058 13.6222 17.9467 3.7799
# 4 12.6054 14.4141 13.6222 36.4412 1.1242 -1.2463
# 5 13.3878 8.0042 17.9467 1.1242 39.9121 9.2977
# 6 -5.6730 0.5811 3.7799 -1.2463 9.2977 28.5423
#
#
#
# Elastic Compliance Matrix: (Units=1/GPa)
#
#
# Indices 1 2 3 4 5 6 
#
# 1 0.014874 -0.002860 -0.003879 -0.002291 -0.003685 0.004628
# 2 -0.002860 0.011822 -0.007608 -0.000928 0.002163 -0.000547
# 3 -0.003879 -0.007608 0.017304 -0.002029 -0.004543 -0.001516
# 4 -0.002291 -0.000928 -0.002029 0.029362 0.000844 0.000839
# 5 -0.003685 0.002163 -0.004543 0.000844 0.030200 -0.009976
# 6 0.004628 -0.000547 -0.001516 0.000839 -0.009976 0.039454
#
#
# Mechanical properties :
#
#
# Convention : Reuss Voigt Hill
#
# Bulk Modulus (GPa) = 65.34481 81.48389 73.41435
# Shear Modulus (GPa) = 28.27846 32.52279 30.40062
#
# Velocity S-wave (km/s) = 3.69051 3.95778 3.82648
# Velocity P-wave (km/s) = 7.04500 7.75440 7.40819
#
# Compressibility (1/GPa) = 0.01530343
#
# Stress axis : x y z
#
# Youngs Moduli (GPa) = 67.23340 84.58544 57.79118
#
# Poissons Ratio (x) = 0.24196 0.22418
# Poissons Ratio (y) = 0.19232 0.43970
# Poissons Ratio (z) = 0.26081 0.64356
#
# Static dielectric constant tensor:
#      x y z
#    x 4.023950 0.036760 0.268500 
#    y 0.036760 4.099690 0.061680 
#    z 0.268500 0.061680 3.540680 
# 
# 
# High freq. dielectric constant tensor:
#      x y z
#    x 1.828250 0.003390 0.005410 
#    y 0.003390 1.817220 0.000080 
#    z 0.005410 0.000080 1.804730 
# 
# From -- ./inp_files/185410.got.cif
#   From: 2010.06.25/outbox.cif.g09.slc.cpg/sg2_93_cif.got.tgz:185410.got - 2010.06.27 13:26:56.
