data_PCOD8012289
_publ_section_title
;
Structure prediction by ZEFSAII (Michael W. Deem and Ramdas Pophale) SiO2 
 PCOD8012289
Probable space group: P -1
;
_chemical_formula_sum "Si O2"
_cell_formula_units_Z 16
_cell_length_a 12.521124
_cell_length_b 9.276560
_cell_length_c 11.541307
_cell_angle_alpha 126.944065
_cell_angle_beta 48.552327
_cell_angle_gamma 99.884471
_cell_volume 743.641120
_symmetry_space_group_name_H-M "P -1"
_symmetry_group_IT_number 2
_symmetry_cell_setting 'triclinic'
loop_
_space_group_symop_operation_xyz
x,y,z
-x,-y,-z
loop_
_atom_site_type_symbol
_atom_site_label
_atom_site_fract_x
_atom_site_fract_y
_atom_site_fract_z
Si Si1 0.375934 0.539586 0.781516
Si Si2 0.599457 0.236490 0.328851
Si Si3 0.467803 0.290748 0.085959
Si Si4 0.141415 0.984620 0.809879
Si Si5 0.956656 0.618452 0.404494
Si Si6 0.370153 0.120922 0.297215
Si Si7 0.160693 0.632854 0.469050
Si Si8 0.880042 0.602102 0.038889
O O1 0.543757 0.413189 0.546345
O O2 0.305284 0.712755 0.820349
O O3 0.403834 0.629621 0.924876
O O4 0.280516 0.405828 0.808372
O O5 0.716267 0.052314 0.222754
O O6 0.446047 0.205059 0.383527
O O7 0.410073 0.186292 0.176950
O O8 0.322372 0.471861 0.226490
O O9 0.557634 0.114335 0.848115
O O10 0.176836 0.822702 0.605196
O O11 0.123332 0.181801 0.854955
O O12 0.000000 0.000000 0.000000
O O13 0.816590 0.791780 0.524340
O O14 0.900190 0.462852 0.430037
O O15 0.040798 0.701747 0.481247
O O16 0.078728 0.504172 0.164933
O O17 0.000000 0.500000 0.000000
#
# Coordination Sequence:
#
# PCOD8012289 Si02
#       8
#     2   2   2   2   2   2   2   2
#     4  10  21  40  64  92 132 174 211 276 327 394
#     4  10  21  39  68  96 128 169 227 268 324 391
#     4   9  18  36  61  92 125 167 215 266 325 384
#     4  12  24  40  68 100 129 173 224 272 331 395
#     4  10  22  41  65  96 134 172 218 274 328 390
#     4   9  19  34  64  95 123 166 220 267 317 384
#     4  10  21  41  67  97 129 169 225 273 323 394
#     4  12  26  42  63  97 138 172 219 276 340 389
#
# _framework density 21.515754999999999
#
# number of rings (size 3 to 8) (size 9 to 14) (size 15 to 20)
#    0.000    1.750    2.500    1.500    3.500    4.500 
#    0.000    4.375    0.000    0.000    0.000    0.000 
#    0.000    0.000    0.000    0.000    0.000    0.000 
#
# Total GULP energy -198310.389273 kJ/mol
# GULP energy per Si atom -12394.399330 kJ/mol
# Density = 2.146678 g / cm^3
# Si number density = 21.515755 Si / 1000 Ang^3
#
#
#
# Elastic Constant Matrix: (Units=GPa)
#
#
# Indices 1 2 3 4 5 6 
#
# 1 130.0504 56.6024 45.0492 16.6377 -11.0571 -3.9429
# 2 56.6024 110.6681 39.3877 16.5460 -5.1554 8.5242
# 3 45.0492 39.3877 94.5036 21.6644 -0.3233 2.8787
# 4 16.6377 16.5460 21.6644 33.1743 -1.3286 -1.1980
# 5 -11.0571 -5.1554 -0.3233 -1.3286 30.3040 4.8911
# 6 -3.9429 8.5242 2.8787 -1.1980 4.8911 29.6134
#
#
#
# Elastic Compliance Matrix: (Units=1/GPa)
#
#
# Indices 1 2 3 4 5 6 
#
# 1 0.011243 -0.004482 -0.003327 -0.001024 0.002840 0.002600
# 2 -0.004482 0.013027 -0.002535 -0.002708 0.001145 -0.004399
# 3 -0.003327 -0.002535 0.014825 -0.006855 -0.001599 -0.001168
# 4 -0.001024 -0.002708 -0.006855 0.036594 0.000254 0.002748
# 5 0.002840 0.001145 -0.001599 0.000254 0.035126 -0.005587
# 6 0.002600 -0.004399 -0.001168 0.002748 -0.005587 0.036528
#
#
# Mechanical properties :
#
#
# Convention : Reuss Voigt Hill
#
# Bulk Modulus (GPa) = 54.31689 68.58897 61.45293
# Shear Modulus (GPa) = 28.70814 31.56387 30.13600
#
# Velocity S-wave (km/s) = 3.65675 3.83431 3.74658
# Velocity P-wave (km/s) = 6.56727 7.17985 6.88038
#
# Compressibility (1/GPa) = 0.01841048
#
# Stress axis : x y z
#
# Youngs Moduli (GPa) = 88.94085 76.76229 67.45156
#
# Poissons Ratio (x) = 0.34401 0.22439
# Poissons Ratio (y) = 0.39859 0.17096
# Poissons Ratio (z) = 0.29588 0.19456
#
# Static dielectric constant tensor:
#      x y z
#    x 3.845940 -0.223950 -0.000170 
#    y -0.223950 3.398610 0.340730 
#    z -0.000170 0.340730 3.868690 
# 
# 
# High freq. dielectric constant tensor:
#      x y z
#    x 1.852230 0.003810 -0.000090 
#    y 0.003810 1.819220 0.016540 
#    z -0.000090 0.016540 1.839880 
# 
# From -- ./inp_files/419813.got.cif
#   From: 2010.06.25/outbox.cif.g09.slc.cpg/sg2_210_cif.got.tgz:419813.got - 2010.06.27 13:26:56.
