data_PCOD8012515
_publ_section_title
;
Structure prediction by ZEFSAII (Michael W. Deem and Ramdas Pophale) SiO2 
 PCOD8012515
Probable space group: P -1
;
_chemical_formula_sum "Si O2"
_cell_formula_units_Z 16
_cell_length_a 8.777768
_cell_length_b 16.980437
_cell_length_c 9.563658
_cell_angle_alpha 136.750202
_cell_angle_beta 113.149817
_cell_angle_gamma 51.109282
_cell_volume 754.688715
_symmetry_space_group_name_H-M "P -1"
_symmetry_group_IT_number 2
_symmetry_cell_setting 'triclinic'
loop_
_space_group_symop_operation_xyz
x,y,z
-x,-y,-z
loop_
_atom_site_type_symbol
_atom_site_label
_atom_site_fract_x
_atom_site_fract_y
_atom_site_fract_z
Si Si1 0.815725 0.948385 0.275840
Si Si2 0.997177 0.285227 0.443119
Si Si3 0.443504 0.455025 0.783260
Si Si4 0.394208 0.791012 0.107794
Si Si5 0.434037 0.206632 0.542668
Si Si6 0.613598 0.526244 0.692163
Si Si7 0.954108 0.934226 0.617401
Si Si8 0.910785 0.288323 0.096049
O O1 0.580249 0.051676 0.338309
O O2 0.893645 0.019591 0.292950
O O3 0.904013 0.908902 0.411657
O O4 0.885777 0.803779 0.037824
O O5 0.214567 0.251136 0.491013
O O6 0.953034 0.198204 0.422387
O O7 0.844771 0.445763 0.632577
O O8 0.956904 0.257958 0.236637
O O9 0.489324 0.302952 0.608063
O O10 0.590585 0.457989 0.731924
O O11 0.209272 0.551000 0.779199
O O12 0.500000 0.500000 0.000000
O O13 0.542794 0.780102 0.266392
O O14 0.245802 0.950996 0.222629
O O15 0.523257 0.689011 0.894464
O O16 0.248140 0.747827 0.059119
O O17 0.500000 0.500000 0.500000
#
# Coordination Sequence:
#
# PCOD8012515 Si02
#       8
#     2   2   2   2   2   2   2   2
#     4   9  20  39  66  89 117 160 219 237 287 368
#     4  12  25  38  60  94 133 153 193 257 320 349
#     4  11  21  41  71  84 115 166 211 249 291 360
#     4   9  19  39  61  86 120 152 211 240 286 360
#     4  11  23  40  62  93 121 160 203 252 303 362
#     4  11  21  41  63  90 121 157 200 256 300 356
#     4   9  20  38  65  91 116 163 206 251 288 359
#     4  10  21  40  60  92 122 157 206 252 291 366
#
# _framework density 21.200793000000001
#
# number of rings (size 3 to 8) (size 9 to 14) (size 15 to 20)
#    0.000    1.750    5.000    1.500    1.750    5.500 
#    2.250    1.250    0.000    0.000    0.000    0.000 
#    0.000    0.000    0.000    0.000    0.000    0.000 
#
# Total GULP energy -198227.221044 kJ/mol
# GULP energy per Si atom -12389.201315 kJ/mol
# Density = 2.115254 g / cm^3
# Si number density = 21.200793 Si / 1000 Ang^3
#
#
#
# Elastic Constant Matrix: (Units=GPa)
#
#
# Indices 1 2 3 4 5 6 
#
# 1 53.0674 19.4524 27.0397 -7.5121 -12.5486 -27.4922
# 2 19.4524 91.5985 51.3443 -3.1309 -14.1847 -24.1327
# 3 27.0397 51.3443 115.5631 9.7036 -37.1019 -19.5568
# 4 -7.5121 -3.1309 9.7036 40.6495 -10.9893 -11.3392
# 5 -12.5486 -14.1847 -37.1019 -10.9893 27.7751 7.9810
# 6 -27.4922 -24.1327 -19.5568 -11.3392 7.9810 39.1650
#
#
#
# Elastic Compliance Matrix: (Units=1/GPa)
#
#
# Indices 1 2 3 4 5 6 
#
# 1 0.045707 0.005567 -0.002901 0.025107 0.018773 0.037509
# 2 0.005567 0.017781 -0.007172 0.008227 0.001428 0.013374
# 3 -0.002901 -0.007172 0.018914 -0.000428 0.020499 -0.001312
# 4 0.025107 0.008227 -0.000428 0.045001 0.023979 0.030622
# 5 0.018773 0.001428 0.020499 0.023979 0.077656 0.015412
# 6 0.037509 0.013374 -0.001312 0.030622 0.015412 0.065174
#
#
# Mechanical properties :
#
#
# Convention : Reuss Voigt Hill
#
# Bulk Modulus (GPa) = 13.62582 50.65575 32.14078
# Shear Modulus (GPa) = 16.46327 32.34409 24.40368
#
# Velocity S-wave (km/s) = 2.78967 3.91014 3.39643
# Velocity P-wave (km/s) = 4.10089 6.65814 5.52938
#
# Compressibility (1/GPa) = 0.07339008
#
# Stress axis : x y z
#
# Youngs Moduli (GPa) = 21.87848 56.24066 52.87185
#
# Poissons Ratio (x) = -0.31311 0.15341
# Poissons Ratio (y) = -0.12181 0.37917
# Poissons Ratio (z) = 0.06348 0.40333
#
# Static dielectric constant tensor:
#      x y z
#    x 3.369680 -0.165950 -0.187850 
#    y -0.165950 4.216850 0.413260 
#    z -0.187850 0.413260 3.979160 
# 
# 
# High freq. dielectric constant tensor:
#      x y z
#    x 1.789500 -0.016230 -0.022290 
#    y -0.016230 1.843540 0.011640 
#    z -0.022290 0.011640 1.833400 
# 
# From -- ./inp_files/215921.got.cif
#   From: 2010.06.25/outbox.cif.g09.slc.cpg/sg2_108_cif.got.tgz:215921.got - 2010.06.27 13:26:56.
