data_PCOD8012098
_publ_section_title
;
Structure prediction by ZEFSAII (Michael W. Deem and Ramdas Pophale) SiO2 
 PCOD8012098
Probable space group: P -1
;
_chemical_formula_sum "Si O2"
_cell_formula_units_Z 16
_cell_length_a 19.073060
_cell_length_b 6.894904
_cell_length_c 23.995635
_cell_angle_alpha 69.547350
_cell_angle_beta 159.075635
_cell_angle_gamma 124.059483
_cell_volume 755.847038
_symmetry_space_group_name_H-M "P -1"
_symmetry_group_IT_number 2
_symmetry_cell_setting 'triclinic'
loop_
_space_group_symop_operation_xyz
x,y,z
-x,-y,-z
loop_
_atom_site_type_symbol
_atom_site_label
_atom_site_fract_x
_atom_site_fract_y
_atom_site_fract_z
Si Si1 0.029321 0.452288 0.392971
Si Si2 0.294140 0.764955 0.665524
Si Si3 0.293131 0.280516 0.024942
Si Si4 0.727666 0.934642 0.296705
Si Si5 0.130223 0.910650 0.359656
Si Si6 0.128821 0.251887 0.027269
Si Si7 0.571781 0.990204 0.616234
Si Si8 0.639867 0.587587 0.437481
O O1 0.264316 0.721167 0.581252
O O2 0.940245 0.584653 0.276391
O O3 0.152289 0.356792 0.458106
O O4 0.777526 0.166508 0.268962
O O5 0.533652 0.787524 0.860841
O O6 0.000000 0.500000 0.500000
O O7 0.367793 0.047459 0.715278
O O8 0.479873 0.620166 0.120378
O O9 0.205467 0.190978 0.032997
O O10 0.024274 0.100281 0.805720
O O11 0.000000 0.000000 0.500000
O O12 0.417541 0.024897 0.541542
O O13 0.188676 0.128505 0.426471
O O14 0.403742 0.538434 0.232892
O O15 0.899933 0.259444 0.843512
O O16 0.000000 0.000000 0.000000
O O17 0.487368 0.688339 0.591389
O O18 0.500000 0.000000 0.500000
#
# Coordination Sequence:
#
# PCOD8012098 Si02
#       8
#     2   2   2   2   2   2   2   2
#     4  10  22  40  64  95 134 170 219 272 321 397
#     4  10  21  39  66  95 121 169 222 266 322 390
#     4  12  23  43  66  98 133 172 222 273 327 393
#     4  11  22  40  70  95 127 171 221 275 327 378
#     4  11  26  40  64  99 138 176 211 274 339 387
#     4  10  21  42  68  94 128 174 218 272 318 385
#     4  10  21  43  65  93 137 166 221 276 323 389
#     4  10  22  42  66  94 134 176 215 268 331 389
#
# _framework density 21.168303999999999
#
# number of rings (size 3 to 8) (size 9 to 14) (size 15 to 20)
#    0.000    1.500    5.000    0.000    3.500    3.500 
#    0.000    4.375    0.000    0.000    0.000    0.000 
#    0.000    0.000    0.000    0.000    0.000    0.000 
#
# Total GULP energy -198328.439528 kJ/mol
# GULP energy per Si atom -12395.527471 kJ/mol
# Density = 2.112012 g / cm^3
# Si number density = 21.168304 Si / 1000 Ang^3
#
#
#
# Elastic Constant Matrix: (Units=GPa)
#
#
# Indices 1 2 3 4 5 6 
#
# 1 127.7210 50.9009 47.2789 -3.7663 -5.9235 -12.5111
# 2 50.9009 76.9964 33.3693 -5.5751 1.6648 -19.5121
# 3 47.2789 33.3693 123.9068 -12.1767 -9.5004 -13.9810
# 4 -3.7663 -5.5751 -12.1767 29.9446 -3.7820 -2.3782
# 5 -5.9235 1.6648 -9.5004 -3.7820 34.8384 -1.2279
# 6 -12.5111 -19.5121 -13.9810 -2.3782 -1.2279 45.8747
#
#
#
# Elastic Compliance Matrix: (Units=1/GPa)
#
#
# Indices 1 2 3 4 5 6 
#
# 1 0.011434 -0.006646 -0.002586 -0.000705 0.001463 -0.000494
# 2 -0.006646 0.020066 -0.002125 0.002244 -0.002209 0.006132
# 3 -0.002586 -0.002125 0.010473 0.004069 0.003026 0.001875
# 4 -0.000705 0.002244 0.004069 0.036325 0.004967 0.004018
# 5 0.001463 -0.002209 0.003026 0.004967 0.030474 0.001455
# 6 -0.000494 0.006132 0.001875 0.004018 0.001455 0.025090
#
#
# Mechanical properties :
#
#
# Convention : Reuss Voigt Hill
#
# Bulk Modulus (GPa) = 51.92303 65.74693 58.83498
# Shear Modulus (GPa) = 30.67547 35.26989 32.97268
#
# Velocity S-wave (km/s) = 3.81086 4.08630 3.95098
# Velocity P-wave (km/s) = 6.62914 7.30687 6.97624
#
# Compressibility (1/GPa) = 0.01925928
#
# Stress axis : x y z
#
# Youngs Moduli (GPa) = 87.45749 49.83470 95.48385
#
# Poissons Ratio (x) = 0.33120 0.24692
# Poissons Ratio (y) = 0.58125 0.20291
# Poissons Ratio (z) = 0.22616 0.10590
#
# Static dielectric constant tensor:
#      x y z
#    x 4.214000 -0.114320 0.084480 
#    y -0.114320 3.898900 -0.075300 
#    z 0.084480 -0.075300 4.185160 
# 
# 
# High freq. dielectric constant tensor:
#      x y z
#    x 1.846350 0.001860 0.001000 
#    y 0.001860 1.816940 -0.008230 
#    z 0.001000 -0.008230 1.820630 
# 
# From -- ./inp_files/612654.got.cif
#   From: 2010.06.25/outbox.cif.g09.slc.cpg/sg2_307_cif.got.tgz:612654.got - 2010.06.27 13:26:56.
