data_PCOD8012470
_publ_section_title
;
Structure prediction by ZEFSAII (Michael W. Deem and Ramdas Pophale) SiO2 
 PCOD8012470
Probable space group: P -1
;
_chemical_formula_sum "Si O2"
_cell_formula_units_Z 16
_cell_length_a 14.064416
_cell_length_b 11.411090
_cell_length_c 10.508714
_cell_angle_alpha 63.818969
_cell_angle_beta 122.212004
_cell_angle_gamma 150.750554
_cell_volume 696.064748
_symmetry_space_group_name_H-M "P -1"
_symmetry_group_IT_number 2
_symmetry_cell_setting 'triclinic'
loop_
_space_group_symop_operation_xyz
x,y,z
-x,-y,-z
loop_
_atom_site_type_symbol
_atom_site_label
_atom_site_fract_x
_atom_site_fract_y
_atom_site_fract_z
Si Si1 0.528844 0.241388 0.964709
Si Si2 0.582898 0.582896 0.220435
Si Si3 0.517514 0.872161 0.620144
Si Si4 0.178797 0.491595 0.174219
Si Si5 0.220146 0.437057 0.780970
Si Si6 0.227582 0.088137 0.326911
Si Si7 0.789984 0.192005 0.896671
Si Si8 0.733216 0.690716 0.541834
O O1 0.398560 0.247557 0.876520
O O2 0.606645 0.294616 0.852269
O O3 0.720406 0.438509 0.103680
O O4 0.373369 0.974680 0.022708
O O5 0.657093 0.578595 0.149378
O O6 0.342831 0.311456 0.215446
O O7 0.749634 0.714623 0.389799
O O8 0.292852 0.604833 0.637397
O O9 0.597985 0.857720 0.568549
O O10 0.500000 0.000000 0.500000
O O11 0.687849 0.025650 0.780308
O O12 0.161460 0.607190 0.190724
O O13 0.181104 0.366347 0.324805
O O14 0.992186 0.308367 0.026942
O O15 0.977369 0.176913 0.748079
O O16 0.152473 0.079728 0.410861
O O17 0.500000 0.500000 0.500000
#
# Coordination Sequence:
#
# PCOD8012470 Si02
#       8
#     2   2   2   2   2   2   2   2
#     4  11  21  40  62  90 129 160 207 257 304 376
#     4  10  22  38  60  92 128 162 199 257 314 359
#     4  10  23  42  65  86 130 166 202 262 305 370
#     4  11  22  43  65  89 127 166 209 258 304 373
#     4  10  23  38  60  94 124 160 209 247 317 373
#     4  10  21  40  59  94 119 159 207 248 315 360
#     4  10  25  40  63  95 121 170 212 246 316 367
#     4  10  21  40  65  92 124 165 206 255 317 358
#
# _framework density 22.986367000000001
#
# number of rings (size 3 to 8) (size 9 to 14) (size 15 to 20)
#    0.000    1.750    2.500    1.500    7.000    1.500 
#    0.000    0.000    0.000    0.000    0.000    0.000 
#    0.000    0.000    0.000    0.000    0.000    0.000 
#
# Total GULP energy -198268.625492 kJ/mol
# GULP energy per Si atom -12391.789093 kJ/mol
# Density = 2.293405 g / cm^3
# Si number density = 22.986367 Si / 1000 Ang^3
#
#
#
# Elastic Constant Matrix: (Units=GPa)
#
#
# Indices 1 2 3 4 5 6 
#
# 1 46.3927 21.5718 1.5963 -6.0024 9.3983 -0.9579
# 2 21.5718 70.1245 29.1024 -7.3139 4.5872 -5.1169
# 3 1.5963 29.1024 67.4586 -10.1104 22.7364 -5.6620
# 4 -6.0024 -7.3139 -10.1104 20.1671 -7.5376 5.3713
# 5 9.3983 4.5872 22.7364 -7.5376 31.3998 -7.8410
# 6 -0.9579 -5.1169 -5.6620 5.3713 -7.8410 33.4290
#
#
#
# Elastic Compliance Matrix: (Units=1/GPa)
#
#
# Indices 1 2 3 4 5 6 
#
# 1 0.030293 -0.012147 0.009710 0.005188 -0.013939 -0.003450
# 2 -0.012147 0.022970 -0.012722 0.001447 0.010659 0.003281
# 3 0.009710 -0.012722 0.027503 0.005144 -0.020382 -0.002618
# 4 0.005188 0.001447 0.005144 0.058568 0.006937 -0.006542
# 5 -0.013939 0.010659 -0.020382 0.006937 0.053167 0.009136
# 6 -0.003450 0.003281 -0.002618 -0.006542 0.009136 0.033068
#
#
# Mechanical properties :
#
#
# Convention : Reuss Voigt Hill
#
# Bulk Modulus (GPa) = 19.82292 32.05742 25.94017
# Shear Modulus (GPa) = 18.33479 25.77953 22.05716
#
# Velocity S-wave (km/s) = 2.82731 3.35253 3.10106
# Velocity P-wave (km/s) = 4.39326 5.38169 4.91240
#
# Compressibility (1/GPa) = 0.05044666
#
# Stress axis : x y z
#
# Youngs Moduli (GPa) = 33.01083 43.53490 36.35923
#
# Poissons Ratio (x) = 0.52883 -0.35304
# Poissons Ratio (y) = 0.40099 0.46258
# Poissons Ratio (z) = -0.32053 0.55387
#
# Static dielectric constant tensor:
#      x y z
#    x 4.286990 -0.319660 -0.322470 
#    y -0.319660 4.209250 0.198930 
#    z -0.322470 0.198930 4.109430 
# 
# 
# High freq. dielectric constant tensor:
#      x y z
#    x 1.911080 -0.011650 -0.001790 
#    y -0.011650 1.910060 0.004640 
#    z -0.001790 0.004640 1.884360 
# 
# From -- ./inp_files/451281.got.cif
#   From: 2010.06.25/outbox.cif.g09.slc.cpg/sg2_226_cif.got.tgz:451281.got - 2010.06.27 13:26:56.
