data_PCOD8012775
_publ_section_title
;
Structure prediction by ZEFSAII (Michael W. Deem and Ramdas Pophale) SiO2 
 PCOD8012775
Probable space group: P -1
;
_chemical_formula_sum "Si O2"
_cell_formula_units_Z 16
_cell_length_a 12.102655
_cell_length_b 6.385032
_cell_length_c 14.264914
_cell_angle_alpha 51.383191
_cell_angle_beta 83.808690
_cell_angle_gamma 63.872756
_cell_volume 751.057020
_symmetry_space_group_name_H-M "P -1"
_symmetry_group_IT_number 2
_symmetry_cell_setting 'triclinic'
loop_
_space_group_symop_operation_xyz
x,y,z
-x,-y,-z
loop_
_atom_site_type_symbol
_atom_site_label
_atom_site_fract_x
_atom_site_fract_y
_atom_site_fract_z
Si Si1 0.425434 0.530571 0.772315
Si Si2 0.774700 0.642640 0.191917
Si Si3 0.138237 0.867399 0.979910
Si Si4 0.353475 0.401228 0.213251
Si Si5 0.775379 0.779155 0.365261
Si Si6 0.059039 0.944237 0.760274
Si Si7 0.445149 0.725530 0.356787
Si Si8 0.225219 0.635500 0.350777
O O1 0.348006 0.345364 0.854732
O O2 0.554878 0.439278 0.844835
O O3 0.461070 0.468904 0.678728
O O4 0.336187 0.887657 0.694876
O O5 0.751082 0.663653 0.299960
O O6 0.896706 0.316211 0.250053
O O7 0.805409 0.899918 0.078063
O O8 0.130119 0.791458 0.893730
O O9 0.239274 0.555538 0.106859
O O10 0.000000 0.000000 0.000000
O O11 0.296142 0.418124 0.317121
O O12 0.444118 0.045456 0.281960
O O13 0.786436 0.552160 0.509521
O O14 0.906952 0.790911 0.345781
O O15 0.909624 0.098949 0.744830
O O16 0.500000 0.500000 0.500000
O O17 0.300617 0.809419 0.328061
#
# Coordination Sequence:
#
# PCOD8012775 Si02
#       8
#     2   2   2   2   2   2   2   2
#     4  10  21  41  62  91 124 161 213 251 313 373
#     4  10  23  41  65  89 124 169 205 261 309 365
#     4  11  24  44  64  89 129 165 207 264 308 362
#     4  11  24  40  64  94 127 168 206 258 312 366
#     4  10  21  40  63  91 131 163 202 264 310 369
#     4  10  23  40  63  93 123 166 213 255 310 370
#     4  11  23  38  63  95 128 164 206 258 310 373
#     4  11  22  37  63  94 126 166 208 253 316 375
#
# _framework density 21.303308999999999
#
# number of rings (size 3 to 8) (size 9 to 14) (size 15 to 20)
#    0.000    1.500    1.250    3.375    1.750    6.500 
#    0.000    8.750    0.000    0.000    0.000    0.000 
#    0.000    0.000    0.000    0.000    0.000    0.000 
#
# Total GULP energy -198350.366421 kJ/mol
# GULP energy per Si atom -12396.897901 kJ/mol
# Density = 2.125482 g / cm^3
# Si number density = 21.303309 Si / 1000 Ang^3
#
#
#
# Elastic Constant Matrix: (Units=GPa)
#
#
# Indices 1 2 3 4 5 6 
#
# 1 139.9969 49.1763 41.0225 -1.0740 6.2862 0.1013
# 2 49.1763 143.1670 34.9218 2.3475 3.9302 0.5139
# 3 41.0225 34.9218 88.9488 2.0631 -4.3199 9.7100
# 4 -1.0740 2.3475 2.0631 22.7997 -4.9615 -2.1281
# 5 6.2862 3.9302 -4.3199 -4.9615 28.5142 -1.2658
# 6 0.1013 0.5139 9.7100 -2.1281 -1.2658 29.2498
#
#
#
# Elastic Compliance Matrix: (Units=1/GPa)
#
#
# Indices 1 2 3 4 5 6 
#
# 1 0.009054 -0.002201 -0.003551 0.000631 -0.002070 0.001142
# 2 -0.002201 0.008362 -0.002360 -0.000956 -0.001168 0.000524
# 3 -0.003551 -0.002360 0.014486 -0.001040 0.002913 -0.004705
# 4 0.000631 -0.000956 -0.001040 0.046216 0.008058 0.004071
# 5 -0.002070 -0.001168 0.002913 0.008058 0.037588 0.001274
# 6 0.001142 0.000524 -0.004705 0.004071 0.001274 0.036088
#
#
# Mechanical properties :
#
#
# Convention : Reuss Voigt Hill
#
# Bulk Modulus (GPa) = 63.78460 69.15043 66.46752
# Shear Modulus (GPa) = 28.86107 32.57889 30.71998
#
# Velocity S-wave (km/s) = 3.68471 3.91485 3.80152
# Velocity P-wave (km/s) = 6.93606 7.27772 7.10894
#
# Compressibility (1/GPa) = 0.01567777
#
# Stress axis : x y z
#
# Youngs Moduli (GPa) = 110.45090 119.58285 69.03315
#
# Poissons Ratio (x) = 0.26323 0.24515
# Poissons Ratio (y) = 0.24313 0.16289
# Poissons Ratio (z) = 0.39223 0.28217
#
# Static dielectric constant tensor:
#      x y z
#    x 4.352770 0.073330 -0.098680 
#    y 0.073330 3.972670 0.146330 
#    z -0.098680 0.146330 3.545650 
# 
# 
# High freq. dielectric constant tensor:
#      x y z
#    x 1.862380 -0.001510 -0.005280 
#    y -0.001510 1.846350 0.009510 
#    z -0.005280 0.009510 1.808510 
# 
# From -- ./inp_files/69713.got.cif
#   From: 2010.06.25/outbox.cif.g09.slc.cpg/sg2_35_cif.got.tgz:69713.got - 2010.06.27 13:26:56.
