data_PCOD8012696
_publ_section_title
;
Structure prediction by ZEFSAII (Michael W. Deem and Ramdas Pophale) SiO2 
 PCOD8012696
Probable space group: P -1
;
_chemical_formula_sum "Si O2"
_cell_formula_units_Z 16
_cell_length_a 9.487202
_cell_length_b 9.069778
_cell_length_c 14.683935
_cell_angle_alpha 75.013223
_cell_angle_beta 37.024244
_cell_angle_gamma 84.827153
_cell_volume 720.105251
_symmetry_space_group_name_H-M "P -1"
_symmetry_group_IT_number 2
_symmetry_cell_setting 'triclinic'
loop_
_space_group_symop_operation_xyz
x,y,z
-x,-y,-z
loop_
_atom_site_type_symbol
_atom_site_label
_atom_site_fract_x
_atom_site_fract_y
_atom_site_fract_z
Si Si1 0.971821 0.629371 0.919878
Si Si2 0.568721 0.816387 0.078811
Si Si3 0.546113 0.165481 0.400901
Si Si4 0.093828 0.418107 0.745325
Si Si5 0.546888 0.331980 0.557038
Si Si6 0.196201 0.819222 0.407978
Si Si7 0.359812 0.828955 0.993533
Si Si8 0.308980 0.169180 0.332109
O O1 0.188173 0.780089 0.786134
O O2 0.962922 0.541963 0.842016
O O3 0.733669 0.697805 0.044071
O O4 0.000000 0.500000 0.000000
O O5 0.311218 0.755444 0.269535
O O6 0.674649 0.993235 0.029656
O O7 0.540191 0.815201 0.985033
O O8 0.505379 0.287627 0.478928
O O9 0.365475 0.162770 0.410552
O O10 0.500000 0.000000 0.500000
O O11 0.287025 0.356745 0.722302
O O12 0.252019 0.508375 0.566228
O O13 0.899710 0.272795 0.833469
O O14 0.642468 0.202161 0.584820
O O15 0.914225 0.740678 0.575393
O O16 0.218794 0.003034 0.357174
O O17 0.462734 0.757556 0.860460
#
# Coordination Sequence:
#
# PCOD8012696 Si02
#       8
#     2   2   2   2   2   2   2   2
#     4  11  24  43  64  95 139 179 226 281 342 408
#     4  10  24  41  71  98 135 175 229 279 333 402
#     4  11  23  38  68 102 129 179 230 282 338 400
#     4  10  23  41  65  90 136 173 218 271 341 398
#     4  10  22  41  64  93 133 176 219 272 336 402
#     4  10  21  40  62  95 133 172 214 276 331 393
#     4  10  23  43  67 103 131 177 224 281 336 398
#     4  10  22  38  65  98 135 167 222 277 335 397
#
# _framework density 22.218973999999999
#
# number of rings (size 3 to 8) (size 9 to 14) (size 15 to 20)
#    0.000    1.750    1.250    1.500    7.000    1.500 
#    2.250    3.750    0.000    0.000    0.000    0.000 
#    0.000    0.000    0.000    0.000    0.000    0.000 
#
# Total GULP energy -198290.742750 kJ/mol
# GULP energy per Si atom -12393.171422 kJ/mol
# Density = 2.216840 g / cm^3
# Si number density = 22.218974 Si / 1000 Ang^3
#
#
#
# Elastic Constant Matrix: (Units=GPa)
#
#
# Indices 1 2 3 4 5 6 
#
# 1 96.4562 35.9742 36.4821 12.9601 4.6796 -13.8230
# 2 35.9742 92.3358 53.8204 8.8247 -12.6844 -21.7277
# 3 36.4821 53.8204 119.0641 3.0683 -13.6200 -5.5082
# 4 12.9601 8.8247 3.0683 39.7225 0.5133 -7.3406
# 5 4.6796 -12.6844 -13.6200 0.5133 38.1715 3.1941
# 6 -13.8230 -21.7277 -5.5082 -7.3406 3.1941 32.7738
#
#
#
# Elastic Compliance Matrix: (Units=1/GPa)
#
#
# Indices 1 2 3 4 5 6 
#
# 1 0.013694 -0.003165 -0.003014 -0.002944 -0.004009 0.002902
# 2 -0.003165 0.018705 -0.006630 -0.000917 0.003463 0.009409
# 3 -0.003014 -0.006630 0.012462 0.000776 0.002910 -0.003682
# 4 -0.002944 -0.000917 0.000776 0.027095 -0.000399 0.004388
# 5 -0.004009 0.003463 0.002910 -0.000399 0.029036 -0.001825
# 6 0.002902 0.009409 -0.003682 0.004388 -0.001825 0.038516
#
#
# Mechanical properties :
#
#
# Convention : Reuss Voigt Hill
#
# Bulk Modulus (GPa) = 51.96799 62.26773 57.11786
# Shear Modulus (GPa) = 29.14770 34.23886 31.69328
#
# Velocity S-wave (km/s) = 3.62586 3.92978 3.78088
# Velocity P-wave (km/s) = 6.40070 6.97684 6.69497
#
# Compressibility (1/GPa) = 0.01924261
#
# Stress axis : x y z
#
# Youngs Moduli (GPa) = 73.02700 53.46113 80.24398
#
# Poissons Ratio (x) = 0.16920 0.24183
# Poissons Ratio (y) = 0.23113 0.53206
# Poissons Ratio (z) = 0.22008 0.35447
#
# Static dielectric constant tensor:
#      x y z
#    x 3.722760 -0.062970 -0.088190 
#    y -0.062970 3.976110 0.124670 
#    z -0.088190 0.124670 4.332060 
# 
# 
# High freq. dielectric constant tensor:
#      x y z
#    x 1.858220 -0.007110 -0.002020 
#    y -0.007110 1.866070 0.007720 
#    z -0.002020 0.007720 1.884770 
# 
# From -- ./inp_files/494582.got.cif
#   From: 2010.06.25/outbox.cif.g09.slc.cpg/sg2_248_cif.got.tgz:494582.got - 2010.06.27 13:26:56.
