data_PCOD8012231
_publ_section_title
;
Structure prediction by ZEFSAII (Michael W. Deem and Ramdas Pophale) SiO2 
 PCOD8012231
Probable space group: P -1
;
_chemical_formula_sum "Si O2"
_cell_formula_units_Z 16
_cell_length_a 6.071311
_cell_length_b 25.839772
_cell_length_c 5.175672
_cell_angle_alpha 91.514482
_cell_angle_beta 99.059448
_cell_angle_gamma 59.180724
_cell_volume 687.197971
_symmetry_space_group_name_H-M "P -1"
_symmetry_group_IT_number 2
_symmetry_cell_setting 'triclinic'
loop_
_space_group_symop_operation_xyz
x,y,z
-x,-y,-z
loop_
_atom_site_type_symbol
_atom_site_label
_atom_site_fract_x
_atom_site_fract_y
_atom_site_fract_z
Si Si1 0.436510 0.574705 0.267306
Si Si2 0.732299 0.519235 0.809941
Si Si3 0.699297 0.764489 0.701001
Si Si4 0.741419 0.874197 0.638057
Si Si5 0.069523 0.906528 0.034867
Si Si6 0.234929 0.977801 0.732664
Si Si7 0.811652 0.196458 0.633037
Si Si8 0.029612 0.713648 0.236518
O O1 0.281126 0.539788 0.267497
O O2 0.242583 0.644306 0.291323
O O3 0.670956 0.552907 0.522301
O O4 0.524129 0.564905 0.984424
O O5 0.000000 0.500000 0.000000
O O6 0.666709 0.829706 0.757788
O O7 0.412529 0.772980 0.622777
O O8 0.874055 0.733551 0.478334
O O9 0.832825 0.723129 0.969824
O O10 0.493697 0.942342 0.601296
O O11 0.879980 0.846500 0.387611
O O12 0.978135 0.875267 0.813998
O O13 0.262158 0.848837 0.240936
O O14 0.234817 0.933432 0.946748
O O15 0.810011 0.960699 0.137055
O O16 0.000000 0.000000 0.500000
O O17 0.817224 0.250546 0.792062
#
# Coordination Sequence:
#
# PCOD8012231 Si02
#       8
#     2   2   2   2   2   2   2   2
#     4  10  22  40  64 100 140 176 233 273 327 392
#     4  10  21  39  67  99 140 185 222 278 329 382
#     4  11  25  42  68  94 133 175 226 273 340 396
#     4  11  23  42  63  90 126 165 215 274 341 402
#     4  11  23  41  64  89 125 164 212 274 341 408
#     4  11  25  41  63  93 122 163 215 270 342 414
#     4  11  26  43  67  92 131 171 222 276 340 406
#     4  11  25  44  67 100 135 181 225 283 329 396
#
# _framework density 23.282955999999999
#
# number of rings (size 3 to 8) (size 9 to 14) (size 15 to 20)
#    0.000    1.250    1.250    3.750    3.500    6.000 
#    0.000    0.000    0.000    0.000    0.000    0.000 
#    0.000    0.000    0.000    0.000    0.000    0.000 
#
# Total GULP energy -198244.068639 kJ/mol
# GULP energy per Si atom -12390.254290 kJ/mol
# Density = 2.322996 g / cm^3
# Si number density = 23.282956 Si / 1000 Ang^3
#
#
#
# Elastic Constant Matrix: (Units=GPa)
#
#
# Indices 1 2 3 4 5 6 
#
# 1 62.6642 37.3939 14.4112 -2.8466 22.0847 -3.2387
# 2 37.3939 153.8320 46.1266 3.0521 2.4492 -9.0520
# 3 14.4112 46.1266 117.9313 -10.5703 17.7332 2.9655
# 4 -2.8466 3.0521 -10.5703 33.2132 -8.1356 4.9830
# 5 22.0847 2.4492 17.7332 -8.1356 35.1740 -3.1770
# 6 -3.2387 -9.0520 2.9655 4.9830 -3.1770 17.7319
#
#
#
# Elastic Compliance Matrix: (Units=1/GPa)
#
#
# Indices 1 2 3 4 5 6 
#
# 1 0.025143 -0.006556 0.002004 -0.000378 -0.016605 -0.001958
# 2 -0.006556 0.009662 -0.004176 -0.002330 0.005559 0.006084
# 3 0.002004 -0.004176 0.011281 0.003448 -0.006378 -0.005764
# 4 -0.000378 -0.002330 0.003448 0.034345 0.005659 -0.010473
# 5 -0.016605 0.005559 -0.006378 0.005659 0.043634 0.007099
# 6 -0.001958 0.006084 -0.005764 -0.010473 0.007099 0.064323
#
#
# Mechanical properties :
#
#
# Convention : Reuss Voigt Hill
#
# Bulk Modulus (GPa) = 34.92798 58.92119 46.92459
# Shear Modulus (GPa) = 23.21400 32.99024 28.10212
#
# Velocity S-wave (km/s) = 3.16102 3.76829 3.47793
# Velocity P-wave (km/s) = 5.32511 6.65544 6.02709
#
# Compressibility (1/GPa) = 0.02863034
#
# Stress axis : x y z
#
# Youngs Moduli (GPa) = 39.77241 103.49724 88.64504
#
# Poissons Ratio (x) = 0.67854 -0.17764
# Poissons Ratio (y) = 0.26075 0.37016
# Poissons Ratio (z) = -0.07970 0.43218
#
# Static dielectric constant tensor:
#      x y z
#    x 4.076030 -0.139150 -0.056130 
#    y -0.139150 4.996900 0.321270 
#    z -0.056130 0.321270 4.494260 
# 
# 
# High freq. dielectric constant tensor:
#      x y z
#    x 1.904360 -0.004450 0.009880 
#    y -0.004450 1.923880 0.010200 
#    z 0.009880 0.010200 1.927390 
# 
# From -- ./inp_files/14109.got.cif
#   From: 2010.06.25/outbox.cif.g09.slc.cpg/sg2_8_cif.got.tgz:14109.got - 2010.06.27 13:26:56.
