data_PCOD8012529
_publ_section_title
;
Structure prediction by ZEFSAII (Michael W. Deem and Ramdas Pophale) SiO2 
 PCOD8012529
Probable space group: P -1
;
_chemical_formula_sum "Si O2"
_cell_formula_units_Z 16
_cell_length_a 12.122044
_cell_length_b 8.847706
_cell_length_c 21.083319
_cell_angle_alpha 105.333248
_cell_angle_beta 148.256971
_cell_angle_gamma 98.487847
_cell_volume 779.053765
_symmetry_space_group_name_H-M "P -1"
_symmetry_group_IT_number 2
_symmetry_cell_setting 'triclinic'
loop_
_space_group_symop_operation_xyz
x,y,z
-x,-y,-z
loop_
_atom_site_type_symbol
_atom_site_label
_atom_site_fract_x
_atom_site_fract_y
_atom_site_fract_z
Si Si1 0.872808 0.134158 0.262510
Si Si2 0.993189 0.577779 0.189232
Si Si3 0.649523 0.365127 0.821016
Si Si4 0.503241 0.085967 0.827978
Si Si5 0.036393 0.926622 0.945344
Si Si6 0.537470 0.384859 0.629314
Si Si7 0.668300 0.336147 0.127349
Si Si8 0.244295 0.297759 0.998353
O O1 0.856481 0.305867 0.252857
O O2 0.209782 0.252785 0.425553
O O3 0.805800 0.085432 0.299890
O O4 0.631430 0.900151 0.079052
O O5 0.328361 0.680893 0.356741
O O6 0.900979 0.544179 0.213995
O O7 0.978866 0.738224 0.165470
O O8 0.754709 0.334761 0.010567
O O9 0.448318 0.125766 0.735145
O O10 0.494038 0.295293 0.669011
O O11 0.643391 0.528660 0.870961
O O12 0.000000 0.500000 0.000000
O O13 0.638883 0.985845 0.880445
O O14 0.753590 0.655459 0.765411
O O15 0.050382 0.048316 0.905171
O O16 0.000000 0.000000 0.000000
O O17 0.554815 0.407565 0.127848
#
# Coordination Sequence:
#
# PCOD8012529 Si02
#       8
#     2   2   2   2   2   2   2   2
#     4  10  22  39  59  85 118 155 202 239 286 347
#     4   9  20  36  61  84 113 152 199 236 287 349
#     4  11  18  36  63  87 118 152 189 236 295 357
#     4   9  18  35  57  83 112 159 191 224 293 357
#     4  11  19  33  59  88 115 154 192 235 290 348
#     4  11  22  37  60  91 114 154 198 240 289 346
#     4  10  21  40  61  82 114 163 196 239 292 344
#     4  11  19  35  64  89 112 152 197 237 289 355
#
# _framework density 20.537735000000001
#
# number of rings (size 3 to 8) (size 9 to 14) (size 15 to 20)
#    0.000    1.750    6.250    0.375    1.750    1.000 
#    0.000    3.125    8.250    0.000    0.000    0.000 
#    0.000    0.000    0.000    0.000    0.000    0.000 
#
# Total GULP energy -198405.881095 kJ/mol
# GULP energy per Si atom -12400.367568 kJ/mol
# Density = 2.049099 g / cm^3
# Si number density = 20.537735 Si / 1000 Ang^3
#
#
#
# Elastic Constant Matrix: (Units=GPa)
#
#
# Indices 1 2 3 4 5 6 
#
# 1 135.2788 52.6612 29.6111 -14.8164 26.7502 10.5205
# 2 52.6612 142.5853 30.3519 -24.0734 13.4500 23.1919
# 3 29.6111 30.3519 76.0149 -23.1126 25.7757 2.7903
# 4 -14.8164 -24.0734 -23.1126 20.7950 -5.7465 4.8737
# 5 26.7502 13.4500 25.7757 -5.7465 27.5760 -5.5013
# 6 10.5205 23.1919 2.7903 4.8737 -5.5013 42.7904
#
#
#
# Elastic Compliance Matrix: (Units=1/GPa)
#
#
# Indices 1 2 3 4 5 6 
#
# 1 0.010769 -0.001729 0.002321 0.006065 -0.011308 -0.004007
# 2 -0.001729 0.011615 0.002997 0.016133 -0.005135 -0.008563
# 3 0.002321 0.002997 0.032043 0.035643 -0.028636 -0.012026
# 4 0.006065 0.016133 0.035643 0.109152 -0.030079 -0.028858
# 5 -0.011308 -0.005135 -0.028636 -0.030079 0.074308 0.020410
# 6 -0.004007 -0.008563 -0.012026 -0.028858 0.020410 0.035691
#
#
# Mechanical properties :
#
#
# Convention : Reuss Voigt Hill
#
# Bulk Modulus (GPa) = 16.23245 64.34748 40.28996
# Shear Modulus (GPa) = 17.42542 34.31594 25.87068
#
# Velocity S-wave (km/s) = 2.91599 4.09207 3.55303
# Velocity P-wave (km/s) = 4.38842 7.32980 6.04087
#
# Compressibility (1/GPa) = 0.06160500
#
# Stress axis : x y z
#
# Youngs Moduli (GPa) = 92.85777 86.09480 31.20762
#
# Poissons Ratio (x) = 0.14886 -0.07243
# Poissons Ratio (y) = 0.16056 -0.09352
# Poissons Ratio (z) = -0.21552 -0.25800
#
# Static dielectric constant tensor:
#      x y z
#    x 4.125930 0.244680 0.233290 
#    y 0.244680 4.186690 -0.254000 
#    z 0.233290 -0.254000 3.212110 
# 
# 
# High freq. dielectric constant tensor:
#      x y z
#    x 1.821600 0.010160 0.021320 
#    y 0.010160 1.816380 -0.023250 
#    z 0.021320 -0.023250 1.749630 
# 
# From -- ./inp_files/203127.got.cif
#   From: 2010.06.25/outbox.cif.g09.slc.cpg/sg2_102_cif.got.tgz:203127.got - 2010.06.27 13:26:56.
