data_PCOD8012036
_publ_section_title
;
Structure prediction by ZEFSAII (Michael W. Deem and Ramdas Pophale) SiO2 
 PCOD8012036
Probable space group: P -1
;
_chemical_formula_sum "Si O2"
_cell_formula_units_Z 16
_cell_length_a 11.226965
_cell_length_b 11.782118
_cell_length_c 9.356080
_cell_angle_alpha 55.202521
_cell_angle_beta 53.458968
_cell_angle_gamma 50.961064
_cell_volume 733.363747
_symmetry_space_group_name_H-M "P -1"
_symmetry_group_IT_number 2
_symmetry_cell_setting 'triclinic'
loop_
_space_group_symop_operation_xyz
x,y,z
-x,-y,-z
loop_
_atom_site_type_symbol
_atom_site_label
_atom_site_fract_x
_atom_site_fract_y
_atom_site_fract_z
Si Si1 0.940499 0.864746 0.649483
Si Si2 0.205272 0.048440 0.816364
Si Si3 0.275059 0.647760 0.675038
Si Si4 0.222475 0.518680 0.336725
Si Si5 0.663483 0.908558 0.038042
Si Si6 0.146441 0.269714 0.461124
Si Si7 0.405814 0.359704 0.607404
Si Si8 0.825844 0.243479 0.020111
O O1 0.824575 0.886879 0.851354
O O2 0.843329 0.835365 0.607743
O O3 0.110284 0.713279 0.652238
O O4 0.000000 0.000000 0.500000
O O5 0.246086 0.147809 0.599925
O O6 0.230957 0.890853 0.838115
O O7 0.335756 0.996282 0.890378
O O8 0.022881 0.159214 0.924820
O O9 0.373456 0.470970 0.686536
O O10 0.394920 0.729938 0.493455
O O11 0.227037 0.661531 0.864775
O O12 0.233557 0.384647 0.312910
O O13 0.337046 0.447614 0.443269
O O14 0.041288 0.620504 0.450537
O O15 0.267270 0.636965 0.127824
O O16 0.675117 0.749884 0.207423
O O17 0.500000 0.000000 0.000000
#
# Coordination Sequence:
#
# PCOD8012036 Si02
#       8
#     2   2   2   2   2   2   2   2
#     4  12  25  42  71  98 132 178 231 273 333 411
#     4  10  21  42  67  96 135 173 227 276 334 398
#     4  11  24  43  68  98 138 179 227 277 337 399
#     4  10  21  39  66  95 137 169 221 277 335 393
#     4  12  27  46  68  97 137 176 225 282 344 400
#     4  10  21  39  65  99 131 176 219 273 335 398
#     4  11  25  46  66  98 141 179 220 288 337 397
#     4  10  22  39  69 100 129 180 226 277 328 403
#
# _framework density 21.817277000000001
#
# number of rings (size 3 to 8) (size 9 to 14) (size 15 to 20)
#    0.000    1.250    3.750    1.500    5.250    3.000 
#    2.250    1.250    0.000    0.000    0.000    0.000 
#    0.000    0.000    0.000    0.000    0.000    0.000 
#
# Total GULP energy -198255.441343 kJ/mol
# GULP energy per Si atom -12390.965084 kJ/mol
# Density = 2.176762 g / cm^3
# Si number density = 21.817277 Si / 1000 Ang^3
#
#
#
# Elastic Constant Matrix: (Units=GPa)
#
#
# Indices 1 2 3 4 5 6 
#
# 1 96.6643 26.1723 33.3598 -1.8026 25.2712 -1.1472
# 2 26.1723 67.9509 36.4858 -4.6433 10.5403 12.2400
# 3 33.3598 36.4858 98.4674 -11.7575 8.3544 1.4297
# 4 -1.8026 -4.6433 -11.7575 28.2294 7.5725 6.2940
# 5 25.2712 10.5403 8.3544 7.5725 43.1602 1.3968
# 6 -1.1472 12.2400 1.4297 6.2940 1.3968 39.6126
#
#
#
# Elastic Compliance Matrix: (Units=1/GPa)
#
#
# Indices 1 2 3 4 5 6 
#
# 1 0.014071 -0.002928 -0.003015 0.000723 -0.007118 0.001557
# 2 -0.002928 0.020912 -0.006104 0.002873 -0.002498 -0.006694
# 3 -0.003015 -0.006104 0.014001 0.004581 -0.000277 0.000575
# 4 0.000723 0.002873 0.004581 0.041945 -0.009133 -0.007375
# 5 -0.007118 -0.002498 -0.000277 -0.009133 0.029571 0.000984
# 6 0.001557 -0.006694 0.000575 -0.007375 0.000984 0.028474
#
#
# Mechanical properties :
#
#
# Convention : Reuss Voigt Hill
#
# Bulk Modulus (GPa) = 40.17711 50.56872 45.37291
# Shear Modulus (GPa) = 27.56887 33.33808 30.45348
#
# Velocity S-wave (km/s) = 3.55861 3.91328 3.74015
# Velocity P-wave (km/s) = 5.94476 6.60658 6.28439
#
# Compressibility (1/GPa) = 0.02488979
#
# Stress axis : x y z
#
# Youngs Moduli (GPa) = 71.06856 47.82012 71.42405
#
# Poissons Ratio (x) = 0.14002 0.21531
# Poissons Ratio (y) = 0.20809 0.43600
# Poissons Ratio (z) = 0.21424 0.29191
#
# Static dielectric constant tensor:
#      x y z
#    x 4.129030 0.078650 -0.021280 
#    y 0.078650 3.902170 -0.105140 
#    z -0.021280 -0.105140 3.992090 
# 
# 
# High freq. dielectric constant tensor:
#      x y z
#    x 1.864570 0.011640 0.009420 
#    y 0.011640 1.852190 -0.004160 
#    z 0.009420 -0.004160 1.855980 
# 
# From -- ./inp_files/256699.got.cif
#   From: 2010.06.25/outbox.cif.g09.slc.cpg/sg2_129_cif.got.tgz:256699.got - 2010.06.27 13:26:56.
