data_PCOD8012469
_publ_section_title
;
Structure prediction by ZEFSAII (Michael W. Deem and Ramdas Pophale) SiO2 
 PCOD8012469
Probable space group: P -1
;
_chemical_formula_sum "Si O2"
_cell_formula_units_Z 14
_cell_length_a 23.513952
_cell_length_b 5.449568
_cell_length_c 5.078739
_cell_angle_alpha 81.414188
_cell_angle_beta 84.588621
_cell_angle_gamma 124.389220
_cell_volume 518.149175
_symmetry_space_group_name_H-M "P -1"
_symmetry_group_IT_number 2
_symmetry_cell_setting 'triclinic'
loop_
_space_group_symop_operation_xyz
x,y,z
-x,-y,-z
loop_
_atom_site_type_symbol
_atom_site_label
_atom_site_fract_x
_atom_site_fract_y
_atom_site_fract_z
Si Si1 0.581754 0.695932 0.861290
Si Si2 0.450656 0.861745 0.293638
Si Si3 0.283082 0.638644 0.526302
Si Si4 0.950453 0.383696 0.288945
Si Si5 0.791689 0.407747 0.950081
Si Si6 0.678446 0.798068 0.279623
Si Si7 0.918826 0.780830 0.488344
O O1 0.589761 0.510399 0.647118
O O2 0.619326 0.703071 0.105602
O O3 0.603210 0.037722 0.716320
O O4 0.500000 0.500000 0.000000
O O5 0.500000 0.000000 0.500000
O O6 0.500000 0.000000 0.000000
O O7 0.217261 0.464552 0.792264
O O8 0.329601 0.510043 0.581548
O O9 0.325454 0.010774 0.502954
O O10 0.251613 0.554097 0.262269
O O11 0.906924 0.534584 0.308903
O O12 0.000000 0.500000 0.500000
O O13 0.898941 0.009587 0.362063
O O14 0.000000 0.500000 0.000000
O O15 0.872665 0.587815 0.795259
O O16 0.755022 0.043409 0.066869
O O17 0.000000 0.000000 0.500000
#
# Coordination Sequence:
#
# PCOD8012469 Si02
#       7
#     2   2   2   2   2   2   2
#     4  10  21  43  66  99 130 173 218 277 332 393
#     4  10  21  40  59  93 129 164 207 261 324 387
#     4  10  25  43  69  94 134 177 227 271 334 403
#     4  10  22  39  60  92 128 164 205 259 325 384
#     4  10  26  45  69  98 135 176 229 273 338 400
#     4  10  24  46  68  98 136 177 227 277 335 402
#     4  10  23  42  68  97 132 170 219 276 331 393
#
# _framework density 27.019248999999999
#
# number of rings (size 3 to 8) (size 9 to 14) (size 15 to 20)
#    0.857    1.143    0.000    1.714    4.000    4.571 
#   18.000    0.000    0.000    0.000    0.000    0.000 
#    0.000    0.000    0.000    0.000    0.000    0.000 
#
# Total GULP energy -173564.951353 kJ/mol
# GULP energy per Si atom -12397.496525 kJ/mol
# Density = 2.695775 g / cm^3
# Si number density = 27.019249 Si / 1000 Ang^3
#
#
#
# Elastic Constant Matrix: (Units=GPa)
#
#
# Indices 1 2 3 4 5 6 
#
# 1 110.7122 70.4225 25.1340 -22.6690 -21.4666 -36.3428
# 2 70.4225 177.2447 51.1569 -43.0478 -16.3388 -42.6513
# 3 25.1340 51.1569 134.6251 -14.3169 -18.9808 -22.6881
# 4 -22.6690 -43.0478 -14.3169 55.7049 1.4965 0.6204
# 5 -21.4666 -16.3388 -18.9808 1.4965 58.4379 4.7106
# 6 -36.3428 -42.6513 -22.6881 0.6204 4.7106 63.0259
#
#
#
# Elastic Compliance Matrix: (Units=1/GPa)
#
#
# Indices 1 2 3 4 5 6 
#
# 1 0.014388 -0.003261 0.000459 0.003281 0.003961 0.005927
# 2 -0.003261 0.009885 -0.001772 0.005797 0.000513 0.004076
# 3 0.000459 -0.001772 0.008796 0.000993 0.002340 0.002048
# 4 0.003281 0.005797 0.000993 0.023902 0.002070 0.005782
# 5 0.003961 0.000513 0.002340 0.002070 0.019255 0.002014
# 6 0.005927 0.004076 0.002048 0.005782 0.002014 0.022572
#
#
# Mechanical properties :
#
#
# Convention : Reuss Voigt Hill
#
# Bulk Modulus (GPa) = 41.80274 79.55652 60.67963
# Shear Modulus (GPa) = 43.13360 53.82499 48.47929
#
# Velocity S-wave (km/s) = 3.99984 4.46813 4.24045
# Velocity P-wave (km/s) = 6.06932 7.49181 6.81777
#
# Compressibility (1/GPa) = 0.02392188
#
# Stress axis : x y z
#
# Youngs Moduli (GPa) = 69.50416 101.16262 113.68696
#
# Poissons Ratio (x) = 0.32989 -0.05220
# Poissons Ratio (y) = 0.22665 0.20141
# Poissons Ratio (z) = -0.03191 0.17922
#
# Static dielectric constant tensor:
#      x y z
#    x 5.609120 -1.439610 -0.292620 
#    y -1.439610 6.828580 -0.623760 
#    z -0.292620 -0.623760 5.128630 
# 
# 
# High freq. dielectric constant tensor:
#      x y z
#    x 2.096220 -0.010220 -0.034200 
#    y -0.010220 2.115330 -0.029270 
#    z -0.034200 -0.029270 2.117460 
# 
# From -- ./inp_files/125774.got.cif
#   From: 2010.06.25/outbox.cif.g09.slc.cpg/sg2_63_cif.got.tgz:125774.got - 2010.06.27 13:26:56.
