data_PCOD8012997
_publ_section_title
;
Structure prediction by ZEFSAII (Michael W. Deem and Ramdas Pophale) SiO2 
 PCOD8012997
Probable space group: P -1
;
_chemical_formula_sum "Si O2"
_cell_formula_units_Z 14
_cell_length_a 17.261645
_cell_length_b 15.865194
_cell_length_c 9.971653
_cell_angle_alpha 32.616657
_cell_angle_beta 34.917018
_cell_angle_gamma 25.224688
_cell_volume 606.975841
_symmetry_space_group_name_H-M "P -1"
_symmetry_group_IT_number 2
_symmetry_cell_setting 'triclinic'
loop_
_space_group_symop_operation_xyz
x,y,z
-x,-y,-z
loop_
_atom_site_type_symbol
_atom_site_label
_atom_site_fract_x
_atom_site_fract_y
_atom_site_fract_z
Si Si1 0.607347 0.649380 0.253720
Si Si2 0.017711 0.801712 0.744247
Si Si3 0.698351 0.993786 0.329618
Si Si4 0.903661 0.301620 0.930618
Si Si5 0.723511 0.122057 0.385802
Si Si6 0.171618 0.246872 0.115190
Si Si7 0.557082 0.766991 0.863882
O O1 0.794003 0.394540 0.343435
O O2 0.443392 0.708591 0.498239
O O3 0.644790 0.793423 0.068299
O O4 0.538481 0.708215 0.117373
O O5 0.034630 0.719914 0.976278
O O6 0.831992 0.865251 0.859733
O O7 0.000000 0.000000 0.500000
O O8 0.592924 0.921731 0.619477
O O9 0.647736 0.165447 0.283330
O O10 0.630487 0.109828 0.124005
O O11 0.922472 0.783640 0.293133
O O12 0.866220 0.150619 0.154767
O O13 0.722423 0.554722 0.824919
O O14 0.837247 0.869236 0.593652
O O15 0.000000 0.500000 0.000000
#
# Coordination Sequence:
#
# PCOD8012997 Si02
#       7
#     2   2   2   2   2   2   2
#     4  10  23  42  68  95 131 164 220 277 315 390
#     4  10  21  40  66 100 125 167 216 271 333 378
#     4  11  25  44  68  92 133 177 217 264 323 397
#     4  11  25  43  65  95 136 171 218 267 325 393
#     4  12  24  43  65  98 132 170 217 269 329 382
#     4  10  21  40  64  97 129 168 213 266 328 381
#     4  10  24  46  67  96 126 175 222 266 328 381
#
# _framework density 23.065166999999999
#
# number of rings (size 3 to 8) (size 9 to 14) (size 15 to 20)
#    0.000    1.429    2.857    1.286    2.000    5.143 
#    5.143    0.000    0.000    0.000    0.000    0.000 
#    0.000    0.000    0.000    0.000    0.000    0.000 
#
# Total GULP energy -173531.622002 kJ/mol
# GULP energy per Si atom -12395.115857 kJ/mol
# Density = 2.301267 g / cm^3
# Si number density = 23.065167 Si / 1000 Ang^3
#
#
#
# Elastic Constant Matrix: (Units=GPa)
#
#
# Indices 1 2 3 4 5 6 
#
# 1 145.9389 22.6433 28.8752 3.6097 -5.1730 9.8362
# 2 22.6433 104.0999 10.1519 4.1480 7.4195 8.3826
# 3 28.8752 10.1519 32.2569 3.8209 -3.4633 3.0226
# 4 3.6097 4.1480 3.8209 37.1210 7.8094 1.0315
# 5 -5.1730 7.4195 -3.4633 7.8094 26.6562 -1.6147
# 6 9.8362 8.3826 3.0226 1.0315 -1.6147 26.4602
#
#
#
# Elastic Compliance Matrix: (Units=1/GPa)
#
#
# Indices 1 2 3 4 5 6 
#
# 1 0.008584 -0.001086 -0.007036 -0.000139 0.000975 -0.001978
# 2 -0.001086 0.010577 -0.002483 0.000030 -0.003661 -0.002888
# 3 -0.007036 -0.002483 0.039242 -0.004247 0.005634 -0.000571
# 4 -0.000139 0.000030 -0.004247 0.029368 -0.009263 -0.001182
# 5 0.000975 -0.003661 0.005634 -0.009263 0.042356 0.003100
# 6 -0.001978 -0.002888 -0.000571 -0.001182 0.003100 0.039743
#
#
# Mechanical properties :
#
#
# Convention : Reuss Voigt Hill
#
# Bulk Modulus (GPa) = 26.88581 45.07073 35.97827
# Shear Modulus (GPa) = 24.57272 32.75584 28.66428
#
# Velocity S-wave (km/s) = 3.26753 3.77257 3.52909
# Velocity P-wave (km/s) = 5.09091 6.20962 5.67789
#
# Compressibility (1/GPa) = 0.03719435
#
# Stress axis : x y z
#
# Youngs Moduli (GPa) = 116.49457 94.54729 25.48265
#
# Poissons Ratio (x) = 0.10264 0.17929
# Poissons Ratio (y) = 0.12647 0.06327
# Poissons Ratio (z) = 0.81965 0.23475
#
# Static dielectric constant tensor:
#      x y z
#    x 4.822380 -0.120500 -0.106930 
#    y -0.120500 4.236320 -0.168120 
#    z -0.106930 -0.168120 3.834180 
# 
# 
# High freq. dielectric constant tensor:
#      x y z
#    x 1.934050 -0.001990 -0.009040 
#    y -0.001990 1.910260 -0.009640 
#    z -0.009040 -0.009640 1.886660 
# 
# From -- ./inp_files/314438.got.cif
#   From: 2010.06.25/outbox.cif.g09.slc.cpg/sg2_158_cif.got.tgz:314438.got - 2010.06.27 13:26:56.
