data_PCOD8012762
_publ_section_title
;
Structure prediction by ZEFSAII (Michael W. Deem and Ramdas Pophale) SiO2 
 PCOD8012762
Probable space group: P -1
;
_chemical_formula_sum "Si O2"
_cell_formula_units_Z 16
_cell_length_a 12.324640
_cell_length_b 10.679643
_cell_length_c 12.898716
_cell_angle_alpha 52.512836
_cell_angle_beta 144.620137
_cell_angle_gamma 124.246141
_cell_volume 771.770529
_symmetry_space_group_name_H-M "P -1"
_symmetry_group_IT_number 2
_symmetry_cell_setting 'triclinic'
loop_
_space_group_symop_operation_xyz
x,y,z
-x,-y,-z
loop_
_atom_site_type_symbol
_atom_site_label
_atom_site_fract_x
_atom_site_fract_y
_atom_site_fract_z
Si Si1 0.423919 0.384523 0.358440
Si Si2 0.616564 0.284827 0.754764
Si Si3 0.533657 0.036596 0.125762
Si Si4 0.443459 0.617492 0.763292
Si Si5 0.055381 0.822724 0.627895
Si Si6 0.300322 0.277967 0.908688
Si Si7 0.053826 0.681838 0.479543
Si Si8 0.009732 0.318281 0.125720
O O1 0.583645 0.343702 0.583716
O O2 0.410449 0.572917 0.258662
O O3 0.502894 0.339447 0.333520
O O4 0.214851 0.281127 0.265180
O O5 0.457001 0.133017 0.726308
O O6 0.824261 0.228308 0.965848
O O7 0.721471 0.160168 0.222529
O O8 0.500000 0.000000 0.000000
O O9 0.367361 0.117159 0.004481
O O10 0.378808 0.428436 0.820505
O O11 0.280333 0.722870 0.619253
O O12 0.633768 0.675486 0.947208
O O13 0.980242 0.723825 0.516281
O O14 0.995755 0.720796 0.735901
O O15 0.000000 0.000000 0.500000
O O16 0.071424 0.234273 0.743093
O O17 0.000000 0.500000 0.500000
O O18 0.000000 0.500000 0.000000
#
# Coordination Sequence:
#
# PCOD8012762 Si02
#       8
#     2   2   2   2   2   2   2   2
#     4  10  22  40  64  90 130 169 213 258 317 390
#     4  10  22  39  60  96 126 166 213 263 322 387
#     4  12  21  37  66  94 128 161 206 270 332 374
#     4  10  21  40  63  90 123 169 212 261 315 389
#     4  12  24  41  67 102 135 166 216 283 332 382
#     4  10  22  37  62  92 125 161 213 262 320 377
#     4  10  23  40  62  97 130 167 216 269 326 385
#     4  10  23  39  62  94 131 168 214 263 321 391
#
# _framework density 20.731551
#
# number of rings (size 3 to 8) (size 9 to 14) (size 15 to 20)
#    0.000    1.500    2.500    2.250    1.750    8.000 
#    0.000    0.625    0.000    1.500    0.000    0.000 
#    0.000    0.000    0.000    0.000    0.000    0.000 
#
# Total GULP energy -198256.315316 kJ/mol
# GULP energy per Si atom -12391.019707 kJ/mol
# Density = 2.068437 g / cm^3
# Si number density = 20.731551 Si / 1000 Ang^3
#
#
#
# Elastic Constant Matrix: (Units=GPa)
#
#
# Indices 1 2 3 4 5 6 
#
# 1 123.2866 32.4360 57.4172 0.1859 -15.2546 -8.4430
# 2 32.4360 70.7642 28.7257 -4.5557 -12.2288 -8.0835
# 3 57.4172 28.7257 129.2742 13.2450 -4.2798 -6.5457
# 4 0.1859 -4.5557 13.2450 36.9199 -0.0850 -0.4846
# 5 -15.2546 -12.2288 -4.2798 -0.0850 30.2300 2.8849
# 6 -8.4430 -8.0835 -6.5457 -0.4846 2.8849 30.4953
#
#
#
# Elastic Compliance Matrix: (Units=1/GPa)
#
#
# Indices 1 2 3 4 5 6 
#
# 1 0.011421 -0.002522 -0.004448 0.001252 0.004004 0.001180
# 2 -0.002522 0.017924 -0.002875 0.003307 0.005295 0.002987
# 3 -0.004448 -0.002875 0.010736 -0.004183 -0.001940 0.000428
# 4 0.001252 0.003307 -0.004183 0.029000 0.001396 0.000654
# 5 0.004004 0.005295 -0.001940 0.001396 0.037104 -0.001392
# 6 0.001180 0.002987 0.000428 0.000654 -0.001392 0.034144
#
#
# Mechanical properties :
#
#
# Convention : Reuss Voigt Hill
#
# Bulk Modulus (GPa) = 49.04272 62.27588 55.65930
# Shear Modulus (GPa) = 29.97329 33.17877 31.57603
#
# Velocity S-wave (km/s) = 3.80647 4.00484 3.90691
# Velocity P-wave (km/s) = 6.55945 7.17561 6.87444
#
# Compressibility (1/GPa) = 0.02039038
#
# Stress axis : x y z
#
# Youngs Moduli (GPa) = 87.56142 55.79220 93.14542
#
# Poissons Ratio (x) = 0.14070 0.41431
# Poissons Ratio (y) = 0.22082 0.26779
# Poissons Ratio (z) = 0.38947 0.16040
#
# Static dielectric constant tensor:
#      x y z
#    x 3.706270 0.189580 0.373200 
#    y 0.189580 -0.424110 0.427680 
#    z 0.373200 0.427680 4.378020 
# 
# 
# High freq. dielectric constant tensor:
#      x y z
#    x 1.790290 -0.002730 0.009890 
#    y -0.002730 1.798230 0.015560 
#    z 0.009890 0.015560 1.832980 
# 
# From -- ./inp_files/427669.got.cif
#   From: 2010.06.25/outbox.cif.g09.slc.cpg/sg2_214_cif.got.tgz:427669.got - 2010.06.27 13:26:56.
