data_PCOD8012397
_publ_section_title
;
Structure prediction by ZEFSAII (Michael W. Deem and Ramdas Pophale) SiO2 
 PCOD8012397
Probable space group: P -1
;
_chemical_formula_sum "Si O2"
_cell_formula_units_Z 14
_cell_length_a 8.745331
_cell_length_b 8.374847
_cell_length_c 9.265928
_cell_angle_alpha 69.855220
_cell_angle_beta 105.426995
_cell_angle_gamma 101.706868
_cell_volume 609.510930
_symmetry_space_group_name_H-M "P -1"
_symmetry_group_IT_number 2
_symmetry_cell_setting 'triclinic'
loop_
_space_group_symop_operation_xyz
x,y,z
-x,-y,-z
loop_
_atom_site_type_symbol
_atom_site_label
_atom_site_fract_x
_atom_site_fract_y
_atom_site_fract_z
Si Si1 0.622919 0.776870 0.235353
Si Si2 0.724576 0.266640 0.781408
Si Si3 0.679654 0.868804 0.896697
Si Si4 0.009029 0.836083 0.948877
Si Si5 0.849047 0.555946 0.520839
Si Si6 0.938504 0.159795 0.364258
Si Si7 0.406107 0.926266 0.641383
O O1 0.438578 0.692965 0.194422
O O2 0.738840 0.638178 0.351229
O O3 0.633293 0.915030 0.321391
O O4 0.675053 0.864951 0.069540
O O5 0.743903 0.390548 0.610848
O O6 0.709226 0.068075 0.790714
O O7 0.882650 0.299249 0.912612
O O8 0.514031 0.801494 0.795230
O O9 0.820896 0.761502 0.909506
O O10 0.085055 0.882561 0.797940
O O11 0.000000 0.000000 0.000000
O O12 0.000000 0.500000 0.500000
O O13 0.923157 0.682782 0.626473
O O14 0.767577 0.185893 0.389560
O O15 0.000000 0.000000 0.500000
O O16 0.500000 0.000000 0.500000
#
# Coordination Sequence:
#
# PCOD8012397 Si02
#       7
#     2   2   2   2   2   2   2
#     4  11  22  44  68  99 134 181 227 274 330 412
#     4  10  22  40  67  95 135 174 221 273 339 392
#     4  10  21  39  72 100 128 173 232 273 333 400
#     4  10  21  40  72  98 130 172 224 278 335 396
#     4  12  28  42  66  99 144 182 219 278 348 395
#     4  12  25  42  68  99 136 175 232 279 330 408
#     4  11  22  38  67 101 131 167 229 287 326 386
#
# _framework density 22.969237
#
# number of rings (size 3 to 8) (size 9 to 14) (size 15 to 20)
#    0.000    1.143    1.429    6.429    8.000    0.571 
#    0.000    0.000    0.000    3.429    0.000    0.000 
#    0.000    0.000    0.000    0.000    0.000    0.000 
#
# Total GULP energy -173486.189253 kJ/mol
# GULP energy per Si atom -12391.870661 kJ/mol
# Density = 2.291696 g / cm^3
# Si number density = 22.969237 Si / 1000 Ang^3
#
#
#
# Elastic Constant Matrix: (Units=GPa)
#
#
# Indices 1 2 3 4 5 6 
#
# 1 184.9668 17.7916 46.6860 -4.3836 26.0223 -2.3065
# 2 17.7916 35.5471 29.6410 -8.8619 -3.0753 1.3458
# 3 46.6860 29.6410 134.1573 -1.5352 6.7509 -4.7670
# 4 -4.3836 -8.8619 -1.5352 28.6541 -4.2317 -4.6402
# 5 26.0223 -3.0753 6.7509 -4.2317 63.6050 -1.4508
# 6 -2.3065 1.3458 -4.7670 -4.6402 -1.4508 28.9645
#
#
#
# Elastic Compliance Matrix: (Units=1/GPa)
#
#
# Indices 1 2 3 4 5 6 
#
# 1 0.006374 -0.002089 -0.001623 -0.000101 -0.002539 0.000194
# 2 -0.002089 0.039295 -0.008082 0.011851 0.004373 -0.001205
# 3 -0.001623 -0.008082 0.009878 -0.002108 -0.000881 0.001490
# 4 -0.000101 0.011851 -0.002108 0.039888 0.003621 0.005666
# 5 -0.002539 0.004373 -0.000881 0.003621 0.017327 0.000898
# 6 0.000194 -0.001205 0.001490 0.005666 0.000898 0.035794
#
#
# Mechanical properties :
#
#
# Convention : Reuss Voigt Hill
#
# Bulk Modulus (GPa) = 31.29104 60.32317 45.80711
# Shear Modulus (GPa) = 27.35253 41.61489 34.48371
#
# Velocity S-wave (km/s) = 3.45459 4.26110 3.87886
# Velocity P-wave (km/s) = 5.43736 7.10837 6.32826
#
# Compressibility (1/GPa) = 0.03195803
#
# Stress axis : x y z
#
# Youngs Moduli (GPa) = 156.88218 25.44841 101.23868
#
# Poissons Ratio (x) = 0.05317 0.16432
# Poissons Ratio (y) = 0.32776 0.81823
# Poissons Ratio (z) = 0.25464 0.20568
#
# Static dielectric constant tensor:
#      x y z
#    x 4.094090 -0.210320 1.960130 
#    y -0.210320 2.901090 -0.132990 
#    z 1.960130 -0.132990 2.408740 
# 
# 
# High freq. dielectric constant tensor:
#      x y z
#    x 1.946680 0.006280 0.013830 
#    y 0.006280 1.850210 0.006520 
#    z 0.013830 0.006520 1.917090 
# 
# From -- ./inp_files/156963.got.cif
#   From: 2010.06.25/outbox.cif.g09.slc.cpg/sg2_79_cif.got.tgz:156963.got - 2010.06.27 13:26:56.
