data_PCOD8012906
_publ_section_title
;
Structure prediction by ZEFSAII (Michael W. Deem and Ramdas Pophale) SiO2 
 PCOD8012906
Probable space group: P -1
;
_chemical_formula_sum "Si O2"
_cell_formula_units_Z 10
_cell_length_a 10.298266
_cell_length_b 7.697170
_cell_length_c 12.358415
_cell_angle_alpha 33.320948
_cell_angle_beta 54.791561
_cell_angle_gamma 64.555718
_cell_volume 436.710679
_symmetry_space_group_name_H-M "P -1"
_symmetry_group_IT_number 2
_symmetry_cell_setting 'triclinic'
loop_
_space_group_symop_operation_xyz
x,y,z
-x,-y,-z
loop_
_atom_site_type_symbol
_atom_site_label
_atom_site_fract_x
_atom_site_fract_y
_atom_site_fract_z
Si Si1 0.624836 0.268071 0.101141
Si Si2 0.815125 0.287025 0.608851
Si Si3 0.823355 0.571993 0.675930
Si Si4 0.667652 0.181554 0.511556
Si Si5 0.181500 0.424384 0.952041
O O1 0.523364 0.926325 0.352332
O O2 0.718461 0.381144 0.104548
O O3 0.500000 0.500000 0.000000
O O4 0.752051 0.270312 0.940849
O O5 0.766257 0.522601 0.604294
O O6 0.690429 0.276384 0.576853
O O7 0.987039 0.416825 0.410845
O O8 0.819018 0.947521 0.838959
O O9 0.771256 0.898120 0.577517
O O10 0.727034 0.482463 0.252439
O O11 0.000000 0.500000 0.000000
#
# Coordination Sequence:
#
# PCOD8012906 Si02
#       5
#     2   2   2   2   2
#     4  10  21  41  65  88 127 168 197 251 317 365
#     4  11  22  41  63  94 123 165 205 256 306 362
#     4  10  21  40  64  90 126 165 203 253 308 366
#     4  11  22  42  64  89 127 163 204 254 311 362
#     4  12  22  39  68  93 121 165 210 251 305 367
#
# _framework density 22.898454999999998
#
# number of rings (size 3 to 8) (size 9 to 14) (size 15 to 20)
#    0.000    1.200    6.000    2.400    0.000    0.800 
#    3.600    4.000    0.000    0.000    0.000    0.000 
#    0.000    0.000    0.000    0.000    0.000    0.000 
#
# Total GULP energy -123989.275871 kJ/mol
# GULP energy per Si atom -12398.927587 kJ/mol
# Density = 2.284634 g / cm^3
# Si number density = 22.898455 Si / 1000 Ang^3
#
#
#
# Elastic Constant Matrix: (Units=GPa)
#
#
# Indices 1 2 3 4 5 6 
#
# 1 119.5196 9.6073 23.7105 -10.0030 -5.9884 26.4986
# 2 9.6073 42.1588 8.6497 9.1998 0.3239 27.9243
# 3 23.7105 8.6497 166.7296 23.5423 -13.2117 -8.6337
# 4 -10.0030 9.1998 23.5423 18.2728 2.2194 -0.6193
# 5 -5.9884 0.3239 -13.2117 2.2194 38.4626 2.4494
# 6 26.4986 27.9243 -8.6337 -0.6193 2.4494 29.5385
#
#
#
# Elastic Compliance Matrix: (Units=1/GPa)
#
#
# Indices 1 2 3 4 5 6 
#
# 1 0.015959 0.018700 -0.005508 0.004998 0.002292 -0.033690
# 2 0.018700 0.120184 -0.008750 -0.044787 0.010058 -0.134722
# 3 -0.005508 -0.008750 0.009763 -0.010925 0.002203 0.015655
# 4 0.004998 -0.044787 -0.010925 0.096644 -0.010566 0.037564
# 5 0.002292 0.010058 0.002203 -0.010566 0.028498 -0.013505
# 6 -0.033690 -0.134722 0.015655 0.037564 -0.013505 0.197919
#
#
# Mechanical properties :
#
#
# Convention : Reuss Voigt Hill
#
# Bulk Modulus (GPa) = 6.46040 45.81589 26.13815
# Shear Modulus (GPa) = 9.77176 36.35082 23.06129
#
# Velocity S-wave (km/s) = 2.06802 3.98864 3.17694
# Velocity P-wave (km/s) = 2.92057 6.42371 4.98968
#
# Compressibility (1/GPa) = 0.15478913
#
# Stress axis : x y z
#
# Youngs Moduli (GPa) = 62.66090 8.32060 102.42886
#
# Poissons Ratio (x) = -0.15559 0.56421
# Poissons Ratio (y) = -1.17174 0.89621
# Poissons Ratio (z) = 0.34515 0.07280
#
# Static dielectric constant tensor:
#      x y z
#    x 4.150280 0.179810 -0.343900 
#    y 0.179810 3.994420 0.377010 
#    z -0.343900 0.377010 4.988480 
# 
# 
# High freq. dielectric constant tensor:
#      x y z
#    x 1.906210 0.020150 -0.015540 
#    y 0.020150 1.881940 0.020530 
#    z -0.015540 0.020530 1.927460 
# 
# From -- ./inp_files/230904.got.cif
#   From: 2010.06.25/outbox.cif.g09.slc.cpg/sg2_116_cif.got.tgz:230904.got - 2010.06.27 13:26:56.
