data_PCOD8012834
_publ_section_title
;
Structure prediction by ZEFSAII (Michael W. Deem and Ramdas Pophale) SiO2 
 PCOD8012834
Probable space group: P -1
;
_chemical_formula_sum "Si O2"
_cell_formula_units_Z 14
_cell_length_a 11.858652
_cell_length_b 6.175223
_cell_length_c 8.762576
_cell_angle_alpha 108.989974
_cell_angle_beta 88.593255
_cell_angle_gamma 112.320224
_cell_volume 557.688861
_symmetry_space_group_name_H-M "P -1"
_symmetry_group_IT_number 2
_symmetry_cell_setting 'triclinic'
loop_
_space_group_symop_operation_xyz
x,y,z
-x,-y,-z
loop_
_atom_site_type_symbol
_atom_site_label
_atom_site_fract_x
_atom_site_fract_y
_atom_site_fract_z
Si Si1 0.298998 0.503547 0.663312
Si Si2 0.911310 0.339597 0.597048
Si Si3 0.093960 0.358092 0.855398
Si Si4 0.258145 0.378015 0.298651
Si Si5 0.486999 0.426215 0.809408
Si Si6 0.240914 0.970466 0.712193
Si Si7 0.881187 0.097106 0.992306
O O1 0.210405 0.314701 0.759077
O O2 0.285929 0.360595 0.472171
O O3 0.437394 0.600934 0.747603
O O4 0.245090 0.709066 0.700824
O O5 0.837017 0.495687 0.702634
O O6 0.824210 0.077650 0.462986
O O7 0.000000 0.500000 0.500000
O O8 0.985518 0.282684 0.717647
O O9 0.028095 0.177354 0.962928
O O10 0.140427 0.645927 0.971115
O O11 0.383797 0.555652 0.253340
O O12 0.208958 0.100946 0.168606
O O13 0.383047 0.150749 0.730683
O O14 0.500000 0.500000 0.000000
O O15 0.157051 0.014006 0.860721
#
# Coordination Sequence:
#
# PCOD8012834 Si02
#       7
#     2   2   2   2   2   2   2
#     4  10  24  45  66  95 137 173 217 273 328 395
#     4  11  21  43  68  95 135 171 219 270 329 400
#     4  10  22  43  64  99 134 173 212 265 347 390
#     4  11  24  42  66  97 131 175 223 270 324 387
#     4  12  26  45  67 101 129 175 233 268 323 389
#     4  10  23  46  66  96 137 177 215 276 328 383
#     4  10  21  40  63  96 133 168 216 269 331 386
#
# _framework density 25.103601000000001
#
# number of rings (size 3 to 8) (size 9 to 14) (size 15 to 20)
#    0.000    1.429    5.714    0.429    2.000    8.571 
#    2.571    0.000    0.000    0.000    0.000    0.000 
#    0.000    0.000    0.000    0.000    0.000    0.000 
#
# Total GULP energy -173576.062909 kJ/mol
# GULP energy per Si atom -12398.290208 kJ/mol
# Density = 2.504646 g / cm^3
# Si number density = 25.103601 Si / 1000 Ang^3
#
#
#
# Elastic Constant Matrix: (Units=GPa)
#
#
# Indices 1 2 3 4 5 6 
#
# 1 114.9302 25.5306 52.9725 -4.3798 -13.2101 24.7244
# 2 25.5306 129.0225 56.1174 -0.9624 -21.8233 39.8672
# 3 52.9725 56.1174 170.3426 20.8485 -5.1504 15.8892
# 4 -4.3798 -0.9624 20.8485 49.6929 12.3576 2.5015
# 5 -13.2101 -21.8233 -5.1504 12.3576 48.0228 -7.8159
# 6 24.7244 39.8672 15.8892 2.5015 -7.8159 38.8984
#
#
#
# Elastic Compliance Matrix: (Units=1/GPa)
#
#
# Indices 1 2 3 4 5 6 
#
# 1 0.012131 0.002192 -0.004016 0.002738 0.001877 -0.008116
# 2 0.002192 0.013880 -0.004134 0.001918 0.003811 -0.013287
# 3 -0.004016 -0.004134 0.008653 -0.004129 -0.000434 0.003433
# 4 0.002738 0.001918 -0.004129 0.023789 -0.005704 -0.004695
# 5 0.001877 0.003811 -0.000434 -0.005704 0.024555 0.000379
# 6 -0.008116 -0.013287 0.003433 -0.004695 0.000379 0.043460
#
#
# Mechanical properties :
#
#
# Convention : Reuss Voigt Hill
#
# Bulk Modulus (GPa) = 43.96106 75.94846 59.95476
# Shear Modulus (GPa) = 34.25435 45.96781 40.11108
#
# Velocity S-wave (km/s) = 3.69795 4.28381 4.00161
# Velocity P-wave (km/s) = 5.98189 7.40187 6.72944
#
# Compressibility (1/GPa) = 0.02274740
#
# Stress axis : x y z
#
# Youngs Moduli (GPa) = 82.43374 72.04831 115.56225
#
# Poissons Ratio (x) = -0.15791 0.46409
# Poissons Ratio (y) = -0.18068 0.47775
# Poissons Ratio (z) = 0.33104 0.29786
#
# Static dielectric constant tensor:
#      x y z
#    x 4.978950 0.198720 0.005990 
#    y 0.198720 4.805640 -0.111030 
#    z 0.005990 -0.111030 5.326480 
# 
# 
# High freq. dielectric constant tensor:
#      x y z
#    x 2.009910 -0.006830 -0.011620 
#    y -0.006830 2.020470 -0.012340 
#    z -0.011620 -0.012340 2.023480 
# 
# From -- ./inp_files/245460.got.cif
#   From: 2010.06.25/outbox.cif.g09.slc.cpg/sg2_123_cif.got.tgz:245460.got - 2010.06.27 13:26:56.
