data_PCOD8012368
_publ_section_title
;
Structure prediction by ZEFSAII (Michael W. Deem and Ramdas Pophale) SiO2 
 PCOD8012368
Probable space group: P -1
;
_chemical_formula_sum "Si O2"
_cell_formula_units_Z 16
_cell_length_a 11.754713
_cell_length_b 8.991261
_cell_length_c 15.454482
_cell_angle_alpha 132.713777
_cell_angle_beta 47.110679
_cell_angle_gamma 139.087136
_cell_volume 736.542032
_symmetry_space_group_name_H-M "P -1"
_symmetry_group_IT_number 2
_symmetry_cell_setting 'triclinic'
loop_
_space_group_symop_operation_xyz
x,y,z
-x,-y,-z
loop_
_atom_site_type_symbol
_atom_site_label
_atom_site_fract_x
_atom_site_fract_y
_atom_site_fract_z
Si Si1 0.067968 0.063695 0.267379
Si Si2 0.319462 0.138696 0.670299
Si Si3 0.352587 0.881181 0.287406
Si Si4 0.327336 0.439031 0.945040
Si Si5 0.289939 0.372562 0.123420
Si Si6 0.041353 0.236002 0.522594
Si Si7 0.319269 0.871990 0.102032
Si Si8 0.630386 0.250186 0.428217
O O1 0.162707 0.912108 0.163861
O O2 0.845912 0.891947 0.315332
O O3 0.116649 0.210805 0.210765
O O4 0.127208 0.247177 0.388780
O O5 0.330783 0.287166 0.806004
O O6 0.503673 0.285490 0.575086
O O7 0.287521 0.886044 0.618325
O O8 0.375351 0.658188 0.197754
O O9 0.367902 0.964161 0.212641
O O10 0.151186 0.783264 0.392930
O O11 0.512876 0.106464 0.347672
O O12 0.540196 0.649106 0.943010
O O13 0.228245 0.278323 0.019348
O O14 0.230254 0.583254 0.028326
O O15 0.197282 0.486103 0.587161
O O16 0.000000 0.000000 0.500000
O O17 0.500000 0.000000 0.000000
#
# Coordination Sequence:
#
# PCOD8012368 Si02
#       8
#     2   2   2   2   2   2   2   2
#     4  12  24  42  68 102 142 183 231 289 347 411
#     4  11  24  42  69 109 136 176 236 293 345 410
#     4  11  23  46  72 104 135 179 239 283 347 414
#     4  10  21  41  65  94 136 181 232 277 340 406
#     4  10  21  39  70  95 133 180 231 286 335 404
#     4  12  26  46  67 103 147 182 222 287 359 421
#     4  11  24  43  68  99 136 192 229 274 347 416
#     4  11  25  43  73 106 137 178 235 290 348 416
#
# _framework density 21.723133000000001
#
# number of rings (size 3 to 8) (size 9 to 14) (size 15 to 20)
#    0.000    1.000    5.000    1.500    1.750    2.500 
#    2.250    2.500    0.000    0.000    0.000    0.000 
#    0.000    0.000    0.000    0.000    0.000    0.000 
#
# Total GULP energy -198376.453748 kJ/mol
# GULP energy per Si atom -12398.528359 kJ/mol
# Density = 2.167369 g / cm^3
# Si number density = 21.723133 Si / 1000 Ang^3
#
#
#
# Elastic Constant Matrix: (Units=GPa)
#
#
# Indices 1 2 3 4 5 6 
#
# 1 118.5835 44.8899 48.2530 2.0720 -13.2733 5.8060
# 2 44.8899 76.7296 24.1133 -2.4734 -8.9091 -1.3023
# 3 48.2530 24.1133 139.6799 -3.5853 1.3538 -4.3613
# 4 2.0720 -2.4734 -3.5853 30.9486 -0.8912 3.9423
# 5 -13.2733 -8.9091 1.3538 -0.8912 36.1110 -9.5760
# 6 5.8060 -1.3023 -4.3613 3.9423 -9.5760 24.7698
#
#
#
# Elastic Compliance Matrix: (Units=1/GPa)
#
#
# Indices 1 2 3 4 5 6 
#
# 1 0.012562 -0.006067 -0.003434 -0.001309 0.002503 -0.002692
# 2 -0.006067 0.017263 -0.000780 0.001385 0.002914 0.003099
# 3 -0.003434 -0.000780 0.008567 0.000916 -0.001325 0.001614
# 4 -0.001309 0.001385 0.000916 0.033235 -0.000683 -0.005013
# 5 0.002503 0.002914 -0.001325 -0.000683 0.032554 0.012027
# 6 -0.002692 0.003099 0.001614 -0.005013 0.012027 0.046897
#
#
# Mechanical properties :
#
#
# Convention : Reuss Voigt Hill
#
# Bulk Modulus (GPa) = 56.08837 63.27839 59.68338
# Shear Modulus (GPa) = 28.15575 32.88166 30.51871
#
# Velocity S-wave (km/s) = 3.60407 3.89481 3.75226
# Velocity P-wave (km/s) = 6.57227 7.02985 6.80491
#
# Compressibility (1/GPa) = 0.01782901
#
# Stress axis : x y z
#
# Youngs Moduli (GPa) = 79.60623 57.92697 116.72721
#
# Poissons Ratio (x) = 0.35146 0.40085
# Poissons Ratio (y) = 0.48299 0.09107
# Poissons Ratio (z) = 0.27337 0.04519
#
# Static dielectric constant tensor:
#      x y z
#    x 4.114180 -0.155120 -0.028710 
#    y -0.155120 3.598570 -0.119570 
#    z -0.028710 -0.119570 4.372150 
# 
# 
# High freq. dielectric constant tensor:
#      x y z
#    x 1.858120 -0.011170 -0.008590 
#    y -0.011170 1.825680 -0.009290 
#    z -0.008590 -0.009290 1.878360 
# 
# From -- ./inp_files/417014.got.cif
#   From: 2010.06.25/outbox.cif.g09.slc.cpg/sg2_209_cif.got.tgz:417014.got - 2010.06.27 13:26:56.
