data_PCOD8012413
_publ_section_title
;
Structure prediction by ZEFSAII (Michael W. Deem and Ramdas Pophale) SiO2 
 PCOD8012413
Probable space group: P -1
;
_chemical_formula_sum "Si O2"
_cell_formula_units_Z 10
_cell_length_a 10.883842
_cell_length_b 8.595509
_cell_length_c 8.578467
_cell_angle_alpha 51.800254
_cell_angle_beta 131.129607
_cell_angle_gamma 138.972868
_cell_volume 384.487890
_symmetry_space_group_name_H-M "P -1"
_symmetry_group_IT_number 2
_symmetry_cell_setting 'triclinic'
loop_
_space_group_symop_operation_xyz
x,y,z
-x,-y,-z
loop_
_atom_site_type_symbol
_atom_site_label
_atom_site_fract_x
_atom_site_fract_y
_atom_site_fract_z
Si Si1 0.317392 0.945023 0.068731
Si Si2 0.337898 0.638115 0.700902
Si Si3 0.510499 0.697689 0.489918
Si Si4 0.869773 0.096243 0.379696
Si Si5 0.958652 0.354061 0.736709
O O1 0.353360 0.739341 0.258181
O O2 0.104637 0.829774 0.056400
O O3 0.500836 0.204590 0.127848
O O4 0.291470 0.973495 0.849002
O O5 0.447555 0.596386 0.678698
O O6 0.240111 0.769850 0.464574
O O7 0.149182 0.391194 0.781759
O O8 0.500000 0.500000 0.500000
O O9 0.737032 0.947093 0.513237
O O10 0.996510 0.383924 0.339863
O O11 0.000000 0.000000 0.500000
#
# Coordination Sequence:
#
# PCOD8012413 Si02
#       5
#     2   2   2   2   2
#     4  11  23  45  73  99 134 182 227 271 338 405
#     4  10  22  42  72 100 134 178 223 274 343 401
#     4  11  23  43  69 100 139 174 220 278 341 404
#     4  12  25  43  68 101 140 178 229 281 331 395
#     4  10  21  39  74 100 134 172 226 277 340 398
#
# _framework density 26.008621000000002
#
# number of rings (size 3 to 8) (size 9 to 14) (size 15 to 20)
#    0.000    1.200    2.000    6.000    2.800    0.000 
#    0.000    5.000    0.000    0.000    0.000    0.000 
#    0.000    0.000    0.000    0.000    0.000    0.000 
#
# Total GULP energy -123897.113754 kJ/mol
# GULP energy per Si atom -12389.711375 kJ/mol
# Density = 2.594942 g / cm^3
# Si number density = 26.008621 Si / 1000 Ang^3
#
#
#
# Elastic Constant Matrix: (Units=GPa)
#
#
# Indices 1 2 3 4 5 6 
#
# 1 163.5986 34.3571 15.4319 1.8677 -22.4679 23.0833
# 2 34.3571 69.3970 8.7130 13.0351 -0.5083 10.7566
# 3 15.4319 8.7130 43.3466 20.0405 9.3541 -7.6157
# 4 1.8677 13.0351 20.0405 29.5869 3.0574 -12.0491
# 5 -22.4679 -0.5083 9.3541 3.0574 29.9976 -7.4123
# 6 23.0833 10.7566 -7.6157 -12.0491 -7.4123 55.4789
#
#
#
# Elastic Compliance Matrix: (Units=1/GPa)
#
#
# Indices 1 2 3 4 5 6 
#
# 1 0.008761 -0.003927 -0.005988 0.003682 0.007517 -0.001902
# 2 -0.003927 0.018841 0.002878 -0.011511 -0.003480 -0.004589
# 3 -0.005988 0.002878 0.039938 -0.026575 -0.014246 -0.000259
# 4 0.003682 -0.011511 -0.026575 0.060417 0.007452 0.011169
# 5 0.007517 -0.003480 -0.014246 0.007452 0.043331 0.002999
# 6 -0.001902 -0.004589 -0.000259 0.011169 0.002999 0.022497
#
#
# Mechanical properties :
#
#
# Convention : Reuss Voigt Hill
#
# Bulk Modulus (GPa) = 18.70390 43.70515 31.20452
# Shear Modulus (GPa) = 22.15510 37.53537 29.84523
#
# Velocity S-wave (km/s) = 2.92179 3.80305 3.39117
# Velocity P-wave (km/s) = 4.31156 6.01040 5.23041
#
# Compressibility (1/GPa) = 0.05346479
#
# Stress axis : x y z
#
# Youngs Moduli (GPa) = 114.14466 53.07619 25.03852
#
# Poissons Ratio (x) = 0.20844 0.14993
# Poissons Ratio (y) = 0.44827 -0.07205
# Poissons Ratio (z) = 0.68352 -0.15274
#
# Static dielectric constant tensor:
#      x y z
#    x 5.519110 0.478750 -0.447750 
#    y 0.478750 4.794880 0.068180 
#    z -0.447750 0.068180 4.380690 
# 
# 
# High freq. dielectric constant tensor:
#      x y z
#    x 2.070320 0.020020 -0.027800 
#    y 0.020020 2.040930 0.014760 
#    z -0.027800 0.014760 2.002310 
# 
# From -- ./inp_files/148146.got.cif
#   From: 2010.06.25/outbox.cif.g09.slc.cpg/sg2_75_cif.got.tgz:148146.got - 2010.06.27 13:26:56.
