data_PCOD8012898
_publ_section_title
;
Structure prediction by ZEFSAII (Michael W. Deem and Ramdas Pophale) SiO2 
 PCOD8012898
Probable space group: P -1
;
_chemical_formula_sum "Si O2"
_cell_formula_units_Z 12
_cell_length_a 9.112642
_cell_length_b 9.044144
_cell_length_c 11.504572
_cell_angle_alpha 105.910896
_cell_angle_beta 40.689024
_cell_angle_gamma 104.396421
_cell_volume 593.217221
_symmetry_space_group_name_H-M "P -1"
_symmetry_group_IT_number 2
_symmetry_cell_setting 'triclinic'
loop_
_space_group_symop_operation_xyz
x,y,z
-x,-y,-z
loop_
_atom_site_type_symbol
_atom_site_label
_atom_site_fract_x
_atom_site_fract_y
_atom_site_fract_z
Si Si1 0.965708 0.672858 0.520719
Si Si2 0.847602 0.051092 0.383344
Si Si3 0.560821 0.329013 0.192082
Si Si4 0.643512 0.603547 0.346028
Si Si5 0.914363 0.250141 0.787750
Si Si6 0.418015 0.866818 0.641281
O O1 0.705876 0.700446 0.660285
O O2 0.000000 0.500000 0.500000
O O3 0.056921 0.784873 0.591623
O O4 0.103873 0.712662 0.329132
O O5 0.799153 0.067194 0.276688
O O6 0.615492 0.998249 0.579939
O O7 0.032965 0.927097 0.263648
O O8 0.629984 0.511063 0.212210
O O9 0.653691 0.227665 0.220716
O O10 0.672150 0.276927 0.994999
O O11 0.500000 0.500000 0.500000
O O12 0.527815 0.765320 0.450218
O O13 0.901807 0.631335 0.236721
#
# Coordination Sequence:
#
# PCOD8012898 Si02
#       6
#     2   2   2   2   2   2
#     4  12  25  42  63  87 125 164 202 253 305 359
#     4  10  21  40  64  90 123 160 202 248 303 364
#     4  11  22  38  66  92 123 157 205 252 304 357
#     4   9  16  36  62  89 119 158 197 245 294 353
#     4  11  23  39  64  93 122 161 203 250 305 357
#     4   9  19  38  67  90 117 163 204 245 302 359
#
# _framework density 20.228679
#
# number of rings (size 3 to 8) (size 9 to 14) (size 15 to 20)
#    0.000    1.667    5.000    2.000    2.333    2.000 
#    0.000    0.000    0.000    0.000    0.000    0.000 
#    0.000    0.000    0.000    0.000    0.000    0.000 
#
# Total GULP energy -148765.381121 kJ/mol
# GULP energy per Si atom -12397.115093 kJ/mol
# Density = 2.018264 g / cm^3
# Si number density = 20.228679 Si / 1000 Ang^3
#
#
#
# Elastic Constant Matrix: (Units=GPa)
#
#
# Indices 1 2 3 4 5 6 
#
# 1 76.3174 35.2252 26.9145 3.1290 7.2627 -8.8043
# 2 35.2252 115.7443 23.6148 6.9299 1.1529 4.5350
# 3 26.9145 23.6148 102.4367 3.8600 15.8103 -12.4820
# 4 3.1290 6.9299 3.8600 19.8477 0.3840 1.3593
# 5 7.2627 1.1529 15.8103 0.3840 10.6821 -2.0910
# 6 -8.8043 4.5350 -12.4820 1.3593 -2.0910 46.0037
#
#
#
# Elastic Compliance Matrix: (Units=1/GPa)
#
#
# Indices 1 2 3 4 5 6 
#
# 1 0.017072 -0.004827 -0.001777 -0.000709 -0.007858 0.002925
# 2 -0.004827 0.010738 -0.002154 -0.002510 0.004957 -0.002267
# 3 -0.001777 -0.002154 0.014018 -0.001529 -0.018689 0.002871
# 4 -0.000709 -0.002510 -0.001529 0.051777 0.000803 -0.001796
# 5 -0.007858 0.004957 -0.018689 0.000803 0.125787 -0.001370
# 6 0.002925 -0.002267 0.002871 -0.001796 -0.001370 0.023291
#
#
# Mechanical properties :
#
#
# Convention : Reuss Voigt Hill
#
# Bulk Modulus (GPa) = 41.13198 51.77861 46.45529
# Shear Modulus (GPa) = 18.63576 29.22296 23.92936
#
# Velocity S-wave (km/s) = 3.03851 3.80495 3.44312
# Velocity P-wave (km/s) = 5.71732 6.70491 6.23071
#
# Compressibility (1/GPa) = 0.02431199
#
# Stress axis : x y z
#
# Youngs Moduli (GPa) = 58.57518 93.12741 71.33902
#
# Poissons Ratio (x) = 0.44953 0.12676
# Poissons Ratio (y) = 0.28274 0.15366
# Poissons Ratio (z) = 0.10408 0.20059
#
# Static dielectric constant tensor:
#      x y z
#    x 3.619970 0.167130 0.018070 
#    y 0.167130 4.221090 0.237910 
#    z 0.018070 0.237910 3.458430 
# 
# 
# High freq. dielectric constant tensor:
#      x y z
#    x 1.782860 0.002950 -0.005840 
#    y 0.002950 1.806600 0.001060 
#    z -0.005840 0.001060 1.757850 
# 
# From -- ./inp_files/154304.got.cif
#   From: 2010.06.25/outbox.cif.g09.slc.cpg/sg2_78_cif.got.tgz:154304.got - 2010.06.27 13:26:56.
