data_PCOD8012911
_publ_section_title
;
Structure prediction by ZEFSAII (Michael W. Deem and Ramdas Pophale) SiO2 
 PCOD8012911
Probable space group: P -1
;
_chemical_formula_sum "Si O2"
_cell_formula_units_Z 16
_cell_length_a 13.169807
_cell_length_b 11.444403
_cell_length_c 12.832876
_cell_angle_alpha 33.991089
_cell_angle_beta 133.414989
_cell_angle_gamma 143.171237
_cell_volume 646.564318
_symmetry_space_group_name_H-M "P -1"
_symmetry_group_IT_number 2
_symmetry_cell_setting 'triclinic'
loop_
_space_group_symop_operation_xyz
x,y,z
-x,-y,-z
loop_
_atom_site_type_symbol
_atom_site_label
_atom_site_fract_x
_atom_site_fract_y
_atom_site_fract_z
Si Si1 0.394192 0.707184 0.672316
Si Si2 0.049337 0.702604 0.972822
Si Si3 0.323289 0.155354 0.535232
Si Si4 0.835623 0.397249 0.236948
Si Si5 0.802619 0.781149 0.386988
Si Si6 0.514128 0.454299 0.810113
Si Si7 0.393867 0.927708 0.168512
Si Si8 0.835910 0.393593 0.594232
O O1 0.336811 0.657459 0.790366
O O2 0.497599 0.586563 0.803680
O O3 0.220606 0.567792 0.584846
O O4 0.500000 0.000000 0.500000
O O5 0.240552 0.801855 0.070293
O O6 0.905610 0.587786 0.047041
O O7 0.000000 0.500000 0.000000
O O8 0.047204 0.931706 0.751331
O O9 0.251371 0.224309 0.529019
O O10 0.340105 0.330829 0.320731
O O11 0.505033 0.207540 0.659421
O O12 0.193757 0.866519 0.622343
O O13 0.975824 0.541384 0.322164
O O14 0.656701 0.694170 0.265242
O O15 0.858994 0.590043 0.556526
O O16 0.537605 0.231030 0.026058
O O17 0.308199 0.886940 0.253124
#
# Coordination Sequence:
#
# PCOD8012911 Si02
#       8
#     2   2   2   2   2   2   2   2
#     4  11  20  42  70  91 131 168 216 275 316 385
#     4  10  21  42  59  92 133 168 216 264 319 388
#     4  12  21  42  65  97 133 168 220 267 319 386
#     4  11  23  40  64  95 129 174 210 270 328 377
#     4  10  21  40  64  90 133 171 212 264 321 380
#     4  10  22  39  65  98 128 166 217 267 323 377
#     4  10  22  41  66  94 129 176 214 264 327 373
#     4  10  22  43  63  93 132 174 215 264 328 384
#
# _framework density 24.746185000000001
#
# number of rings (size 3 to 8) (size 9 to 14) (size 15 to 20)
#    0.000    1.500    5.000    0.750    0.000    2.500 
#    4.500   13.750    0.000    0.000    0.000    0.000 
#    0.000    0.000    0.000    0.000    0.000    0.000 
#
# Total GULP energy -198282.149375 kJ/mol
# GULP energy per Si atom -12392.634336 kJ/mol
# Density = 2.468986 g / cm^3
# Si number density = 24.746185 Si / 1000 Ang^3
#
#
#
# Elastic Constant Matrix: (Units=GPa)
#
#
# Indices 1 2 3 4 5 6 
#
# 1 106.5197 16.7125 48.5089 -10.9400 -45.1412 -15.5198
# 2 16.7125 57.5446 16.1353 -12.0968 -14.9070 -4.1944
# 3 48.5089 16.1353 111.9656 -28.4378 -12.8891 -6.9347
# 4 -10.9400 -12.0968 -28.4378 40.6574 3.6504 -3.5005
# 5 -45.1412 -14.9070 -12.8891 3.6504 30.3824 -2.5395
# 6 -15.5198 -4.1944 -6.9347 -3.5005 -2.5395 36.8405
#
#
#
# Elastic Compliance Matrix: (Units=1/GPa)
#
#
# Indices 1 2 3 4 5 6 
#
# 1 0.047928 0.010845 -0.011428 0.003673 0.073305 0.024676
# 2 0.010845 0.023961 -0.002881 0.006432 0.026644 0.009202
# 3 -0.011428 -0.002881 0.014399 0.007108 -0.013362 -0.002677
# 4 0.003673 0.006432 0.007108 0.032346 0.008349 0.007267
# 5 0.073305 0.026644 -0.013362 0.008349 0.151793 0.042656
# 6 0.024676 0.009202 -0.002677 0.007267 0.042656 0.041714
#
#
# Mechanical properties :
#
#
# Convention : Reuss Voigt Hill
#
# Bulk Modulus (GPa) = 12.60070 48.74927 30.67499
# Shear Modulus (GPa) = 14.47085 34.55428 24.51256
#
# Velocity S-wave (km/s) = 2.42083 3.74083 3.15073
# Velocity P-wave (km/s) = 3.59401 6.19684 5.06546
#
# Compressibility (1/GPa) = 0.07936064
#
# Stress axis : x y z
#
# Youngs Moduli (GPa) = 20.86448 41.73474 69.44905
#
# Poissons Ratio (x) = -0.45261 0.79366
# Poissons Ratio (y) = -0.22627 0.20007
# Poissons Ratio (z) = 0.23844 0.12023
#
# Static dielectric constant tensor:
#      x y z
#    x 4.266760 -0.056560 -0.083380 
#    y -0.056560 4.758730 -0.192750 
#    z -0.083380 -0.192750 4.874640 
# 
# 
# High freq. dielectric constant tensor:
#      x y z
#    x 1.963620 0.007230 -0.018300 
#    y 0.007230 2.000760 -0.003890 
#    z -0.018300 -0.003890 1.988220 
# 
# From -- ./inp_files/452163.got.cif
#   From: 2010.06.25/outbox.cif.g09.slc.cpg/sg2_227_cif.got.tgz:452163.got - 2010.06.27 13:26:56.
