data_PCOD8012380
_publ_section_title
;
Structure prediction by ZEFSAII (Michael W. Deem and Ramdas Pophale) SiO2 
 PCOD8012380
Probable space group: P -1
;
_chemical_formula_sum "Si O2"
_cell_formula_units_Z 16
_cell_length_a 8.596506
_cell_length_b 12.229916
_cell_length_c 9.432800
_cell_angle_alpha 80.487253
_cell_angle_beta 47.853060
_cell_angle_gamma 95.105329
_cell_volume 697.551514
_symmetry_space_group_name_H-M "P -1"
_symmetry_group_IT_number 2
_symmetry_cell_setting 'triclinic'
loop_
_space_group_symop_operation_xyz
x,y,z
-x,-y,-z
loop_
_atom_site_type_symbol
_atom_site_label
_atom_site_fract_x
_atom_site_fract_y
_atom_site_fract_z
Si Si1 0.852704 0.961023 0.299574
Si Si2 0.645585 0.716044 0.393176
Si Si3 0.687126 0.034722 0.109479
Si Si4 0.342265 0.584462 0.827546
Si Si5 0.018451 0.167809 0.328245
Si Si6 0.491957 0.764166 0.925001
Si Si7 0.620174 0.204976 0.703407
Si Si8 0.924065 0.662705 0.998700
O O1 0.717723 0.827758 0.428459
O O2 0.719239 0.019573 0.260009
O O3 0.880752 0.034242 0.412393
O O4 0.093206 0.966136 0.102396
O O5 0.530910 0.609641 0.586777
O O6 0.482200 0.733347 0.367785
O O7 0.855326 0.693555 0.191512
O O8 0.629023 0.153828 0.098781
O O9 0.499123 0.930417 0.181871
O O10 0.433911 0.641046 0.908639
O O11 0.155345 0.637608 0.871189
O O12 0.256186 0.447681 0.930496
O O13 0.249540 0.176566 0.256169
O O14 0.062320 0.230414 0.135458
O O15 0.875717 0.223548 0.508231
O O16 0.402374 0.737464 0.144830
#
# Coordination Sequence:
#
# PCOD8012380 Si02
#       8
#     2   2   2   2   2   2   2   2
#     4  10  21  39  70  99 130 176 213 266 327 396
#     4  11  22  44  71  99 129 170 225 268 327 393
#     4  10  21  40  63  94 135 177 216 263 322 386
#     4  11  26  43  74  98 123 175 225 277 324 380
#     4  12  24  41  65  98 137 178 214 263 335 391
#     4  12  25  43  62 100 139 171 215 275 325 388
#     4  11  24  40  65  94 138 179 212 263 330 388
#     4  11  23  48  71  95 130 168 230 275 319 392
#
# _framework density 22.937373999999998
#
# number of rings (size 3 to 8) (size 9 to 14) (size 15 to 20)
#    0.000    1.000    3.750    3.750    1.750    4.000 
#    0.000    0.625    0.000    0.000    0.000    0.000 
#    0.000    0.000    0.000    0.000    0.000    0.000 
#
# Total GULP energy -198476.254375 kJ/mol
# GULP energy per Si atom -12404.765898 kJ/mol
# Density = 2.288517 g / cm^3
# Si number density = 22.937374 Si / 1000 Ang^3
#
#
#
# Elastic Constant Matrix: (Units=GPa)
#
#
# Indices 1 2 3 4 5 6 
#
# 1 63.5001 26.3582 20.4246 3.5193 -2.7181 16.0905
# 2 26.3582 86.2845 8.0941 4.6798 6.2619 22.3718
# 3 20.4246 8.0941 104.3722 10.4773 -13.2900 11.1505
# 4 3.5193 4.6798 10.4773 29.0225 1.5539 -1.2276
# 5 -2.7181 6.2619 -13.2900 1.5539 16.4464 10.1367
# 6 16.0905 22.3718 11.1505 -1.2276 10.1367 33.3989
#
#
#
# Elastic Compliance Matrix: (Units=1/GPa)
#
#
# Indices 1 2 3 4 5 6 
#
# 1 0.021099 -0.004328 -0.001059 -0.002496 0.010864 -0.010301
# 2 -0.004328 0.015153 0.000724 -0.002495 -0.000600 -0.008216
# 3 -0.001059 0.000724 0.013640 -0.006265 0.017340 -0.010021
# 4 -0.002496 -0.002495 -0.006265 0.038682 -0.014904 0.010911
# 5 0.010864 -0.000600 0.017340 -0.014904 0.104722 -0.042952
# 6 -0.010301 -0.008216 -0.010021 0.010911 -0.042952 0.057190
#
#
# Mechanical properties :
#
#
# Convention : Reuss Voigt Hill
#
# Bulk Modulus (GPa) = 24.65195 40.43451 32.54323
# Shear Modulus (GPa) = 18.29271 29.05890 23.67580
#
# Velocity S-wave (km/s) = 2.82708 3.56319 3.21626
# Velocity P-wave (km/s) = 4.62897 5.88174 5.29255
#
# Compressibility (1/GPa) = 0.04056474
#
# Stress axis : x y z
#
# Youngs Moduli (GPa) = 47.39629 65.99363 73.31608
#
# Poissons Ratio (x) = 0.28563 0.07762
# Poissons Ratio (y) = 0.20514 -0.05305
# Poissons Ratio (z) = 0.05018 -0.04775
#
# Static dielectric constant tensor:
#      x y z
#    x 4.064340 0.155320 -0.178630 
#    y 0.155320 4.140840 0.104410 
#    z -0.178630 0.104410 4.119200 
# 
# 
# High freq. dielectric constant tensor:
#      x y z
#    x 1.901130 0.007400 -0.014230 
#    y 0.007400 1.896250 0.008120 
#    z -0.014230 0.008120 1.911260 
# 
# From -- ./inp_files/187339.got.cif
#   From: 2010.06.25/outbox.cif.g09.slc.cpg/sg2_94_cif.got.tgz:187339.got - 2010.06.27 13:26:56.
