data_PCOD8012968
_publ_section_title
;
Structure prediction by ZEFSAII (Michael W. Deem and Ramdas Pophale) SiO2 
 PCOD8012968
Probable space group: P -1
;
_chemical_formula_sum "Si O2"
_cell_formula_units_Z 16
_cell_length_a 5.089554
_cell_length_b 22.128272
_cell_length_c 8.284427
_cell_angle_alpha 60.692504
_cell_angle_beta 84.564984
_cell_angle_gamma 57.479871
_cell_volume 667.783781
_symmetry_space_group_name_H-M "P -1"
_symmetry_group_IT_number 2
_symmetry_cell_setting 'triclinic'
loop_
_space_group_symop_operation_xyz
x,y,z
-x,-y,-z
loop_
_atom_site_type_symbol
_atom_site_label
_atom_site_fract_x
_atom_site_fract_y
_atom_site_fract_z
Si Si1 0.707407 0.332836 0.126665
Si Si2 0.339177 0.501665 0.766601
Si Si3 0.449712 0.408041 0.578976
Si Si4 0.880948 0.063383 0.278289
Si Si5 0.409746 0.065858 0.059683
Si Si6 0.161205 0.250092 0.759601
Si Si7 0.410400 0.249969 0.082820
Si Si8 0.711554 0.660251 0.591153
O O1 0.592612 0.294828 0.048638
O O2 0.609443 0.314345 0.330030
O O3 0.085902 0.290818 0.153808
O O4 0.532428 0.432945 0.985211
O O5 0.258756 0.457385 0.687633
O O6 0.548767 0.529059 0.631872
O O7 0.030295 0.583971 0.762339
O O8 0.256496 0.376665 0.542095
O O9 0.798930 0.327218 0.709796
O O10 0.728988 0.041994 0.167563
O O11 0.623709 0.153872 0.251832
O O12 0.182521 0.061729 0.203431
O O13 0.000000 0.000000 0.500000
O O14 0.213686 0.159824 0.873592
O O15 0.500000 0.000000 0.000000
O O16 0.281125 0.259455 0.562477
O O17 0.361835 0.254129 0.889082
#
# Coordination Sequence:
#
# PCOD8012968 Si02
#       8
#     2   2   2   2   2   2   2   2
#     4  12  26  42  67 100 139 180 229 292 345 399
#     4  10  22  39  63  95 130 186 233 283 340 412
#     4  10  21  40  64  95 127 183 235 276 339 408
#     4  11  25  49  75 107 143 185 233 285 350 435
#     4  11  25  46  76 111 142 183 229 293 358 413
#     4  10  23  43  68  95 136 181 232 275 333 428
#     4  11  25  46  70  97 133 189 230 270 344 422
#     4  11  25  39  64  99 138 177 232 294 348 389
#
# _framework density 23.959851
#
# number of rings (size 3 to 8) (size 9 to 14) (size 15 to 20)
#    0.000    1.250    1.250    3.750    8.750    1.500 
#    2.250    0.000    0.000    0.000    0.000    0.000 
#    0.000    0.000    0.000    0.000    0.000    0.000 
#
# Total GULP energy -198371.677716 kJ/mol
# GULP energy per Si atom -12398.229857 kJ/mol
# Density = 2.390532 g / cm^3
# Si number density = 23.959851 Si / 1000 Ang^3
#
#
#
# Elastic Constant Matrix: (Units=GPa)
#
#
# Indices 1 2 3 4 5 6 
#
# 1 41.9731 -5.3608 16.1942 -12.8165 -1.9356 -4.6349
# 2 -5.3608 91.9826 49.6464 -16.6363 -4.9352 -2.1969
# 3 16.1942 49.6464 159.7258 -32.3975 -16.2861 -15.8564
# 4 -12.8165 -16.6363 -32.3975 37.7076 -6.6147 -5.4128
# 5 -1.9356 -4.9352 -16.2861 -6.6147 29.8769 3.2247
# 6 -4.6349 -2.1969 -15.8564 -5.4128 3.2247 38.1840
#
#
#
# Elastic Compliance Matrix: (Units=1/GPa)
#
#
# Indices 1 2 3 4 5 6 
#
# 1 0.029507 0.004928 -0.000964 0.012872 0.004520 0.004908
# 2 0.004928 0.014158 -0.003614 0.005201 0.001786 0.000499
# 3 -0.000964 -0.003614 0.010393 0.008813 0.006450 0.004695
# 4 0.012872 0.005201 0.008813 0.044969 0.015309 0.010603
# 5 0.004520 0.001786 0.006450 0.015309 0.040742 0.002059
# 6 0.004908 0.000499 0.004695 0.010603 0.002059 0.030092
#
#
# Mechanical properties :
#
#
# Convention : Reuss Voigt Hill
#
# Bulk Modulus (GPa) = 18.26211 46.07124 32.16667
# Shear Modulus (GPa) = 26.67894 36.70049 31.68972
#
# Velocity S-wave (km/s) = 3.34051 3.91800 3.64073
# Velocity P-wave (km/s) = 4.74523 6.30380 5.57921
#
# Compressibility (1/GPa) = 0.05475820
#
# Stress axis : x y z
#
# Youngs Moduli (GPa) = 33.89000 70.63305 96.21818
#
# Poissons Ratio (x) = -0.34809 0.09280
# Poissons Ratio (y) = -0.16701 0.34769
# Poissons Ratio (z) = 0.03268 0.25524
#
# Static dielectric constant tensor:
#      x y z
#    x 4.359160 0.051650 0.004410 
#    y 0.051650 4.458820 -0.248470 
#    z 0.004410 -0.248470 4.337610 
# 
# 
# High freq. dielectric constant tensor:
#      x y z
#    x 1.954880 0.006270 -0.006890 
#    y 0.006270 1.941850 -0.005340 
#    z -0.006890 -0.005340 1.960240 
# 
# From -- ./inp_files/135196.got.cif
#   From: 2010.06.25/outbox.cif.g09.slc.cpg/sg2_68_cif.got.tgz:135196.got - 2010.06.27 13:26:56.
