data_PCOD8012437
_publ_section_title
;
Structure prediction by ZEFSAII (Michael W. Deem and Ramdas Pophale) SiO2 
 PCOD8012437
Probable space group: P -1
;
_chemical_formula_sum "Si O2"
_cell_formula_units_Z 16
_cell_length_a 9.640078
_cell_length_b 9.847017
_cell_length_c 13.812641
_cell_angle_alpha 72.401091
_cell_angle_beta 97.019787
_cell_angle_gamma 139.138034
_cell_volume 805.673783
_symmetry_space_group_name_H-M "P -1"
_symmetry_group_IT_number 2
_symmetry_cell_setting 'triclinic'
loop_
_space_group_symop_operation_xyz
x,y,z
-x,-y,-z
loop_
_atom_site_type_symbol
_atom_site_label
_atom_site_fract_x
_atom_site_fract_y
_atom_site_fract_z
Si Si1 0.057506 0.265444 0.259861
Si Si2 0.878205 0.569923 0.390514
Si Si3 0.254562 0.365443 0.804676
Si Si4 0.594502 0.988463 0.210447
Si Si5 0.135232 0.015963 0.256307
Si Si6 0.559632 0.290711 0.118586
Si Si7 0.540469 0.327597 0.889058
Si Si8 0.815020 0.441356 0.623059
O O1 0.201913 0.461417 0.150151
O O2 0.125104 0.375965 0.346781
O O3 0.807315 0.094198 0.255777
O O4 0.107623 0.137320 0.289234
O O5 0.704106 0.497439 0.314433
O O6 0.762214 0.454797 0.507610
O O7 0.073262 0.836153 0.360372
O O8 0.978497 0.501855 0.372082
O O9 0.246195 0.456848 0.881626
O O10 0.438888 0.390081 0.820188
O O11 0.023721 0.109555 0.824712
O O12 0.556814 0.885963 0.125547
O O13 0.393500 0.802991 0.303130
O O14 0.626983 0.179757 0.152138
O O15 0.374219 0.184393 0.201850
O O16 0.487751 0.278045 0.008116
#
# Coordination Sequence:
#
# PCOD8012437 Si02
#       8
#     2   2   2   2   2   2   2   2
#     4  11  23  40  61  89 124 162 197 247 302 357
#     4   9  20  43  62  91 123 153 197 260 293 355
#     4  10  21  40  58  89 122 153 202 249 289 356
#     4  11  22  42  61  91 122 158 202 250 297 361
#     4  10  22  40  60  89 122 158 200 246 295 357
#     4  12  23  39  65  88 119 168 202 243 302 352
#     4  11  24  39  61  89 126 157 202 253 293 354
#     4  10  21  41  65  89 124 154 200 250 305 353
#
# _framework density 19.859155000000001
#
# number of rings (size 3 to 8) (size 9 to 14) (size 15 to 20)
#    0.750    0.750    3.750    1.500    0.000    2.500 
#    2.250    7.500    0.000    0.000    0.000    0.000 
#    0.000    0.000    0.000    0.000    0.000    0.000 
#
# Total GULP energy -198351.728880 kJ/mol
# GULP energy per Si atom -12396.983055 kJ/mol
# Density = 1.981395 g / cm^3
# Si number density = 19.859155 Si / 1000 Ang^3
#
#
#
# Elastic Constant Matrix: (Units=GPa)
#
#
# Indices 1 2 3 4 5 6 
#
# 1 83.7793 22.0081 29.4642 9.7596 3.2672 -27.7500
# 2 22.0081 83.5883 -0.8858 6.8207 -10.4213 -30.0421
# 3 29.4642 -0.8858 71.9496 7.5490 0.6315 -9.6263
# 4 9.7596 6.8207 7.5490 20.3953 -1.0593 -2.9983
# 5 3.2672 -10.4213 0.6315 -1.0593 18.4160 0.1434
# 6 -27.7500 -30.0421 -9.6263 -2.9983 0.1434 40.3227
#
#
#
# Elastic Compliance Matrix: (Units=1/GPa)
#
#
# Indices 1 2 3 4 5 6 
#
# 1 0.018295 -0.001488 -0.005645 -0.004951 -0.004255 0.009781
# 2 -0.001488 0.018842 0.002978 -0.004181 0.010480 0.013377
# 3 -0.005645 0.002978 0.016944 -0.004167 0.001850 0.002062
# 4 -0.004951 -0.004181 -0.004167 0.053916 0.001784 -0.003514
# 5 -0.004255 0.010480 0.001850 0.001784 0.060984 0.005237
# 6 0.009781 0.013377 0.002062 -0.003514 0.005237 0.041710
#
#
# Mechanical properties :
#
#
# Convention : Reuss Voigt Hill
#
# Bulk Modulus (GPa) = 21.84799 37.83226 29.84012
# Shear Modulus (GPa) = 21.34400 28.40885 24.87642
#
# Velocity S-wave (km/s) = 3.28192 3.78632 3.54311
# Velocity P-wave (km/s) = 5.03852 6.18115 5.63885
#
# Compressibility (1/GPa) = 0.04577081
#
# Stress axis : x y z
#
# Youngs Moduli (GPa) = 54.66097 53.07262 59.01893
#
# Poissons Ratio (x) = 0.07895 0.33315
# Poissons Ratio (y) = 0.08132 -0.17573
# Poissons Ratio (z) = 0.30855 -0.15803
#
# Static dielectric constant tensor:
#      x y z
#    x 3.561690 -0.188240 -0.014470 
#    y -0.188240 3.791880 -0.006680 
#    z -0.014470 -0.006680 3.368920 
# 
# 
# High freq. dielectric constant tensor:
#      x y z
#    x 1.777580 -0.015440 0.000350 
#    y -0.015440 1.787660 0.002270 
#    z 0.000350 0.002270 1.753420 
# 
# From -- ./inp_files/492538.got.cif
#   From: 2010.06.25/outbox.cif.g09.slc.cpg/sg2_247_cif.got.tgz:492538.got - 2010.06.27 13:26:56.
