data_PCOD8012988
_publ_section_title
;
Structure prediction by ZEFSAII (Michael W. Deem and Ramdas Pophale) SiO2 
 PCOD8012988
Probable space group: P -1
;
_chemical_formula_sum "Si O2"
_cell_formula_units_Z 14
_cell_length_a 5.555407
_cell_length_b 16.452910
_cell_length_c 22.218253
_cell_angle_alpha 21.739697
_cell_angle_beta 121.291002
_cell_angle_gamma 127.048871
_cell_volume 594.746951
_symmetry_space_group_name_H-M "P -1"
_symmetry_group_IT_number 2
_symmetry_cell_setting 'triclinic'
loop_
_space_group_symop_operation_xyz
x,y,z
-x,-y,-z
loop_
_atom_site_type_symbol
_atom_site_label
_atom_site_fract_x
_atom_site_fract_y
_atom_site_fract_z
Si Si1 0.570334 0.404440 0.806845
Si Si2 0.591796 0.776319 0.242397
Si Si3 0.180446 0.026587 0.209208
Si Si4 0.653540 0.427913 0.934487
Si Si5 0.913433 0.816117 0.790701
Si Si6 0.892942 0.152447 0.934228
Si Si7 0.558159 0.716680 0.486367
O O1 0.740198 0.497423 0.828634
O O2 0.791047 0.306819 0.864491
O O3 0.526355 0.618229 0.617996
O O4 0.236791 0.226376 0.907404
O O5 0.295926 0.845996 0.153125
O O6 0.490993 0.492772 0.424548
O O7 0.811250 0.904000 0.239182
O O8 0.780115 0.882556 0.131239
O O9 0.303554 0.817115 0.366534
O O10 0.283869 0.164354 0.191089
O O11 0.310884 0.226058 0.036534
O O12 0.691920 0.668613 0.810144
O O13 0.867181 0.312298 0.072025
O O14 0.105336 0.083465 0.610802
#
# Coordination Sequence:
#
# PCOD8012988 Si02
#       7
#     2   2   2   2   2   2   2
#     4  11  23  45  68  99 132 171 221 270 326 386
#     4  10  21  40  64  96 131 175 211 270 323 390
#     4  11  21  42  64  96 127 175 216 268 327 392
#     4  10  22  42  70  90 125 171 227 273 320 382
#     4  10  23  43  63  96 128 169 222 273 324 389
#     4  10  23  41  66 102 131 170 222 267 319 393
#     4  10  25  39  60  96 139 167 212 268 333 390
#
# _framework density 23.539424
#
# number of rings (size 3 to 8) (size 9 to 14) (size 15 to 20)
#    0.000    1.714    1.429    1.714    4.000    6.286 
#   10.286    0.714    0.000    0.000    0.000    0.000 
#    0.000    0.000    0.000    0.000    0.000    0.000 
#
# Total GULP energy -173473.212816 kJ/mol
# GULP energy per Si atom -12390.943773 kJ/mol
# Density = 2.348585 g / cm^3
# Si number density = 23.539424 Si / 1000 Ang^3
#
#
#
# Elastic Constant Matrix: (Units=GPa)
#
#
# Indices 1 2 3 4 5 6 
#
# 1 89.7149 25.8049 13.4788 -3.9371 3.7882 -15.3154
# 2 25.8049 104.8732 37.9202 -10.0010 3.3599 -17.5353
# 3 13.4788 37.9202 106.9553 -10.2413 2.0258 -4.9877
# 4 -3.9371 -10.0010 -10.2413 30.2831 -6.4520 -4.6839
# 5 3.7882 3.3599 2.0258 -6.4520 21.7117 -1.9989
# 6 -15.3154 -17.5353 -4.9877 -4.6839 -1.9989 24.9414
#
#
#
# Elastic Compliance Matrix: (Units=1/GPa)
#
#
# Indices 1 2 3 4 5 6 
#
# 1 0.013011 -0.001625 -0.000539 0.001900 -0.000756 0.007036
# 2 -0.001625 0.013020 -0.003627 0.004280 0.000642 0.008286
# 3 -0.000539 -0.003627 0.010924 0.002469 0.000351 -0.000205
# 4 0.001900 0.004280 0.002469 0.040087 0.011899 0.013151
# 5 -0.000756 0.000642 0.000351 0.011899 0.050175 0.006313
# 6 0.007036 0.008286 -0.000205 0.013151 0.006313 0.053175
#
#
# Mechanical properties :
#
#
# Convention : Reuss Voigt Hill
#
# Bulk Modulus (GPa) = 39.41317 50.66126 45.03721
# Shear Modulus (GPa) = 24.94626 30.34320 27.64473
#
# Velocity S-wave (km/s) = 3.25893 3.59421 3.43067
# Velocity P-wave (km/s) = 5.56244 6.22841 5.90482
#
# Compressibility (1/GPa) = 0.02537223
#
# Stress axis : x y z
#
# Youngs Moduli (GPa) = 76.85722 76.80691 91.54228
#
# Poissons Ratio (x) = 0.12479 0.04937
# Poissons Ratio (y) = 0.12487 0.33204
# Poissons Ratio (z) = 0.04145 0.27859
#
# Static dielectric constant tensor:
#      x y z
#    x 4.100180 -0.116940 -0.046350 
#    y -0.116940 4.530650 -0.057240 
#    z -0.046350 -0.057240 4.338880 
# 
# 
# High freq. dielectric constant tensor:
#      x y z
#    x 1.924440 -0.006320 0.000320 
#    y -0.006320 1.936060 0.001550 
#    z 0.000320 0.001550 1.928100 
# 
# From -- ./inp_files/63333.got.cif
#   From: 2010.06.25/outbox.cif.g09.slc.cpg/sg2_32_cif.got.tgz:63333.got - 2010.06.27 13:26:56.
