data_PCOD8012406
_publ_section_title
;
Structure prediction by ZEFSAII (Michael W. Deem and Ramdas Pophale) SiO2 
 PCOD8012406
Probable space group: P -1
;
_chemical_formula_sum "Si O2"
_cell_formula_units_Z 16
_cell_length_a 25.303732
_cell_length_b 5.449026
_cell_length_c 18.482604
_cell_angle_alpha 56.750435
_cell_angle_beta 17.200848
_cell_angle_gamma 57.098979
_cell_volume 628.295225
_symmetry_space_group_name_H-M "P -1"
_symmetry_group_IT_number 2
_symmetry_cell_setting 'triclinic'
loop_
_space_group_symop_operation_xyz
x,y,z
-x,-y,-z
loop_
_atom_site_type_symbol
_atom_site_label
_atom_site_fract_x
_atom_site_fract_y
_atom_site_fract_z
Si Si1 0.348542 0.678464 0.391284
Si Si2 0.627791 0.156392 0.951788
Si Si3 0.799220 0.873097 0.157207
Si Si4 0.815177 0.927917 0.884389
Si Si5 0.040337 0.736800 0.231709
Si Si6 0.460411 0.073627 0.394003
Si Si7 0.154205 0.780071 0.771714
Si Si8 0.284532 0.530679 0.346178
O O1 0.484765 0.406665 0.285275
O O2 0.188341 0.718674 0.651795
O O3 0.230709 0.648133 0.477197
O O4 0.491713 0.913120 0.155796
O O5 0.497944 0.450124 0.088280
O O6 0.746914 0.214762 0.715300
O O7 0.760300 0.097054 0.855134
O O8 0.602096 0.963620 0.434744
O O9 0.819995 0.524695 0.166848
O O10 0.947543 0.924981 0.018873
O O11 0.828208 0.076029 0.017912
O O12 0.906835 0.610913 0.794093
O O13 0.941784 0.139592 0.729921
O O14 0.641690 0.875943 0.170151
O O15 0.830575 0.752235 0.478693
O O16 0.299223 0.999570 0.565416
#
# Coordination Sequence:
#
# PCOD8012406 Si02
#       8
#     2   2   2   2   2   2   2   2
#     4  11  19  40  74 109 140 179 243 307 368 422
#     4  11  24  47  77 107 139 188 254 302 373 433
#     4  10  24  40  68 106 144 189 245 301 359 431
#     4  12  28  49  73 104 155 203 237 299 372 443
#     4  12  30  49  71 109 155 198 243 300 369 436
#     4  11  22  41  70 100 141 194 241 293 361 438
#     4  10  21  39  72 106 142 185 243 309 364 420
#     4  11  26  45  77 108 138 190 249 315 358 441
#
# _framework density 25.465738000000002
#
# number of rings (size 3 to 8) (size 9 to 14) (size 15 to 20)
#    0.000    1.000    2.500    3.000    7.000    3.000 
#    0.000    0.000    0.000    0.000    0.000    0.000 
#    0.000    0.000    0.000    0.000    0.000    0.000 
#
# Total GULP energy -198307.835385 kJ/mol
# GULP energy per Si atom -12394.239712 kJ/mol
# Density = 2.540778 g / cm^3
# Si number density = 25.465738 Si / 1000 Ang^3
#
#
#
# Elastic Constant Matrix: (Units=GPa)
#
#
# Indices 1 2 3 4 5 6 
#
# 1 153.7904 30.1993 20.4124 -16.4386 -0.8123 -7.8582
# 2 30.1993 79.7875 10.0606 -12.7407 5.0461 -4.7484
# 3 20.4124 10.0606 64.8993 -14.4603 10.9386 -3.2486
# 4 -16.4386 -12.7407 -14.4603 42.7151 -4.5164 2.1361
# 5 -0.8123 5.0461 10.9386 -4.5164 30.1855 -18.1421
# 6 -7.8582 -4.7484 -3.2486 2.1361 -18.1421 32.1361
#
#
#
# Elastic Compliance Matrix: (Units=1/GPa)
#
#
# Indices 1 2 3 4 5 6 
#
# 1 0.007610 -0.002376 -0.002074 0.001731 0.003519 0.003171
# 2 -0.002376 0.014085 -0.000498 0.002933 -0.001582 0.000362
# 3 -0.002074 -0.000498 0.018345 0.004587 -0.008100 -0.003604
# 4 0.001731 0.002933 0.004587 0.026718 0.002448 0.000927
# 5 0.003519 -0.001582 -0.008100 0.002448 0.055359 0.030897
# 6 0.003171 0.000362 -0.003604 0.000927 0.030897 0.048963
#
#
# Mechanical properties :
#
#
# Convention : Reuss Voigt Hill
#
# Bulk Modulus (GPa) = 33.17352 46.64689 39.91021
# Shear Modulus (GPa) = 26.17473 36.86101 31.51787
#
# Velocity S-wave (km/s) = 3.20947 3.80870 3.52185
# Velocity P-wave (km/s) = 5.17584 6.13994 5.67839
#
# Compressibility (1/GPa) = 0.03014452
#
# Stress axis : x y z
#
# Youngs Moduli (GPa) = 131.40811 70.99574 54.51114
#
# Poissons Ratio (x) = 0.16870 0.11304
# Poissons Ratio (y) = 0.31225 0.02714
# Poissons Ratio (z) = 0.27250 0.03535
#
# Static dielectric constant tensor:
#      x y z
#    x 4.655010 0.110880 0.084970 
#    y 0.110880 4.633940 0.092260 
#    z 0.084970 0.092260 4.751270 
# 
# 
# High freq. dielectric constant tensor:
#      x y z
#    x 2.018960 0.001950 0.003360 
#    y 0.001950 2.010270 -0.002350 
#    z 0.003360 -0.002350 2.022760 
# 
# From -- ./inp_files/99665.got.cif
#   From: 2010.06.25/outbox.cif.g09.slc.cpg/sg2_50_cif.got.tgz:99665.got - 2010.06.27 13:26:56.
