data_PCOD8012218
_publ_section_title
;
Structure prediction by ZEFSAII (Michael W. Deem and Ramdas Pophale) SiO2 
 PCOD8012218
Probable space group: P -1
;
_chemical_formula_sum "Si O2"
_cell_formula_units_Z 16
_cell_length_a 11.443686
_cell_length_b 13.988466
_cell_length_c 14.459209
_cell_angle_alpha 128.383643
_cell_angle_beta 28.956953
_cell_angle_gamma 139.006152
_cell_volume 729.402639
_symmetry_space_group_name_H-M "P -1"
_symmetry_group_IT_number 2
_symmetry_cell_setting 'triclinic'
loop_
_space_group_symop_operation_xyz
x,y,z
-x,-y,-z
loop_
_atom_site_type_symbol
_atom_site_label
_atom_site_fract_x
_atom_site_fract_y
_atom_site_fract_z
Si Si1 0.078972 0.282587 0.052663
Si Si2 0.448308 0.754514 0.243672
Si Si3 0.315665 0.883017 0.941020
Si Si4 0.832091 0.201680 0.809097
Si Si5 0.219226 0.943715 0.722575
Si Si6 0.919842 0.772443 0.664548
Si Si7 0.193180 0.156890 0.413397
Si Si8 0.677604 0.395953 0.953462
O O1 0.919568 0.178457 0.013317
O O2 0.886457 0.199307 0.226853
O O3 0.413661 0.327560 0.853921
O O4 0.095256 0.433438 0.123950
O O5 0.157112 0.729316 0.475354
O O6 0.719827 0.925681 0.172183
O O7 0.380342 0.705266 0.155795
O O8 0.475823 0.795519 0.782408
O O9 0.547501 0.057574 0.872737
O O10 0.138940 0.845257 0.136512
O O11 0.129624 0.258114 0.580349
O O12 0.801397 0.339116 0.911521
O O13 0.976756 0.888878 0.776819
O O14 0.500000 0.000000 0.500000
O O15 0.912195 0.846030 0.619484
O O16 0.611241 0.624893 0.814769
O O17 0.000000 0.000000 0.500000
#
# Coordination Sequence:
#
# PCOD8012218 Si02
#       8
#     2   2   2   2   2   2   2   2
#     4  12  26  43  64 101 139 177 215 274 333 399
#     4  11  24  44  68  91 136 175 221 275 325 389
#     4  10  23  41  67  97 131 165 230 271 321 393
#     4  10  21  42  69  95 124 181 214 276 334 381
#     4  10  24  42  68  99 127 169 222 279 322 388
#     4  11  23  42  69  99 129 174 224 272 331 391
#     4  10  21  39  67  98 126 164 221 279 325 384
#     4  12  24  43  67  94 141 177 220 267 336 403
#
# _framework density 21.935759000000001
#
# number of rings (size 3 to 8) (size 9 to 14) (size 15 to 20)
#    0.000    1.250    3.750    1.500    7.000    1.000 
#    4.500    0.625    0.000    0.000    0.000    0.000 
#    0.000    0.000    0.000    0.000    0.000    0.000 
#
# Total GULP energy -198226.359458 kJ/mol
# GULP energy per Si atom -12389.147466 kJ/mol
# Density = 2.188583 g / cm^3
# Si number density = 21.935759 Si / 1000 Ang^3
#
#
#
# Elastic Constant Matrix: (Units=GPa)
#
#
# Indices 1 2 3 4 5 6 
#
# 1 95.3999 22.2390 13.7872 -5.3727 18.4436 -3.6530
# 2 22.2390 84.5604 30.4215 -1.8518 18.1430 -25.1498
# 3 13.7872 30.4215 64.2587 -1.8147 7.2339 -3.9445
# 4 -5.3727 -1.8518 -1.8147 19.9769 -4.9845 0.1644
# 5 18.4436 18.1430 7.2339 -4.9845 37.8497 6.4227
# 6 -3.6530 -25.1498 -3.9445 0.1644 6.4227 27.4859
#
#
#
# Elastic Compliance Matrix: (Units=1/GPa)
#
#
# Indices 1 2 3 4 5 6 
#
# 1 0.012085 -0.001047 -0.001364 0.001723 -0.005180 0.001652
# 2 -0.001047 0.026351 -0.009003 -0.002667 -0.015206 0.026250
# 3 -0.001364 -0.009003 0.019493 0.001237 0.002471 -0.006206
# 4 0.001723 -0.002667 0.001237 0.052369 0.007807 -0.004171
# 5 -0.005180 -0.015206 0.002471 0.007807 0.040834 -0.023836
# 6 0.001652 0.026250 -0.006206 -0.004171 -0.023836 0.065325
#
#
# Mechanical properties :
#
#
# Convention : Reuss Voigt Hill
#
# Bulk Modulus (GPa) = 28.48894 41.90160 35.19527
# Shear Modulus (GPa) = 19.92154 28.91393 24.41773
#
# Velocity S-wave (km/s) = 3.01687 3.63453 3.34001
# Velocity P-wave (km/s) = 5.01507 6.06271 5.56361
#
# Compressibility (1/GPa) = 0.03510134
#
# Stress axis : x y z
#
# Youngs Moduli (GPa) = 82.74636 37.94861 51.30117
#
# Poissons Ratio (x) = 0.03973 0.06998
# Poissons Ratio (y) = 0.08664 0.46186
# Poissons Ratio (z) = 0.11287 0.34165
#
# Static dielectric constant tensor:
#      x y z
#    x 4.004900 0.078250 -0.033850 
#    y 0.078250 3.793320 0.143270 
#    z -0.033850 0.143270 4.549760 
# 
# 
# High freq. dielectric constant tensor:
#      x y z
#    x 1.867230 -0.007340 0.008550 
#    y -0.007340 1.829530 0.005770 
#    z 0.008550 0.005770 1.872660 
# 
# From -- ./inp_files/522411.got.cif
#   From: 2010.06.25/outbox.cif.g09.slc.cpg/sg2_262_cif.got.tgz:522411.got - 2010.06.27 13:26:56.
