data_PCOD8012858
_publ_section_title
;
Structure prediction by ZEFSAII (Michael W. Deem and Ramdas Pophale) SiO2 
 PCOD8012858
Probable space group: P -1
;
_chemical_formula_sum "Si O2"
_cell_formula_units_Z 14
_cell_length_a 7.849844
_cell_length_b 17.984934
_cell_length_c 11.106467
_cell_angle_alpha 34.320435
_cell_angle_beta 85.315596
_cell_angle_gamma 61.016000
_cell_volume 590.424506
_symmetry_space_group_name_H-M "P -1"
_symmetry_group_IT_number 2
_symmetry_cell_setting 'triclinic'
loop_
_space_group_symop_operation_xyz
x,y,z
-x,-y,-z
loop_
_atom_site_type_symbol
_atom_site_label
_atom_site_fract_x
_atom_site_fract_y
_atom_site_fract_z
Si Si1 0.693957 0.395792 0.237698
Si Si2 0.946773 0.628141 0.498701
Si Si3 0.492434 0.249740 0.504232
Si Si4 0.245093 0.089882 0.512563
Si Si5 0.187798 0.009941 0.966338
Si Si6 0.372904 0.225205 0.909523
Si Si7 0.438044 0.243487 0.238017
O O1 0.591432 0.342524 0.407907
O O2 0.980296 0.197967 0.442379
O O3 0.500000 0.500000 0.000000
O O4 0.688048 0.549456 0.085065
O O5 0.794552 0.614770 0.613079
O O6 0.948267 0.775955 0.357068
O O7 0.826161 0.716860 0.253668
O O8 0.232045 0.408487 0.761747
O O9 0.527712 0.214186 0.408313
O O10 0.673694 0.043349 0.841692
O O11 0.227720 0.245362 0.244960
O O12 0.316086 0.938536 0.611659
O O13 0.481251 0.966787 0.759638
O O14 0.398725 0.835247 0.094627
O O15 0.000000 0.000000 0.000000
#
# Coordination Sequence:
#
# PCOD8012858 Si02
#       7
#     2   2   2   2   2   2   2
#     4  10  23  41  59  88 124 161 204 250 302 356
#     4  10  22  42  64  89 123 161 202 249 306 363
#     4  10  21  40  64  86 122 166 200 250 306 357
#     4  11  22  39  64  92 122 160 205 251 301 363
#     4  11  22  39  64  93 123 156 201 253 304 362
#     4  10  22  40  64  92 121 160 204 247 302 363
#     4  10  23  40  62  90 122 162 205 252 303 357
#
# _framework density 23.711753000000002
#
# number of rings (size 3 to 8) (size 9 to 14) (size 15 to 20)
#    0.000    1.714    0.000    4.714    0.000   10.857 
#    0.000   11.429    0.000    0.000    0.000    0.000 
#    0.000    0.000    0.000    0.000    0.000    0.000 
#
# Total GULP energy -173494.984996 kJ/mol
# GULP energy per Si atom -12392.498928 kJ/mol
# Density = 2.365778 g / cm^3
# Si number density = 23.711753 Si / 1000 Ang^3
#
#
#
# Elastic Constant Matrix: (Units=GPa)
#
#
# Indices 1 2 3 4 5 6 
#
# 1 97.9234 51.4804 37.1227 -30.1176 -33.2800 -36.8146
# 2 51.4804 124.7561 36.5162 -25.1363 -19.3104 -17.2310
# 3 37.1227 36.5162 114.6390 -24.8291 -22.8141 -21.4706
# 4 -30.1176 -25.1363 -24.8291 39.3247 1.4486 8.6902
# 5 -33.2800 -19.3104 -22.8141 1.4486 45.6508 8.7725
# 6 -36.8146 -17.2310 -21.4706 8.6902 8.7725 35.4611
#
#
#
# Elastic Compliance Matrix: (Units=1/GPa)
#
#
# Indices 1 2 3 4 5 6 
#
# 1 0.031779 -0.004420 0.002869 0.017379 0.017573 0.023975
# 2 -0.004420 0.010795 -0.001457 0.002810 0.000737 -0.001097
# 3 0.002869 -0.001457 0.012274 0.007381 0.006150 0.006371
# 4 0.017379 0.002810 0.007381 0.042474 0.014290 0.009932
# 5 0.017573 0.000737 0.006150 0.014290 0.035729 0.009984
# 6 0.023975 -0.001097 0.006371 0.009932 0.009984 0.051511
#
#
# Mechanical properties :
#
#
# Convention : Reuss Voigt Hill
#
# Bulk Modulus (GPa) = 20.47916 65.28413 42.88165
# Shear Modulus (GPa) = 24.17125 38.23394 31.20259
#
# Velocity S-wave (km/s) = 3.19623 4.01988 3.63149
# Velocity P-wave (km/s) = 4.71982 7.00986 5.97557
#
# Compressibility (1/GPa) = 0.04883013
#
# Stress axis : x y z
#
# Youngs Moduli (GPa) = 31.46705 92.63571 81.47251
#
# Poissons Ratio (x) = 0.40948 -0.23371
# Poissons Ratio (y) = 0.13910 0.11873
# Poissons Ratio (z) = -0.09027 0.13500
#
# Static dielectric constant tensor:
#      x y z
#    x 3.954150 -0.157930 -0.252280 
#    y -0.157930 4.268640 0.159840 
#    z -0.252280 0.159840 4.937950 
# 
# 
# High freq. dielectric constant tensor:
#      x y z
#    x 1.925520 0.003520 0.000960 
#    y 0.003520 1.939530 0.013670 
#    z 0.000960 0.013670 1.956730 
# 
# From -- ./inp_files/404506.got.cif
#   From: 2010.06.25/outbox.cif.g09.slc.cpg/sg2_203_cif.got.tgz:404506.got - 2010.06.27 13:26:56.
