data_PCOD8012896
_publ_section_title
;
Structure prediction by ZEFSAII (Michael W. Deem and Ramdas Pophale) SiO2 
 PCOD8012896
Probable space group: P -1
;
_chemical_formula_sum "Si O2"
_cell_formula_units_Z 14
_cell_length_a 5.259557
_cell_length_b 8.192526
_cell_length_c 22.534792
_cell_angle_alpha 127.109715
_cell_angle_beta 56.628852
_cell_angle_gamma 95.588587
_cell_volume 605.275277
_symmetry_space_group_name_H-M "P -1"
_symmetry_group_IT_number 2
_symmetry_cell_setting 'triclinic'
loop_
_space_group_symop_operation_xyz
x,y,z
-x,-y,-z
loop_
_atom_site_type_symbol
_atom_site_label
_atom_site_fract_x
_atom_site_fract_y
_atom_site_fract_z
Si Si1 0.345457 0.701297 0.852288
Si Si2 0.740196 0.503236 0.643605
Si Si3 0.651767 0.865091 0.008105
Si Si4 0.610006 0.965570 0.745631
Si Si5 0.341008 0.251015 0.590875
Si Si6 0.154095 0.671962 0.228180
Si Si7 0.879381 0.148668 0.849695
O O1 0.467249 0.598044 0.750136
O O2 0.593987 0.567832 0.842031
O O3 0.297557 0.957227 0.913747
O O4 0.996248 0.678971 0.906481
O O5 0.753272 0.712772 0.650072
O O6 0.626250 0.352358 0.580495
O O7 0.087918 0.368715 0.597602
O O8 0.410011 0.751153 0.042882
O O9 0.500000 0.000000 0.000000
O O10 0.706221 0.134756 0.728109
O O11 0.780219 0.961195 0.787213
O O12 0.218386 0.046460 0.817910
O O13 0.178292 0.278447 0.682614
O O14 0.500000 0.000000 0.500000
O O15 0.101365 0.677531 0.164735
#
# Coordination Sequence:
#
# PCOD8012896 Si02
#       7
#     2   2   2   2   2   2   2
#     4  10  22  38  59  95 121 179 211 263 314 367
#     4  11  22  42  70  90 131 170 211 253 325 390
#     4  11  23  36  62  91 134 164 231 262 297 372
#     4  10  21  40  64  90 121 174 213 248 315 384
#     4  11  25  43  70 101 123 159 214 270 315 386
#     4   9  24  40  67  86 135 165 209 261 329 377
#     4  10  22  39  59  89 130 172 207 261 308 374
#
# _framework density 23.129973
#
# number of rings (size 3 to 8) (size 9 to 14) (size 15 to 20)
#    0.857    0.857    1.429    2.143   12.000    0.571 
#    0.000    2.857    0.000    0.000    0.000    0.000 
#    0.000    0.000    0.000    0.000    0.000    0.000 
#
# Total GULP energy -173490.866801 kJ/mol
# GULP energy per Si atom -12392.204772 kJ/mol
# Density = 2.307733 g / cm^3
# Si number density = 23.129973 Si / 1000 Ang^3
#
#
#
# Elastic Constant Matrix: (Units=GPa)
#
#
# Indices 1 2 3 4 5 6 
#
# 1 119.4351 5.9563 4.4989 7.6336 -2.8471 -0.3148
# 2 5.9563 74.8948 3.6134 7.9003 -8.6707 -4.5804
# 3 4.4989 3.6134 43.8829 17.9727 -12.0481 -13.0762
# 4 7.6336 7.9003 17.9727 32.2853 2.5059 2.2281
# 5 -2.8471 -8.6707 -12.0481 2.5059 30.4855 9.3228
# 6 -0.3148 -4.5804 -13.0762 2.2281 9.3228 29.5936
#
#
#
# Elastic Compliance Matrix: (Units=1/GPa)
#
#
# Indices 1 2 3 4 5 6 
#
# 1 0.008542 -0.000344 0.000345 -0.002208 0.001006 0.000039
# 2 -0.000344 0.014610 0.003516 -0.006037 0.005206 0.002626
# 3 0.000345 0.003516 0.042589 -0.026964 0.014980 0.016677
# 4 -0.002208 -0.006037 -0.026964 0.049848 -0.012829 -0.012584
# 5 0.001006 0.005206 0.014980 -0.012829 0.042917 -0.005119
# 6 0.000039 0.002626 0.016677 -0.012584 -0.005119 0.044127
#
#
# Mechanical properties :
#
#
# Convention : Reuss Voigt Hill
#
# Bulk Modulus (GPa) = 13.74101 29.59444 21.66772
# Shear Modulus (GPa) = 22.74205 33.41582 28.07893
#
# Velocity S-wave (km/s) = 3.13905 3.80504 3.48798
# Velocity P-wave (km/s) = 4.36942 5.66807 5.06058
#
# Compressibility (1/GPa) = 0.07277485
#
# Stress axis : x y z
#
# Youngs Moduli (GPa) = 117.06673 68.44688 23.48032
#
# Poissons Ratio (x) = 0.02356 -0.00810
# Poissons Ratio (y) = 0.04030 -0.08257
# Poissons Ratio (z) = -0.04037 -0.24069
#
# Static dielectric constant tensor:
#      x y z
#    x 4.267710 0.337860 -0.264080 
#    y 0.337860 4.373520 -0.062470 
#    z -0.264080 -0.062470 4.385940 
# 
# 
# High freq. dielectric constant tensor:
#      x y z
#    x 1.922350 0.009340 -0.004070 
#    y 0.009340 1.915930 0.013300 
#    z -0.004070 0.013300 1.880960 
# 
# From -- ./inp_files/109927.got.cif
#   From: 2010.06.25/outbox.cif.g09.slc.cpg/sg2_55_cif.got.tgz:109927.got - 2010.06.27 13:26:56.
