data_PCOD8012571
_publ_section_title
;
Structure prediction by ZEFSAII (Michael W. Deem and Ramdas Pophale) SiO2 
 PCOD8012571
Probable space group: P -1
;
_chemical_formula_sum "Si O2"
_cell_formula_units_Z 14
_cell_length_a 10.913564
_cell_length_b 13.554126
_cell_length_c 19.742230
_cell_angle_alpha 23.746547
_cell_angle_beta 34.786235
_cell_angle_gamma 34.504896
_cell_volume 636.812936
_symmetry_space_group_name_H-M "P -1"
_symmetry_group_IT_number 2
_symmetry_cell_setting 'triclinic'
loop_
_space_group_symop_operation_xyz
x,y,z
-x,-y,-z
loop_
_atom_site_type_symbol
_atom_site_label
_atom_site_fract_x
_atom_site_fract_y
_atom_site_fract_z
Si Si1 0.603191 0.607106 0.473355
Si Si2 0.585154 0.694957 0.147215
Si Si3 0.042025 0.337148 0.206883
Si Si4 0.196166 0.138554 0.666425
Si Si5 0.284336 0.546690 0.273940
Si Si6 0.155863 0.771340 0.498722
Si Si7 0.433734 0.549187 0.920957
O O1 0.518851 0.403836 0.679863
O O2 0.661727 0.812575 0.365247
O O3 0.407504 0.762462 0.413744
O O4 0.826541 0.431654 0.442536
O O5 0.500465 0.597317 0.178465
O O6 0.857954 0.572785 0.103968
O O7 0.500000 0.000000 0.000000
O O8 0.985590 0.312762 0.326529
O O9 0.041708 0.068231 0.340148
O O10 0.286549 0.374134 0.071249
O O11 0.231279 0.296597 0.485325
O O12 0.935533 0.209681 0.763379
O O13 0.281997 0.842306 0.794184
O O14 0.341142 0.510973 0.190437
O O15 0.500000 0.500000 0.000000
#
# Coordination Sequence:
#
# PCOD8012571 Si02
#       7
#     2   2   2   2   2   2   2
#     4   9  19  37  65  85 120 168 204 257 313 377
#     4  10  21  40  61  91 125 159 214 260 310 376
#     4  10  22  39  61  93 126 160 206 264 317 370
#     4  10  22  46  64  92 127 173 215 254 318 383
#     4  10  24  44  66  92 127 176 212 258 318 376
#     4   9  19  39  61  92 121 161 209 254 322 380
#     4  12  26  41  64 100 131 165 212 267 317 381
#
# _framework density 21.984477999999999
#
# number of rings (size 3 to 8) (size 9 to 14) (size 15 to 20)
#    0.000    2.000    0.000    2.143    4.000    2.286 
#   12.857    0.000    0.000    0.000    0.000    0.000 
#    0.000    0.000    0.000    0.000    0.000    0.000 
#
# Total GULP energy -173597.361169 kJ/mol
# GULP energy per Si atom -12399.811512 kJ/mol
# Density = 2.193444 g / cm^3
# Si number density = 21.984478 Si / 1000 Ang^3
#
#
#
# Elastic Constant Matrix: (Units=GPa)
#
#
# Indices 1 2 3 4 5 6 
#
# 1 55.5480 17.4993 23.4088 13.8444 9.0940 -4.3798
# 2 17.4993 116.5540 46.7822 8.8359 14.0339 6.4370
# 3 23.4088 46.7822 74.9310 -2.0904 -0.0327 0.6570
# 4 13.8444 8.8359 -2.0904 43.1340 -2.1757 5.9348
# 5 9.0940 14.0339 -0.0327 -2.1757 25.3625 3.2241
# 6 -4.3798 6.4370 0.6570 5.9348 3.2241 37.9794
#
#
#
# Elastic Compliance Matrix: (Units=1/GPa)
#
#
# Indices 1 2 3 4 5 6 
#
# 1 0.026754 0.001976 -0.009950 -0.010877 -0.012353 0.005671
# 2 0.001976 0.013240 -0.008998 -0.004133 -0.008336 -0.000507
# 3 -0.009950 -0.008998 0.022283 0.006849 0.009401 -0.001876
# 4 -0.010877 -0.004133 0.006849 0.029161 0.009464 -0.006033
# 5 -0.012353 -0.008336 0.009401 0.009464 0.050044 -0.005902
# 6 0.005671 -0.000507 -0.001876 -0.006033 -0.005902 0.028546
#
#
# Mechanical properties :
#
#
# Convention : Reuss Voigt Hill
#
# Bulk Modulus (GPa) = 35.29527 46.93486 41.11506
# Shear Modulus (GPa) = 23.42847 31.91801 27.67324
#
# Velocity S-wave (km/s) = 3.26802 3.81444 3.55175
# Velocity P-wave (km/s) = 5.50722 6.38713 5.96342
#
# Compressibility (1/GPa) = 0.02833241
#
# Stress axis : x y z
#
# Youngs Moduli (GPa) = 37.37826 75.53104 44.87670
#
# Poissons Ratio (x) = -0.14923 0.44652
# Poissons Ratio (y) = -0.07385 0.40379
# Poissons Ratio (z) = 0.37191 0.67961
#
# Static dielectric constant tensor:
#      x y z
#    x 3.909900 -0.101450 0.111500 
#    y -0.101450 4.115030 -0.002130 
#    z 0.111500 -0.002130 3.830330 
# 
# 
# High freq. dielectric constant tensor:
#      x y z
#    x 1.853240 0.000340 0.001640 
#    y 0.000340 1.874420 -0.000920 
#    z 0.001640 -0.000920 1.859410 
# 
# From -- ./inp_files/191142.got.cif
#   From: 2010.06.25/outbox.cif.g09.slc.cpg/sg2_96_cif.got.tgz:191142.got - 2010.06.27 13:26:56.
