data_PCOD8012320
_publ_section_title
;
Structure prediction by ZEFSAII (Michael W. Deem and Ramdas Pophale) SiO2 
 PCOD8012320
Probable space group: P -1
;
_chemical_formula_sum "Si O2"
_cell_formula_units_Z 16
_cell_length_a 14.636147
_cell_length_b 12.576776
_cell_length_c 9.340412
_cell_angle_alpha 121.546769
_cell_angle_beta 107.293448
_cell_angle_gamma 122.544137
_cell_volume 731.840740
_symmetry_space_group_name_H-M "P -1"
_symmetry_group_IT_number 2
_symmetry_cell_setting 'triclinic'
loop_
_space_group_symop_operation_xyz
x,y,z
-x,-y,-z
loop_
_atom_site_type_symbol
_atom_site_label
_atom_site_fract_x
_atom_site_fract_y
_atom_site_fract_z
Si Si1 0.941842 0.799906 0.391092
Si Si2 0.989962 0.583609 0.186590
Si Si3 0.401101 0.121369 0.190144
Si Si4 0.400625 0.905575 0.237612
Si Si5 0.576736 0.478137 0.120393
Si Si6 0.274551 0.362885 0.398449
Si Si7 0.624983 0.977559 0.200169
Si Si8 0.930398 0.084967 0.155721
O O1 0.975530 0.718600 0.240890
O O2 0.727493 0.568155 0.165350
O O3 0.059170 0.897571 0.655583
O O4 0.000000 0.000000 0.500000
O O5 0.815656 0.354524 0.038401
O O6 0.169887 0.753642 0.480901
O O7 0.000000 0.500000 0.000000
O O8 0.552621 0.397895 0.443391
O O9 0.441538 0.090166 0.330734
O O10 0.413533 0.048742 0.004336
O O11 0.194677 0.942929 0.979854
O O12 0.476520 0.895104 0.151079
O O13 0.500000 0.000000 0.500000
O O14 0.663107 0.629695 0.415293
O O15 0.500000 0.500000 0.000000
O O16 0.408509 0.202186 0.891235
O O17 0.131894 0.315933 0.340004
O O18 0.168696 0.153159 0.098422
#
# Coordination Sequence:
#
# PCOD8012320 Si02
#       8
#     2   2   2   2   2   2   2   2
#     4  11  23  42  72 103 138 181 229 289 347 408
#     4  12  25  47  71  99 144 184 229 291 351 416
#     4  11  24  42  72  94 133 189 228 283 350 410
#     4  12  27  46  65 101 136 176 237 291 342 422
#     4  10  21  39  69 102 140 178 223 288 348 412
#     4   9  22  41  66  99 137 175 228 283 340 413
#     4  11  23  45  68  96 137 179 238 281 342 421
#     4  10  21  44  64  99 138 173 234 281 336 421
#
# _framework density 21.862680000000001
#
# number of rings (size 3 to 8) (size 9 to 14) (size 15 to 20)
#    0.000    1.250    3.750    1.500    1.750    3.500 
#    6.750    0.000    0.000    0.000    0.000    0.000 
#    0.000    0.000    0.000    0.000    0.000    0.000 
#
# Total GULP energy -198351.171192 kJ/mol
# GULP energy per Si atom -12396.948199 kJ/mol
# Density = 2.181292 g / cm^3
# Si number density = 21.862680 Si / 1000 Ang^3
#
#
#
# Elastic Constant Matrix: (Units=GPa)
#
#
# Indices 1 2 3 4 5 6 
#
# 1 124.0759 41.0208 33.8250 -9.5979 -2.0997 2.8297
# 2 41.0208 107.7022 35.0028 -8.3492 14.9304 -15.2645
# 3 33.8250 35.0028 107.7667 -0.0059 10.8951 3.4159
# 4 -9.5979 -8.3492 -0.0059 30.6897 1.7279 8.6555
# 5 -2.0997 14.9304 10.8951 1.7279 40.9292 5.8527
# 6 2.8297 -15.2645 3.4159 8.6555 5.8527 32.8875
#
#
#
# Elastic Compliance Matrix: (Units=1/GPa)
#
#
# Indices 1 2 3 4 5 6 
#
# 1 0.010323 -0.003955 -0.002133 0.003068 0.002959 -0.003836
# 2 -0.003955 0.013649 -0.002878 0.000586 -0.005557 0.007809
# 3 -0.002133 -0.002878 0.011114 -0.000850 -0.001729 -0.001775
# 4 0.003068 0.000586 -0.000850 0.036376 -0.000011 -0.009475
# 5 0.002959 -0.005557 -0.001729 -0.000011 0.028168 -0.007664
# 6 -0.003836 0.007809 -0.001775 -0.009475 -0.007664 0.038403
#
#
# Mechanical properties :
#
#
# Convention : Reuss Voigt Hill
#
# Bulk Modulus (GPa) = 58.28901 62.13800 60.21351
# Shear Modulus (GPa) = 30.92461 36.21436 33.56949
#
# Velocity S-wave (km/s) = 3.76506 4.07436 3.92276
# Velocity P-wave (km/s) = 6.75427 7.11460 6.93678
#
# Compressibility (1/GPa) = 0.01715589
#
# Stress axis : x y z
#
# Youngs Moduli (GPa) = 96.86669 73.26598 89.97292
#
# Poissons Ratio (x) = 0.28975 0.19192
# Poissons Ratio (y) = 0.38309 0.25890
# Poissons Ratio (z) = 0.20663 0.21083
#
# Static dielectric constant tensor:
#      x y z
#    x 4.217500 0.145070 0.067340 
#    y 0.145070 3.222620 -0.254390 
#    z 0.067340 -0.254390 3.886310 
# 
# 
# High freq. dielectric constant tensor:
#      x y z
#    x 1.874940 0.015610 0.010120 
#    y 0.015610 1.836970 0.006830 
#    z 0.010120 0.006830 1.869920 
# 
# From -- ./inp_files/308341.got.cif
#   From: 2010.06.25/outbox.cif.g09.slc.cpg/sg2_155_cif.got.tgz:308341.got - 2010.06.27 13:26:56.
