data_PCOD8012990
_publ_section_title
;
Structure prediction by ZEFSAII (Michael W. Deem and Ramdas Pophale) SiO2 
 PCOD8012990
Probable space group: P -1
;
_chemical_formula_sum "Si O2"
_cell_formula_units_Z 16
_cell_length_a 8.517761
_cell_length_b 9.447781
_cell_length_c 14.535514
_cell_angle_alpha 81.986881
_cell_angle_beta 41.307276
_cell_angle_gamma 73.038508
_cell_volume 732.634467
_symmetry_space_group_name_H-M "P -1"
_symmetry_group_IT_number 2
_symmetry_cell_setting 'triclinic'
loop_
_space_group_symop_operation_xyz
x,y,z
-x,-y,-z
loop_
_atom_site_type_symbol
_atom_site_label
_atom_site_fract_x
_atom_site_fract_y
_atom_site_fract_z
Si Si1 0.625714 0.462007 0.149004
Si Si2 0.924517 0.624807 0.901225
Si Si3 0.215986 0.097841 0.615874
Si Si4 0.626383 0.144623 0.146530
Si Si5 0.954393 0.940329 0.876332
Si Si6 0.118867 0.133443 0.446883
Si Si7 0.240338 0.394520 0.647125
Si Si8 0.304823 0.589392 0.443291
O O1 0.570367 0.321458 0.135459
O O2 0.387450 0.541354 0.307538
O O3 0.872093 0.408390 0.105734
O O4 0.676517 0.580664 0.043193
O O5 0.858292 0.801718 0.897102
O O6 0.031785 0.530083 0.772169
O O7 0.139814 0.160145 0.542851
O O8 0.166049 0.241880 0.691197
O O9 0.500000 0.000000 0.500000
O O10 0.038029 0.004139 0.740350
O O11 0.813769 0.102745 0.153027
O O12 0.384554 0.095877 0.284214
O O13 0.729562 0.059157 0.015072
O O14 0.950370 0.281683 0.459260
O O15 0.000000 0.000000 0.500000
O O16 0.280837 0.443880 0.521176
O O17 0.493111 0.350412 0.598162
#
# Coordination Sequence:
#
# PCOD8012990 Si02
#       8
#     2   2   2   2   2   2   2   2
#     4   9  18  36  61  93 125 166 213 265 321 382
#     4   9  19  35  63  94 125 162 217 269 320 375
#     4  12  24  41  67  97 132 170 224 267 324 390
#     4  10  21  40  64  96 132 171 220 269 326 382
#     4  10  22  38  67  97 128 170 222 274 316 391
#     4  12  27  42  64  99 139 174 212 273 337 387
#     4  10  22  40  68  95 125 170 219 271 314 393
#     4  10  23  39  66  94 130 168 218 265 330 383
#
# _framework density 21.838996000000002
#
# number of rings (size 3 to 8) (size 9 to 14) (size 15 to 20)
#    0.000    1.750    1.250    2.250    8.750    4.000 
#    0.000    1.875    0.000    3.000    0.000    0.000 
#    0.000    0.000    0.000    0.000    0.000    0.000 
#
# Total GULP energy -198430.165124 kJ/mol
# GULP energy per Si atom -12401.885320 kJ/mol
# Density = 2.178929 g / cm^3
# Si number density = 21.838996 Si / 1000 Ang^3
#
#
#
# Elastic Constant Matrix: (Units=GPa)
#
#
# Indices 1 2 3 4 5 6 
#
# 1 46.1490 37.0163 30.8744 7.2036 4.4306 4.5647
# 2 37.0163 146.9699 67.2064 -1.9917 -1.5508 34.8345
# 3 30.8744 67.2064 171.1381 -7.2646 1.1168 15.3278
# 4 7.2036 -1.9917 -7.2646 38.4994 3.6320 -3.6454
# 5 4.4306 -1.5508 1.1168 3.6320 20.4383 -2.8787
# 6 4.5647 34.8345 15.3278 -3.6454 -2.8787 35.7212
#
#
#
# Elastic Compliance Matrix: (Units=1/GPa)
#
#
# Indices 1 2 3 4 5 6 
#
# 1 0.030725 -0.007217 -0.003232 -0.005886 -0.005499 0.003455
# 2 -0.007217 0.012101 -0.002575 0.000467 0.001184 -0.009630
# 3 -0.003232 -0.002575 0.007532 0.001905 -0.000264 -0.000134
# 4 -0.005886 0.000467 0.001905 0.027982 -0.003476 0.002055
# 5 -0.005499 0.001184 -0.000264 -0.003476 0.051327 0.003443
# 6 0.003455 -0.009630 -0.000134 0.002055 0.003443 0.037489
#
#
# Mechanical properties :
#
#
# Convention : Reuss Voigt Hill
#
# Bulk Modulus (GPa) = 41.13727 70.49458 55.81592
# Shear Modulus (GPa) = 24.83747 34.20911 29.52329
#
# Velocity S-wave (km/s) = 3.37604 3.96210 3.68076
# Velocity P-wave (km/s) = 5.83733 7.29933 6.60888
#
# Compressibility (1/GPa) = 0.02430886
#
# Stress axis : x y z
#
# Youngs Moduli (GPa) = 32.54638 82.63883 132.76061
#
# Poissons Ratio (x) = 0.59642 0.42912
# Poissons Ratio (y) = 0.23489 0.34191
# Poissons Ratio (z) = 0.10520 0.21283
#
# Static dielectric constant tensor:
#      x y z
#    x 3.770160 0.210550 -0.004830 
#    y 0.210550 4.085360 -0.107560 
#    z -0.004830 -0.107560 3.994530 
# 
# 
# High freq. dielectric constant tensor:
#      x y z
#    x 1.829530 0.014040 0.004590 
#    y 0.014040 1.867100 -0.005300 
#    z 0.004590 -0.005300 1.866850 
# 
# From -- ./inp_files/332846.got.cif
#   From: 2010.06.25/outbox.cif.g09.slc.cpg/sg2_167_cif.got.tgz:332846.got - 2010.06.27 13:26:56.
