data_PCOD8012517
_publ_section_title
;
Structure prediction by ZEFSAII (Michael W. Deem and Ramdas Pophale) SiO2 
 PCOD8012517
Probable space group: P -1
;
_chemical_formula_sum "Si O2"
_cell_formula_units_Z 16
_cell_length_a 14.652891
_cell_length_b 23.446548
_cell_length_c 13.626850
_cell_angle_alpha 21.082723
_cell_angle_beta 26.364918
_cell_angle_gamma 28.962770
_cell_volume 725.324049
_symmetry_space_group_name_H-M "P -1"
_symmetry_group_IT_number 2
_symmetry_cell_setting 'triclinic'
loop_
_space_group_symop_operation_xyz
x,y,z
-x,-y,-z
loop_
_atom_site_type_symbol
_atom_site_label
_atom_site_fract_x
_atom_site_fract_y
_atom_site_fract_z
Si Si1 0.229464 0.395179 0.164034
Si Si2 0.889579 0.314447 0.526010
Si Si3 0.042706 0.014939 0.740060
Si Si4 0.617459 0.142838 0.182975
Si Si5 0.150886 0.761883 0.683661
Si Si6 0.667280 0.605797 0.161758
Si Si7 0.617322 0.104693 0.920848
Si Si8 0.259351 0.987472 0.372924
O O1 0.442598 0.280268 0.189732
O O2 0.027901 0.312846 0.496084
O O3 0.181040 0.570207 0.981330
O O4 0.251601 0.393387 0.027451
O O5 0.842716 0.503179 0.232675
O O6 0.689092 0.234913 0.870824
O O7 0.015149 0.206161 0.488286
O O8 0.166008 0.913990 0.874263
O O9 0.184977 0.956814 0.602234
O O10 0.804481 0.987490 0.994219
O O11 0.500000 0.000000 0.500000
O O12 0.263601 0.784529 0.436299
O O13 0.901364 0.852563 0.775666
O O14 0.263178 0.829870 0.556311
O O15 0.500000 0.500000 0.500000
O O16 0.569740 0.788811 0.002666
O O17 0.501857 0.003713 0.120259
#
# Coordination Sequence:
#
# PCOD8012517 Si02
#       8
#     2   2   2   2   2   2   2   2
#     4  12  23  39  62  87 127 161 195 257 303 362
#     4  12  23  38  61  91 122 158 194 249 313 371
#     4  11  23  37  58  87 118 158 206 239 293 357
#     4  12  26  41  59  90 124 163 208 243 296 371
#     4  10  21  40  60  93 118 158 206 247 309 354
#     4  12  19  35  60  95 125 151 194 244 323 372
#     4  11  20  36  61  89 126 160 192 251 306 361
#     4  10  22  38  63  88 123 157 203 256 294 360
#
# _framework density 22.059106
#
# number of rings (size 3 to 8) (size 9 to 14) (size 15 to 20)
#    0.000    0.750    5.000    3.375    1.750    0.000 
#    0.000    0.625    0.000    1.500    0.000    0.000 
#    0.000    0.000    0.000    0.000    0.000    0.000 
#
# Total GULP energy -198254.662987 kJ/mol
# GULP energy per Si atom -12390.916437 kJ/mol
# Density = 2.200890 g / cm^3
# Si number density = 22.059106 Si / 1000 Ang^3
#
#
#
# Elastic Constant Matrix: (Units=GPa)
#
#
# Indices 1 2 3 4 5 6 
#
# 1 96.7691 39.2350 32.4597 -14.4927 -29.9981 -24.0485
# 2 39.2350 96.9029 35.5435 -15.9260 -18.1729 -15.6662
# 3 32.4597 35.5435 82.6666 -8.4169 -22.4817 -7.3864
# 4 -14.4927 -15.9260 -8.4169 30.4573 1.8635 -6.4764
# 5 -29.9981 -18.1729 -22.4817 1.8635 41.5227 4.8623
# 6 -24.0485 -15.6662 -7.3864 -6.4764 4.8623 43.9319
#
#
#
# Elastic Compliance Matrix: (Units=1/GPa)
#
#
# Indices 1 2 3 4 5 6 
#
# 1 0.018455 -0.001983 -0.002003 0.008545 0.009918 0.009221
# 2 -0.001983 0.014694 -0.003944 0.006418 0.002083 0.004207
# 3 -0.002003 -0.003944 0.016180 0.001064 0.005568 -0.000242
# 4 0.008545 0.006418 0.001064 0.042893 0.006136 0.012789
# 5 0.009918 0.002083 0.005568 0.006136 0.034407 0.004204
# 6 0.009221 0.004207 -0.000242 0.012789 0.004204 0.030690
#
#
# Mechanical properties :
#
#
# Convention : Reuss Voigt Hill
#
# Bulk Modulus (GPa) = 29.87680 54.53498 42.20589
# Shear Modulus (GPa) = 27.12457 34.45574 30.79016
#
# Velocity S-wave (km/s) = 3.51041 3.95647 3.74010
# Velocity P-wave (km/s) = 5.47760 6.75629 6.15026
#
# Compressibility (1/GPa) = 0.03347079
#
# Stress axis : x y z
#
# Youngs Moduli (GPa) = 54.18480 68.05304 61.80519
#
# Poissons Ratio (x) = 0.13492 0.12380
# Poissons Ratio (y) = 0.10743 0.24374
# Poissons Ratio (z) = 0.10854 0.26838
#
# Static dielectric constant tensor:
#      x y z
#    x 3.885270 -0.052520 -0.388490 
#    y -0.052520 3.400640 0.612900 
#    z -0.388490 0.612900 4.042050 
# 
# 
# High freq. dielectric constant tensor:
#      x y z
#    x 1.857030 -0.027280 -0.022210 
#    y -0.027280 1.873290 0.016040 
#    z -0.022210 0.016040 1.852720 
# 
# From -- ./inp_files/465699.got.cif
#   From: 2010.06.25/outbox.cif.g09.slc.cpg/sg2_233_cif.got.tgz:465699.got - 2010.06.27 13:26:56.
