data_PCOD8012697
_publ_section_title
;
Structure prediction by ZEFSAII (Michael W. Deem and Ramdas Pophale) SiO2 
 PCOD8012697
Probable space group: P -1
;
_chemical_formula_sum "Si O2"
_cell_formula_units_Z 12
_cell_length_a 8.431145
_cell_length_b 13.023387
_cell_length_c 5.288166
_cell_angle_alpha 81.259394
_cell_angle_beta 61.724075
_cell_angle_gamma 104.156925
_cell_volume 470.817576
_symmetry_space_group_name_H-M "P -1"
_symmetry_group_IT_number 2
_symmetry_cell_setting 'triclinic'
loop_
_space_group_symop_operation_xyz
x,y,z
-x,-y,-z
loop_
_atom_site_type_symbol
_atom_site_label
_atom_site_fract_x
_atom_site_fract_y
_atom_site_fract_z
Si Si1 0.790709 0.705252 0.854349
Si Si2 0.667173 0.954626 0.464314
Si Si3 0.421638 0.734138 0.015966
Si Si4 0.935745 0.841658 0.174563
Si Si5 0.123949 0.511910 0.152045
Si Si6 0.716069 0.092093 0.802482
O O1 0.571102 0.696317 0.078634
O O2 0.882844 0.775723 0.507258
O O3 0.778983 0.580004 0.881106
O O4 0.915644 0.759296 0.987498
O O5 0.546487 0.833458 0.707755
O O6 0.817426 0.923575 0.178511
O O7 0.500000 0.000000 0.500000
O O8 0.811334 0.047849 0.514768
O O9 0.290275 0.633396 0.979902
O O10 0.293404 0.784256 0.275446
O O11 0.170010 0.910635 0.017403
O O12 0.000000 0.500000 0.500000
O O13 0.000000 0.500000 0.000000
O O14 0.500000 0.000000 0.000000
#
# Coordination Sequence:
#
# PCOD8012697 Si02
#       6
#     2   2   2   2   2   2
#     4  11  24  45  70 100 134 177 227 284 348 410
#     4  10  22  41  67 102 139 184 232 284 343 406
#     4  10  23  43  67  99 139 181 229 286 343 412
#     4  11  24  44  70 101 137 179 229 284 342 410
#     4  12  26  45  71 103 136 178 227 284 350 418
#     4  10  21  40  62  95 135 179 225 276 335 402
#
# _framework density 25.487577000000002
#
# number of rings (size 3 to 8) (size 9 to 14) (size 15 to 20)
#    0.000    1.333    0.000    5.000    0.000    9.333 
#    0.000   17.500    0.000    0.000    0.000    0.000 
#    0.000    0.000    0.000    0.000    0.000    0.000 
#
# Total GULP energy -148657.578363 kJ/mol
# GULP energy per Si atom -12388.131530 kJ/mol
# Density = 2.542957 g / cm^3
# Si number density = 25.487577 Si / 1000 Ang^3
#
#
#
# Elastic Constant Matrix: (Units=GPa)
#
#
# Indices 1 2 3 4 5 6 
#
# 1 146.8448 104.7630 29.1273 0.8135 5.2021 4.7448
# 2 104.7630 228.0651 48.5073 26.5912 -0.2695 -4.1738
# 3 29.1273 48.5073 75.1017 19.8285 16.2590 5.9312
# 4 0.8135 26.5912 19.8285 34.2782 3.4590 1.4595
# 5 5.2021 -0.2695 16.2590 3.4590 44.6283 10.5120
# 6 4.7448 -4.1738 5.9312 1.4595 10.5120 66.7371
#
#
#
# Elastic Compliance Matrix: (Units=1/GPa)
#
#
# Indices 1 2 3 4 5 6 
#
# 1 0.010952 -0.005217 -0.001971 0.005044 -0.000764 -0.000920
# 2 -0.005217 0.007831 -0.002160 -0.004903 0.001609 0.000906
# 3 -0.001971 -0.002160 0.019103 -0.008705 -0.005934 -0.000568
# 4 0.005044 -0.004903 -0.008705 0.037944 -0.000226 -0.000686
# 5 -0.000764 0.001609 -0.005934 -0.000226 0.025469 -0.003324
# 6 -0.000920 0.000906 -0.000568 -0.000686 -0.003324 0.015695
#
#
# Mechanical properties :
#
#
# Convention : Reuss Voigt Hill
#
# Bulk Modulus (GPa) = 52.11537 90.53410 71.32473
# Shear Modulus (GPa) = 35.18972 46.96964 41.07968
#
# Velocity S-wave (km/s) = 3.71976 4.29749 4.01902
# Velocity P-wave (km/s) = 6.24024 7.76032 7.04142
#
# Compressibility (1/GPa) = 0.01918820
#
# Stress axis : x y z
#
# Youngs Moduli (GPa) = 91.30695 127.70007 52.34855
#
# Poissons Ratio (x) = 0.66627 0.10320
# Poissons Ratio (y) = 0.47639 0.11306
# Poissons Ratio (z) = 0.18001 0.27581
#
# Static dielectric constant tensor:
#      x y z
#    x 6.153780 -0.427760 0.027130 
#    y -0.427760 5.801650 1.255920 
#    z 0.027130 1.255920 7.163820 
# 
# 
# High freq. dielectric constant tensor:
#      x y z
#    x 2.040450 -0.007350 -0.010750 
#    y -0.007350 2.041850 0.008090 
#    z -0.010750 0.008090 2.014310 
# 
# From -- ./inp_files/24590.got.cif
#   From: 2010.06.25/outbox.cif.g09.slc.cpg/sg2_13_cif.got.tgz:24590.got - 2010.06.27 13:26:56.
