data_PCOD8012957
_publ_section_title
;
Structure prediction by ZEFSAII (Michael W. Deem and Ramdas Pophale) SiO2 
 PCOD8012957
Probable space group: P -1
;
_chemical_formula_sum "Si O2"
_cell_formula_units_Z 12
_cell_length_a 11.133012
_cell_length_b 16.698006
_cell_length_c 18.479747
_cell_angle_alpha 157.098494
_cell_angle_beta 157.799823
_cell_angle_gamma 32.139373
_cell_volume 504.687451
_symmetry_space_group_name_H-M "P -1"
_symmetry_group_IT_number 2
_symmetry_cell_setting 'triclinic'
loop_
_space_group_symop_operation_xyz
x,y,z
-x,-y,-z
loop_
_atom_site_type_symbol
_atom_site_label
_atom_site_fract_x
_atom_site_fract_y
_atom_site_fract_z
Si Si1 0.126475 0.981651 0.134742
Si Si2 0.672278 0.678303 0.840104
Si Si3 0.213133 0.748604 0.516917
Si Si4 0.485936 0.357498 0.974742
Si Si5 0.497014 0.854315 0.036278
Si Si6 0.399597 0.808551 0.335089
O O1 0.425925 0.142077 0.449765
O O2 0.839093 0.034035 0.071287
O O3 0.244969 0.746062 0.011291
O O4 0.000000 0.000000 0.000000
O O5 0.428628 0.784022 0.738046
O O6 0.669334 0.435583 0.620760
O O7 0.552205 0.698539 0.871814
O O8 0.022439 0.785497 0.115980
O O9 0.850361 0.704816 0.301520
O O10 0.236786 0.959757 0.659928
O O11 0.491609 0.274978 0.991569
O O12 0.542600 0.602401 0.209778
O O13 0.500000 0.000000 0.500000
#
# Coordination Sequence:
#
# PCOD8012957 Si02
#       6
#     2   2   2   2   2   2
#     4  10  24  42  62  92 130 169 210 257 316 380
#     4  10  23  41  65  96 127 167 215 262 318 377
#     4  10  21  40  64  94 129 165 211 263 319 378
#     4  10  24  42  65  95 128 170 213 260 320 380
#     4  11  22  39  66  96 128 167 211 266 317 374
#     4  11  24  44  66  92 128 170 215 264 318 380
#
# _framework density 23.777092
#
# number of rings (size 3 to 8) (size 9 to 14) (size 15 to 20)
#    0.000    1.667    0.000    3.000    0.000   12.667 
#    0.000    1.667    0.000    0.000    0.000    0.000 
#    0.000    0.000    0.000    0.000    0.000    0.000 
#
# Total GULP energy -148772.936417 kJ/mol
# GULP energy per Si atom -12397.744701 kJ/mol
# Density = 2.372297 g / cm^3
# Si number density = 23.777092 Si / 1000 Ang^3
#
#
#
# Elastic Constant Matrix: (Units=GPa)
#
#
# Indices 1 2 3 4 5 6 
#
# 1 63.2400 29.2777 36.4883 -7.2714 -8.5214 -15.2180
# 2 29.2777 123.3504 53.8614 -2.6893 -6.1362 -17.5243
# 3 36.4883 53.8614 136.5466 -0.8563 -28.5099 8.5607
# 4 -7.2714 -2.6893 -0.8563 47.2646 12.9692 0.0871
# 5 -8.5214 -6.1362 -28.5099 12.9692 25.1581 3.2552
# 6 -15.2180 -17.5243 8.5607 0.0871 3.2552 43.3582
#
#
#
# Elastic Compliance Matrix: (Units=1/GPa)
#
#
# Indices 1 2 3 4 5 6 
#
# 1 0.022486 -0.001121 -0.006926 0.004327 -0.003913 0.009092
# 2 -0.001121 0.011502 -0.005842 0.002008 -0.005987 0.005854
# 3 -0.006926 -0.005842 0.015927 -0.006221 0.018692 -0.009328
# 4 0.004327 0.002008 -0.006221 0.027244 -0.019785 0.004989
# 5 -0.003913 -0.005987 0.018692 -0.019785 0.069988 -0.012699
# 6 0.009092 0.005854 -0.009328 0.004989 -0.012699 0.031406
#
#
# Mechanical properties :
#
#
# Convention : Reuss Voigt Hill
#
# Bulk Modulus (GPa) = 45.17491 62.48799 53.83145
# Shear Modulus (GPa) = 23.39603 36.72346 30.05975
#
# Velocity S-wave (km/s) = 3.14024 3.93426 3.55946
# Velocity P-wave (km/s) = 5.67351 6.85388 6.29144
#
# Compressibility (1/GPa) = 0.02213618
#
# Stress axis : x y z
#
# Youngs Moduli (GPa) = 44.47117 86.94492 62.78533
#
# Poissons Ratio (x) = 0.09751 0.43488
# Poissons Ratio (y) = 0.04987 0.36677
# Poissons Ratio (z) = 0.30803 0.50790
#
# Static dielectric constant tensor:
#      x y z
#    x 4.188430 -0.347450 -0.291400 
#    y -0.347450 5.040350 -0.401060 
#    z -0.291400 -0.401060 4.701900 
# 
# 
# High freq. dielectric constant tensor:
#      x y z
#    x 1.932010 -0.011850 -0.021280 
#    y -0.011850 1.960790 -0.005590 
#    z -0.021280 -0.005590 1.948030 
# 
# From -- ./inp_files/239366.got.cif
#   From: 2010.06.25/outbox.cif.g09.slc.cpg/sg2_120_cif.got.tgz:239366.got - 2010.06.27 13:26:56.
