data_PCOD8012280
_publ_section_title
;
Structure prediction by ZEFSAII (Michael W. Deem and Ramdas Pophale) SiO2 
 PCOD8012280
Probable space group: P -1
;
_chemical_formula_sum "Si O2"
_cell_formula_units_Z 14
_cell_length_a 20.585048
_cell_length_b 9.631138
_cell_length_c 10.242270
_cell_angle_alpha 37.252506
_cell_angle_beta 30.564773
_cell_angle_gamma 37.752198
_cell_volume 587.353902
_symmetry_space_group_name_H-M "P -1"
_symmetry_group_IT_number 2
_symmetry_cell_setting 'triclinic'
loop_
_space_group_symop_operation_xyz
x,y,z
-x,-y,-z
loop_
_atom_site_type_symbol
_atom_site_label
_atom_site_fract_x
_atom_site_fract_y
_atom_site_fract_z
Si Si1 0.225213 0.539247 0.908489
Si Si2 0.096613 0.752609 0.577532
Si Si3 0.655005 0.320160 0.638751
Si Si4 0.539025 0.269700 0.202848
Si Si5 0.713518 0.154224 0.221569
Si Si6 0.956153 0.666424 0.146204
Si Si7 0.453071 0.056723 0.798119
O O1 0.264471 0.723192 0.603768
O O2 0.254161 0.615143 0.946945
O O3 0.313668 0.263613 0.927068
O O4 0.066306 0.574398 0.141108
O O5 0.244262 0.770077 0.342128
O O6 0.114939 0.535043 0.605352
O O7 0.000000 0.000000 0.500000
O O8 0.035332 0.694940 0.859723
O O9 0.574357 0.616337 0.570229
O O10 0.549013 0.174349 0.937344
O O11 0.682659 0.200428 0.084692
O O12 0.534163 0.030591 0.312791
O O13 0.500000 0.500000 0.000000
O O14 0.587366 0.121993 0.545370
O O15 0.843608 0.915982 0.196920
#
# Coordination Sequence:
#
# PCOD8012280 Si02
#       7
#     2   2   2   2   2   2   2
#     4  11  24  44  63  93 134 171 212 261 314 388
#     4  10  21  39  68  95 126 167 212 266 319 373
#     4  10  22  40  63  98 129 162 218 267 314 377
#     4  10  23  39  64  96 127 160 215 274 315 374
#     4  12  24  42  66  94 133 173 210 260 328 378
#     4  10  24  40  65  94 130 167 214 259 319 378
#     4  11  23  40  69  91 128 169 215 264 318 374
#
# _framework density 23.835715
#
# number of rings (size 3 to 8) (size 9 to 14) (size 15 to 20)
#    0.000    1.429    1.429    3.000   10.000    0.571 
#    2.571    0.000    0.000    5.143    0.000    0.000 
#    0.000    0.000    0.000    0.000    0.000    0.000 
#
# Total GULP energy -173579.907824 kJ/mol
# GULP energy per Si atom -12398.564845 kJ/mol
# Density = 2.378146 g / cm^3
# Si number density = 23.835715 Si / 1000 Ang^3
#
#
#
# Elastic Constant Matrix: (Units=GPa)
#
#
# Indices 1 2 3 4 5 6 
#
# 1 88.5110 38.6125 7.5768 -5.2556 -27.4466 8.0996
# 2 38.6125 164.2576 6.8488 2.7526 -23.6810 -9.0957
# 3 7.5768 6.8488 41.7119 -6.2829 -18.7743 -3.5595
# 4 -5.2556 2.7526 -6.2829 35.5206 -3.5584 -9.9346
# 5 -27.4466 -23.6810 -18.7743 -3.5584 31.9434 3.8743
# 6 8.0996 -9.0957 -3.5595 -9.9346 3.8743 31.5457
#
#
#
# Elastic Compliance Matrix: (Units=1/GPa)
#
#
# Indices 1 2 3 4 5 6 
#
# 1 0.018283 -0.002258 0.005457 0.004094 0.018390 -0.005699
# 2 -0.002258 0.007262 0.001258 0.000408 0.003930 0.002462
# 3 0.005457 0.001258 0.037575 0.011110 0.028556 0.003193
# 4 0.004094 0.000408 0.011110 0.034696 0.013045 0.009645
# 5 0.018390 0.003930 0.028556 0.013045 0.068828 -0.004711
# 6 -0.005699 0.002462 0.003193 0.009645 -0.004711 0.037849
#
#
# Mechanical properties :
#
#
# Convention : Reuss Voigt Hill
#
# Bulk Modulus (GPa) = 13.88219 44.50629 29.19424
# Shear Modulus (GPa) = 22.76947 35.89811 29.33379
#
# Velocity S-wave (km/s) = 3.09409 3.88501 3.51189
# Velocity P-wave (km/s) = 4.31292 6.23194 5.35903
#
# Compressibility (1/GPa) = 0.07203476
#
# Stress axis : x y z
#
# Youngs Moduli (GPa) = 54.69490 137.69450 26.61335
#
# Poissons Ratio (x) = 0.31096 -0.14524
# Poissons Ratio (y) = 0.12352 -0.03348
# Poissons Ratio (z) = -0.29848 -0.17323
#
# Static dielectric constant tensor:
#      x y z
#    x 4.340390 -0.039370 -0.133610 
#    y -0.039370 4.407560 0.093540 
#    z -0.133610 0.093540 4.252630 
# 
# 
# High freq. dielectric constant tensor:
#      x y z
#    x 1.939190 -0.003680 -0.002360 
#    y -0.003680 1.961570 -0.004280 
#    z -0.002360 -0.004280 1.936360 
# 
# From -- ./inp_files/256126.got.cif
#   From: 2010.06.25/outbox.cif.g09.slc.cpg/sg2_129_cif.got.tgz:256126.got - 2010.06.27 13:26:56.
