data_PCOD8012093
_publ_section_title
;
Structure prediction by ZEFSAII (Michael W. Deem and Ramdas Pophale) SiO2 
 PCOD8012093
Probable space group: P -1
;
_chemical_formula_sum "Si O2"
_cell_formula_units_Z 16
_cell_length_a 14.010338
_cell_length_b 9.148240
_cell_length_c 11.383106
_cell_angle_alpha 50.669502
_cell_angle_beta 67.367282
_cell_angle_gamma 39.990192
_cell_volume 710.194814
_symmetry_space_group_name_H-M "P -1"
_symmetry_group_IT_number 2
_symmetry_cell_setting 'triclinic'
loop_
_space_group_symop_operation_xyz
x,y,z
-x,-y,-z
loop_
_atom_site_type_symbol
_atom_site_label
_atom_site_fract_x
_atom_site_fract_y
_atom_site_fract_z
Si Si1 0.907536 0.782279 0.470485
Si Si2 0.848278 0.817798 0.910872
Si Si3 0.852692 0.243642 0.644245
Si Si4 0.832062 0.284086 0.895640
Si Si5 0.461377 0.371187 0.502127
Si Si6 0.270308 0.188199 0.256845
Si Si7 0.638464 0.172614 0.030943
Si Si8 0.393551 0.729795 0.757053
O O1 0.835526 0.786374 0.617064
O O2 0.000000 0.500000 0.500000
O O3 0.013791 0.812108 0.448852
O O4 0.780075 0.056058 0.311470
O O5 0.737281 0.900673 0.819764
O O6 0.895602 0.971260 0.792797
O O7 0.000000 0.500000 0.000000
O O8 0.757734 0.898892 0.034317
O O9 0.821886 0.376421 0.719457
O O10 0.716968 0.434033 0.516303
O O11 0.779714 0.529178 0.875998
O O12 0.714551 0.273249 0.975434
O O13 0.000000 0.000000 0.000000
O O14 0.500000 0.500000 0.500000
O O15 0.503916 0.332820 0.364888
O O16 0.552965 0.067330 0.660998
O O17 0.608152 0.127263 0.199239
O O18 0.478651 0.420573 0.912742
#
# Coordination Sequence:
#
# PCOD8012093 Si02
#       8
#     2   2   2   2   2   2   2   2
#     4  11  24  38  63  99 133 163 223 279 328 390
#     4  11  23  40  67  95 129 176 224 271 336 402
#     4  11  22  42  65  96 132 177 218 273 343 388
#     4  11  21  37  64  96 128 168 223 276 324 403
#     4  11  21  43  68  94 134 173 225 276 330 407
#     4  11  23  39  67  93 127 174 219 276 339 387
#     4  10  21  40  66  92 130 176 224 264 339 392
#     4  10  21  39  66  94 128 173 214 276 325 393
#
# _framework density 22.529029999999999
#
# number of rings (size 3 to 8) (size 9 to 14) (size 15 to 20)
#    0.000    1.250    5.000    2.250    1.750    2.000 
#    0.000    0.000    0.000    4.500    0.000    0.000 
#    0.000    0.000    0.000    0.000    0.000    0.000 
#
# Total GULP energy -198267.950024 kJ/mol
# GULP energy per Si atom -12391.746877 kJ/mol
# Density = 2.247775 g / cm^3
# Si number density = 22.529030 Si / 1000 Ang^3
#
#
#
# Elastic Constant Matrix: (Units=GPa)
#
#
# Indices 1 2 3 4 5 6 
#
# 1 101.4081 31.2415 35.8129 -12.8792 19.5476 -5.5026
# 2 31.2415 142.5906 49.2549 -7.5365 14.2899 5.2909
# 3 35.8129 49.2549 87.1890 -7.1057 28.6346 -2.7993
# 4 -12.8792 -7.5365 -7.1057 45.6927 -1.0519 15.9052
# 5 19.5476 14.2899 28.6346 -1.0519 31.8959 -9.4397
# 6 -5.5026 5.2909 -2.7993 15.9052 -9.4397 35.0187
#
#
#
# Elastic Compliance Matrix: (Units=1/GPa)
#
#
# Indices 1 2 3 4 5 6 
#
# 1 0.012428 -0.001131 -0.002641 0.003071 -0.004874 -0.000796
# 2 -0.001131 0.009012 -0.004645 0.001307 0.000138 -0.002467
# 3 -0.002641 -0.004645 0.020363 0.002479 -0.015503 -0.003391
# 4 0.003071 0.001307 0.002479 0.028215 -0.008055 -0.014503
# 5 -0.004874 0.000138 -0.015503 -0.008055 0.052609 0.015814
# 6 -0.000796 -0.002467 -0.003391 -0.014503 0.015814 0.039383
#
#
# Mechanical properties :
#
#
# Convention : Reuss Voigt Hill
#
# Bulk Modulus (GPa) = 40.04705 62.64514 51.34609
# Shear Modulus (GPa) = 26.71414 36.84668 31.78041
#
# Velocity S-wave (km/s) = 3.44723 4.04854 3.75993
# Velocity P-wave (km/s) = 5.80163 7.05132 6.45678
#
# Compressibility (1/GPa) = 0.02497063
#
# Stress axis : x y z
#
# Youngs Moduli (GPa) = 80.46094 110.96302 49.10940
#
# Poissons Ratio (x) = 0.12545 0.12970
# Poissons Ratio (y) = 0.09096 0.22810
# Poissons Ratio (z) = 0.21250 0.51539
#
# Static dielectric constant tensor:
#      x y z
#    x 4.057460 -0.059200 0.354210 
#    y -0.059200 4.366500 0.103600 
#    z 0.354210 0.103600 4.294200 
# 
# 
# High freq. dielectric constant tensor:
#      x y z
#    x 1.869140 -0.006830 0.027870 
#    y -0.006830 1.901390 -0.002040 
#    z 0.027870 -0.002040 1.887200 
# 
# From -- ./inp_files/446956.got.cif
#   From: 2010.06.25/outbox.cif.g09.slc.cpg/sg2_224_cif.got.tgz:446956.got - 2010.06.27 13:26:56.
