data_PCOD8012132
_publ_section_title
;
Structure prediction by ZEFSAII (Michael W. Deem and Ramdas Pophale) SiO2 
 PCOD8012132
Probable space group: P -1
;
_chemical_formula_sum "Si O2"
_cell_formula_units_Z 16
_cell_length_a 11.111612
_cell_length_b 11.439505
_cell_length_c 11.674288
_cell_angle_alpha 119.533341
_cell_angle_beta 60.247673
_cell_angle_gamma 145.896055
_cell_volume 712.027603
_symmetry_space_group_name_H-M "P -1"
_symmetry_group_IT_number 2
_symmetry_cell_setting 'triclinic'
loop_
_space_group_symop_operation_xyz
x,y,z
-x,-y,-z
loop_
_atom_site_type_symbol
_atom_site_label
_atom_site_fract_x
_atom_site_fract_y
_atom_site_fract_z
Si Si1 0.715844 0.054285 0.292851
Si Si2 0.396672 0.730685 0.100732
Si Si3 0.608277 0.843206 0.468791
Si Si4 0.022480 0.071318 0.651575
Si Si5 0.118317 0.268816 0.071244
Si Si6 0.219343 0.124268 0.110610
Si Si7 0.855349 0.442967 0.435876
Si Si8 0.161999 0.814946 0.290899
O O1 0.730867 0.221941 0.333846
O O2 0.940680 0.155407 0.199444
O O3 0.512285 0.836216 0.219170
O O4 0.681470 0.009437 0.422135
O O5 0.220290 0.482313 0.081454
O O6 0.281998 0.786685 0.148267
O O7 0.574011 0.823335 0.964565
O O8 0.736950 0.799568 0.361738
O O9 0.350807 0.614627 0.464952
O O10 0.669049 0.955613 0.617050
O O11 0.991977 0.210924 0.733068
O O12 0.000000 0.000000 0.500000
O O13 0.836392 0.873683 0.731466
O O14 0.284937 0.293914 0.072715
O O15 0.004620 0.114251 0.941431
O O16 0.000000 0.500000 0.500000
O O17 0.008823 0.630812 0.366326
#
# Coordination Sequence:
#
# PCOD8012132 Si02
#       8
#     2   2   2   2   2   2   2   2
#     4  11  20  35  62  93 131 161 208 275 329 379
#     4  11  22  38  66  99 128 166 215 271 333 381
#     4  11  22  40  62  92 134 175 212 269 326 384
#     4  10  24  46  67  89 133 181 217 263 315 391
#     4  10  21  39  66  98 129 165 211 274 332 384
#     4  10  22  43  65  96 131 166 217 267 326 389
#     4  12  22  35  63  97 129 168 218 275 331 378
#     4  11  23  40  62  94 132 174 225 261 317 393
#
# _framework density 22.471036999999999
#
# number of rings (size 3 to 8) (size 9 to 14) (size 15 to 20)
#    0.000    1.250    5.000    1.500    0.000    1.000 
#    0.000    3.125    0.000    0.000    0.000    0.000 
#    0.000    0.000    0.000    0.000    0.000    0.000 
#
# Total GULP energy -198286.025011 kJ/mol
# GULP energy per Si atom -12392.876563 kJ/mol
# Density = 2.241989 g / cm^3
# Si number density = 22.471037 Si / 1000 Ang^3
#
#
#
# Elastic Constant Matrix: (Units=GPa)
#
#
# Indices 1 2 3 4 5 6 
#
# 1 152.9218 39.2179 30.0699 -14.0430 -39.0815 4.2163
# 2 39.2179 65.2832 18.9052 -2.6096 -4.9710 6.7807
# 3 30.0699 18.9052 81.4208 -16.7007 -16.5767 4.6854
# 4 -14.0430 -2.6096 -16.7007 30.0115 1.9605 -9.6464
# 5 -39.0815 -4.9710 -16.5767 1.9605 39.3276 -7.5441
# 6 4.2163 6.7807 4.6854 -9.6464 -7.5441 30.6689
#
#
#
# Elastic Compliance Matrix: (Units=1/GPa)
#
#
# Indices 1 2 3 4 5 6 
#
# 1 0.011330 -0.006312 0.000478 0.005670 0.011206 0.004305
# 2 -0.006312 0.020331 -0.004425 -0.005213 -0.006495 -0.006189
# 3 0.000478 -0.004425 0.016300 0.009453 0.006909 0.003095
# 4 0.005670 -0.005213 0.009453 0.045133 0.009685 0.015507
# 5 0.011206 -0.006495 0.006909 0.009685 0.040441 0.011834
# 6 0.004305 -0.006189 0.003095 0.015507 0.011834 0.040698
#
#
# Mechanical properties :
#
#
# Convention : Reuss Voigt Hill
#
# Bulk Modulus (GPa) = 36.43886 52.89019 44.66453
# Shear Modulus (GPa) = 24.52195 34.09712 29.30953
#
# Velocity S-wave (km/s) = 3.30702 3.89958 3.61546
# Velocity P-wave (km/s) = 5.55274 6.62298 6.11133
#
# Compressibility (1/GPa) = 0.02744323
#
# Stress axis : x y z
#
# Youngs Moduli (GPa) = 88.26269 49.18620 61.34871
#
# Poissons Ratio (x) = 0.31046 -0.02933
# Poissons Ratio (y) = 0.55710 0.27147
# Poissons Ratio (z) = -0.04219 0.21765
#
# Static dielectric constant tensor:
#      x y z
#    x 4.655970 0.125340 -0.449320 
#    y 0.125340 3.825340 -0.070980 
#    z -0.449320 -0.070980 4.078490 
# 
# 
# High freq. dielectric constant tensor:
#      x y z
#    x 1.894440 0.005380 -0.027490 
#    y 0.005380 1.865310 -0.013410 
#    z -0.027490 -0.013410 1.873510 
# 
# From -- ./inp_files/364017.got.cif
#   From: 2010.06.25/outbox.cif.g09.slc.cpg/sg2_183_cif.got.tgz:364017.got - 2010.06.27 13:26:56.
