data_PCOD8012148
_publ_section_title
;
Structure prediction by ZEFSAII (Michael W. Deem and Ramdas Pophale) SiO2 
 PCOD8012148
Probable space group: P -1
;
_chemical_formula_sum "Si O2"
_cell_formula_units_Z 16
_cell_length_a 20.377040
_cell_length_b 8.150684
_cell_length_c 28.836755
_cell_angle_alpha 129.240382
_cell_angle_beta 9.904364
_cell_angle_gamma 128.096300
_cell_volume 637.347109
_symmetry_space_group_name_H-M "P -1"
_symmetry_group_IT_number 2
_symmetry_cell_setting 'triclinic'
loop_
_space_group_symop_operation_xyz
x,y,z
-x,-y,-z
loop_
_atom_site_type_symbol
_atom_site_label
_atom_site_fract_x
_atom_site_fract_y
_atom_site_fract_z
Si Si1 0.508250 0.296038 0.090615
Si Si2 0.722233 0.416519 0.621191
Si Si3 0.718075 0.582091 0.316894
Si Si4 0.881883 0.412070 0.766671
Si Si5 0.847196 0.788387 0.088361
Si Si6 0.294326 0.904979 0.995396
Si Si7 0.390944 0.769070 0.490401
Si Si8 0.173280 0.754027 0.319825
O O1 0.498867 0.522684 0.166163
O O2 0.104548 0.275268 0.341667
O O3 0.860148 0.290106 0.808766
O O4 0.610180 0.093057 0.015953
O O5 0.504980 0.280769 0.710714
O O6 0.822419 0.659729 0.576724
O O7 0.500000 0.500000 0.500000
O O8 0.487736 0.757869 0.476520
O O9 0.143195 0.669165 0.047239
O O10 0.800127 0.382415 0.190803
O O11 0.921472 0.238203 0.667406
O O12 0.260161 0.542625 0.523675
O O13 0.510625 0.572747 0.054534
O O14 0.742216 0.821196 0.221474
O O15 0.000000 0.000000 0.000000
O O16 0.934622 0.053465 0.259431
O O17 0.668626 0.015387 0.730373
#
# Coordination Sequence:
#
# PCOD8012148 Si02
#       8
#     2   2   2   2   2   2   2   2
#     4  10  21  39  67 101 139 178 223 283 345 405
#     4  10  21  44  66  96 142 180 222 289 345 401
#     4  12  26  49  73  99 139 183 235 295 343 409
#     4   9  18  37  64  90 132 178 219 275 337 396
#     4  12  26  48  71 100 138 186 236 286 344 411
#     4  11  23  41  68 108 137 181 230 275 348 420
#     4  11  24  45  71 100 139 185 233 285 344 412
#     4   9  19  37  64  93 133 174 215 276 344 408
#
# _framework density 25.104058999999999
#
# number of rings (size 3 to 8) (size 9 to 14) (size 15 to 20)
#    0.000    1.500    2.500    2.250    1.750    1.000 
#    9.000    0.000    0.000    0.000    0.000    0.000 
#    0.000    0.000    0.000    0.000    0.000    0.000 
#
# Total GULP energy -198248.062435 kJ/mol
# GULP energy per Si atom -12390.503902 kJ/mol
# Density = 2.504692 g / cm^3
# Si number density = 25.104059 Si / 1000 Ang^3
#
#
#
# Elastic Constant Matrix: (Units=GPa)
#
#
# Indices 1 2 3 4 5 6 
#
# 1 157.2311 44.1699 48.4878 -15.2561 13.8409 -25.3935
# 2 44.1699 116.6321 45.5529 -29.0932 -6.6089 -10.0767
# 3 48.4878 45.5529 100.8929 -28.3121 15.7470 -18.9211
# 4 -15.2561 -29.0932 -28.3121 27.0447 -6.3695 -4.5014
# 5 13.8409 -6.6089 15.7470 -6.3695 43.3696 0.6899
# 6 -25.3935 -10.0767 -18.9211 -4.5014 0.6899 42.0151
#
#
#
# Elastic Compliance Matrix: (Units=1/GPa)
#
#
# Indices 1 2 3 4 5 6 
#
# 1 0.008403 -0.002100 -0.001813 0.000685 -0.002305 0.003870
# 2 -0.002100 0.014050 -0.001831 0.013739 0.005452 0.002658
# 3 -0.001813 -0.001831 0.018685 0.017058 -0.004119 0.008775
# 4 0.000685 0.013739 0.017058 0.074706 0.006346 0.019291
# 5 -0.002305 0.005452 -0.004119 0.006346 0.027079 -0.001705
# 6 0.003870 0.002658 0.008775 0.019291 -0.001705 0.032824
#
#
# Mechanical properties :
#
#
# Convention : Reuss Voigt Hill
#
# Bulk Modulus (GPa) = 33.72591 72.35305 53.03948
# Shear Modulus (GPa) = 25.36550 38.25557 31.81053
#
# Velocity S-wave (km/s) = 3.18215 3.90793 3.56356
# Velocity P-wave (km/s) = 5.19279 7.01757 6.17298
#
# Compressibility (1/GPa) = 0.02965079
#
# Stress axis : x y z
#
# Youngs Moduli (GPa) = 118.99985 71.17334 53.51914
#
# Poissons Ratio (x) = 0.14944 0.09701
# Poissons Ratio (y) = 0.24986 0.09802
# Poissons Ratio (z) = 0.21571 0.13035
#
# Static dielectric constant tensor:
#      x y z
#    x 4.675190 -0.216590 -0.057770 
#    y -0.216590 4.622210 -0.262150 
#    z -0.057770 -0.262150 4.720040 
# 
# 
# High freq. dielectric constant tensor:
#      x y z
#    x 1.999580 -0.014500 -0.006340 
#    y -0.014500 2.002490 -0.001230 
#    z -0.006340 -0.001230 2.012650 
# 
# From -- ./inp_files/624011.got.cif
#   From: 2010.06.25/outbox.cif.g09.slc.cpg/sg2_313_cif.got.tgz:624011.got - 2010.06.27 13:26:56.
