data_PCOD8012080
_publ_section_title
;
Structure prediction by ZEFSAII (Michael W. Deem and Ramdas Pophale) SiO2 
 PCOD8012080
Probable space group: P -1
;
_chemical_formula_sum "Si O2"
_cell_formula_units_Z 16
_cell_length_a 9.059836
_cell_length_b 21.213558
_cell_length_c 5.229397
_cell_angle_alpha 107.700923
_cell_angle_beta 59.050482
_cell_angle_gamma 125.459665
_cell_volume 702.053567
_symmetry_space_group_name_H-M "P -1"
_symmetry_group_IT_number 2
_symmetry_cell_setting 'triclinic'
loop_
_space_group_symop_operation_xyz
x,y,z
-x,-y,-z
loop_
_atom_site_type_symbol
_atom_site_label
_atom_site_fract_x
_atom_site_fract_y
_atom_site_fract_z
Si Si1 0.753750 0.479067 0.435727
Si Si2 0.072715 0.430848 0.119846
Si Si3 0.031592 0.726320 0.145618
Si Si4 0.375451 0.824384 0.284440
Si Si5 0.068519 0.851917 0.898707
Si Si6 0.384149 0.243127 0.828368
Si Si7 0.609925 0.674085 0.589845
Si Si8 0.596489 0.988844 0.148897
O O1 0.763822 0.522260 0.745065
O O2 0.527088 0.415508 0.480154
O O3 0.874467 0.435735 0.331404
O O4 0.842396 0.540571 0.204081
O O5 0.006870 0.341186 0.102193
O O6 0.835225 0.691757 0.461471
O O7 0.241716 0.751405 0.128655
O O8 0.056738 0.803174 0.095060
O O9 0.213063 0.843162 0.562305
O O10 0.482998 0.797131 0.355439
O O11 0.554016 0.901379 0.078740
O O12 0.167016 0.943499 0.986508
O O13 0.843639 0.820064 0.957707
O O14 0.392470 0.275178 0.580410
O O15 0.470593 0.309081 0.054548
O O16 0.500000 0.000000 0.500000
O O17 0.500000 0.000000 0.000000
#
# Coordination Sequence:
#
# PCOD8012080 Si02
#       8
#     2   2   2   2   2   2   2   2
#     4  10  22  41  57  88 128 156 210 262 313 371
#     4  10  23  37  62  89 118 167 206 259 314 380
#     4  11  23  39  67  90 128 167 216 259 323 374
#     4  11  23  40  68  93 127 176 212 257 323 377
#     4  10  23  43  62  96 135 161 217 267 310 378
#     4  11  25  39  66  97 129 169 216 262 316 369
#     4  11  24  43  62  93 132 165 208 275 309 374
#     4  10  21  39  66  92 128 171 207 260 317 369
#
# _framework density 22.790284
#
# number of rings (size 3 to 8) (size 9 to 14) (size 15 to 20)
#    0.000    1.500    2.500    1.500    5.250    2.500 
#    0.000    0.000    0.000    5.250    0.000    0.000 
#    0.000    0.000    0.000    0.000    0.000    0.000 
#
# Total GULP energy -198312.066554 kJ/mol
# GULP energy per Si atom -12394.504160 kJ/mol
# Density = 2.273841 g / cm^3
# Si number density = 22.790284 Si / 1000 Ang^3
#
#
#
# Elastic Constant Matrix: (Units=GPa)
#
#
# Indices 1 2 3 4 5 6 
#
# 1 89.1754 32.3131 16.0842 4.7471 1.9097 11.0964
# 2 32.3131 116.4420 8.0787 3.4063 -12.9504 26.1449
# 3 16.0842 8.0787 46.6289 2.2855 19.3130 -1.4498
# 4 4.7471 3.4063 2.2855 23.1141 6.0306 1.8092
# 5 1.9097 -12.9504 19.3130 6.0306 30.5873 2.0198
# 6 11.0964 26.1449 -1.4498 1.8092 2.0198 33.6025
#
#
#
# Elastic Compliance Matrix: (Units=1/GPa)
#
#
# Indices 1 2 3 4 5 6 
#
# 1 0.013423 -0.002519 -0.004918 -0.002160 0.001804 -0.002677
# 2 -0.002519 0.013327 -0.006146 -0.002884 0.010929 -0.010304
# 3 -0.004918 -0.006146 0.034996 0.004487 -0.025886 0.009230
# 4 -0.002160 -0.002884 0.004487 0.047045 -0.013288 0.001417
# 5 0.001804 0.010929 -0.025886 -0.013288 0.057026 -0.012929
# 6 -0.002677 -0.010304 0.009230 0.001417 -0.012929 0.039760
#
#
# Mechanical properties :
#
#
# Convention : Reuss Voigt Hill
#
# Bulk Modulus (GPa) = 28.91845 40.57762 34.74803
# Shear Modulus (GPa) = 20.46921 30.51212 25.49067
#
# Velocity S-wave (km/s) = 3.00018 3.66296 3.34801
# Velocity P-wave (km/s) = 4.97171 5.97772 5.49777
#
# Compressibility (1/GPa) = 0.03458000
#
# Stress axis : x y z
#
# Youngs Moduli (GPa) = 74.49821 75.03631 28.57488
#
# Poissons Ratio (x) = 0.18901 0.14053
# Poissons Ratio (y) = 0.18765 0.17562
# Poissons Ratio (z) = 0.36639 0.46116
#
# Static dielectric constant tensor:
#      x y z
#    x 4.063710 0.362550 0.014740 
#    y 0.362550 4.788010 -0.060710 
#    z 0.014740 -0.060710 3.904370 
# 
# 
# High freq. dielectric constant tensor:
#      x y z
#    x 1.892240 0.014920 0.010870 
#    y 0.014920 1.915520 -0.005310 
#    z 0.010870 -0.005310 1.880040 
# 
# From -- ./inp_files/39942.got.cif
#   From: 2010.06.25/outbox.cif.g09.slc.cpg/sg2_20_cif.got.tgz:39942.got - 2010.06.27 13:26:56.
