data_PCOD8012085
_publ_section_title
;
Structure prediction by ZEFSAII (Michael W. Deem and Ramdas Pophale) SiO2 
 PCOD8012085
Probable space group: P -1
;
_chemical_formula_sum "Si O2"
_cell_formula_units_Z 16
_cell_length_a 22.765171
_cell_length_b 13.116138
_cell_length_c 18.509744
_cell_angle_alpha 35.827297
_cell_angle_beta 18.426921
_cell_angle_gamma 26.416081
_cell_volume 746.919590
_symmetry_space_group_name_H-M "P -1"
_symmetry_group_IT_number 2
_symmetry_cell_setting 'triclinic'
loop_
_space_group_symop_operation_xyz
x,y,z
-x,-y,-z
loop_
_atom_site_type_symbol
_atom_site_label
_atom_site_fract_x
_atom_site_fract_y
_atom_site_fract_z
Si Si1 0.526505 0.018024 0.172893
Si Si2 0.323219 0.457509 0.755705
Si Si3 0.980060 0.856997 0.826805
Si Si4 0.212643 0.296929 0.513739
Si Si5 0.274713 0.903935 0.748722
Si Si6 0.635664 0.631392 0.960028
Si Si7 0.473218 0.588087 0.317180
Si Si8 0.624086 0.264529 0.116020
O O1 0.299970 0.218501 0.374535
O O2 0.482280 0.132342 0.080822
O O3 0.526597 0.812420 0.282969
O O4 0.799146 0.896951 0.954141
O O5 0.500000 0.500000 0.500000
O O6 0.291655 0.496142 0.857528
O O7 0.059900 0.649997 0.908311
O O8 0.216316 0.786268 0.548092
O O9 0.837530 0.095837 0.902646
O O10 0.346099 0.383471 0.342178
O O11 0.910623 0.505941 0.743197
O O12 0.305544 0.072936 0.580870
O O13 0.486548 0.641287 0.616953
O O14 0.316142 0.888062 0.795287
O O15 0.000000 0.000000 0.000000
O O16 0.459940 0.708160 0.190520
O O17 0.635686 0.462010 0.005819
#
# Coordination Sequence:
#
# PCOD8012085 Si02
#       8
#     2   2   2   2   2   2   2   2
#     4  11  25  43  64  96 129 173 216 266 319 389
#     4  10  21  39  66  93 124 162 214 267 323 374
#     4  10  22  40  67  96 126 165 218 268 323 383
#     4  11  22  40  66  97 128 169 221 264 320 382
#     4  11  19  39  68  97 134 164 216 275 323 371
#     4  11  25  45  65  93 138 172 216 263 320 389
#     4  10  22  40  65  98 127 174 209 262 332 379
#     4  10  23  40  68 100 127 171 214 271 325 379
#
# _framework density 21.421315
#
# number of rings (size 3 to 8) (size 9 to 14) (size 15 to 20)
#    0.000    1.500    2.500    3.375    3.500    4.000 
#    9.000    0.000    0.000    0.000    0.000    0.000 
#    0.000    0.000    0.000    0.000    0.000    0.000 
#
# Total GULP energy -198375.794498 kJ/mol
# GULP energy per Si atom -12398.487156 kJ/mol
# Density = 2.137256 g / cm^3
# Si number density = 21.421315 Si / 1000 Ang^3
#
#
#
# Elastic Constant Matrix: (Units=GPa)
#
#
# Indices 1 2 3 4 5 6 
#
# 1 135.0236 46.3988 51.5085 3.9374 0.9697 -5.2644
# 2 46.3988 52.4291 30.0518 -2.1967 -5.2008 -14.8845
# 3 51.5085 30.0518 93.0307 4.8332 -2.2115 5.0761
# 4 3.9374 -2.1967 4.8332 15.3079 -2.1835 6.0636
# 5 0.9697 -5.2008 -2.2115 -2.1835 34.9093 -1.3627
# 6 -5.2644 -14.8845 5.0761 6.0636 -1.3627 35.2708
#
#
#
# Elastic Compliance Matrix: (Units=1/GPa)
#
#
# Indices 1 2 3 4 5 6 
#
# 1 0.011985 -0.009316 -0.003449 -0.003173 -0.002184 -0.001185
# 2 -0.009316 0.036600 -0.007579 0.005174 0.006121 0.014493
# 3 -0.003449 -0.007579 0.015550 -0.003016 -0.000450 -0.005450
# 4 -0.003173 0.005174 -0.003016 0.072539 0.004809 -0.010141
# 5 -0.002184 0.006121 -0.000450 0.004809 0.029994 0.002654
# 6 -0.001185 0.014493 -0.005450 -0.010141 0.002654 0.036922
#
#
# Mechanical properties :
#
#
# Convention : Reuss Voigt Hill
#
# Bulk Modulus (GPa) = 42.64751 59.60018 51.12385
# Shear Modulus (GPa) = 19.83381 27.26587 23.54984
#
# Velocity S-wave (km/s) = 3.04615 3.57156 3.31926
# Velocity P-wave (km/s) = 5.68543 6.70009 6.21351
#
# Compressibility (1/GPa) = 0.02344803
#
# Stress axis : x y z
#
# Youngs Moduli (GPa) = 83.43789 27.32214 64.30670
#
# Poissons Ratio (x) = 0.25452 0.22179
# Poissons Ratio (y) = 0.77727 0.48740
# Poissons Ratio (z) = 0.28777 0.20708
#
# Static dielectric constant tensor:
#      x y z
#    x 4.462240 -0.148230 -0.103090 
#    y -0.148230 3.753320 0.015390 
#    z -0.103090 0.015390 3.744480 
# 
# 
# High freq. dielectric constant tensor:
#      x y z
#    x 1.865200 -0.002640 -0.001440 
#    y -0.002640 1.821630 -0.000130 
#    z -0.001440 -0.000130 1.829520 
# 
# From -- ./inp_files/428222.got.cif
#   From: 2010.06.25/outbox.cif.g09.slc.cpg/sg2_215_cif.got.tgz:428222.got - 2010.06.27 13:26:56.
