data_PCOD8012921
_publ_section_title
;
Structure prediction by ZEFSAII (Michael W. Deem and Ramdas Pophale) SiO2 
 PCOD8012921
Probable space group: P -1
;
_chemical_formula_sum "Si O2"
_cell_formula_units_Z 16
_cell_length_a 27.969423
_cell_length_b 6.325718
_cell_length_c 6.318643
_cell_angle_alpha 73.497202
_cell_angle_beta 138.577279
_cell_angle_gamma 111.344718
_cell_volume 688.791128
_symmetry_space_group_name_H-M "P -1"
_symmetry_group_IT_number 2
_symmetry_cell_setting 'triclinic'
loop_
_space_group_symop_operation_xyz
x,y,z
-x,-y,-z
loop_
_atom_site_type_symbol
_atom_site_label
_atom_site_fract_x
_atom_site_fract_y
_atom_site_fract_z
Si Si1 0.333667 0.987560 0.608455
Si Si2 0.045033 0.921898 0.358664
Si Si3 0.554448 0.217051 0.712594
Si Si4 0.848461 0.145065 0.596035
Si Si5 0.095158 0.213996 0.826484
Si Si6 0.423609 0.314645 0.479320
Si Si7 0.793316 0.414894 0.684555
Si Si8 0.710929 0.787268 0.236672
O O1 0.262021 0.805214 0.328457
O O2 0.393962 0.129078 0.611015
O O3 0.300263 0.176224 0.561615
O O4 0.372356 0.843027 0.936704
O O5 0.099228 0.783679 0.459634
O O6 0.987340 0.766289 0.375686
O O7 0.092316 0.137544 0.591669
O O8 0.000000 0.000000 0.000000
O O9 0.508915 0.309415 0.720486
O O10 0.576840 0.420179 0.552423
O O11 0.500000 0.000000 0.500000
O O12 0.841889 0.353771 0.666287
O O13 0.767852 0.014522 0.274415
O O14 0.879864 0.970953 0.893519
O O15 0.152751 0.456694 0.986698
O O16 0.369625 0.238362 0.123713
O O17 0.743707 0.570050 0.371048
#
# Coordination Sequence:
#
# PCOD8012921 Si02
#       8
#     2   2   2   2   2   2   2   2
#     4  11  23  42  65  94 132 174 222 274 338 397
#     4   9  18  38  62  90 127 171 217 275 331 389
#     4  11  23  43  66  95 131 169 221 278 330 403
#     4   9  20  36  61  89 130 171 216 274 329 392
#     4   9  19  38  62  90 129 169 220 276 327 394
#     4  11  24  41  66  93 128 174 218 275 337 392
#     4  10  21  40  64  91 132 177 218 279 328 395
#     4  10  21  41  60  92 131 167 222 275 322 399
#
# _framework density 23.229102999999999
#
# number of rings (size 3 to 8) (size 9 to 14) (size 15 to 20)
#    0.000    2.000    2.500    0.375    0.000    5.000 
#    0.000   18.125    0.000    0.000    0.000    0.000 
#    0.000    0.000    0.000    0.000    0.000    0.000 
#
# Total GULP energy -198224.112185 kJ/mol
# GULP energy per Si atom -12389.007012 kJ/mol
# Density = 2.317623 g / cm^3
# Si number density = 23.229103 Si / 1000 Ang^3
#
#
#
# Elastic Constant Matrix: (Units=GPa)
#
#
# Indices 1 2 3 4 5 6 
#
# 1 105.7703 35.4183 22.6035 -1.4125 7.7679 -17.3461
# 2 35.4183 116.8568 40.3556 13.7111 -0.6310 -9.4472
# 3 22.6035 40.3556 77.9644 30.5700 6.2689 -0.2172
# 4 -1.4125 13.7111 30.5700 33.8751 3.3712 1.1759
# 5 7.7679 -0.6310 6.2689 3.3712 28.0594 2.9420
# 6 -17.3461 -9.4472 -0.2172 1.1759 2.9420 32.5347
#
#
#
# Elastic Compliance Matrix: (Units=1/GPa)
#
#
# Indices 1 2 3 4 5 6 
#
# 1 0.012545 -0.002547 -0.004128 0.005456 -0.003901 0.006077
# 2 -0.002547 0.011290 -0.005146 -0.000287 0.001963 0.001719
# 3 -0.004128 -0.005146 0.024713 -0.020121 -0.001800 -0.002640
# 4 0.005456 -0.000287 -0.020121 0.048273 -0.002949 0.001213
# 5 -0.003901 0.001963 -0.001800 -0.002949 0.038028 -0.004854
# 6 0.006077 0.001719 -0.002640 0.001213 -0.004854 0.034853
#
#
# Mechanical properties :
#
#
# Convention : Reuss Voigt Hill
#
# Bulk Modulus (GPa) = 40.14821 55.26069 47.70445
# Shear Modulus (GPa) = 24.79599 32.37480 28.58539
#
# Velocity S-wave (km/s) = 3.27074 3.73730 3.51178
# Velocity P-wave (km/s) = 5.62003 6.51646 6.08478
#
# Compressibility (1/GPa) = 0.02490771
#
# Stress axis : x y z
#
# Youngs Moduli (GPa) = 79.71069 88.57603 40.46399
#
# Poissons Ratio (x) = 0.22559 0.16702
# Poissons Ratio (y) = 0.20302 0.20822
# Poissons Ratio (z) = 0.32901 0.45580
#
# Static dielectric constant tensor:
#      x y z
#    x 4.648060 -0.162840 0.449660 
#    y -0.162840 4.307760 0.160960 
#    z 0.449660 0.160960 4.203230 
# 
# 
# High freq. dielectric constant tensor:
#      x y z
#    x 1.915670 -0.008810 0.029780 
#    y -0.008810 1.913600 0.014590 
#    z 0.029780 0.014590 1.910590 
# 
# From -- ./inp_files/125840.got.cif
#   From: 2010.06.25/outbox.cif.g09.slc.cpg/sg2_63_cif.got.tgz:125840.got - 2010.06.27 13:26:56.
