data_PCOD8012056
_publ_section_title
;
Structure prediction by ZEFSAII (Michael W. Deem and Ramdas Pophale) SiO2 
 PCOD8012056
Probable space group: P -1
;
_chemical_formula_sum "Si O2"
_cell_formula_units_Z 14
_cell_length_a 11.496337
_cell_length_b 9.229588
_cell_length_c 8.855860
_cell_angle_alpha 106.660399
_cell_angle_beta 127.362248
_cell_angle_gamma 67.617456
_cell_volume 688.611633
_symmetry_space_group_name_H-M "P -1"
_symmetry_group_IT_number 2
_symmetry_cell_setting 'triclinic'
loop_
_space_group_symop_operation_xyz
x,y,z
-x,-y,-z
loop_
_atom_site_type_symbol
_atom_site_label
_atom_site_fract_x
_atom_site_fract_y
_atom_site_fract_z
Si Si1 0.371306 0.554543 0.789641
Si Si2 0.362143 0.070251 0.751176
Si Si3 0.786809 0.701072 0.531265
Si Si4 0.559536 0.745752 0.875235
Si Si5 0.863809 0.657419 0.924838
Si Si6 0.938745 0.228608 0.374636
Si Si7 0.071680 0.105795 0.736582
O O1 0.301973 0.424116 0.623521
O O2 0.447299 0.634226 0.741516
O O3 0.230474 0.686355 0.788971
O O4 0.500000 0.500000 0.000000
O O5 0.307421 0.129817 0.558121
O O6 0.229262 0.044818 0.748800
O O7 0.490743 0.907468 0.777526
O O8 0.426072 0.203673 0.923419
O O9 0.804957 0.700476 0.723476
O O10 0.953541 0.671036 0.579362
O O11 0.721007 0.644277 0.908498
O O12 0.918316 0.803321 0.074681
O O13 0.000000 0.500000 0.000000
O O14 0.951918 0.225286 0.567618
O O15 0.983740 0.045731 0.303134
#
# Coordination Sequence:
#
# PCOD8012056 Si02
#       7
#     2   2   2   2   2   2   2
#     4  12  23  37  65  98 124 160 211 268 304 358
#     4   9  18  40  65  94 114 158 219 262 299 355
#     4  11  24  39  62  95 132 163 204 256 313 376
#     4  10  21  39  66  86 127 164 205 258 312 363
#     4  11  25  41  60  91 136 171 197 248 326 385
#     4  10  21  39  68  95 117 160 219 261 300 363
#     4   9  19  40  68  90 118 165 212 256 306 366
#
# _framework density 20.330763000000001
#
# number of rings (size 3 to 8) (size 9 to 14) (size 15 to 20)
#    0.000    1.714    2.857    1.286    2.000    1.714 
#    0.000    0.000    3.143    0.000    0.000    0.000 
#    0.000    0.000    0.000    0.000    0.000    0.000 
#
# Total GULP energy -173503.740085 kJ/mol
# GULP energy per Si atom -12393.124292 kJ/mol
# Density = 2.028449 g / cm^3
# Si number density = 20.330763 Si / 1000 Ang^3
#
#
#
# Elastic Constant Matrix: (Units=GPa)
#
#
# Indices 1 2 3 4 5 6 
#
# 1 95.8689 66.1603 52.2241 4.5872 22.0274 5.1135
# 2 66.1603 96.1435 68.0261 1.7001 5.7261 -4.9001
# 3 52.2241 68.0261 150.3537 -1.1062 1.8849 5.9836
# 4 4.5872 1.7001 -1.1062 40.2732 0.6217 16.7767
# 5 22.0274 5.7261 1.8849 0.6217 37.0462 -1.0941
# 6 5.1135 -4.9001 5.9836 16.7767 -1.0941 32.1538
#
#
#
# Elastic Compliance Matrix: (Units=1/GPa)
#
#
# Indices 1 2 3 4 5 6 
#
# 1 0.025804 -0.016730 -0.000926 0.001054 -0.012948 -0.007471
# 2 -0.016730 0.027025 -0.006934 -0.003807 0.006491 0.010277
# 3 -0.000926 -0.006934 0.010275 0.002336 0.000942 -0.004008
# 4 0.001054 -0.003807 0.002336 0.032536 -0.001241 -0.018201
# 5 -0.012948 0.006491 0.000942 -0.001241 0.033800 0.004670
# 6 -0.007471 0.010277 -0.004008 -0.018201 0.004670 0.044256
#
#
# Mechanical properties :
#
#
# Convention : Reuss Voigt Hill
#
# Bulk Modulus (GPa) = 71.82448 79.46524 75.64486
# Shear Modulus (GPa) = 21.97631 32.29168 27.13399
#
# Velocity S-wave (km/s) = 3.29133 3.98969 3.65722
# Velocity P-wave (km/s) = 7.06035 7.77140 7.42439
#
# Compressibility (1/GPa) = 0.01392283
#
# Stress axis : x y z
#
# Youngs Moduli (GPa) = 38.75363 37.00344 97.32399
#
# Poissons Ratio (x) = 0.61906 0.09014
# Poissons Ratio (y) = 0.64834 0.67488
# Poissons Ratio (z) = 0.03589 0.25660
#
# Static dielectric constant tensor:
#      x y z
#    x 3.564440 0.174460 0.354840 
#    y 0.174460 3.692190 -0.114110 
#    z 0.354840 -0.114110 3.906380 
# 
# 
# High freq. dielectric constant tensor:
#      x y z
#    x 1.772130 0.016780 0.032030 
#    y 0.016780 1.796900 -0.013480 
#    z 0.032030 -0.013480 1.798720 
# 
# From -- ./inp_files/176163.got.cif
#   From: 2010.06.25/outbox.cif.g09.slc.cpg/sg2_89_cif.got.tgz:176163.got - 2010.06.27 13:26:56.
