data_PCOD8012833
_publ_section_title
;
Structure prediction by ZEFSAII (Michael W. Deem and Ramdas Pophale) SiO2 
 PCOD8012833
Probable space group: P -1
;
_chemical_formula_sum "Si O2"
_cell_formula_units_Z 16
_cell_length_a 14.103989
_cell_length_b 16.144095
_cell_length_c 7.433952
_cell_angle_alpha 47.012682
_cell_angle_beta 116.432473
_cell_angle_gamma 141.381715
_cell_volume 758.443914
_symmetry_space_group_name_H-M "P -1"
_symmetry_group_IT_number 2
_symmetry_cell_setting 'triclinic'
loop_
_space_group_symop_operation_xyz
x,y,z
-x,-y,-z
loop_
_atom_site_type_symbol
_atom_site_label
_atom_site_fract_x
_atom_site_fract_y
_atom_site_fract_z
Si Si1 0.948817 0.014743 0.118894
Si Si2 0.544355 0.404023 0.536158
Si Si3 0.658748 0.926000 0.943053
Si Si4 0.927167 0.696011 0.996377
Si Si5 0.265753 0.336324 0.397078
Si Si6 0.259262 0.855017 0.999380
Si Si7 0.280355 0.632429 0.501849
Si Si8 0.539441 0.933727 0.493558
O O1 0.874179 0.861948 0.409700
O O2 0.833431 0.025178 0.960600
O O3 0.000000 0.000000 0.000000
O O4 0.080798 0.187642 0.081399
O O5 0.419303 0.394492 0.358580
O O6 0.687045 0.580348 0.489313
O O7 0.607018 0.370930 0.487153
O O8 0.459091 0.264640 0.822816
O O9 0.639237 0.928503 0.710155
O O10 0.644711 0.023080 0.925192
O O11 0.875069 0.551736 0.293285
O O12 0.097512 0.795128 0.920309
O O13 0.800327 0.612026 0.854830
O O14 0.232625 0.699433 0.232028
O O15 0.363528 0.954286 0.764720
O O16 0.375646 0.751532 0.575437
O O17 0.500000 0.000000 0.500000
#
# Coordination Sequence:
#
# PCOD8012833 Si02
#       8
#     2   2   2   2   2   2   2   2
#     4  10  22  39  63  88 130 170 207 269 325 387
#     4  10  21  40  66  94 134 166 210 287 313 376
#     4  10  21  40  63  96 129 168 215 263 326 379
#     4  11  25  41  65  95 131 174 216 267 328 395
#     4  10  22  41  63  94 128 168 222 262 331 381
#     4  11  24  44  63  95 139 168 213 275 321 385
#     4  12  23  42  66  94 133 172 218 267 327 377
#     4  12  23  39  70  95 124 175 221 259 319 394
#
# _framework density 21.095824
#
# number of rings (size 3 to 8) (size 9 to 14) (size 15 to 20)
#    0.000    1.250    2.500    3.375    1.750    1.500 
#    0.000    1.250    0.000    0.000    0.000    0.000 
#    0.000    0.000    0.000    0.000    0.000    0.000 
#
# Total GULP energy -198346.086736 kJ/mol
# GULP energy per Si atom -12396.630421 kJ/mol
# Density = 2.104781 g / cm^3
# Si number density = 21.095824 Si / 1000 Ang^3
#
#
#
# Elastic Constant Matrix: (Units=GPa)
#
#
# Indices 1 2 3 4 5 6 
#
# 1 102.6560 31.7954 21.7975 6.0085 -7.7846 -12.7501
# 2 31.7954 104.7618 35.1206 -7.4995 -5.1114 -6.9819
# 3 21.7975 35.1206 97.2842 -2.0127 -0.4042 4.7854
# 4 6.0085 -7.4995 -2.0127 34.7037 -1.2195 2.3385
# 5 -7.7846 -5.1114 -0.4042 -1.2195 35.0981 3.5434
# 6 -12.7501 -6.9819 4.7854 2.3385 3.5434 31.8418
#
#
#
# Elastic Compliance Matrix: (Units=1/GPa)
#
#
# Indices 1 2 3 4 5 6 
#
# 1 0.011872 -0.002795 -0.001926 -0.003015 0.001648 0.004469
# 2 -0.002795 0.012011 -0.003735 0.002780 0.001005 0.001760
# 3 -0.001926 -0.003735 0.012234 0.000449 -0.000470 -0.003410
# 4 -0.003015 0.002780 0.000449 0.030205 0.001094 -0.003005
# 5 0.001648 0.001005 -0.000470 0.001094 0.029277 -0.002387
# 6 0.004469 0.001760 -0.003410 -0.003005 -0.002387 0.034579
#
#
# Mechanical properties :
#
#
# Convention : Reuss Voigt Hill
#
# Bulk Modulus (GPa) = 52.06914 53.56989 52.81951
# Shear Modulus (GPa) = 32.57470 34.72793 33.65131
#
# Velocity S-wave (km/s) = 3.93381 4.06174 3.99828
# Velocity P-wave (km/s) = 6.73564 6.88808 6.81229
#
# Compressibility (1/GPa) = 0.01920523
#
# Stress axis : x y z
#
# Youngs Moduli (GPa) = 84.22851 83.25604 81.73853
#
# Poissons Ratio (x) = 0.23271 0.15746
# Poissons Ratio (y) = 0.23542 0.30527
# Poissons Ratio (z) = 0.16226 0.31094
#
# Static dielectric constant tensor:
#      x y z
#    x 3.897250 -0.385000 -0.310320 
#    y -0.385000 4.979830 1.320050 
#    z -0.310320 1.320050 5.487180 
# 
# 
# High freq. dielectric constant tensor:
#      x y z
#    x 1.831360 -0.004960 0.011490 
#    y -0.004960 1.834300 -0.005170 
#    z 0.011490 -0.005170 1.818780 
# 
# From -- ./inp_files/97599.got.cif
#   From: 2010.06.25/outbox.cif.g09.slc.cpg/sg2_49_cif.got.tgz:97599.got - 2010.06.27 13:26:56.
