data_PCOD8012189
_publ_section_title
;
Structure prediction by ZEFSAII (Michael W. Deem and Ramdas Pophale) SiO2 
 PCOD8012189
Probable space group: P -1
;
_chemical_formula_sum "Si O2"
_cell_formula_units_Z 14
_cell_length_a 18.218175
_cell_length_b 9.167626
_cell_length_c 21.172686
_cell_angle_alpha 132.588373
_cell_angle_beta 161.009489
_cell_angle_gamma 38.255544
_cell_volume 673.439000
_symmetry_space_group_name_H-M "P -1"
_symmetry_group_IT_number 2
_symmetry_cell_setting 'triclinic'
loop_
_space_group_symop_operation_xyz
x,y,z
-x,-y,-z
loop_
_atom_site_type_symbol
_atom_site_label
_atom_site_fract_x
_atom_site_fract_y
_atom_site_fract_z
Si Si1 0.063792 0.692416 0.535996
Si Si2 0.169146 0.165680 0.169156
Si Si3 0.793673 0.416033 0.687935
Si Si4 0.444317 0.630804 0.256646
Si Si5 0.710195 0.210167 0.447890
Si Si6 0.355372 0.410607 0.813798
Si Si7 0.736453 0.881595 0.912711
O O1 0.335373 0.545455 0.669867
O O2 0.150362 0.623903 0.659347
O O3 0.839575 0.638520 0.318313
O O4 0.911713 0.989111 0.496887
O O5 0.256113 0.339989 0.310282
O O6 0.135221 0.159141 0.064057
O O7 0.413016 0.886318 0.311893
O O8 0.866818 0.282620 0.990271
O O9 0.500000 0.500000 0.500000
O O10 0.893046 0.213814 0.653956
O O11 0.021810 0.308068 0.897217
O O12 0.544247 0.477618 0.357726
O O13 0.494153 0.169832 0.291526
O O14 0.600971 0.161439 0.904582
O O15 0.500000 0.500000 0.000000
#
# Coordination Sequence:
#
# PCOD8012189 Si02
#       7
#     2   2   2   2   2   2   2
#     4  10  22  42  65  92 129 166 211 260 321 377
#     4  11  23  41  66  92 129 175 208 260 321 375
#     4  12  23  38  68  98 125 166 225 259 306 381
#     4  11  23  43  63  91 136 170 204 259 331 377
#     4  11  23  41  67  94 128 169 212 266 312 378
#     4  10  21  39  67  95 122 163 213 267 310 373
#     4  11  21  42  65  92 129 166 215 262 314 368
#
# _framework density 20.788816000000001
#
# number of rings (size 3 to 8) (size 9 to 14) (size 15 to 20)
#    0.000    1.143    4.286    2.571    0.000    1.714 
#    2.571    0.714    0.000    0.000    0.000    0.000 
#    0.000    0.000    0.000    0.000    0.000    0.000 
#
# Total GULP energy -173608.753726 kJ/mol
# GULP energy per Si atom -12400.625266 kJ/mol
# Density = 2.074150 g / cm^3
# Si number density = 20.788816 Si / 1000 Ang^3
#
#
#
# Elastic Constant Matrix: (Units=GPa)
#
#
# Indices 1 2 3 4 5 6 
#
# 1 69.0359 37.3863 25.9396 8.8269 18.9879 -10.3114
# 2 37.3863 154.6346 57.7367 10.6252 4.2117 2.4356
# 3 25.9396 57.7367 79.4668 12.0690 10.5316 -12.7607
# 4 8.8269 10.6252 12.0690 42.3046 -5.4068 -3.8839
# 5 18.9879 4.2117 10.5316 -5.4068 35.9740 -8.4885
# 6 -10.3114 2.4356 -12.7607 -3.8839 -8.4885 32.8438
#
#
#
# Elastic Compliance Matrix: (Units=1/GPa)
#
#
# Indices 1 2 3 4 5 6 
#
# 1 0.020950 -0.004026 -0.001473 -0.003915 -0.009974 0.003263
# 2 -0.004026 0.010027 -0.006934 0.000177 0.002027 -0.004157
# 3 -0.001473 -0.006934 0.020131 -0.003505 -0.003270 0.006613
# 4 -0.003915 0.000177 -0.003505 0.026622 0.007669 0.002526
# 5 -0.009974 0.002027 -0.003270 0.007669 0.036288 0.005733
# 6 0.003263 -0.004157 0.006613 0.002526 0.005733 0.036130
#
#
# Mechanical properties :
#
#
# Convention : Reuss Voigt Hill
#
# Bulk Modulus (GPa) = 38.10789 60.58473 49.34631
# Shear Modulus (GPa) = 27.20910 34.36278 30.78594
#
# Velocity S-wave (km/s) = 3.62171 4.07005 3.85241
# Velocity P-wave (km/s) = 5.98830 7.16194 6.60125
#
# Compressibility (1/GPa) = 0.02624129
#
# Stress axis : x y z
#
# Youngs Moduli (GPa) = 47.73246 99.72685 49.67568
#
# Poissons Ratio (x) = 0.40148 0.07318
# Poissons Ratio (y) = 0.19216 0.34447
# Poissons Ratio (z) = 0.07032 0.69154
#
# Static dielectric constant tensor:
#      x y z
#    x 3.639170 0.082560 0.054390 
#    y 0.082560 4.178030 0.000480 
#    z 0.054390 0.000480 3.637700 
# 
# 
# High freq. dielectric constant tensor:
#      x y z
#    x 1.801670 0.004990 0.011330 
#    y 0.004990 1.838310 -0.008900 
#    z 0.011330 -0.008900 1.802400 
# 
# From -- ./inp_files/71089.got.cif
#   From: 2010.06.25/outbox.cif.g09.slc.cpg/sg2_36_cif.got.tgz:71089.got - 2010.06.27 13:26:56.
