data_PCOD8012514
_publ_section_title
;
Structure prediction by ZEFSAII (Michael W. Deem and Ramdas Pophale) SiO2 
 PCOD8012514
Probable space group: P -1
;
_chemical_formula_sum "Si O2"
_cell_formula_units_Z 14
_cell_length_a 13.340802
_cell_length_b 14.714557
_cell_length_c 13.820430
_cell_angle_alpha 137.473003
_cell_angle_beta 158.101372
_cell_angle_gamma 52.557048
_cell_volume 652.293536
_symmetry_space_group_name_H-M "P -1"
_symmetry_group_IT_number 2
_symmetry_cell_setting 'triclinic'
loop_
_space_group_symop_operation_xyz
x,y,z
-x,-y,-z
loop_
_atom_site_type_symbol
_atom_site_label
_atom_site_fract_x
_atom_site_fract_y
_atom_site_fract_z
Si Si1 0.474211 0.988367 0.124167
Si Si2 0.241824 0.115221 0.859986
Si Si3 0.908769 0.284069 0.751762
Si Si4 0.911100 0.483294 0.750302
Si Si5 0.334304 0.353239 0.687954
Si Si6 0.327675 0.745726 0.943603
Si Si7 0.501716 0.477852 0.209242
O O1 0.743906 0.120492 0.495773
O O2 0.495610 0.878112 0.970404
O O3 0.256133 0.061389 0.940756
O O4 0.373233 0.901421 0.063145
O O5 0.198608 0.270217 0.951516
O O6 0.000000 0.000000 0.500000
O O7 0.769108 0.361619 0.607304
O O8 0.957533 0.368562 0.961124
O O9 0.668456 0.501771 0.478156
O O10 0.165480 0.446039 0.893981
O O11 0.383477 0.376162 0.634929
O O12 0.003197 0.317998 0.383526
O O13 0.500000 0.500000 0.000000
O O14 0.481336 0.241282 0.777197
O O15 0.438519 0.652506 0.893940
#
# Coordination Sequence:
#
# PCOD8012514 Si02
#       7
#     2   2   2   2   2   2   2
#     4  10  22  36  60  89 122 157 192 248 298 356
#     4   9  20  36  56  84 126 153 194 245 286 352
#     4  10  24  39  56  86 126 156 207 234 287 358
#     4  11  25  38  63  85 119 172 194 241 289 353
#     4  10  21  40  60  92 122 148 195 256 299 356
#     4  11  22  36  67  92 120 153 191 248 318 346
#     4  11  22  40  62  89 119 153 203 245 300 351
#
# _framework density 21.462731000000002
#
# number of rings (size 3 to 8) (size 9 to 14) (size 15 to 20)
#    0.000    1.714    0.000    5.143   14.000    1.143 
#    0.000    0.000    0.000    5.143    0.000    0.000 
#    0.000    0.000    0.000    0.000    0.000    0.000 
#
# Total GULP energy -173437.608607 kJ/mol
# GULP energy per Si atom -12388.400615 kJ/mol
# Density = 2.141388 g / cm^3
# Si number density = 21.462731 Si / 1000 Ang^3
#
#
#
# Elastic Constant Matrix: (Units=GPa)
#
#
# Indices 1 2 3 4 5 6 
#
# 1 56.1606 29.4193 22.1418 5.1245 0.0545 20.7404
# 2 29.4193 100.3857 29.8220 -6.8888 -5.9303 30.8139
# 3 22.1418 29.8220 58.7155 -14.6558 7.2362 7.4309
# 4 5.1245 -6.8888 -14.6558 39.2188 7.6848 -0.2218
# 5 0.0545 -5.9303 7.2362 7.6848 30.9865 -9.5459
# 6 20.7404 30.8139 7.4309 -0.2218 -9.5459 44.6510
#
#
#
# Elastic Compliance Matrix: (Units=1/GPa)
#
#
# Indices 1 2 3 4 5 6 
#
# 1 0.027132 -0.002813 -0.009771 -0.007922 0.000926 -0.008877
# 2 -0.002813 0.014967 -0.005642 0.000515 0.001681 -0.007721
# 3 -0.009771 -0.005642 0.027783 0.012670 -0.010170 0.001697
# 4 -0.007922 0.000515 0.012670 0.033608 -0.011514 -0.001079
# 5 0.000926 0.001681 -0.010170 -0.011514 0.040504 0.008705
# 6 -0.008877 -0.007721 0.001697 -0.001079 0.008705 0.033421
#
#
# Mechanical properties :
#
#
# Convention : Reuss Voigt Hill
#
# Bulk Modulus (GPa) = 29.91384 42.00312 35.95848
# Shear Modulus (GPa) = 22.22109 31.89650 27.05880
#
# Velocity S-wave (km/s) = 3.22115 3.85922 3.55453
# Velocity P-wave (km/s) = 5.27278 6.28259 5.79970
#
# Compressibility (1/GPa) = 0.03342934
#
# Stress axis : x y z
#
# Youngs Moduli (GPa) = 36.85654 66.81445 35.99322
#
# Poissons Ratio (x) = 0.18794 0.35169
# Poissons Ratio (y) = 0.10367 0.20309
# Poissons Ratio (z) = 0.36013 0.37700
#
# Static dielectric constant tensor:
#      x y z
#    x 4.420290 0.235970 0.141460 
#    y 0.235970 4.584430 -0.324210 
#    z 0.141460 -0.324210 3.988610 
# 
# 
# High freq. dielectric constant tensor:
#      x y z
#    x 1.818570 0.020410 0.007890 
#    y 0.020410 1.851310 -0.024870 
#    z 0.007890 -0.024870 1.835440 
# 
# From -- ./inp_files/533876.got.cif
#   From: 2010.06.25/outbox.cif.g09.slc.cpg/sg2_267_cif.got.tgz:533876.got - 2010.06.27 13:26:56.
