data_PCOD8012035
_publ_section_title
;
Structure prediction by ZEFSAII (Michael W. Deem and Ramdas Pophale) SiO2 
 PCOD8012035
Probable space group: P -1
;
_chemical_formula_sum "Si O2"
_cell_formula_units_Z 14
_cell_length_a 14.803964
_cell_length_b 6.493336
_cell_length_c 11.847380
_cell_angle_alpha 122.550055
_cell_angle_beta 49.978747
_cell_angle_gamma 89.348141
_cell_volume 612.205697
_symmetry_space_group_name_H-M "P -1"
_symmetry_group_IT_number 2
_symmetry_cell_setting 'triclinic'
loop_
_space_group_symop_operation_xyz
x,y,z
-x,-y,-z
loop_
_atom_site_type_symbol
_atom_site_label
_atom_site_fract_x
_atom_site_fract_y
_atom_site_fract_z
Si Si1 0.938750 0.554510 0.718220
Si Si2 0.632153 0.068865 0.067247
Si Si3 0.125190 0.705570 0.492731
Si Si4 0.965063 0.351736 0.884669
Si Si5 0.479981 0.948121 0.331536
Si Si6 0.560670 0.519690 0.839997
Si Si7 0.329797 0.455168 0.752697
O O1 0.952194 0.278906 0.559309
O O2 0.923523 0.545547 0.861831
O O3 0.074429 0.570478 0.588875
O O4 0.799561 0.834659 0.856202
O O5 0.550416 0.936876 0.151900
O O6 0.563544 0.183333 0.032871
O O7 0.606241 0.346375 0.241907
O O8 0.295156 0.487910 0.273299
O O9 0.090251 0.021227 0.653485
O O10 0.836911 0.334483 0.028238
O O11 0.000000 0.500000 0.000000
O O12 0.363548 0.286815 0.556704
O O13 0.403819 0.773166 0.340210
O O14 0.606401 0.794277 0.275485
O O15 0.500000 0.500000 0.000000
#
# Coordination Sequence:
#
# PCOD8012035 Si02
#       7
#     2   2   2   2   2   2   2
#     4  11  25  46  73 100 135 186 231 280 342 413
#     4  11  22  43  71  98 133 178 227 278 338 407
#     4  11  26  46  69 102 138 181 231 280 345 410
#     4  12  25  44  70 100 143 180 227 284 344 407
#     4  10  21  40  65  96 136 173 223 272 338 393
#     4  11  26  42  68 101 135 172 227 288 335 402
#     4  10  21  39  65  99 130 178 220 273 333 405
#
# _framework density 22.868131999999999
#
# number of rings (size 3 to 8) (size 9 to 14) (size 15 to 20)
#    0.000    1.143    2.857    2.571    2.000    7.429 
#    2.571    0.000    0.000    0.000    0.000    0.000 
#    0.000    0.000    0.000    0.000    0.000    0.000 
#
# Total GULP energy -173578.939432 kJ/mol
# GULP energy per Si atom -12398.495674 kJ/mol
# Density = 2.281608 g / cm^3
# Si number density = 22.868132 Si / 1000 Ang^3
#
#
#
# Elastic Constant Matrix: (Units=GPa)
#
#
# Indices 1 2 3 4 5 6 
#
# 1 111.7636 46.0667 36.0903 -7.5246 2.3599 5.5609
# 2 46.0667 94.3050 28.8470 -10.1866 -9.6091 4.3323
# 3 36.0903 28.8470 99.8084 -8.3554 -10.1112 -3.6216
# 4 -7.5246 -10.1866 -8.3554 39.3647 10.8886 -1.0034
# 5 2.3599 -9.6091 -10.1112 10.8886 45.3127 -2.6294
# 6 5.5609 4.3323 -3.6216 -1.0034 -2.6294 35.5236
#
#
#
# Elastic Compliance Matrix: (Units=1/GPa)
#
#
# Indices 1 2 3 4 5 6 
#
# 1 0.012324 -0.005117 -0.003238 0.001076 -0.002813 -0.001813
# 2 -0.005117 0.014140 -0.001892 0.001590 0.002409 -0.000893
# 3 -0.003238 -0.001892 0.012130 0.000859 0.002394 0.002176
# 4 0.001076 0.001590 0.000859 0.027929 -0.006235 0.000053
# 5 -0.002813 0.002409 0.002394 -0.006235 0.024878 0.002056
# 6 -0.001813 -0.000893 0.002176 0.000053 0.002056 0.028919
#
#
# Mechanical properties :
#
#
# Convention : Reuss Voigt Hill
#
# Bulk Modulus (GPa) = 55.24520 58.65388 56.94954
# Shear Modulus (GPa) = 34.04871 37.03176 35.54023
#
# Velocity S-wave (km/s) = 3.86283 4.02849 3.94653
# Velocity P-wave (km/s) = 6.64123 6.88061 6.76198
#
# Compressibility (1/GPa) = 0.01810112
#
# Stress axis : x y z
#
# Youngs Moduli (GPa) = 81.14077 70.71942 82.43791
#
# Poissons Ratio (x) = 0.36186 0.26695
# Poissons Ratio (y) = 0.41518 0.15597
# Poissons Ratio (z) = 0.26275 0.13380
#
# Static dielectric constant tensor:
#      x y z
#    x 4.157860 0.250260 0.154860 
#    y 0.250260 3.991030 0.065210 
#    z 0.154860 0.065210 4.156600 
# 
# 
# High freq. dielectric constant tensor:
#      x y z
#    x 1.897990 0.020420 0.011480 
#    y 0.020420 1.898290 0.003170 
#    z 0.011480 0.003170 1.910410 
# 
# From -- ./inp_files/68313.got.cif
#   From: 2010.06.25/outbox.cif.g09.slc.cpg/sg2_35_cif.got.tgz:68313.got - 2010.06.27 13:26:56.
