data_PCOD8012005
_publ_section_title
;
Structure prediction by ZEFSAII (Michael W. Deem and Ramdas Pophale) SiO2 
 PCOD8012005
Probable space group: P -1
;
_chemical_formula_sum "Si O2"
_cell_formula_units_Z 16
_cell_length_a 9.171123
_cell_length_b 19.415192
_cell_length_c 23.260698
_cell_angle_alpha 162.194777
_cell_angle_beta 143.993230
_cell_angle_gamma 36.155825
_cell_volume 728.410738
_symmetry_space_group_name_H-M "P -1"
_symmetry_group_IT_number 2
_symmetry_cell_setting 'triclinic'
loop_
_space_group_symop_operation_xyz
x,y,z
-x,-y,-z
loop_
_atom_site_type_symbol
_atom_site_label
_atom_site_fract_x
_atom_site_fract_y
_atom_site_fract_z
Si Si1 0.660299 0.028072 0.208811
Si Si2 0.530123 0.412950 0.016397
Si Si3 0.070473 0.032348 0.244045
Si Si4 0.365722 0.859077 0.888709
Si Si5 0.263866 0.403570 0.036733
Si Si6 0.648383 0.336718 0.553809
Si Si7 0.219813 0.266169 0.709062
Si Si8 0.449064 0.801803 0.469204
O O1 0.588877 0.256683 0.406926
O O2 0.407890 0.967981 0.051143
O O3 0.775702 0.827405 0.129987
O O4 0.872264 0.048675 0.245740
O O5 0.491455 0.366034 0.033203
O O6 0.597363 0.664051 0.227127
O O7 0.269116 0.403576 0.891786
O O8 0.756094 0.220973 0.908688
O O9 0.253612 0.210207 0.457941
O O10 0.927650 0.101706 0.192729
O O11 0.480778 0.588973 0.709644
O O12 0.500000 0.000000 0.000000
O O13 0.349406 0.569862 0.243021
O O14 0.000000 0.500000 0.000000
O O15 0.589088 0.158643 0.442451
O O16 0.940240 0.350286 0.663011
O O17 0.280180 0.996301 0.529595
#
# Coordination Sequence:
#
# PCOD8012005 Si02
#       8
#     2   2   2   2   2   2   2   2
#     4  11  24  44  69 100 132 183 224 270 339 403
#     4  10  23  40  66  94 139 175 222 275 340 389
#     4  10  24  46  66  96 135 174 230 279 330 394
#     4  10  23  45  70  96 135 176 226 281 329 396
#     4  12  25  41  66 102 139 179 223 269 338 405
#     4  12  23  43  69  98 135 175 227 273 340 390
#     4  10  21  39  65  95 132 179 214 276 330 399
#     4  11  24  41  64  98 139 172 226 278 331 395
#
# _framework density 21.965629
#
# number of rings (size 3 to 8) (size 9 to 14) (size 15 to 20)
#    0.000    1.250    1.250    4.875    7.000    3.000 
#    2.250    1.250    0.000    0.000    0.000    0.000 
#    0.000    0.000    0.000    0.000    0.000    0.000 
#
# Total GULP energy -198323.301789 kJ/mol
# GULP energy per Si atom -12395.206362 kJ/mol
# Density = 2.191563 g / cm^3
# Si number density = 21.965629 Si / 1000 Ang^3
#
#
#
# Elastic Constant Matrix: (Units=GPa)
#
#
# Indices 1 2 3 4 5 6 
#
# 1 94.7428 18.3418 34.1341 -11.5271 -2.0499 13.7863
# 2 18.3418 112.7202 38.8952 -20.0343 -0.8587 6.2977
# 3 34.1341 38.8952 102.7836 -11.1409 -3.1516 2.8723
# 4 -11.5271 -20.0343 -11.1409 31.4391 6.3994 2.5701
# 5 -2.0499 -0.8587 -3.1516 6.3994 35.8049 -3.7602
# 6 13.7863 6.2977 2.8723 2.5701 -3.7602 24.9105
#
#
#
# Elastic Compliance Matrix: (Units=1/GPa)
#
#
# Indices 1 2 3 4 5 6 
#
# 1 0.013600 0.000435 -0.003985 0.004744 -0.001234 -0.007853
# 2 0.000435 0.011476 -0.003699 0.006792 -0.001624 -0.003661
# 3 -0.003985 -0.003699 0.012458 0.000260 0.000924 0.001817
# 4 0.004744 0.006792 0.000260 0.040343 -0.007773 -0.009708
# 5 -0.001234 -0.001624 0.000924 -0.007773 0.029953 0.006310
# 6 -0.007853 -0.003661 0.001817 -0.009708 0.006310 0.047160
#
#
# Mechanical properties :
#
#
# Convention : Reuss Voigt Hill
#
# Bulk Modulus (GPa) = 43.40995 54.77654 49.09325
# Shear Modulus (GPa) = 28.22209 33.02258 30.62234
#
# Velocity S-wave (km/s) = 3.58834 3.88154 3.73782
# Velocity P-wave (km/s) = 6.08061 6.71417 6.40523
#
# Compressibility (1/GPa) = 0.02303619
#
# Stress axis : x y z
#
# Youngs Moduli (GPa) = 73.53119 87.13591 80.26998
#
# Poissons Ratio (x) = -0.03788 0.31988
# Poissons Ratio (y) = -0.03196 0.29688
# Poissons Ratio (z) = 0.29303 0.32227
#
# Static dielectric constant tensor:
#      x y z
#    x 4.145580 0.482520 0.090390 
#    y 0.482520 4.709560 -0.352780 
#    z 0.090390 -0.352780 4.061110 
# 
# 
# High freq. dielectric constant tensor:
#      x y z
#    x 1.855960 0.018420 0.017530 
#    y 0.018420 1.865850 -0.011550 
#    z 0.017530 -0.011550 1.865870 
# 
# From -- ./inp_files/346217.got.cif
#   From: 2010.06.25/outbox.cif.g09.slc.cpg/sg2_174_cif.got.tgz:346217.got - 2010.06.27 13:26:56.
