data_PCOD8012405
_publ_section_title
;
Structure prediction by ZEFSAII (Michael W. Deem and Ramdas Pophale) SiO2 
 PCOD8012405
Probable space group: P -1
;
_chemical_formula_sum "Si O2"
_cell_formula_units_Z 10
_cell_length_a 16.090168
_cell_length_b 15.111960
_cell_length_c 9.972580
_cell_angle_alpha 43.345168
_cell_angle_beta 146.201971
_cell_angle_gamma 161.139922
_cell_volume 411.764799
_symmetry_space_group_name_H-M "P -1"
_symmetry_group_IT_number 2
_symmetry_cell_setting 'triclinic'
loop_
_space_group_symop_operation_xyz
x,y,z
-x,-y,-z
loop_
_atom_site_type_symbol
_atom_site_label
_atom_site_fract_x
_atom_site_fract_y
_atom_site_fract_z
Si Si1 0.860957 0.046962 0.445648
Si Si2 0.242937 0.184498 0.996991
Si Si3 0.886820 0.269285 0.732915
Si Si4 0.106384 0.441251 0.551331
Si Si5 0.759615 0.589171 0.716215
O O1 0.921804 0.212044 0.446086
O O2 0.015826 0.201046 0.340631
O O3 0.461640 0.711692 0.272249
O O4 0.030159 0.043837 0.730601
O O5 0.480302 0.240385 0.257726
O O6 0.500000 0.500000 0.000000
O O7 0.000000 0.000000 0.000000
O O8 0.044629 0.531717 0.692749
O O9 0.030104 0.325073 0.724258
O O10 0.500000 0.000000 0.500000
O O11 0.983864 0.238403 0.007770
O O12 0.500000 0.500000 0.500000
#
# Coordination Sequence:
#
# PCOD8012405 Si02
#       5
#     2   2   2   2   2
#     4  11  25  45  76 107 140 189 245 304 356 429
#     4  10  21  39  72 106 139 180 239 298 349 421
#     4  11  28  46  74 103 154 199 236 303 367 439
#     4  10  25  46  72 108 144 195 252 291 363 442
#     4  12  28  48  73 107 149 188 240 308 370 423
#
# _framework density 24.285710000000002
#
# number of rings (size 3 to 8) (size 9 to 14) (size 15 to 20)
#    0.000    1.200    0.000    4.200   16.800    1.600 
#    0.000    0.000    0.000    0.000    0.000    0.000 
#    0.000    0.000    0.000    0.000    0.000    0.000 
#
# Total GULP energy -123989.812598 kJ/mol
# GULP energy per Si atom -12398.981260 kJ/mol
# Density = 2.423043 g / cm^3
# Si number density = 24.285710 Si / 1000 Ang^3
#
#
#
# Elastic Constant Matrix: (Units=GPa)
#
#
# Indices 1 2 3 4 5 6 
#
# 1 117.1422 27.8617 50.7724 -20.3513 -5.1010 27.3024
# 2 27.8617 110.5203 39.4596 -2.1779 -13.1493 41.0637
# 3 50.7724 39.4596 157.5969 -12.7165 -16.5320 18.5998
# 4 -20.3513 -2.1779 -12.7165 45.6327 5.5485 -4.3575
# 5 -5.1010 -13.1493 -16.5320 5.5485 43.1165 -9.5300
# 6 27.3024 41.0637 18.5998 -4.3575 -9.5300 52.5778
#
#
#
# Elastic Compliance Matrix: (Units=1/GPa)
#
#
# Indices 1 2 3 4 5 6 
#
# 1 0.011614 -0.000195 -0.002950 0.004064 -0.001389 -0.004750
# 2 -0.000195 0.013561 -0.002154 -0.001115 0.001312 -0.009582
# 3 -0.002950 -0.002154 0.008016 0.000630 0.002169 0.000824
# 4 0.004064 -0.001115 0.000630 0.024184 -0.002719 0.000049
# 5 -0.001389 0.001312 0.002169 -0.002719 0.025339 0.003297
# 6 -0.004750 -0.009582 0.000824 0.000049 0.003297 0.029280
#
#
# Mechanical properties :
#
#
# Convention : Reuss Voigt Hill
#
# Bulk Modulus (GPa) = 44.26101 69.04965 56.65533
# Shear Modulus (GPa) = 38.42497 46.07644 42.25070
#
# Velocity S-wave (km/s) = 3.98201 4.36049 4.17554
# Velocity P-wave (km/s) = 6.27746 7.33796 6.82833
#
# Compressibility (1/GPa) = 0.02259325
#
# Stress axis : x y z
#
# Youngs Moduli (GPa) = 86.10081 73.74213 124.74747
#
# Poissons Ratio (x) = 0.01437 0.36803
# Poissons Ratio (y) = 0.01678 0.26870
# Poissons Ratio (z) = 0.25401 0.15884
#
# Static dielectric constant tensor:
#      x y z
#    x 4.701460 -0.297310 0.538300 
#    y -0.297310 4.863420 -0.125620 
#    z 0.538300 -0.125620 5.376720 
# 
# 
# High freq. dielectric constant tensor:
#      x y z
#    x 1.970430 -0.008240 -0.000100 
#    y -0.008240 1.989830 -0.001990 
#    z -0.000100 -0.001990 1.963750 
# 
# From -- ./inp_files/16445.got.cif
#   From: 2010.06.25/outbox.cif.g09.slc.cpg/sg2_9_cif.got.tgz:16445.got - 2010.06.27 13:26:56.
