data_PCOD8012700
_publ_section_title
;
Structure prediction by ZEFSAII (Michael W. Deem and Ramdas Pophale) SiO2 
 PCOD8012700
Probable space group: P -1
;
_chemical_formula_sum "Si O2"
_cell_formula_units_Z 16
_cell_length_a 8.977940
_cell_length_b 9.008359
_cell_length_c 23.264796
_cell_angle_alpha 53.676862
_cell_angle_beta 29.455462
_cell_angle_gamma 50.849103
_cell_volume 713.037140
_symmetry_space_group_name_H-M "P -1"
_symmetry_group_IT_number 2
_symmetry_cell_setting 'triclinic'
loop_
_space_group_symop_operation_xyz
x,y,z
-x,-y,-z
loop_
_atom_site_type_symbol
_atom_site_label
_atom_site_fract_x
_atom_site_fract_y
_atom_site_fract_z
Si Si1 0.958660 0.894306 0.918224
Si Si2 0.628146 0.226569 0.869536
Si Si3 0.726375 0.486718 0.871600
Si Si4 0.843399 0.804844 0.683436
Si Si5 0.740605 0.849827 0.183822
Si Si6 0.729509 0.957615 0.486008
Si Si7 0.682636 0.305113 0.710842
Si Si8 0.420928 0.284507 0.312722
O O1 0.277463 0.744026 0.823453
O O2 0.828696 0.034798 0.876331
O O3 0.708139 0.780939 0.041088
O O4 0.015244 0.016262 0.928050
O O5 0.562722 0.408990 0.891694
O O6 0.812463 0.251016 0.744169
O O7 0.756441 0.694566 0.793995
O O8 0.079582 0.342608 0.796484
O O9 0.500000 0.500000 0.000000
O O10 0.871706 0.683597 0.642149
O O11 0.573520 0.008025 0.713883
O O12 0.172185 0.849962 0.575829
O O13 0.623957 0.773437 0.181624
O O14 0.557454 0.897351 0.612134
O O15 0.041965 0.784123 0.406367
O O16 0.500000 0.000000 0.500000
O O17 0.597415 0.535133 0.681213
#
# Coordination Sequence:
#
# PCOD8012700 Si02
#       8
#     2   2   2   2   2   2   2   2
#     4   9  21  39  65  88 132 171 214 264 324 384
#     4  10  21  40  62  96 127 174 216 266 322 394
#     4  11  24  40  66  98 132 172 223 269 328 389
#     4  10  23  46  66  90 133 175 215 269 330 393
#     4   9  23  40  60  93 132 169 212 265 319 388
#     4  11  25  42  68  96 126 170 219 273 332 381
#     4  11  23  40  65  92 135 163 221 267 328 385
#     4  11  22  42  66  93 131 172 218 266 326 388
#
# _framework density 22.439223999999999
#
# number of rings (size 3 to 8) (size 9 to 14) (size 15 to 20)
#    0.000    1.750    1.250    1.500    3.500    9.500 
#    0.000    0.625    0.000    0.000    0.000    0.000 
#    0.000    0.000    0.000    0.000    0.000    0.000 
#
# Total GULP energy -198220.492657 kJ/mol
# GULP energy per Si atom -12388.780791 kJ/mol
# Density = 2.238815 g / cm^3
# Si number density = 22.439224 Si / 1000 Ang^3
#
#
#
# Elastic Constant Matrix: (Units=GPa)
#
#
# Indices 1 2 3 4 5 6 
#
# 1 128.9265 29.5540 22.6824 -6.8137 -18.0026 19.5944
# 2 29.5540 87.9629 22.3716 -7.8226 -13.1015 10.8717
# 3 22.6824 22.3716 38.9076 -10.2755 -3.0403 4.0792
# 4 -6.8137 -7.8226 -10.2755 26.1560 1.1288 -3.9490
# 5 -18.0026 -13.1015 -3.0403 1.1288 44.6175 -8.0850
# 6 19.5944 10.8717 4.0792 -3.9490 -8.0850 41.6959
#
#
#
# Elastic Compliance Matrix: (Units=1/GPa)
#
#
# Indices 1 2 3 4 5 6 
#
# 1 0.009693 -0.001367 -0.004371 -0.000210 0.002622 -0.003282
# 2 -0.001367 0.014269 -0.006772 0.000859 0.002832 -0.001785
# 3 -0.004371 -0.006772 0.034741 0.010721 -0.001447 0.001156
# 4 -0.000210 0.000859 0.010721 0.043080 0.000347 0.002973
# 5 0.002622 0.002832 -0.001447 0.000347 0.024739 0.003001
# 6 -0.003282 -0.001785 0.001156 0.002973 0.003001 0.026741
#
#
# Mechanical properties :
#
#
# Convention : Reuss Voigt Hill
#
# Bulk Modulus (GPa) = 29.68921 45.00142 37.34532
# Shear Modulus (GPa) = 26.38371 34.57316 30.47843
#
# Velocity S-wave (km/s) = 3.43269 3.92949 3.68946
# Velocity P-wave (km/s) = 5.38246 6.37858 5.90157
#
# Compressibility (1/GPa) = 0.03368227
#
# Stress axis : x y z
#
# Youngs Moduli (GPa) = 103.17096 70.08227 28.78429
#
# Poissons Ratio (x) = 0.09583 0.12581
# Poissons Ratio (y) = 0.14108 0.19493
# Poissons Ratio (z) = 0.45094 0.47460
#
# Static dielectric constant tensor:
#      x y z
#    x 4.334770 0.220170 -0.379280 
#    y 0.220170 3.981070 -0.163230 
#    z -0.379280 -0.163230 3.856440 
# 
# 
# High freq. dielectric constant tensor:
#      x y z
#    x 1.901930 0.011490 -0.013050 
#    y 0.011490 1.876740 -0.014700 
#    z -0.013050 -0.014700 1.858840 
# 
# From -- ./inp_files/214711.got.cif
#   From: 2010.06.25/outbox.cif.g09.slc.cpg/sg2_108_cif.got.tgz:214711.got - 2010.06.27 13:26:56.
