data_PCOD8012811
_publ_section_title
;
Structure prediction by ZEFSAII (Michael W. Deem and Ramdas Pophale) SiO2 
 PCOD8012811
Probable space group: P -1
;
_chemical_formula_sum "Si O2"
_cell_formula_units_Z 14
_cell_length_a 23.482841
_cell_length_b 7.385667
_cell_length_c 12.446575
_cell_angle_alpha 65.964508
_cell_angle_beta 21.151682
_cell_angle_gamma 57.784641
_cell_volume 629.808841
_symmetry_space_group_name_H-M "P -1"
_symmetry_group_IT_number 2
_symmetry_cell_setting 'triclinic'
loop_
_space_group_symop_operation_xyz
x,y,z
-x,-y,-z
loop_
_atom_site_type_symbol
_atom_site_label
_atom_site_fract_x
_atom_site_fract_y
_atom_site_fract_z
Si Si1 0.713452 0.739136 0.651628
Si Si2 0.709819 0.921100 0.161624
Si Si3 0.996758 0.658881 0.872525
Si Si4 0.328905 0.710052 0.709635
Si Si5 0.502040 0.859238 0.198210
Si Si6 0.149873 0.246673 0.273331
Si Si7 0.952447 0.909564 0.310505
O O1 0.842205 0.485220 0.456579
O O2 0.818385 0.874577 0.475493
O O3 0.597027 0.875752 0.720455
O O4 0.584315 0.726799 0.974343
O O5 0.500000 0.000000 0.500000
O O6 0.727723 0.130317 0.125279
O O7 0.832489 0.831355 0.861779
O O8 0.807296 0.733540 0.127714
O O9 0.027945 0.867912 0.806689
O O10 0.000000 0.500000 0.000000
O O11 0.500000 0.500000 0.500000
O O12 0.360252 0.800091 0.518976
O O13 0.149284 0.687811 0.008089
O O14 0.654958 0.785980 0.035438
O O15 0.114672 0.077509 0.451981
O O16 0.000000 0.500000 0.500000
#
# Coordination Sequence:
#
# PCOD8012811 Si02
#       7
#     2   2   2   2   2   2   2
#     4  10  22  43  67  87 131 176 215 270 340 380
#     4  11  23  40  66  97 128 172 222 268 337 390
#     4  11  25  42  67  96 134 176 221 274 334 398
#     4  11  23  37  60  96 132 161 217 275 326 393
#     4  10  21  40  63  94 127 170 218 268 324 400
#     4  11  22  42  72  95 136 176 218 278 338 391
#     4  10  24  42  64  99 126 173 229 266 325 409
#
# _framework density 22.228967000000001
#
# number of rings (size 3 to 8) (size 9 to 14) (size 15 to 20)
#    0.000    1.429    1.429    4.286    2.000    5.714 
#    0.000    6.429    0.000    0.000    0.000    0.000 
#    0.000    0.000    0.000    0.000    0.000    0.000 
#
# Total GULP energy -173433.791721 kJ/mol
# GULP energy per Si atom -12388.127980 kJ/mol
# Density = 2.217837 g / cm^3
# Si number density = 22.228967 Si / 1000 Ang^3
#
#
#
# Elastic Constant Matrix: (Units=GPa)
#
#
# Indices 1 2 3 4 5 6 
#
# 1 87.1303 30.8541 32.4563 10.9785 8.9911 -14.4628
# 2 30.8541 74.2577 19.0129 16.4355 10.0663 -7.1819
# 3 32.4563 19.0129 111.5845 17.0417 6.6724 1.4816
# 4 10.9785 16.4355 17.0417 50.2682 -8.7314 -1.3558
# 5 8.9911 10.0663 6.6724 -8.7314 42.5420 3.8032
# 6 -14.4628 -7.1819 1.4816 -1.3558 3.8032 31.4279
#
#
#
# Elastic Compliance Matrix: (Units=1/GPa)
#
#
# Indices 1 2 3 4 5 6 
#
# 1 0.015931 -0.004453 -0.003652 -0.001048 -0.002559 0.006750
# 2 -0.004453 0.017446 -0.000652 -0.005206 -0.004356 0.002271
# 3 -0.003652 -0.000652 0.010671 -0.002865 -0.001128 -0.002320
# 4 -0.001048 -0.005206 -0.002865 0.023965 0.006941 -0.001343
# 5 -0.002559 -0.004356 -0.001128 0.006941 0.027136 -0.005104
# 6 0.006750 0.002271 -0.002320 -0.001343 -0.005104 0.036113
#
#
# Mechanical properties :
#
#
# Convention : Reuss Voigt Hill
#
# Bulk Modulus (GPa) = 37.68579 48.62434 43.15506
# Shear Modulus (GPa) = 31.72196 37.55757 34.63976
#
# Velocity S-wave (km/s) = 3.78174 4.11491 3.95183
# Velocity P-wave (km/s) = 6.00491 6.67071 6.34655
#
# Compressibility (1/GPa) = 0.02653520
#
# Stress axis : x y z
#
# Youngs Moduli (GPa) = 62.77229 57.31955 93.71230
#
# Poissons Ratio (x) = 0.25522 0.34220
# Poissons Ratio (y) = 0.27949 0.06111
# Poissons Ratio (z) = 0.22922 0.03738
#
# Static dielectric constant tensor:
#      x y z
#    x 4.126050 -0.289930 -0.040660 
#    y -0.289930 4.003380 0.208540 
#    z -0.040660 0.208540 4.394130 
# 
# 
# High freq. dielectric constant tensor:
#      x y z
#    x 1.869550 -0.028010 0.003000 
#    y -0.028010 1.856760 0.018360 
#    z 0.003000 0.018360 1.904070 
# 
# From -- ./inp_files/220480.got.cif
#   From: 2010.06.25/outbox.cif.g09.slc.cpg/sg2_111_cif.got.tgz:220480.got - 2010.06.27 13:26:56.
