data_PCOD8012211
_publ_section_title
;
Structure prediction by ZEFSAII (Michael W. Deem and Ramdas Pophale) SiO2 
 PCOD8012211
Probable space group: P -1
;
_chemical_formula_sum "Si O2"
_cell_formula_units_Z 14
_cell_length_a 10.971350
_cell_length_b 9.574317
_cell_length_c 11.466042
_cell_angle_alpha 119.491803
_cell_angle_beta 132.233475
_cell_angle_gamma 91.364825
_cell_volume 648.069542
_symmetry_space_group_name_H-M "P -1"
_symmetry_group_IT_number 2
_symmetry_cell_setting 'triclinic'
loop_
_space_group_symop_operation_xyz
x,y,z
-x,-y,-z
loop_
_atom_site_type_symbol
_atom_site_label
_atom_site_fract_x
_atom_site_fract_y
_atom_site_fract_z
Si Si1 0.410756 0.291848 0.303540
Si Si2 0.557843 0.268258 0.150262
Si Si3 0.534517 0.616951 0.201146
Si Si4 0.047085 0.088540 0.832280
Si Si5 0.164184 0.288713 0.740372
Si Si6 0.827111 0.137128 0.287307
Si Si7 0.622047 0.907430 0.566597
O O1 0.500000 0.500000 0.500000
O O2 0.546807 0.282698 0.289530
O O3 0.379929 0.139006 0.318508
O O4 0.204401 0.232610 0.087483
O O5 0.575679 0.450950 0.180156
O O6 0.755868 0.272741 0.251389
O O7 0.368441 0.073235 0.896295
O O8 0.712972 0.766862 0.290950
O O9 0.527523 0.710245 0.353814
O O10 0.316897 0.516557 0.961479
O O11 0.107590 0.170962 0.774666
O O12 0.843332 0.055763 0.726772
O O13 0.047924 0.892449 0.744700
O O14 0.963105 0.238720 0.530236
O O15 0.500000 0.000000 0.500000
#
# Coordination Sequence:
#
# PCOD8012211 Si02
#       7
#     2   2   2   2   2   2   2
#     4  11  22  46  69  90 135 177 215 272 318 381
#     4  10  22  40  67  98 131 167 221 261 332 391
#     4  11  23  42  64 101 130 166 216 272 332 379
#     4  11  23  44  66  94 129 175 218 263 333 384
#     4  11  22  39  70  95 134 165 206 279 333 383
#     4  10  21  39  67  97 127 168 209 269 334 387
#     4  12  27  45  67  95 130 179 228 263 315 391
#
# _framework density 21.602620000000002
#
# number of rings (size 3 to 8) (size 9 to 14) (size 15 to 20)
#    0.000    1.143    5.714    0.857    2.000    0.571 
#   10.286    1.429    0.000    0.000    0.000    0.000 
#    0.000    0.000    0.000    0.000    0.000    0.000 
#
# Total GULP energy -173487.995366 kJ/mol
# GULP energy per Si atom -12391.999669 kJ/mol
# Density = 2.155345 g / cm^3
# Si number density = 21.602620 Si / 1000 Ang^3
#
#
#
# Elastic Constant Matrix: (Units=GPa)
#
#
# Indices 1 2 3 4 5 6 
#
# 1 105.7360 43.8444 47.5167 -11.1841 13.1627 2.2048
# 2 43.8444 94.4579 50.9475 -11.5601 8.5860 -5.4732
# 3 47.5167 50.9475 168.7960 -15.4298 2.0923 -14.0186
# 4 -11.1841 -11.5601 -15.4298 27.1446 -2.5982 -1.9873
# 5 13.1627 8.5860 2.0923 -2.5982 37.6336 -8.9275
# 6 2.2048 -5.4732 -14.0186 -1.9873 -8.9275 42.5716
#
#
#
# Elastic Compliance Matrix: (Units=1/GPa)
#
#
# Indices 1 2 3 4 5 6 
#
# 1 0.013073 -0.004382 -0.002396 0.001571 -0.003994 -0.002794
# 2 -0.004382 0.014662 -0.002834 0.002789 -0.001212 0.001055
# 3 -0.002396 -0.002834 0.007918 0.002702 0.001918 0.002895
# 4 0.001571 0.002789 0.002702 0.040692 0.002316 0.003552
# 5 -0.003994 -0.001212 0.001918 0.002316 0.029977 0.007077
# 6 -0.002794 0.001055 0.002895 0.003552 0.007077 0.026373
#
#
# Mechanical properties :
#
#
# Convention : Reuss Voigt Hill
#
# Bulk Modulus (GPa) = 60.87324 72.62301 66.74812
# Shear Modulus (GPa) = 31.76657 36.58207 34.17432
#
# Velocity S-wave (km/s) = 3.83887 4.11957 3.98169
# Velocity P-wave (km/s) = 6.92019 7.50456 7.21829
#
# Compressibility (1/GPa) = 0.01642758
#
# Stress axis : x y z
#
# Youngs Moduli (GPa) = 76.49272 68.20300 126.29349
#
# Poissons Ratio (x) = 0.29888 0.30264
# Poissons Ratio (y) = 0.33521 0.35795
# Poissons Ratio (z) = 0.18330 0.19331
#
# Static dielectric constant tensor:
#      x y z
#    x 4.057470 -0.041410 -0.015200 
#    y -0.041410 3.810180 -0.105490 
#    z -0.015200 -0.105490 4.368140 
# 
# 
# High freq. dielectric constant tensor:
#      x y z
#    x 1.837180 0.008730 -0.002900 
#    y 0.008730 1.826720 -0.005680 
#    z -0.002900 -0.005680 1.874010 
# 
# From -- ./inp_files/417957.got.cif
#   From: 2010.06.25/outbox.cif.g09.slc.cpg/sg2_209_cif.got.tgz:417957.got - 2010.06.27 13:26:56.
