data_PCOD8012354
_publ_section_title
;
Structure prediction by ZEFSAII (Michael W. Deem and Ramdas Pophale) SiO2 
 PCOD8012354
Probable space group: P -1
;
_chemical_formula_sum "Si O2"
_cell_formula_units_Z 14
_cell_length_a 11.310736
_cell_length_b 25.062949
_cell_length_c 11.973991
_cell_angle_alpha 21.722468
_cell_angle_beta 145.977937
_cell_angle_gamma 156.277210
_cell_volume 500.045026
_symmetry_space_group_name_H-M "P -1"
_symmetry_group_IT_number 2
_symmetry_cell_setting 'triclinic'
loop_
_space_group_symop_operation_xyz
x,y,z
-x,-y,-z
loop_
_atom_site_type_symbol
_atom_site_label
_atom_site_fract_x
_atom_site_fract_y
_atom_site_fract_z
Si Si1 0.733450 0.889539 0.391762
Si Si2 0.719472 0.488647 0.737785
Si Si3 0.672953 0.082429 0.590589
Si Si4 0.608768 0.804792 0.744054
Si Si5 0.613895 0.304229 0.796937
Si Si6 0.223310 0.823370 0.000548
Si Si7 0.575363 0.506184 0.184256
O O1 0.504159 0.884497 0.161076
O O2 0.614923 0.663193 0.738772
O O3 0.034961 0.039771 0.265419
O O4 0.766877 0.987555 0.352500
O O5 0.500000 0.500000 0.500000
O O6 0.814758 0.448386 0.778746
O O7 0.007175 0.697359 0.612140
O O8 0.551268 0.307895 0.044515
O O9 0.503662 0.082148 0.566461
O O10 0.500000 0.000000 0.500000
O O11 0.684440 0.922101 0.953480
O O12 0.495351 0.636841 0.886377
O O13 0.821483 0.280429 0.948834
O O14 0.495035 0.377098 0.484228
O O15 0.927055 0.647940 0.178511
#
# Coordination Sequence:
#
# PCOD8012354 Si02
#       7
#     2   2   2   2   2   2   2
#     4   9  19  36  68  92 137 170 226 271 340 392
#     4  12  27  44  71 102 137 175 242 281 332 404
#     4  12  29  45  66  98 147 185 219 278 353 407
#     4  11  24  42  64  99 135 181 218 276 347 402
#     4  11  23  40  69  97 134 179 230 278 329 407
#     4   9  20  38  64 105 132 174 229 285 334 389
#     4  10  21  39  70 100 135 177 230 282 333 401
#
# _framework density 27.997482000000002
#
# number of rings (size 3 to 8) (size 9 to 14) (size 15 to 20)
#    0.000    1.429    2.857    2.143    6.000    2.857 
#    0.000    2.857    0.000    7.714    0.000    0.000 
#    0.000    0.000    0.000    0.000    0.000    0.000 
#
# Total GULP energy -173483.359363 kJ/mol
# GULP energy per Si atom -12391.668526 kJ/mol
# Density = 2.793376 g / cm^3
# Si number density = 27.997482 Si / 1000 Ang^3
#
#
#
# Elastic Constant Matrix: (Units=GPa)
#
#
# Indices 1 2 3 4 5 6 
#
# 1 155.6598 60.7033 37.9885 -15.6729 27.9917 -23.7841
# 2 60.7033 130.3775 33.7470 -29.4507 8.1384 2.1875
# 3 37.9885 33.7470 130.9260 -31.3948 42.4782 -12.5293
# 4 -15.6729 -29.4507 -31.3948 44.0692 -7.8925 7.7166
# 5 27.9917 8.1384 42.4782 -7.8925 34.5672 -2.4968
# 6 -23.7841 2.1875 -12.5293 7.7166 -2.4968 43.2175
#
#
#
# Elastic Compliance Matrix: (Units=1/GPa)
#
#
# Indices 1 2 3 4 5 6 
#
# 1 0.010467 -0.005093 0.001432 -0.001333 -0.008896 0.006157
# 2 -0.005093 0.011786 -0.002176 0.006280 0.005106 -0.004857
# 3 0.001432 -0.002176 0.015404 0.006258 -0.017915 0.003211
# 4 -0.001333 0.006280 0.006258 0.031513 -0.001251 -0.004936
# 5 -0.008896 0.005106 -0.017915 -0.001251 0.056163 -0.006880
# 6 0.006157 -0.004857 0.003211 -0.004936 -0.006880 0.028188
#
#
# Mechanical properties :
#
#
# Convention : Reuss Voigt Hill
#
# Bulk Modulus (GPa) = 38.48737 75.76012 57.12374
# Shear Modulus (GPa) = 28.75933 43.33908 36.04921
#
# Velocity S-wave (km/s) = 3.20849 3.93868 3.59219
# Velocity P-wave (km/s) = 5.24428 6.91395 6.13617
#
# Compressibility (1/GPa) = 0.02598255
#
# Stress axis : x y z
#
# Youngs Moduli (GPa) = 95.53408 84.84759 64.91941
#
# Poissons Ratio (x) = 0.43214 -0.09294
# Poissons Ratio (y) = 0.48657 0.14124
# Poissons Ratio (z) = -0.13676 0.18460
#
# Static dielectric constant tensor:
#      x y z
#    x 5.936940 0.037850 0.585180 
#    y 0.037850 4.545780 -0.396560 
#    z 0.585180 -0.396560 5.790840 
# 
# 
# High freq. dielectric constant tensor:
#      x y z
#    x 2.170090 -0.002730 0.005760 
#    y -0.002730 2.102740 -0.014930 
#    z 0.005760 -0.014930 2.179930 
# 
# From -- ./inp_files/524624.got.cif
#   From: 2010.06.25/outbox.cif.g09.slc.cpg/sg2_263_cif.got.tgz:524624.got - 2010.06.27 13:26:56.
