data_PCOD8012039
_publ_section_title
;
Structure prediction by ZEFSAII (Michael W. Deem and Ramdas Pophale) SiO2 
 PCOD8012039
Probable space group: P -1
;
_chemical_formula_sum "Si O2"
_cell_formula_units_Z 16
_cell_length_a 11.658776
_cell_length_b 14.369009
_cell_length_c 9.980497
_cell_angle_alpha 137.885518
_cell_angle_beta 114.817999
_cell_angle_gamma 96.977884
_cell_volume 715.507820
_symmetry_space_group_name_H-M "P -1"
_symmetry_group_IT_number 2
_symmetry_cell_setting 'triclinic'
loop_
_space_group_symop_operation_xyz
x,y,z
-x,-y,-z
loop_
_atom_site_type_symbol
_atom_site_label
_atom_site_fract_x
_atom_site_fract_y
_atom_site_fract_z
Si Si1 0.336740 0.286194 0.342678
Si Si2 0.296298 0.704647 0.803755
Si Si3 0.789472 0.895569 0.631820
Si Si4 0.399278 0.038841 0.571700
Si Si5 0.961600 0.127745 0.375906
Si Si6 0.959721 0.312899 0.831079
Si Si7 0.696760 0.481589 0.610791
Si Si8 0.963970 0.269155 0.267171
O O1 0.297610 0.259040 0.453619
O O2 0.545300 0.406935 0.561996
O O3 0.298424 0.407244 0.392468
O O4 0.226055 0.084548 0.990931
O O5 0.345385 0.703220 0.672479
O O6 0.236083 0.816485 0.917469
O O7 0.114173 0.477795 0.496521
O O8 0.466950 0.797073 0.075194
O O9 0.884514 0.870156 0.542544
O O10 0.642669 0.867829 0.449040
O O11 0.944080 0.112751 0.005079
O O12 0.222863 0.831270 0.327448
O O13 0.500000 0.000000 0.500000
O O14 0.937831 0.185021 0.565461
O O15 0.024649 0.289558 0.470585
O O16 0.115504 0.376120 0.068722
O O17 0.000000 0.500000 0.000000
#
# Coordination Sequence:
#
# PCOD8012039 Si02
#       8
#     2   2   2   2   2   2   2   2
#     4  10  23  43  68 102 136 179 228 283 330 410
#     4  11  22  39  68  95 135 176 226 270 342 393
#     4  11  23  44  70 101 139 176 229 280 340 400
#     4  12  27  45  70 100 140 178 225 280 340 406
#     4  11  23  42  70  97 135 177 229 274 347 393
#     4  12  29  46  69 101 141 180 225 284 340 401
#     4  11  24  43  68  98 140 179 231 276 340 399
#     4  10  21  39  66 100 130 177 222 281 327 408
#
# _framework density 22.361742
#
# number of rings (size 3 to 8) (size 9 to 14) (size 15 to 20)
#    0.000    1.000    1.250    6.000    5.250    4.000 
#    0.000    5.000    0.000    0.000    0.000    0.000 
#    0.000    0.000    0.000    0.000    0.000    0.000 
#
# Total GULP energy -198407.967290 kJ/mol
# GULP energy per Si atom -12400.497956 kJ/mol
# Density = 2.231085 g / cm^3
# Si number density = 22.361742 Si / 1000 Ang^3
#
#
#
# Elastic Constant Matrix: (Units=GPa)
#
#
# Indices 1 2 3 4 5 6 
#
# 1 152.7331 52.6428 47.5995 -3.0131 11.9360 9.5966
# 2 52.6428 82.0651 23.4069 -4.8703 10.2695 -2.6825
# 3 47.5995 23.4069 96.4031 -19.6543 12.1910 7.1305
# 4 -3.0131 -4.8703 -19.6543 32.6490 -2.1617 1.1607
# 5 11.9360 10.2695 12.1910 -2.1617 41.2582 -7.1049
# 6 9.5966 -2.6825 7.1305 1.1607 -7.1049 33.4329
#
#
#
# Elastic Compliance Matrix: (Units=1/GPa)
#
#
# Indices 1 2 3 4 5 6 
#
# 1 0.009683 -0.005266 -0.003604 -0.002035 -0.000975 -0.002570
# 2 -0.005266 0.016240 -0.001111 0.001062 -0.001677 0.002658
# 3 -0.003604 -0.001111 0.014742 0.008280 -0.003146 -0.003155
# 4 -0.002035 0.001062 0.008280 0.035627 -0.000682 -0.002479
# 5 -0.000975 -0.001677 -0.003146 -0.000682 0.026962 0.006570
# 6 -0.002570 0.002658 -0.003155 -0.002479 0.006570 0.033017
#
#
# Mechanical properties :
#
#
# Convention : Reuss Voigt Hill
#
# Bulk Modulus (GPa) = 48.30263 64.27773 56.29018
# Shear Modulus (GPa) = 30.64964 35.30482 32.97723
#
# Velocity S-wave (km/s) = 3.70622 3.97773 3.84437
# Velocity P-wave (km/s) = 6.32156 7.06423 6.70319
#
# Compressibility (1/GPa) = 0.02070281
#
# Stress axis : x y z
#
# Youngs Moduli (GPa) = 103.27133 61.57496 67.83561
#
# Poissons Ratio (x) = 0.32428 0.24447
# Poissons Ratio (y) = 0.54387 0.07535
# Poissons Ratio (z) = 0.37218 0.06840
#
# Static dielectric constant tensor:
#      x y z
#    x 4.432930 -0.060580 0.039360 
#    y -0.060580 4.098470 -0.038310 
#    z 0.039360 -0.038310 3.980710 
# 
# 
# High freq. dielectric constant tensor:
#      x y z
#    x 1.907600 0.000760 0.006000 
#    y 0.000760 1.877740 -0.004890 
#    z 0.006000 -0.004890 1.872120 
# 
# From -- ./inp_files/274439.got.cif
#   From: 2010.06.25/outbox.cif.g09.slc.cpg/sg2_138_cif.got.tgz:274439.got - 2010.06.27 13:26:56.
