data_PCOD8012033
_publ_section_title
;
Structure prediction by ZEFSAII (Michael W. Deem and Ramdas Pophale) SiO2 
 PCOD8012033
Probable space group: P -1
;
_chemical_formula_sum "Si O2"
_cell_formula_units_Z 16
_cell_length_a 12.045591
_cell_length_b 13.938290
_cell_length_c 14.036254
_cell_angle_alpha 150.432359
_cell_angle_beta 38.776873
_cell_angle_gamma 138.641614
_cell_volume 707.957500
_symmetry_space_group_name_H-M "P -1"
_symmetry_group_IT_number 2
_symmetry_cell_setting 'triclinic'
loop_
_space_group_symop_operation_xyz
x,y,z
-x,-y,-z
loop_
_atom_site_type_symbol
_atom_site_label
_atom_site_fract_x
_atom_site_fract_y
_atom_site_fract_z
Si Si1 0.129533 0.150169 0.302500
Si Si2 0.529580 0.209213 0.109840
Si Si3 0.163862 0.959624 0.919914
Si Si4 0.035221 0.534714 0.616070
Si Si5 0.129318 0.446110 0.787825
Si Si6 0.826412 0.861844 0.364741
Si Si7 0.565284 0.140949 0.808787
Si Si8 0.839552 0.522554 0.912940
O O1 0.011598 0.030824 0.365269
O O2 0.332850 0.261914 0.296444
O O3 0.051249 0.325390 0.464247
O O4 0.130452 0.989092 0.079533
O O5 0.683129 0.385340 0.206341
O O6 0.500000 0.000000 0.000000
O O7 0.591994 0.180728 0.937077
O O8 0.195913 0.735288 0.690787
O O9 0.355301 0.102711 0.884124
O O10 0.000000 0.000000 0.000000
O O11 0.000000 0.500000 0.500000
O O12 0.879567 0.596879 0.840919
O O13 0.166274 0.235536 0.618785
O O14 0.014135 0.434337 0.756797
O O15 0.000000 0.500000 0.000000
O O16 0.653174 0.958868 0.561853
O O17 0.798138 0.693683 0.156308
O O18 0.662402 0.344282 0.868088
#
# Coordination Sequence:
#
# PCOD8012033 Si02
#       8
#     2   2   2   2   2   2   2   2
#     4  11  24  42  71 100 141 185 226 287 347 411
#     4  11  23  41  66 105 147 188 232 274 342 414
#     4  11  25  47  70  98 135 174 231 295 350 406
#     4  12  25  45  74  99 133 182 235 289 360 409
#     4  10  21  39  65  98 147 183 220 279 335 400
#     4  11  22  43  69 101 142 185 225 283 339 414
#     4  11  25  41  73 100 135 180 232 276 349 414
#     4  11  23  45  67 102 143 182 233 287 336 408
#
# _framework density 22.600224999999998
#
# number of rings (size 3 to 8) (size 9 to 14) (size 15 to 20)
#    0.000    1.000    6.250    1.500    3.500    1.500 
#    0.000    4.375    0.000    0.000    0.000    0.000 
#    0.000    0.000    0.000    0.000    0.000    0.000 
#
# Total GULP energy -198272.645759 kJ/mol
# GULP energy per Si atom -12392.040360 kJ/mol
# Density = 2.254879 g / cm^3
# Si number density = 22.600225 Si / 1000 Ang^3
#
#
#
# Elastic Constant Matrix: (Units=GPa)
#
#
# Indices 1 2 3 4 5 6 
#
# 1 79.0524 55.8143 25.7440 -8.2154 11.7838 9.7244
# 2 55.8143 159.8858 25.1090 10.7597 0.0823 15.2945
# 3 25.7440 25.1090 80.0972 10.8488 -0.8288 5.6254
# 4 -8.2154 10.7597 10.8488 41.2146 0.8148 -2.6903
# 5 11.7838 0.0823 -0.8288 0.8148 30.0539 -3.1138
# 6 9.7244 15.2945 5.6254 -2.6903 -3.1138 39.7663
#
#
#
# Elastic Compliance Matrix: (Units=1/GPa)
#
#
# Indices 1 2 3 4 5 6 
#
# 1 0.021992 -0.007086 -0.005861 0.007827 -0.009186 -0.002013
# 2 -0.007086 0.009158 0.000108 -0.004006 0.002672 -0.001867
# 3 -0.005861 0.000108 0.015143 -0.005296 0.002766 -0.000892
# 4 0.007827 -0.004006 -0.005296 0.028469 -0.003768 0.002007
# 5 -0.009186 0.002672 0.002766 -0.003768 0.037409 0.003502
# 6 -0.002013 -0.001867 -0.000892 0.002007 0.003502 0.026893
#
#
# Mechanical properties :
#
#
# Convention : Reuss Voigt Hill
#
# Bulk Modulus (GPa) = 48.50736 59.15222 53.82979
# Shear Modulus (GPa) = 29.13524 36.36482 32.75003
#
# Velocity S-wave (km/s) = 3.59438 4.01564 3.81084
# Velocity P-wave (km/s) = 6.22382 6.90874 6.57520
#
# Compressibility (1/GPa) = 0.02061543
#
# Stress axis : x y z
#
# Youngs Moduli (GPa) = 45.47151 109.19461 66.03621
#
# Poissons Ratio (x) = 0.77376 0.38702
# Poissons Ratio (y) = 0.32222 -0.00714
# Poissons Ratio (z) = 0.26650 -0.01180
#
# Static dielectric constant tensor:
#      x y z
#    x 4.598100 -1.211570 0.395300 
#    y -1.211570 5.622440 -0.372990 
#    z 0.395300 -0.372990 4.487470 
# 
# 
# High freq. dielectric constant tensor:
#      x y z
#    x 1.866050 -0.007760 0.011360 
#    y -0.007760 1.912630 0.007440 
#    z 0.011360 0.007440 1.900500 
# 
# From -- ./inp_files/521866.got.cif
#   From: 2010.06.25/outbox.cif.g09.slc.cpg/sg2_261_cif.got.tgz:521866.got - 2010.06.27 13:26:56.
