data_PCOD8012758
_publ_section_title
;
Structure prediction by ZEFSAII (Michael W. Deem and Ramdas Pophale) SiO2 
 PCOD8012758
Probable space group: P -1
;
_chemical_formula_sum "Si O2"
_cell_formula_units_Z 12
_cell_length_a 26.451140
_cell_length_b 8.829926
_cell_length_c 15.257694
_cell_angle_alpha 42.042423
_cell_angle_beta 160.317086
_cell_angle_gamma 147.759172
_cell_volume 611.008579
_symmetry_space_group_name_H-M "P -1"
_symmetry_group_IT_number 2
_symmetry_cell_setting 'triclinic'
loop_
_space_group_symop_operation_xyz
x,y,z
-x,-y,-z
loop_
_atom_site_type_symbol
_atom_site_label
_atom_site_fract_x
_atom_site_fract_y
_atom_site_fract_z
Si Si1 0.688427 0.763758 0.640220
Si Si2 0.743634 0.112080 0.414726
Si Si3 0.486983 0.283060 0.947679
Si Si4 0.859187 0.460210 0.036207
Si Si5 0.525107 0.808266 0.833831
Si Si6 0.111694 0.639548 0.212159
O O1 0.500000 0.500000 0.500000
O O2 0.643521 0.886056 0.432116
O O3 0.822444 0.034887 0.810858
O O4 0.802232 0.660046 0.831733
O O5 0.661890 0.287357 0.202650
O O6 0.980164 0.364569 0.698943
O O7 0.695188 0.931158 0.324276
O O8 0.413449 0.165832 0.976366
O O9 0.562561 0.615768 0.922661
O O10 0.957693 0.429165 0.128286
O O11 0.662403 0.138938 0.879286
O O12 0.297090 0.653511 0.517150
O O13 0.000000 0.500000 0.000000
#
# Coordination Sequence:
#
# PCOD8012758 Si02
#       6
#     2   2   2   2   2   2
#     4  11  21  41  64  91 124 156 201 258 302 358
#     4  10  21  40  63  90 117 165 204 239 308 356
#     4  10  22  41  62  85 127 160 201 251 287 370
#     4  11  23  41  65  89 123 159 202 253 306 355
#     4  11  23  42  61  91 124 158 202 251 304 350
#     4  11  24  40  61  94 125 156 203 251 307 359
#
# _framework density 19.639659000000002
#
# number of rings (size 3 to 8) (size 9 to 14) (size 15 to 20)
#    0.000    1.333    5.000    2.000    4.667    3.333 
#    0.000    0.000    0.000    0.000    0.000    0.000 
#    0.000    0.000    0.000    0.000    0.000    0.000 
#
# Total GULP energy -148789.849920 kJ/mol
# GULP energy per Si atom -12399.154160 kJ/mol
# Density = 1.959496 g / cm^3
# Si number density = 19.639659 Si / 1000 Ang^3
#
#
#
# Elastic Constant Matrix: (Units=GPa)
#
#
# Indices 1 2 3 4 5 6 
#
# 1 98.4505 47.5350 57.2177 13.2418 -19.4414 -18.8569
# 2 47.5350 105.7929 35.8837 -8.3603 -2.4426 -17.4829
# 3 57.2177 35.8837 108.7751 0.8680 -14.1938 -8.5370
# 4 13.2418 -8.3603 0.8680 28.0799 -9.1733 4.2248
# 5 -19.4414 -2.4426 -14.1938 -9.1733 41.0065 7.8011
# 6 -18.8569 -17.4829 -8.5370 4.2248 7.8011 31.9202
#
#
#
# Elastic Compliance Matrix: (Units=1/GPa)
#
#
# Indices 1 2 3 4 5 6 
#
# 1 0.021905 -0.006629 -0.008234 -0.012327 0.002853 0.008042
# 2 -0.006629 0.013741 -0.001110 0.006191 -0.001886 0.002955
# 3 -0.008234 -0.001110 0.013938 0.004334 0.002376 -0.002898
# 4 -0.012327 0.006191 0.004334 0.047705 0.008828 -0.011204
# 5 0.002853 -0.001886 0.002376 0.008828 0.029786 -0.007160
# 6 0.008042 0.002955 -0.002898 -0.011204 -0.007160 0.040155
#
#
# Mechanical properties :
#
#
# Convention : Reuss Voigt Hill
#
# Bulk Modulus (GPa) = 56.68964 66.03236 61.36100
# Shear Modulus (GPa) = 24.38365 31.69344 28.03854
#
# Velocity S-wave (km/s) = 3.52739 4.02150 3.78252
# Velocity P-wave (km/s) = 6.74667 7.43359 7.09844
#
# Compressibility (1/GPa) = 0.01763991
#
# Stress axis : x y z
#
# Youngs Moduli (GPa) = 45.65133 72.77298 71.74375
#
# Poissons Ratio (x) = 0.48241 0.59073
# Poissons Ratio (y) = 0.30262 0.07962
# Poissons Ratio (z) = 0.37589 0.08076
#
# Static dielectric constant tensor:
#      x y z
#    x 3.596930 -0.246460 -0.007570 
#    y -0.246460 3.650320 -0.109520 
#    z -0.007570 -0.109520 3.667840 
# 
# 
# High freq. dielectric constant tensor:
#      x y z
#    x 1.762640 -0.017920 0.001900 
#    y -0.017920 1.767380 -0.006620 
#    z 0.001900 -0.006620 1.768600 
# 
# From -- ./inp_files/162725.got.cif
#   From: 2010.06.25/outbox.cif.g09.slc.cpg/sg2_82_cif.got.tgz:162725.got - 2010.06.27 13:26:56.
