data_PCOD8012408
_publ_section_title
;
Structure prediction by ZEFSAII (Michael W. Deem and Ramdas Pophale) SiO2 
 PCOD8012408
Probable space group: P -1
;
_chemical_formula_sum "Si O2"
_cell_formula_units_Z 16
_cell_length_a 11.634135
_cell_length_b 8.889580
_cell_length_c 15.874853
_cell_angle_alpha 38.295391
_cell_angle_beta 132.508227
_cell_angle_gamma 115.030429
_cell_volume 729.108045
_symmetry_space_group_name_H-M "P -1"
_symmetry_group_IT_number 2
_symmetry_cell_setting 'triclinic'
loop_
_space_group_symop_operation_xyz
x,y,z
-x,-y,-z
loop_
_atom_site_type_symbol
_atom_site_label
_atom_site_fract_x
_atom_site_fract_y
_atom_site_fract_z
Si Si1 0.072842 0.404094 0.709052
Si Si2 0.996585 0.473698 0.200809
Si Si3 0.451072 0.784615 0.824569
Si Si4 0.709433 0.744852 0.836194
Si Si5 0.870658 0.078280 0.492657
Si Si6 0.790258 0.370109 0.899804
Si Si7 0.094623 0.971512 0.282853
Si Si8 0.595984 0.965685 0.975168
O O1 0.036393 0.700878 0.547124
O O2 0.024533 0.351580 0.803751
O O3 0.958714 0.286607 0.644287
O O4 0.261110 0.283428 0.838945
O O5 0.146298 0.520368 0.201012
O O6 0.016414 0.184084 0.366915
O O7 0.830233 0.542392 0.040035
O O8 0.547694 0.840559 0.765885
O O9 0.268732 0.851921 0.675471
O O10 0.477085 0.947825 0.846702
O O11 0.500000 0.500000 0.000000
O O12 0.688615 0.599153 0.803801
O O13 0.778847 0.986958 0.743263
O O14 0.818603 0.029809 0.583706
O O15 0.669943 0.201089 0.888324
O O16 0.940808 0.208190 0.098428
O O17 0.500000 0.000000 0.000000
#
# Coordination Sequence:
#
# PCOD8012408 Si02
#       8
#     2   2   2   2   2   2   2   2
#     4  11  24  40  68  98 128 173 223 274 316 386
#     4  11  21  42  67  99 129 171 220 270 328 375
#     4  12  25  43  65  95 131 178 217 261 328 394
#     4  11  20  42  71  93 132 172 224 262 324 396
#     4  12  23  44  63  98 139 169 216 266 329 388
#     4  10  21  39  72  95 129 168 224 272 318 387
#     4  10  22  40  66  99 126 169 217 277 323 367
#     4  11  24  44  66  96 130 176 219 266 326 391
#
# _framework density 21.944621999999999
#
# number of rings (size 3 to 8) (size 9 to 14) (size 15 to 20)
#    0.000    1.000    5.000    2.250    1.750    2.000 
#    6.750    0.625    0.000    0.000    0.000    0.000 
#    0.000    0.000    0.000    0.000    0.000    0.000 
#
# Total GULP energy -198388.497005 kJ/mol
# GULP energy per Si atom -12399.281063 kJ/mol
# Density = 2.189468 g / cm^3
# Si number density = 21.944622 Si / 1000 Ang^3
#
#
#
# Elastic Constant Matrix: (Units=GPa)
#
#
# Indices 1 2 3 4 5 6 
#
# 1 103.5027 38.4208 10.2906 -4.6044 -8.3340 -21.5664
# 2 38.4208 113.9240 34.1589 5.0854 -6.6069 -2.7191
# 3 10.2906 34.1589 78.5988 3.1469 -5.1974 4.9685
# 4 -4.6044 5.0854 3.1469 35.7818 1.6584 -9.0513
# 5 -8.3340 -6.6069 -5.1974 1.6584 15.2633 0.1021
# 6 -21.5664 -2.7191 4.9685 -9.0513 0.1021 44.7672
#
#
#
# Elastic Compliance Matrix: (Units=1/GPa)
#
#
# Indices 1 2 3 4 5 6 
#
# 1 0.013212 -0.004116 -0.000206 0.003821 0.004901 0.006899
# 2 -0.004116 0.011593 -0.004228 -0.002197 0.001578 -0.001257
# 3 -0.000206 -0.004228 0.015016 -0.001491 0.003348 -0.002332
# 4 0.003821 -0.002197 -0.001491 0.031077 -0.002803 0.008163
# 5 0.004901 0.001578 0.003348 -0.002803 0.070311 0.001358
# 6 0.006899 -0.001257 -0.002332 0.008163 0.001358 0.027491
#
#
# Mechanical properties :
#
#
# Convention : Reuss Voigt Hill
#
# Bulk Modulus (GPa) = 44.01072 51.30732 47.65902
# Shear Modulus (GPa) = 25.85679 33.37282 29.61480
#
# Velocity S-wave (km/s) = 3.43632 3.90394 3.67757
# Velocity P-wave (km/s) = 5.98693 6.61454 6.30854
#
# Compressibility (1/GPa) = 0.02272174
#
# Stress axis : x y z
#
# Youngs Moduli (GPa) = 75.68902 86.25915 66.59704
#
# Poissons Ratio (x) = 0.35501 0.01373
# Poissons Ratio (y) = 0.31150 0.28155
# Poissons Ratio (z) = 0.01561 0.36468
#
# Static dielectric constant tensor:
#      x y z
#    x 4.187030 -0.095690 -0.165330 
#    y -0.095690 4.138800 -0.020200 
#    z -0.165330 -0.020200 3.766930 
# 
# 
# High freq. dielectric constant tensor:
#      x y z
#    x 1.869590 -0.007740 -0.024880 
#    y -0.007740 1.874820 -0.003410 
#    z -0.024880 -0.003410 1.839540 
# 
# From -- ./inp_files/283131.got.cif
#   From: 2010.06.25/outbox.cif.g09.slc.cpg/sg2_142_cif.got.tgz:283131.got - 2010.06.27 13:26:56.
