data_PCOD8012140
_publ_section_title
;
Structure prediction by ZEFSAII (Michael W. Deem and Ramdas Pophale) SiO2 
 PCOD8012140
Probable space group: P -1
;
_chemical_formula_sum "Si O2"
_cell_formula_units_Z 14
_cell_length_a 13.267786
_cell_length_b 22.714740
_cell_length_c 16.151033
_cell_angle_alpha 17.977630
_cell_angle_beta 154.110762
_cell_angle_gamma 151.882535
_cell_volume 643.388405
_symmetry_space_group_name_H-M "P -1"
_symmetry_group_IT_number 2
_symmetry_cell_setting 'triclinic'
loop_
_space_group_symop_operation_xyz
x,y,z
-x,-y,-z
loop_
_atom_site_type_symbol
_atom_site_label
_atom_site_fract_x
_atom_site_fract_y
_atom_site_fract_z
Si Si1 0.179843 0.885720 0.328724
Si Si2 0.045845 0.283268 0.319829
Si Si3 0.257614 0.477546 0.898770
Si Si4 0.540813 0.186837 0.115577
Si Si5 0.883145 0.323155 0.709510
Si Si6 0.390430 0.415500 0.264924
Si Si7 0.839741 0.892022 0.199231
O O1 0.162597 0.677096 0.553488
O O2 0.097047 0.865218 0.390836
O O3 0.441540 0.009943 0.341801
O O4 0.000000 0.000000 0.000000
O O5 0.198515 0.259290 0.383038
O O6 0.199266 0.226999 0.585066
O O7 0.785970 0.146421 0.312318
O O8 0.000000 0.500000 0.000000
O O9 0.062694 0.312455 0.932257
O O10 0.500000 0.500000 0.000000
O O11 0.284688 0.425379 0.083131
O O12 0.572481 0.380243 0.934401
O O13 0.366508 0.202453 0.889510
O O14 0.637135 0.348832 0.531488
O O15 0.000000 0.500000 0.500000
O O16 0.838626 0.120205 0.900045
#
# Coordination Sequence:
#
# PCOD8012140 Si02
#       7
#     2   2   2   2   2   2   2
#     4  10  21  39  67 100 127 168 220 273 332 390
#     4  10  24  42  64  96 130 175 229 271 321 398
#     4  12  26  42  69  97 136 177 216 274 349 391
#     4  10  22  41  69  96 131 166 226 277 324 396
#     4  12  24  43  68  99 138 170 217 278 338 403
#     4  11  25  43  65  97 133 177 222 271 334 397
#     4  11  24  41  70  99 130 177 219 273 340 387
#
# _framework density 21.759795
#
# number of rings (size 3 to 8) (size 9 to 14) (size 15 to 20)
#    0.000    1.143    1.429    6.000    2.000    5.143 
#    0.000    1.429    0.000    0.000    0.000    0.000 
#    0.000    0.000    0.000    0.000    0.000    0.000 
#
# Total GULP energy -173579.763180 kJ/mol
# GULP energy per Si atom -12398.554513 kJ/mol
# Density = 2.171027 g / cm^3
# Si number density = 21.759795 Si / 1000 Ang^3
#
#
#
# Elastic Constant Matrix: (Units=GPa)
#
#
# Indices 1 2 3 4 5 6 
#
# 1 174.5611 57.1598 37.2287 16.2672 -9.5900 20.2842
# 2 57.1598 96.5404 -6.8638 26.7031 -7.2858 3.0482
# 3 37.2287 -6.8638 44.3134 15.0970 -7.4033 -2.6391
# 4 16.2672 26.7031 15.0970 33.2099 -1.7162 0.7399
# 5 -9.5900 -7.2858 -7.4033 -1.7162 46.1378 10.2213
# 6 20.2842 3.0482 -2.6391 0.7399 10.2213 48.4666
#
#
#
# Elastic Compliance Matrix: (Units=1/GPa)
#
#
# Indices 1 2 3 4 5 6 
#
# 1 0.012549 -0.011301 -0.016200 0.010419 -0.000159 -0.005549
# 2 -0.011301 0.025968 0.023136 -0.025764 0.003623 0.003985
# 3 -0.016200 0.023136 0.052976 -0.034616 0.005836 0.007507
# 4 0.010419 -0.025764 -0.034616 0.061351 -0.004136 -0.004690
# 5 -0.000159 0.003623 0.005836 -0.004136 0.024072 -0.004857
# 6 -0.005549 0.003985 0.007507 -0.004690 -0.004857 0.024209
#
#
# Mechanical properties :
#
#
# Convention : Reuss Voigt Hill
#
# Bulk Modulus (GPa) = 12.08247 54.49604 33.28926
# Shear Modulus (GPa) = 21.05778 40.75553 30.90665
#
# Velocity S-wave (km/s) = 3.11422 4.33248 3.77285
# Velocity P-wave (km/s) = 4.30069 7.07997 5.85755
#
# Compressibility (1/GPa) = 0.08276450
#
# Stress axis : x y z
#
# Youngs Moduli (GPa) = 79.68669 38.50864 18.87657
#
# Poissons Ratio (x) = 0.43517 0.30580
# Poissons Ratio (y) = 0.90052 -0.43674
# Poissons Ratio (z) = 1.29093 -0.89095
#
# Static dielectric constant tensor:
#      x y z
#    x 4.705950 0.437020 0.004700 
#    y 0.437020 4.048350 0.017610 
#    z 0.004700 0.017610 3.769610 
# 
# 
# High freq. dielectric constant tensor:
#      x y z
#    x 1.872080 0.005880 0.001250 
#    y 0.005880 1.852870 0.012770 
#    z 0.001250 0.012770 1.850720 
# 
# From -- ./inp_files/222559.got.cif
#   From: 2010.06.25/outbox.cif.g09.slc.cpg/sg2_112_cif.got.tgz:222559.got - 2010.06.27 13:26:56.
