data_PCOD8012200
_publ_section_title
;
Structure prediction by ZEFSAII (Michael W. Deem and Ramdas Pophale) SiO2 
 PCOD8012200
Probable space group: P -1
;
_chemical_formula_sum "Si O2"
_cell_formula_units_Z 14
_cell_length_a 10.313344
_cell_length_b 9.148620
_cell_length_c 11.031574
_cell_angle_alpha 61.503177
_cell_angle_beta 144.401578
_cell_angle_gamma 111.618155
_cell_volume 532.090585
_symmetry_space_group_name_H-M "P -1"
_symmetry_group_IT_number 2
_symmetry_cell_setting 'triclinic'
loop_
_space_group_symop_operation_xyz
x,y,z
-x,-y,-z
loop_
_atom_site_type_symbol
_atom_site_label
_atom_site_fract_x
_atom_site_fract_y
_atom_site_fract_z
Si Si1 0.215531 0.193682 0.178051
Si Si2 0.656274 0.653643 0.530692
Si Si3 0.342693 0.762701 0.617441
Si Si4 0.051302 0.021060 0.792113
Si Si5 0.963549 0.434182 0.703889
Si Si6 0.434607 0.830273 0.080030
Si Si7 0.645327 0.672267 0.086925
O O1 0.252235 0.275621 0.304488
O O2 0.453330 0.136906 0.323496
O O3 0.066998 0.033253 0.151201
O O4 0.082400 0.323150 0.941193
O O5 0.500000 0.500000 0.500000
O O6 0.869565 0.600954 0.629578
O O7 0.524336 0.798924 0.296630
O O8 0.246568 0.651660 0.481758
O O9 0.446196 0.644839 0.849964
O O10 0.148190 0.888283 0.474602
O O11 0.164759 0.858860 0.874782
O O12 0.240716 0.149525 0.920719
O O13 0.151047 0.464651 0.728077
O O14 0.527594 0.674578 0.129166
O O15 0.500000 0.000000 0.000000
#
# Coordination Sequence:
#
# PCOD8012200 Si02
#       7
#     2   2   2   2   2   2   2
#     4  11  23  39  67 102 134 172 227 281 336 397
#     4  12  24  44  74  96 137 179 222 279 341 393
#     4  10  21  39  67  95 140 175 218 276 340 396
#     4  10  22  38  65  98 131 175 226 271 337 389
#     4  10  22  42  65  97 134 174 227 271 337 398
#     4  10  24  46  67  99 138 175 229 276 326 405
#     4   9  22  43  64  94 138 174 225 275 328 400
#
# _framework density 26.311309000000001
#
# number of rings (size 3 to 8) (size 9 to 14) (size 15 to 20)
#    0.000    1.714    1.429    1.714    4.000    6.286 
#    5.143    0.714    0.000    0.000    0.000    0.000 
#    0.000    0.000    0.000    0.000    0.000    0.000 
#
# Total GULP energy -173432.676231 kJ/mol
# GULP energy per Si atom -12388.048302 kJ/mol
# Density = 2.625142 g / cm^3
# Si number density = 26.311309 Si / 1000 Ang^3
#
#
#
# Elastic Constant Matrix: (Units=GPa)
#
#
# Indices 1 2 3 4 5 6 
#
# 1 131.6365 13.0927 52.9653 4.6872 31.2244 -27.2305
# 2 13.0927 34.6999 14.3653 6.2951 1.4741 4.5387
# 3 52.9653 14.3653 170.2513 -5.6179 2.4958 -10.9017
# 4 4.6872 6.2951 -5.6179 41.0134 -9.4385 4.2782
# 5 31.2244 1.4741 2.4958 -9.4385 57.6362 -8.0151
# 6 -27.2305 4.5387 -10.9017 4.2782 -8.0151 44.9881
#
#
#
# Elastic Compliance Matrix: (Units=1/GPa)
#
#
# Indices 1 2 3 4 5 6 
#
# 1 0.011930 -0.003167 -0.003079 -0.003299 -0.005948 0.006048
# 2 -0.003167 0.032483 -0.002242 -0.004483 -0.000503 -0.005401
# 3 -0.003079 -0.002242 0.007075 0.002055 0.001783 0.000200
# 4 -0.003299 -0.004483 0.002055 0.027365 0.005934 -0.002592
# 5 -0.005948 -0.000503 0.001783 0.005934 0.021500 0.000149
# 6 0.006048 -0.005401 0.000200 -0.002592 0.000149 0.026755
#
#
# Mechanical properties :
#
#
# Convention : Reuss Voigt Hill
#
# Bulk Modulus (GPa) = 28.97471 55.27047 42.12259
# Shear Modulus (GPa) = 32.13640 45.80517 38.97078
#
# Velocity S-wave (km/s) = 3.49863 4.17693 3.85274
# Velocity P-wave (km/s) = 5.23037 6.65690 5.98628
#
# Compressibility (1/GPa) = 0.03451286
#
# Stress axis : x y z
#
# Youngs Moduli (GPa) = 83.82388 30.78563 141.34273
#
# Poissons Ratio (x) = 0.09749 0.43513
# Poissons Ratio (y) = 0.26546 0.31688
# Poissons Ratio (z) = 0.25805 0.06902
#
# Static dielectric constant tensor:
#      x y z
#    x 6.240360 -0.215990 0.525900 
#    y -0.215990 4.676330 -0.083790 
#    z 0.525900 -0.083790 4.951000 
# 
# 
# High freq. dielectric constant tensor:
#      x y z
#    x 2.074960 0.002840 0.016600 
#    y 0.002840 2.036890 -0.002420 
#    z 0.016600 -0.002420 2.067070 
# 
# From -- ./inp_files/427914.got.cif
#   From: 2010.06.25/outbox.cif.g09.slc.cpg/sg2_214_cif.got.tgz:427914.got - 2010.06.27 13:26:56.
