data_PCOD8012195
_publ_section_title
;
Structure prediction by ZEFSAII (Michael W. Deem and Ramdas Pophale) SiO2 
 PCOD8012195
Probable space group: P -1
;
_chemical_formula_sum "Si O2"
_cell_formula_units_Z 14
_cell_length_a 21.835936
_cell_length_b 7.075308
_cell_length_c 5.287380
_cell_angle_alpha 66.427973
_cell_angle_beta 104.959442
_cell_angle_gamma 115.485178
_cell_volume 672.197592
_symmetry_space_group_name_H-M "P -1"
_symmetry_group_IT_number 2
_symmetry_cell_setting 'triclinic'
loop_
_space_group_symop_operation_xyz
x,y,z
-x,-y,-z
loop_
_atom_site_type_symbol
_atom_site_label
_atom_site_fract_x
_atom_site_fract_y
_atom_site_fract_z
Si Si1 0.518192 0.783443 0.632818
Si Si2 0.663761 0.958382 0.939577
Si Si3 0.240585 0.280233 0.886948
Si Si4 0.978252 0.239151 0.595782
Si Si5 0.300381 0.525456 0.299083
Si Si6 0.916516 0.993666 0.159875
Si Si7 0.588237 0.625844 0.392210
O O1 0.587129 0.824556 0.832442
O O2 0.532998 0.716722 0.401963
O O3 0.452800 0.563133 0.763194
O O4 0.500000 0.000000 0.500000
O O5 0.721748 0.888898 0.907985
O O6 0.685830 0.216748 0.814301
O O7 0.652469 0.848238 0.263316
O O8 0.247034 0.428716 0.065419
O O9 0.162608 0.143779 0.818557
O O10 0.272144 0.429739 0.595664
O O11 0.060633 0.839654 0.668032
O O12 0.000000 0.500000 0.500000
O O13 0.929543 0.128273 0.839461
O O14 0.045506 0.179601 0.707273
O O15 0.371962 0.495764 0.326300
#
# Coordination Sequence:
#
# PCOD8012195 Si02
#       7
#     2   2   2   2   2   2   2
#     4  11  21  39  61  85 114 157 203 259 319 370
#     4  11  24  39  61  85 123 158 206 258 312 368
#     4  11  25  42  63  90 129 163 206 250 303 363
#     4  10  21  39  67  95 130 161 206 248 297 353
#     4  11  24  41  62  88 120 165 206 253 306 370
#     4  10  22  40  62  96 128 165 203 251 296 357
#     4  10  23  39  58  86 116 152 206 260 315 369
#
# _framework density 20.827207000000001
#
# number of rings (size 3 to 8) (size 9 to 14) (size 15 to 20)
#    0.000    1.429    2.857    1.714    2.000    2.857 
#    0.000    0.000    0.000    0.000    0.000    0.000 
#    0.000    0.000    0.000    0.000    0.000    0.000 
#
# Total GULP energy -173442.657263 kJ/mol
# GULP energy per Si atom -12388.761233 kJ/mol
# Density = 2.077980 g / cm^3
# Si number density = 20.827207 Si / 1000 Ang^3
#
#
#
# Elastic Constant Matrix: (Units=GPa)
#
#
# Indices 1 2 3 4 5 6 
#
# 1 100.6120 55.8411 30.6649 -15.4805 1.1297 12.5048
# 2 55.8411 164.6954 69.0349 -21.0365 -0.1586 -1.6359
# 3 30.6649 69.0349 94.5340 -8.2697 -5.2276 -6.7449
# 4 -15.4805 -21.0365 -8.2697 43.0375 2.1528 2.6740
# 5 1.1297 -0.1586 -5.2276 2.1528 22.0491 4.9482
# 6 12.5048 -1.6359 -6.7449 2.6740 4.9482 25.6631
#
#
#
# Elastic Compliance Matrix: (Units=1/GPa)
#
#
# Indices 1 2 3 4 5 6 
#
# 1 0.014091 -0.003447 -0.002320 0.003431 0.000183 -0.008088
# 2 -0.003447 0.010126 -0.006086 0.002574 -0.001617 0.000769
# 3 -0.002320 -0.006086 0.016166 -0.001135 0.003002 0.004531
# 4 0.003431 0.002574 -0.001135 0.025866 -0.002030 -0.004110
# 5 0.000183 -0.001617 0.003002 -0.002030 0.048144 -0.008475
# 6 -0.008088 0.000769 0.004531 -0.004110 -0.008475 0.046210
#
#
# Mechanical properties :
#
#
# Convention : Reuss Voigt Hill
#
# Bulk Modulus (GPa) = 59.96860 74.54703 67.25782
# Shear Modulus (GPa) = 26.33401 31.76997 29.05199
#
# Velocity S-wave (km/s) = 3.55970 3.90988 3.73890
# Velocity P-wave (km/s) = 6.76397 7.50025 7.14160
#
# Compressibility (1/GPa) = 0.01667539
#
# Stress axis : x y z
#
# Youngs Moduli (GPa) = 70.96967 98.75089 61.85985
#
# Poissons Ratio (x) = 0.34037 0.14354
# Poissons Ratio (y) = 0.24462 0.37650
# Poissons Ratio (z) = 0.16468 0.60104
#
# Static dielectric constant tensor:
#      x y z
#    x 3.834600 -0.009570 0.038800 
#    y -0.009570 3.798430 0.127960 
#    z 0.038800 0.127960 3.900970 
# 
# 
# High freq. dielectric constant tensor:
#      x y z
#    x 1.814980 0.001770 0.005310 
#    y 0.001770 1.826110 -0.005090 
#    z 0.005310 -0.005090 1.813470 
# 
# From -- ./inp_files/14034.got.cif
#   From: 2010.06.25/outbox.cif.g09.slc.cpg/sg2_8_cif.got.tgz:14034.got - 2010.06.27 13:26:56.
