data_PCOD8012396
_publ_section_title
;
Structure prediction by ZEFSAII (Michael W. Deem and Ramdas Pophale) SiO2 
 PCOD8012396
Probable space group: P -1
;
_chemical_formula_sum "Si O2"
_cell_formula_units_Z 16
_cell_length_a 11.963937
_cell_length_b 8.549846
_cell_length_c 18.467889
_cell_angle_alpha 62.688793
_cell_angle_beta 28.459420
_cell_angle_gamma 52.620946
_cell_volume 701.210324
_symmetry_space_group_name_H-M "P -1"
_symmetry_group_IT_number 2
_symmetry_cell_setting 'triclinic'
loop_
_space_group_symop_operation_xyz
x,y,z
-x,-y,-z
loop_
_atom_site_type_symbol
_atom_site_label
_atom_site_fract_x
_atom_site_fract_y
_atom_site_fract_z
Si Si1 0.580777 0.047757 0.196218
Si Si2 0.456513 0.578014 0.651747
Si Si3 0.157292 0.577216 0.114644
Si Si4 0.970450 0.061159 0.278598
Si Si5 0.558456 0.184851 0.031684
Si Si6 0.246283 0.207664 0.587638
Si Si7 0.823069 0.286070 0.075838
Si Si8 0.194106 0.886043 0.480893
O O1 0.401256 0.972786 0.357937
O O2 0.445983 0.116534 0.178939
O O3 0.604193 0.215001 0.195607
O O4 0.885649 0.892212 0.035647
O O5 0.266361 0.733988 0.664757
O O6 0.675816 0.648015 0.533736
O O7 0.283685 0.583463 0.818542
O O8 0.614842 0.349669 0.586624
O O9 0.303709 0.341584 0.098512
O O10 0.864533 0.682123 0.295170
O O11 0.299153 0.698978 0.037971
O O12 0.142410 0.584439 0.034940
O O13 0.983411 0.087081 0.351966
O O14 0.954920 0.852350 0.324902
O O15 0.248917 0.001136 0.090874
O O16 0.500000 0.000000 0.500000
O O17 0.000000 0.000000 0.500000
#
# Coordination Sequence:
#
# PCOD8012396 Si02
#       8
#     2   2   2   2   2   2   2   2
#     4  10  22  42  67  94 129 164 206 273 317 378
#     4  11  23  42  63  95 127 170 217 261 319 388
#     4   9  19  33  62 100 126 153 202 268 325 370
#     4  10  21  44  66  89 122 172 218 267 312 379
#     4   9  18  38  62  92 127 159 205 263 324 372
#     4   9  20  36  68  96 123 161 215 266 313 372
#     4  10  21  39  72 100 119 156 221 275 316 361
#     4  12  29  44  59  89 140 177 211 254 324 390
#
# _framework density 22.817691
#
# number of rings (size 3 to 8) (size 9 to 14) (size 15 to 20)
#    0.000    2.000    1.250    1.125   12.250    0.500 
#    0.000    1.875    0.000    0.000    0.000    0.000 
#    0.000    0.000    0.000    0.000    0.000    0.000 
#
# Total GULP energy -198253.295137 kJ/mol
# GULP energy per Si atom -12390.830946 kJ/mol
# Density = 2.276576 g / cm^3
# Si number density = 22.817691 Si / 1000 Ang^3
#
#
#
# Elastic Constant Matrix: (Units=GPa)
#
#
# Indices 1 2 3 4 5 6 
#
# 1 86.2320 34.0027 24.3482 7.3315 32.5015 -20.1603
# 2 34.0027 108.0527 26.4981 12.9209 11.7293 -23.8230
# 3 24.3482 26.4981 83.2054 12.3371 30.3624 -6.2020
# 4 7.3315 12.9209 12.3371 26.8854 3.1934 5.0663
# 5 32.5015 11.7293 30.3624 3.1934 43.2413 -5.5748
# 6 -20.1603 -23.8230 -6.2020 5.0663 -5.5748 25.1155
#
#
#
# Elastic Compliance Matrix: (Units=1/GPa)
#
#
# Indices 1 2 3 4 5 6 
#
# 1 0.020891 -0.001582 0.001537 -0.006579 -0.014081 0.013850
# 2 -0.001582 0.014090 -0.002325 -0.007958 0.001317 0.013418
# 3 0.001537 -0.002325 0.017931 -0.006438 -0.012381 0.002007
# 4 -0.006579 -0.007958 -0.006438 0.049573 0.004956 -0.023319
# 5 -0.014081 0.001317 -0.012381 0.004956 0.041035 -0.005002
# 6 0.013850 0.013418 0.002007 -0.023319 -0.005002 0.067750
#
#
# Mechanical properties :
#
#
# Convention : Reuss Voigt Hill
#
# Bulk Modulus (GPa) = 20.75924 49.68757 35.22340
# Shear Modulus (GPa) = 21.54541 31.89117 26.71829
#
# Velocity S-wave (km/s) = 3.07618 3.74257 3.42562
# Velocity P-wave (km/s) = 4.66206 6.36388 5.57825
#
# Compressibility (1/GPa) = 0.04817133
#
# Stress axis : x y z
#
# Youngs Moduli (GPa) = 47.86725 70.97337 55.76913
#
# Poissons Ratio (x) = 0.11230 -0.08569
# Poissons Ratio (y) = 0.07574 0.12964
# Poissons Ratio (z) = -0.07355 0.16499
#
# Static dielectric constant tensor:
#      x y z
#    x 4.082420 0.251470 -0.075730 
#    y 0.251470 4.836730 -0.396900 
#    z -0.075730 -0.396900 4.513930 
# 
# 
# High freq. dielectric constant tensor:
#      x y z
#    x 1.876680 -0.004960 0.015830 
#    y -0.004960 1.892660 0.000310 
#    z 0.015830 0.000310 1.911860 
# 
# From -- ./inp_files/566619.got.cif
#   From: 2010.06.25/outbox.cif.g09.slc.cpg/sg2_284_cif.got.tgz:566619.got - 2010.06.27 13:26:56.
