data_PCOD8012063
_publ_section_title
;
Structure prediction by ZEFSAII (Michael W. Deem and Ramdas Pophale) SiO2 
 PCOD8012063
Probable space group: P -1
;
_chemical_formula_sum "Si O2"
_cell_formula_units_Z 14
_cell_length_a 6.501203
_cell_length_b 22.232582
_cell_length_c 8.274401
_cell_angle_alpha 40.583705
_cell_angle_beta 85.784494
_cell_angle_gamma 106.311882
_cell_volume 663.281093
_symmetry_space_group_name_H-M "P -1"
_symmetry_group_IT_number 2
_symmetry_cell_setting 'triclinic'
loop_
_space_group_symop_operation_xyz
x,y,z
-x,-y,-z
loop_
_atom_site_type_symbol
_atom_site_label
_atom_site_fract_x
_atom_site_fract_y
_atom_site_fract_z
Si Si1 0.253530 0.407791 0.333563
Si Si2 0.228066 0.501973 0.832503
Si Si3 0.815748 0.127924 0.587302
Si Si4 0.229893 0.686982 0.922027
Si Si5 0.505531 0.884456 0.081878
Si Si6 0.225168 0.689296 0.284162
Si Si7 0.679565 0.760485 0.532887
O O1 0.515801 0.492819 0.219162
O O2 0.269816 0.318653 0.410886
O O3 0.059310 0.352215 0.600735
O O4 0.160814 0.469283 0.092937
O O5 0.284763 0.621676 0.545581
O O6 0.028517 0.414548 0.903949
O O7 0.774496 0.203365 0.314530
O O8 0.711987 0.128290 0.769261
O O9 0.098342 0.171229 0.497401
O O10 0.679816 0.007990 0.764951
O O11 0.435955 0.690051 0.793619
O O12 0.283325 0.672657 0.133139
O O13 0.388561 0.814195 0.070877
O O14 0.664073 0.846264 0.245272
#
# Coordination Sequence:
#
# PCOD8012063 Si02
#       7
#     2   2   2   2   2   2   2
#     4  11  23  38  69  86 113 159 210 243 288 347
#     4  11  24  41  60  91 120 158 200 248 290 354
#     4  10  21  41  64  89 118 157 199 249 293 351
#     4  11  26  39  59  88 131 156 190 242 310 349
#     4  10  21  39  66  90 116 153 207 247 289 346
#     4  12  24  41  59  91 123 160 193 245 296 361
#     4  11  20  42  62  92 114 156 202 249 293 347
#
# _framework density 21.107189000000002
#
# number of rings (size 3 to 8) (size 9 to 14) (size 15 to 20)
#    0.000    1.143    4.286    2.143    4.000    2.286 
#    0.000    0.714    0.000    0.000    0.000    0.000 
#    0.000    0.000    0.000    0.000    0.000    0.000 
#
# Total GULP energy -173638.738005 kJ/mol
# GULP energy per Si atom -12402.767000 kJ/mol
# Density = 2.105915 g / cm^3
# Si number density = 21.107189 Si / 1000 Ang^3
#
#
#
# Elastic Constant Matrix: (Units=GPa)
#
#
# Indices 1 2 3 4 5 6 
#
# 1 66.7658 17.0232 23.4356 -6.8700 -4.8148 14.6987
# 2 17.0232 84.2078 32.6947 -14.4546 0.0509 8.4125
# 3 23.4356 32.6947 77.6449 -20.2051 4.8663 -1.3421
# 4 -6.8700 -14.4546 -20.2051 34.9720 -1.6540 -3.5578
# 5 -4.8148 0.0509 4.8663 -1.6540 23.2674 -6.4081
# 6 14.6987 8.4125 -1.3421 -3.5578 -6.4081 28.7589
#
#
#
# Elastic Compliance Matrix: (Units=1/GPa)
#
#
# Indices 1 2 3 4 5 6 
#
# 1 0.019530 -0.000763 -0.006130 -0.000869 0.002629 -0.009566
# 2 -0.000763 0.014985 -0.005510 0.002462 0.000053 -0.003934
# 3 -0.006130 -0.005510 0.019492 0.008242 -0.003099 0.005983
# 4 -0.000869 0.002462 0.008242 0.034785 0.001895 0.004834
# 5 0.002629 0.000053 -0.003099 0.001895 0.046830 0.009165
# 6 -0.009566 -0.003934 0.005983 0.004834 0.009165 0.043731
#
#
# Mechanical properties :
#
#
# Convention : Reuss Voigt Hill
#
# Bulk Modulus (GPa) = 34.24559 41.65839 37.95199
# Shear Modulus (GPa) = 23.37633 27.76398 25.57015
#
# Velocity S-wave (km/s) = 3.33153 3.63075 3.48435
# Velocity P-wave (km/s) = 5.57303 6.11195 5.84870
#
# Compressibility (1/GPa) = 0.02920084
#
# Stress axis : x y z
#
# Youngs Moduli (GPa) = 51.20292 66.73509 51.30358
#
# Poissons Ratio (x) = 0.05094 0.31447
# Poissons Ratio (y) = 0.03909 0.28268
# Poissons Ratio (z) = 0.31386 0.36770
#
# Static dielectric constant tensor:
#      x y z
#    x 4.096410 0.134800 -0.008630 
#    y 0.134800 3.481870 -0.298190 
#    z -0.008630 -0.298190 3.879160 
# 
# 
# High freq. dielectric constant tensor:
#      x y z
#    x 1.842090 0.009040 0.001280 
#    y 0.009040 1.804860 -0.025450 
#    z 0.001280 -0.025450 1.824120 
# 
# From -- ./inp_files/51488.got.cif
#   From: 2010.06.25/outbox.cif.g09.slc.cpg/sg2_26_cif.got.tgz:51488.got - 2010.06.27 13:26:56.
