data_PCOD8012168
_publ_section_title
;
Structure prediction by ZEFSAII (Michael W. Deem and Ramdas Pophale) SiO2 
 PCOD8012168
Probable space group: P -1
;
_chemical_formula_sum "Si O2"
_cell_formula_units_Z 16
_cell_length_a 8.663546
_cell_length_b 14.471905
_cell_length_c 11.938623
_cell_angle_alpha 69.122532
_cell_angle_beta 113.320843
_cell_angle_gamma 146.310024
_cell_volume 761.392617
_symmetry_space_group_name_H-M "P -1"
_symmetry_group_IT_number 2
_symmetry_cell_setting 'triclinic'
loop_
_space_group_symop_operation_xyz
x,y,z
-x,-y,-z
loop_
_atom_site_type_symbol
_atom_site_label
_atom_site_fract_x
_atom_site_fract_y
_atom_site_fract_z
Si Si1 0.457318 0.780383 0.989778
Si Si2 0.766423 0.684094 0.535280
Si Si3 0.481934 0.109612 0.799576
Si Si4 0.021682 0.733658 0.805049
Si Si5 0.332736 0.156466 0.517106
Si Si6 0.851073 0.103900 0.844608
Si Si7 0.284257 0.978996 0.409489
Si Si8 0.501912 0.574095 0.073102
O O1 0.202894 0.721347 0.885578
O O2 0.759274 0.968558 0.955379
O O3 0.452348 0.788098 0.120353
O O4 0.412627 0.646115 0.994478
O O5 0.500000 0.500000 0.500000
O O6 0.970377 0.722405 0.662899
O O7 0.593783 0.694065 0.536424
O O8 0.964273 0.807818 0.434247
O O9 0.474686 0.171835 0.658937
O O10 0.736636 0.151826 0.843091
O O11 0.189592 0.910160 0.821748
O O12 0.713670 0.579427 0.837605
O O13 0.411702 0.139493 0.431463
O O14 0.000000 0.000000 0.500000
O O15 0.709241 0.011765 0.725345
O O16 0.185269 0.271863 0.852218
O O17 0.500000 0.000000 0.500000
O O18 0.500000 0.500000 0.000000
#
# Coordination Sequence:
#
# PCOD8012168 Si02
#       8
#     2   2   2   2   2   2   2   2
#     4  11  25  42  67  95 122 177 214 254 316 388
#     4  11  24  41  63  96 128 168 215 255 315 381
#     4  11  21  43  69  94 124 167 222 255 309 388
#     4  11  22  43  65  92 129 169 209 264 314 381
#     4  10  21  39  67  93 124 171 213 257 308 379
#     4  11  23  41  67  95 129 165 208 270 315 375
#     4  11  20  41  65  95 126 163 212 260 317 364
#     4  12  26  42  60  96 134 163 209 266 322 370
#
# _framework density 21.014125
#
# number of rings (size 3 to 8) (size 9 to 14) (size 15 to 20)
#    0.000    1.000    3.750    5.250    5.250    1.000 
#    0.000    0.625    0.000    0.000    0.000    0.000 
#    0.000    0.000    0.000    0.000    0.000    0.000 
#
# Total GULP energy -198319.345799 kJ/mol
# GULP energy per Si atom -12394.959112 kJ/mol
# Density = 2.096630 g / cm^3
# Si number density = 21.014125 Si / 1000 Ang^3
#
#
#
# Elastic Constant Matrix: (Units=GPa)
#
#
# Indices 1 2 3 4 5 6 
#
# 1 116.3318 41.0040 29.4028 10.9641 -7.6824 -27.7807
# 2 41.0040 94.6276 15.9300 4.1256 0.9171 -5.4302
# 3 29.4028 15.9300 90.6366 13.4528 -4.3799 -14.7581
# 4 10.9641 4.1256 13.4528 23.1106 2.1876 -10.3802
# 5 -7.6824 0.9171 -4.3799 2.1876 33.4083 2.9721
# 6 -27.7807 -5.4302 -14.7581 -10.3802 2.9721 43.2903
#
#
#
# Elastic Compliance Matrix: (Units=1/GPa)
#
#
# Indices 1 2 3 4 5 6 
#
# 1 0.012522 -0.004707 -0.001891 -0.001381 0.002290 0.006312
# 2 -0.004707 0.012702 -0.001042 -0.000057 -0.001413 -0.001700
# 3 -0.001891 -0.001042 0.013044 -0.005952 0.001554 0.001568
# 4 -0.001381 -0.000057 -0.005952 0.052412 -0.005419 0.010017
# 5 0.002290 -0.001413 0.001554 -0.005419 0.031201 -0.001620
# 6 0.006312 -0.001700 0.001568 0.010017 -0.001620 0.029985
#
#
# Mechanical properties :
#
#
# Convention : Reuss Voigt Hill
#
# Bulk Modulus (GPa) = 43.50458 52.69663 48.10060
# Shear Modulus (GPa) = 28.60262 34.31246 31.45754
#
# Velocity S-wave (km/s) = 3.69333 4.04521 3.87327
# Velocity P-wave (km/s) = 6.23980 6.85197 6.55304
#
# Compressibility (1/GPa) = 0.02298609
#
# Stress axis : x y z
#
# Youngs Moduli (GPa) = 79.85835 78.73018 76.66555
#
# Poissons Ratio (x) = 0.37062 0.14501
# Poissons Ratio (y) = 0.37593 0.07987
# Poissons Ratio (z) = 0.15105 0.08202
#
# Static dielectric constant tensor:
#      x y z
#    x 2.400080 2.812890 0.938760 
#    y 2.812890 -0.733230 -1.484580 
#    z 0.938760 -1.484580 3.205280 
# 
# 
# High freq. dielectric constant tensor:
#      x y z
#    x 1.834500 -0.003610 0.003070 
#    y -0.003610 1.817010 0.008450 
#    z 0.003070 0.008450 1.823800 
# 
# From -- ./inp_files/206270.got.cif
#   From: 2010.06.25/outbox.cif.g09.slc.cpg/sg2_104_cif.got.tgz:206270.got - 2010.06.27 13:26:56.
