data_PCOD8012390
_publ_section_title
;
Structure prediction by ZEFSAII (Michael W. Deem and Ramdas Pophale) SiO2 
 PCOD8012390
Probable space group: P -1
;
_chemical_formula_sum "Si O2"
_cell_formula_units_Z 12
_cell_length_a 11.407224
_cell_length_b 8.812290
_cell_length_c 7.550651
_cell_angle_alpha 54.179427
_cell_angle_beta 123.260092
_cell_angle_gamma 102.340703
_cell_volume 508.157248
_symmetry_space_group_name_H-M "P -1"
_symmetry_group_IT_number 2
_symmetry_cell_setting 'triclinic'
loop_
_space_group_symop_operation_xyz
x,y,z
-x,-y,-z
loop_
_atom_site_type_symbol
_atom_site_label
_atom_site_fract_x
_atom_site_fract_y
_atom_site_fract_z
Si Si1 0.455857 0.970729 0.784537
Si Si2 0.744660 0.304725 0.223145
Si Si3 0.152723 0.458360 0.565486
Si Si4 0.761030 0.945370 0.975794
Si Si5 0.128732 0.690832 0.034563
Si Si6 0.834697 0.904127 0.671083
O O1 0.321168 0.128507 0.505874
O O2 0.410369 0.760836 0.873878
O O3 0.500000 0.000000 0.000000
O O4 0.592087 0.989325 0.763334
O O5 0.739292 0.452722 0.277611
O O6 0.791976 0.397513 0.016783
O O7 0.860613 0.114970 0.488855
O O8 0.206058 0.234696 0.743791
O O9 0.000000 0.500000 0.500000
O O10 0.157040 0.540742 0.316981
O O11 0.810431 0.118991 0.998677
O O12 0.844664 0.899384 0.895119
O O13 0.959865 0.741934 0.817460
#
# Coordination Sequence:
#
# PCOD8012390 Si02
#       6
#     2   2   2   2   2   2
#     4  10  22  42  68 101 132 183 231 268 338 411
#     4  10  24  42  69 103 136 174 232 276 337 405
#     4  12  26  43  68 108 136 175 228 281 344 399
#     4  12  22  44  74  96 139 183 224 278 344 403
#     4  12  22  47  72  99 139 177 224 289 333 403
#     4  10  21  39  71  96 129 181 222 272 339 392
#
# _framework density 23.614737999999999
#
# number of rings (size 3 to 8) (size 9 to 14) (size 15 to 20)
#    1.000    0.000    5.000    2.500    0.000    2.667 
#    6.000    0.833    0.000    0.000    0.000    0.000 
#    0.000    0.000    0.000    0.000    0.000    0.000 
#
# Total GULP energy -148782.192961 kJ/mol
# GULP energy per Si atom -12398.516080 kJ/mol
# Density = 2.356099 g / cm^3
# Si number density = 23.614738 Si / 1000 Ang^3
#
#
#
# Elastic Constant Matrix: (Units=GPa)
#
#
# Indices 1 2 3 4 5 6 
#
# 1 77.9134 -2.4144 25.1803 8.0557 -1.5130 22.2532
# 2 -2.4144 68.0120 34.7691 8.7944 5.6271 24.1074
# 3 25.1803 34.7691 143.7997 -5.0246 -14.7257 6.6501
# 4 8.0557 8.7944 -5.0246 29.4350 6.2290 2.3497
# 5 -1.5130 5.6271 -14.7257 6.2290 45.1395 8.6160
# 6 22.2532 24.1074 6.6501 2.3497 8.6160 29.6597
#
#
#
# Elastic Compliance Matrix: (Units=1/GPa)
#
#
# Indices 1 2 3 4 5 6 
#
# 1 0.026348 0.017405 -0.007305 -0.011947 0.004192 -0.032548
# 2 0.017405 0.036419 -0.010286 -0.014710 0.002327 -0.039864
# 3 -0.007305 -0.010286 0.010607 0.005682 0.001706 0.010517
# 4 -0.011947 -0.014710 0.005682 0.042440 -0.006011 0.018030
# 5 0.004192 0.002327 0.001706 -0.006011 0.025762 -0.012426
# 6 -0.032548 -0.039864 0.010517 0.018030 -0.012426 0.090361
#
#
# Mechanical properties :
#
#
# Convention : Reuss Voigt Hill
#
# Bulk Modulus (GPa) = 13.69817 44.97722 29.33770
# Shear Modulus (GPa) = 19.48228 36.32617 27.90423
#
# Velocity S-wave (km/s) = 2.87541 3.92635 3.44123
# Velocity P-wave (km/s) = 4.10332 6.29624 5.31412
#
# Compressibility (1/GPa) = 0.07300244
#
# Stress axis : x y z
#
# Youngs Moduli (GPa) = 37.95398 27.45800 94.27650
#
# Poissons Ratio (x) = -0.47790 0.68868
# Poissons Ratio (y) = -0.66058 0.96969
# Poissons Ratio (z) = 0.27725 0.28242
#
# Static dielectric constant tensor:
#      x y z
#    x 4.359060 0.294140 -0.094650 
#    y 0.294140 4.188620 0.087920 
#    z -0.094650 0.087920 4.181170 
# 
# 
# High freq. dielectric constant tensor:
#      x y z
#    x 1.926660 0.011900 -0.015810 
#    y 0.011900 1.933170 0.014810 
#    z -0.015810 0.014810 1.932370 
# 
# From -- ./inp_files/242288.got.cif
#   From: 2010.06.25/outbox.cif.g09.slc.cpg/sg2_122_cif.got.tgz:242288.got - 2010.06.27 13:26:56.
