data_PCOD8012842
_publ_section_title
;
Structure prediction by ZEFSAII (Michael W. Deem and Ramdas Pophale) SiO2 
 PCOD8012842
Probable space group: P -1
;
_chemical_formula_sum "Si O2"
_cell_formula_units_Z 16
_cell_length_a 19.068065
_cell_length_b 16.965005
_cell_length_c 7.883464
_cell_angle_alpha 147.088432
_cell_angle_beta 43.257223
_cell_angle_gamma 148.928378
_cell_volume 714.757959
_symmetry_space_group_name_H-M "P -1"
_symmetry_group_IT_number 2
_symmetry_cell_setting 'triclinic'
loop_
_space_group_symop_operation_xyz
x,y,z
-x,-y,-z
loop_
_atom_site_type_symbol
_atom_site_label
_atom_site_fract_x
_atom_site_fract_y
_atom_site_fract_z
Si Si1 0.711385 0.474904 0.721861
Si Si2 0.333584 0.268982 0.217881
Si Si3 0.926164 0.810602 0.397388
Si Si4 0.054330 0.333250 0.574310
Si Si5 0.193965 0.733980 0.221822
Si Si6 0.862281 0.459718 0.696646
Si Si7 0.392547 0.333598 0.599333
Si Si8 0.411791 0.154707 0.561648
O O1 0.832887 0.648142 0.700296
O O2 0.768046 0.385793 0.562092
O O3 0.575409 0.298046 0.540873
O O4 0.676081 0.572974 0.088233
O O5 0.197095 0.229694 0.360227
O O6 0.335907 0.209094 0.300029
O O7 0.447336 0.496765 0.399190
O O8 0.349312 0.155139 0.849465
O O9 0.004515 0.810768 0.420041
O O10 0.891762 0.652500 0.041984
O O11 0.000000 0.000000 0.500000
O O12 0.923105 0.250749 0.543478
O O13 0.140395 0.556419 0.876594
O O14 0.222149 0.701920 0.302846
O O15 0.338978 0.931495 0.257777
O O16 0.000000 0.500000 0.500000
O O17 0.364957 0.211188 0.590682
#
# Coordination Sequence:
#
# PCOD8012842 Si02
#       8
#     2   2   2   2   2   2   2   2
#     4  11  21  42  70  94 125 182 219 265 341 400
#     4  10  21  40  63  98 132 169 211 276 338 384
#     4  11  24  39  66  99 124 170 229 274 324 397
#     4  10  22  43  66  87 133 177 218 265 342 392
#     4  10  24  42  61  93 131 177 215 274 329 395
#     4  11  23  43  63  89 137 175 217 266 332 396
#     4  10  21  41  67  97 134 171 212 277 344 396
#     4  11  24  41  67 103 134 165 227 280 332 396
#
# _framework density 22.385199
#
# number of rings (size 3 to 8) (size 9 to 14) (size 15 to 20)
#    0.000    1.500    2.500    3.000    3.500    1.000 
#    2.250    1.875    0.000    0.000    0.000    0.000 
#    0.000    0.000    0.000    0.000    0.000    0.000 
#
# Total GULP energy -198316.261629 kJ/mol
# GULP energy per Si atom -12394.766352 kJ/mol
# Density = 2.233425 g / cm^3
# Si number density = 22.385199 Si / 1000 Ang^3
#
#
#
# Elastic Constant Matrix: (Units=GPa)
#
#
# Indices 1 2 3 4 5 6 
#
# 1 146.2142 50.8581 29.3306 10.0023 -6.9513 -23.3158
# 2 50.8581 99.5970 25.0513 1.8297 -12.0023 -19.1154
# 3 29.3306 25.0513 35.9222 0.2156 -5.8165 -11.5032
# 4 10.0023 1.8297 0.2156 34.6959 -3.3456 -9.0634
# 5 -6.9513 -12.0023 -5.8165 -3.3456 31.2134 -8.4418
# 6 -23.3158 -19.1154 -11.5032 -9.0634 -8.4418 34.4943
#
#
#
# Elastic Compliance Matrix: (Units=1/GPa)
#
#
# Indices 1 2 3 4 5 6 
#
# 1 0.009402 -0.002983 -0.004537 -0.001695 0.000708 0.002917
# 2 -0.002983 0.014747 -0.004687 0.002480 0.006229 0.006769
# 3 -0.004537 -0.004687 0.039518 0.004888 0.007983 0.010752
# 4 -0.001695 0.002480 0.004888 0.033279 0.008484 0.012679
# 5 0.000708 0.006229 0.007983 0.008484 0.042164 0.019141
# 6 0.002917 0.006769 0.010752 0.012679 0.019141 0.046314
#
#
# Mechanical properties :
#
#
# Convention : Reuss Voigt Hill
#
# Bulk Modulus (GPa) = 25.47682 54.69039 40.08361
# Shear Modulus (GPa) = 22.42917 31.84694 27.13806
#
# Velocity S-wave (km/s) = 3.16882 3.77593 3.48562
# Velocity P-wave (km/s) = 4.97939 6.59506 5.84333
#
# Compressibility (1/GPa) = 0.03925136
#
# Stress axis : x y z
#
# Youngs Moduli (GPa) = 106.36136 67.81000 25.30514
#
# Poissons Ratio (x) = 0.20231 0.11482
# Poissons Ratio (y) = 0.31732 0.11860
# Poissons Ratio (z) = 0.48259 0.31782
#
# Static dielectric constant tensor:
#      x y z
#    x 4.090620 0.122210 0.018750 
#    y 0.122210 3.822400 -0.173330 
#    z 0.018750 -0.173330 3.809220 
# 
# 
# High freq. dielectric constant tensor:
#      x y z
#    x 1.897950 -0.007770 -0.000250 
#    y -0.007770 1.879390 -0.017700 
#    z -0.000250 -0.017700 1.858750 
# 
# From -- ./inp_files/316097.got.cif
#   From: 2010.06.25/outbox.cif.g09.slc.cpg/sg2_159_cif.got.tgz:316097.got - 2010.06.27 13:26:56.
