data_PCOD8012473
_publ_section_title
;
Structure prediction by ZEFSAII (Michael W. Deem and Ramdas Pophale) SiO2 
 PCOD8012473
Probable space group: P -1
;
_chemical_formula_sum "Si O2"
_cell_formula_units_Z 16
_cell_length_a 9.097400
_cell_length_b 23.153240
_cell_length_c 7.919363
_cell_angle_alpha 46.142078
_cell_angle_beta 82.684010
_cell_angle_gamma 49.042620
_cell_volume 726.540276
_symmetry_space_group_name_H-M "P -1"
_symmetry_group_IT_number 2
_symmetry_cell_setting 'triclinic'
loop_
_space_group_symop_operation_xyz
x,y,z
-x,-y,-z
loop_
_atom_site_type_symbol
_atom_site_label
_atom_site_fract_x
_atom_site_fract_y
_atom_site_fract_z
Si Si1 0.915186 0.417706 0.722824
Si Si2 0.603145 0.156377 0.841446
Si Si3 0.617519 0.685026 0.128307
Si Si4 0.451113 0.990153 0.338554
Si Si5 0.223141 0.915535 0.518202
Si Si6 0.004953 0.268363 0.318156
Si Si7 0.850942 0.741281 0.331538
Si Si8 0.083375 0.869262 0.335836
O O1 0.665859 0.575746 0.418285
O O2 0.126624 0.386303 0.817553
O O3 0.977819 0.352984 0.662520
O O4 0.878017 0.371200 0.975710
O O5 0.532230 0.190386 0.980174
O O6 0.340740 0.247336 0.609972
O O7 0.721996 0.193543 0.712844
O O8 0.792449 0.003660 0.075937
O O9 0.445543 0.758557 0.841611
O O10 0.292712 0.978230 0.385155
O O11 0.708212 0.860301 0.483291
O O12 0.500000 0.000000 0.500000
O O13 0.307560 0.114330 0.992582
O O14 0.139454 0.922728 0.334349
O O15 0.000000 0.000000 0.500000
O O16 0.973418 0.317912 0.412365
O O17 0.871519 0.239289 0.385732
#
# Coordination Sequence:
#
# PCOD8012473 Si02
#       8
#     2   2   2   2   2   2   2   2
#     4  10  23  44  68  92 126 169 225 270 306 375
#     4  10  21  40  59  94 132 162 205 267 325 384
#     4  10  21  44  67  91 125 170 215 269 319 375
#     4  12  21  38  65  97 133 163 216 271 319 378
#     4  12  23  37  65  96 129 169 205 265 335 383
#     4  12  23  41  65  96 129 171 217 269 316 378
#     4  11  23  39  68  96 126 169 218 268 319 376
#     4  11  24  37  60  97 133 163 206 263 333 385
#
# _framework density 22.022179999999999
#
# number of rings (size 3 to 8) (size 9 to 14) (size 15 to 20)
#    0.000    1.000    5.000    2.625    3.500    0.000 
#    2.250    3.125    0.000    0.000    0.000    0.000 
#    0.000    0.000    0.000    0.000    0.000    0.000 
#
# Total GULP energy -198228.884328 kJ/mol
# GULP energy per Si atom -12389.305270 kJ/mol
# Density = 2.197206 g / cm^3
# Si number density = 22.022180 Si / 1000 Ang^3
#
#
#
# Elastic Constant Matrix: (Units=GPa)
#
#
# Indices 1 2 3 4 5 6 
#
# 1 114.4156 18.4749 11.5558 9.2680 -16.8016 -3.2895
# 2 18.4749 59.4890 28.2816 12.2357 3.6995 6.9282
# 3 11.5558 28.2816 75.4368 0.6365 -26.3049 -3.3614
# 4 9.2680 12.2357 0.6365 29.1897 0.1264 2.4292
# 5 -16.8016 3.6995 -26.3049 0.1264 33.4644 9.7284
# 6 -3.2895 6.9282 -3.3614 2.4292 9.7284 32.0797
#
#
#
# Elastic Compliance Matrix: (Units=1/GPa)
#
#
# Indices 1 2 3 4 5 6 
#
# 1 0.010575 -0.005067 0.003217 -0.001347 0.008381 0.000076
# 2 -0.005067 0.029953 -0.016887 -0.010299 -0.018393 -0.002400
# 3 0.003217 -0.016887 0.028009 0.005447 0.025869 -0.001346
# 4 -0.001347 -0.010299 0.005447 0.039017 0.005136 -0.001855
# 5 0.008381 -0.018393 0.025869 0.005136 0.059616 -0.010925
# 6 0.000076 -0.002400 -0.001346 -0.001855 -0.010925 0.035011
#
#
# Mechanical properties :
#
#
# Convention : Reuss Voigt Hill
#
# Bulk Modulus (GPa) = 32.19156 40.66289 36.42723
# Shear Modulus (GPa) = 19.99918 31.68203 25.84061
#
# Velocity S-wave (km/s) = 3.01680 3.79706 3.42919
# Velocity P-wave (km/s) = 5.17536 6.14232 5.67946
#
# Compressibility (1/GPa) = 0.03106404
#
# Stress axis : x y z
#
# Youngs Moduli (GPa) = 94.55945 33.38519 35.70251
#
# Poissons Ratio (x) = 0.16915 -0.11485
# Poissons Ratio (y) = 0.47911 0.60291
# Poissons Ratio (z) = -0.30419 0.56378
#
# Static dielectric constant tensor:
#      x y z
#    x 4.215380 0.020590 -0.034020 
#    y 0.020590 3.715850 0.177580 
#    z -0.034020 0.177580 4.134370 
# 
# 
# High freq. dielectric constant tensor:
#      x y z
#    x 1.864610 -0.004800 -0.005160 
#    y -0.004800 1.862510 0.015310 
#    z -0.005160 0.015310 1.852620 
# 
# From -- ./inp_files/227327.got.cif
#   From: 2010.06.25/outbox.cif.g09.slc.cpg/sg2_114_cif.got.tgz:227327.got - 2010.06.27 13:26:56.
