data_PCOD8012798
_publ_section_title
;
Structure prediction by ZEFSAII (Michael W. Deem and Ramdas Pophale) SiO2 
 PCOD8012798
Probable space group: P -1
;
_chemical_formula_sum "Si O2"
_cell_formula_units_Z 14
_cell_length_a 25.862807
_cell_length_b 26.764946
_cell_length_c 14.311772
_cell_angle_alpha 20.598341
_cell_angle_beta 159.332506
_cell_angle_gamma 169.007268
_cell_volume 643.556401
_symmetry_space_group_name_H-M "P -1"
_symmetry_group_IT_number 2
_symmetry_cell_setting 'triclinic'
loop_
_space_group_symop_operation_xyz
x,y,z
-x,-y,-z
loop_
_atom_site_type_symbol
_atom_site_label
_atom_site_fract_x
_atom_site_fract_y
_atom_site_fract_z
Si Si1 0.925990 0.837427 0.840990
Si Si2 0.563283 0.064508 0.884477
Si Si3 0.626766 0.810258 0.724841
Si Si4 0.380825 0.426029 0.527090
Si Si5 0.843388 0.766071 0.022189
Si Si6 0.812005 0.258954 0.531592
Si Si7 0.174909 0.574163 0.943095
O O1 0.614130 0.563811 0.752653
O O2 0.901311 0.895683 0.797541
O O3 0.110499 0.101138 0.634931
O O4 0.071725 0.805376 0.160100
O O5 0.519174 0.193932 0.575332
O O6 0.874038 0.291173 0.975500
O O7 0.350204 0.802071 0.918754
O O8 0.500000 0.000000 0.000000
O O9 0.386543 0.542629 0.851086
O O10 0.745954 0.791695 0.890499
O O11 0.871851 0.075937 0.738531
O O12 0.500000 0.500000 0.500000
O O13 0.314053 0.535999 0.232961
O O14 0.829020 0.345078 0.305195
O O15 0.000000 0.500000 0.500000
O O16 0.500000 0.000000 0.500000
#
# Coordination Sequence:
#
# PCOD8012798 Si02
#       7
#     2   2   2   2   2   2   2
#     4  12  24  43  71  96 133 174 232 271 340 405
#     4  12  26  44  69  98 140 188 232 275 338 421
#     4  10  21  40  63  92 134 159 224 266 330 375
#     4  12  27  46  68 100 138 179 225 284 344 410
#     4  10  22  39  64  95 122 173 207 283 319 393
#     4  12  25  45  74 105 137 180 233 291 355 417
#     4  12  27  47  71 101 144 184 229 290 352 407
#
# _framework density 21.754116
#
# number of rings (size 3 to 8) (size 9 to 14) (size 15 to 20)
#    0.000    0.571    0.000    8.571    4.000    0.000 
#    0.000    0.000    0.000    0.000    0.000    0.000 
#    0.000    0.000    0.000    0.000    0.000    0.000 
#
# Total GULP energy -173454.232512 kJ/mol
# GULP energy per Si atom -12389.588037 kJ/mol
# Density = 2.170460 g / cm^3
# Si number density = 21.754116 Si / 1000 Ang^3
#
#
#
# Elastic Constant Matrix: (Units=GPa)
#
#
# Indices 1 2 3 4 5 6 
#
# 1 -175.5896 392.0042 45.4727 -43.0655 -414.7659 -1.7614
# 2 392.0042 -224.1708 13.5793 54.5142 419.2330 -0.5128
# 3 45.4727 13.5793 127.5297 8.3482 12.7468 0.2457
# 4 -43.0655 54.5142 8.3482 31.9058 -55.1577 -1.0895
# 5 -414.7659 419.2330 12.7468 -55.1577 -452.6089 -1.4491
# 6 -1.7614 -0.5128 0.2457 -1.0895 -1.4491 39.6811
#
#
#
# Elastic Compliance Matrix: (Units=1/GPa)
#
#
# Indices 1 2 3 4 5 6 
#
# 1 0.005136 -0.000026 -0.001312 -0.000761 -0.004674 0.000044
# 2 -0.000026 0.006293 -0.001225 -0.000330 0.005857 0.000293
# 3 -0.001312 -0.001225 0.008469 -0.001131 0.000444 -0.000141
# 4 -0.000761 -0.000330 -0.001131 0.026278 -0.002845 0.000587
# 5 -0.004674 0.005857 0.000444 -0.002845 0.007858 0.000074
# 6 0.000044 0.000293 -0.000141 0.000587 0.000074 0.025226
#
#
# Mechanical properties :
#
#
# Convention : Reuss Voigt Hill
#
# Bulk Modulus (GPa) = 67.69064 69.98686 68.83875
# Shear Modulus (GPa) = 55.98503 -124.42355 -34.21926
#
# Velocity S-wave (km/s) = 5.07851 -7.57097 -3.97041
# Velocity P-wave (km/s) = 8.09766 6.64714 3.27014
#
# Compressibility (1/GPa) = 0.01477309
#
# Stress axis : x y z
#
# Youngs Moduli (GPa) = 194.71704 158.90669 118.07247
#
# Poissons Ratio (x) = 0.00406 0.15486
# Poissons Ratio (y) = 0.00498 0.14468
# Poissons Ratio (z) = 0.25538 0.19471
#
# Static dielectric constant tensor:
#      x y z
#    x 4.194540 0.030750 -0.023460 
#    y 0.030750 4.647460 0.177000 
#    z -0.023460 0.177000 4.024050 
# 
# 
# High freq. dielectric constant tensor:
#      x y z
#    x 1.875990 0.004980 0.000710 
#    y 0.004980 1.878590 0.003210 
#    z 0.000710 0.003210 1.862450 
# 
# From -- ./inp_files/544578.got.cif
#   From: 2010.06.25/outbox.cif.g09.slc.cpg/sg2_273_cif.got.tgz:544578.got - 2010.06.27 13:26:56.
