data_PCOD8012226
_publ_section_title
;
Structure prediction by ZEFSAII (Michael W. Deem and Ramdas Pophale) SiO2 
 PCOD8012226
Probable space group: P -1
;
_chemical_formula_sum "Si O2"
_cell_formula_units_Z 14
_cell_length_a 6.049553
_cell_length_b 5.119725
_cell_length_c 20.530185
_cell_angle_alpha 76.247520
_cell_angle_beta 90.599320
_cell_angle_gamma 78.991035
_cell_volume 605.225476
_symmetry_space_group_name_H-M "P -1"
_symmetry_group_IT_number 2
_symmetry_cell_setting 'triclinic'
loop_
_space_group_symop_operation_xyz
x,y,z
-x,-y,-z
loop_
_atom_site_type_symbol
_atom_site_label
_atom_site_fract_x
_atom_site_fract_y
_atom_site_fract_z
Si Si1 0.084084 0.803658 0.915637
Si Si2 0.062605 0.297078 0.419426
Si Si3 0.667265 0.689131 0.465295
Si Si4 0.267908 0.210659 0.979252
Si Si5 0.067199 0.018745 0.236660
Si Si6 0.736825 0.072122 0.342992
Si Si7 0.297554 0.439498 0.290562
O O1 0.279391 0.524959 0.940713
O O2 0.039788 0.843919 0.837276
O O3 0.857842 0.760863 0.953456
O O4 0.142572 0.079091 0.929419
O O5 0.889667 0.507239 0.447726
O O6 0.934948 0.090144 0.394162
O O7 0.257846 0.149050 0.480174
O O8 0.178778 0.469191 0.358497
O O9 0.500000 0.500000 0.500000
O O10 0.578178 0.891358 0.391643
O O11 0.500000 0.000000 0.000000
O O12 0.861547 0.952651 0.284306
O O13 0.206326 0.220602 0.259162
O O14 0.241504 0.735845 0.238446
O O15 0.568285 0.354979 0.306324
#
# Coordination Sequence:
#
# PCOD8012226 Si02
#       7
#     2   2   2   2   2   2   2
#     4  10  22  40  64  97 136 171 214 263 315 372
#     4  10  23  41  61  90 125 161 214 277 335 393
#     4  11  23  39  67  90 121 163 216 275 342 394
#     4  10  21  39  67  99 134 171 215 262 310 376
#     4  11  25  44  64  96 132 174 216 268 319 388
#     4  11  25  42  65  89 130 166 218 273 333 393
#     4  11  25  41  68  90 128 170 220 266 327 390
#
# _framework density 23.131872999999999
#
# number of rings (size 3 to 8) (size 9 to 14) (size 15 to 20)
#    0.000    1.429    1.429    2.571    4.000    5.714 
#    0.000    0.000    0.000    0.000    0.000    0.000 
#    0.000    0.000    0.000    0.000    0.000    0.000 
#
# Total GULP energy -173500.642967 kJ/mol
# GULP energy per Si atom -12392.903069 kJ/mol
# Density = 2.307922 g / cm^3
# Si number density = 23.131873 Si / 1000 Ang^3
#
#
#
# Elastic Constant Matrix: (Units=GPa)
#
#
# Indices 1 2 3 4 5 6 
#
# 1 72.9130 22.6919 42.9204 0.1798 8.0611 -11.1063
# 2 22.6919 120.4091 41.5331 -16.9076 -0.9097 -9.1817
# 3 42.9204 41.5331 148.9176 -8.4505 4.3474 -0.1751
# 4 0.1798 -16.9076 -8.4505 35.4757 -5.1519 10.2317
# 5 8.0611 -0.9097 4.3474 -5.1519 17.7015 -5.1779
# 6 -11.1063 -9.1817 -0.1751 10.2317 -5.1779 30.1660
#
#
#
# Elastic Compliance Matrix: (Units=1/GPa)
#
#
# Indices 1 2 3 4 5 6 
#
# 1 0.019212 -0.002165 -0.005022 -0.005377 -0.007150 0.006982
# 2 -0.002165 0.010197 -0.002071 0.004516 0.003744 0.001406
# 3 -0.005022 -0.002071 0.008860 0.002014 -0.000336 -0.003169
# 4 -0.005377 0.004516 0.002014 0.035365 0.009262 -0.010999
# 5 -0.007150 0.003744 -0.000336 0.009262 0.064607 0.006454
# 6 0.006982 0.001406 -0.003169 -0.010999 0.006454 0.040968
#
#
# Mechanical properties :
#
#
# Convention : Reuss Voigt Hill
#
# Bulk Modulus (GPa) = 50.62414 61.83670 56.23042
# Shear Modulus (GPa) = 24.47265 32.34160 28.40712
#
# Velocity S-wave (km/s) = 3.25616 3.74323 3.50816
# Velocity P-wave (km/s) = 6.00577 6.74334 6.38521
#
# Compressibility (1/GPa) = 0.01975342
#
# Stress axis : x y z
#
# Youngs Moduli (GPa) = 52.05079 98.06698 112.86076
#
# Poissons Ratio (x) = 0.21234 0.56673
# Poissons Ratio (y) = 0.11270 0.23377
# Poissons Ratio (z) = 0.26137 0.20313
#
# Static dielectric constant tensor:
#      x y z
#    x 4.387570 0.242780 -0.100440 
#    y 0.242780 4.627620 -0.208450 
#    z -0.100440 -0.208450 4.465050 
# 
# 
# High freq. dielectric constant tensor:
#      x y z
#    x 1.904540 -0.011940 0.002110 
#    y -0.011940 1.918150 0.001110 
#    z 0.002110 0.001110 1.916240 
# 
# From -- ./inp_files/14405.got.cif
#   From: 2010.06.25/outbox.cif.g09.slc.cpg/sg2_8_cif.got.tgz:14405.got - 2010.06.27 13:26:56.
