data_PCOD8012458
_publ_section_title
;
Structure prediction by ZEFSAII (Michael W. Deem and Ramdas Pophale) SiO2 
 PCOD8012458
Probable space group: P -1
;
_chemical_formula_sum "Si O2"
_cell_formula_units_Z 16
_cell_length_a 7.977628
_cell_length_b 23.164377
_cell_length_c 12.864851
_cell_angle_alpha 36.255206
_cell_angle_beta 125.223826
_cell_angle_gamma 144.880205
_cell_volume 784.493258
_symmetry_space_group_name_H-M "P -1"
_symmetry_group_IT_number 2
_symmetry_cell_setting 'triclinic'
loop_
_space_group_symop_operation_xyz
x,y,z
-x,-y,-z
loop_
_atom_site_type_symbol
_atom_site_label
_atom_site_fract_x
_atom_site_fract_y
_atom_site_fract_z
Si Si1 0.264202 0.968198 0.681687
Si Si2 0.311647 0.364991 0.757628
Si Si3 0.818405 0.032820 0.765870
Si Si4 0.276123 0.352075 0.004101
Si Si5 0.417433 0.615495 0.740278
Si Si6 0.859665 0.529294 0.587634
Si Si7 0.656124 0.782127 0.170578
Si Si8 0.043419 0.068849 0.573036
O O1 0.193546 0.001423 0.502576
O O2 0.609856 0.055672 0.668252
O O3 0.216240 0.025688 0.678381
O O4 0.054643 0.799743 0.862447
O O5 0.329819 0.348224 0.909188
O O6 0.648971 0.508642 0.629097
O O7 0.093582 0.379530 0.625041
O O8 0.196246 0.226599 0.860323
O O9 0.150922 0.173249 0.722101
O O10 0.848364 0.002075 0.704816
O O11 0.661206 0.897801 0.978809
O O12 0.306335 0.477491 0.849302
O O13 0.524486 0.380852 0.120853
O O14 0.723449 0.759961 0.587559
O O15 0.167369 0.610312 0.637575
O O16 0.688077 0.372743 0.709556
#
# Coordination Sequence:
#
# PCOD8012458 Si02
#       8
#     2   2   2   2   2   2   2   2
#     4  10  22  41  62  87 123 158 201 247 297 362
#     4   9  20  37  61  82 123 150 198 244 299 355
#     4  11  21  39  64  82 123 161 196 248 301 345
#     4  10  21  40  59  89 117 157 199 250 297 357
#     4  10  22  38  59  89 124 146 204 251 293 363
#     4   9  20  38  58  84 118 154 190 247 297 351
#     4   9  21  38  56  89 117 151 202 249 278 375
#     4  10  23  39  61  92 120 155 204 248 295 362
#
# _framework density 20.395330000000001
#
# number of rings (size 3 to 8) (size 9 to 14) (size 15 to 20)
#    0.750    1.500    0.000    1.875    3.500    1.000 
#    4.500    3.125    0.000    0.000    0.000    0.000 
#    0.000    0.000    0.000    0.000    0.000    0.000 
#
# Total GULP energy -198317.331681 kJ/mol
# GULP energy per Si atom -12394.833230 kJ/mol
# Density = 2.034891 g / cm^3
# Si number density = 20.395330 Si / 1000 Ang^3
#
#
#
# Elastic Constant Matrix: (Units=GPa)
#
#
# Indices 1 2 3 4 5 6 
#
# 1 89.2907 21.1663 24.8545 20.7838 7.4436 0.3656
# 2 21.1663 59.6914 25.1250 16.8267 3.9382 0.9235
# 3 24.8545 25.1250 53.1281 11.7863 14.3130 4.8470
# 4 20.7838 16.8267 11.7863 36.6393 -1.7540 8.0983
# 5 7.4436 3.9382 14.3130 -1.7540 26.8518 5.4385
# 6 0.3656 0.9235 4.8470 8.0983 5.4385 35.7667
#
#
#
# Elastic Compliance Matrix: (Units=1/GPa)
#
#
# Indices 1 2 3 4 5 6 
#
# 1 0.014481 -0.001301 -0.004153 -0.006935 -0.002550 0.002406
# 2 -0.001301 0.023018 -0.009091 -0.007346 0.000910 0.002176
# 3 -0.004153 -0.009091 0.029470 -0.003377 -0.013255 -0.000937
# 4 -0.006935 -0.007346 -0.003377 0.038187 0.009183 -0.009325
# 5 -0.002550 0.000910 -0.013255 0.009183 0.046984 -0.007424
# 6 0.002406 0.002176 -0.000937 -0.009325 -0.007424 0.031245
#
#
# Mechanical properties :
#
#
# Convention : Reuss Voigt Hill
#
# Bulk Modulus (GPa) = 26.40004 38.26685 32.33345
# Shear Modulus (GPa) = 22.21225 28.58252 25.39739
#
# Velocity S-wave (km/s) = 3.30371 3.74762 3.53265
# Velocity P-wave (km/s) = 5.24642 6.12613 5.70326
#
# Compressibility (1/GPa) = 0.03787872
#
# Stress axis : x y z
#
# Youngs Moduli (GPa) = 69.05743 43.44490 33.93262
#
# Poissons Ratio (x) = 0.05651 0.14094
# Poissons Ratio (y) = 0.08982 0.30848
# Poissons Ratio (z) = 0.28682 0.39495
#
# Static dielectric constant tensor:
#      x y z
#    x 3.356120 -0.107290 0.180520 
#    y -0.107290 3.654930 0.052030 
#    z 0.180520 0.052030 3.670750 
# 
# 
# High freq. dielectric constant tensor:
#      x y z
#    x 1.768050 -0.007430 0.015450 
#    y -0.007430 1.796600 0.005550 
#    z 0.015450 0.005550 1.802350 
# 
# From -- ./inp_files/406624.got.cif
#   From: 2010.06.25/outbox.cif.g09.slc.cpg/sg2_204_cif.got.tgz:406624.got - 2010.06.27 13:26:56.
