data_PCOD8012487
_publ_section_title
;
Structure prediction by ZEFSAII (Michael W. Deem and Ramdas Pophale) SiO2 
 PCOD8012487
Probable space group: P -1
;
_chemical_formula_sum "Si O2"
_cell_formula_units_Z 16
_cell_length_a 22.107136
_cell_length_b 9.424006
_cell_length_c 15.618638
_cell_angle_alpha 62.729536
_cell_angle_beta 160.543034
_cell_angle_gamma 128.204478
_cell_volume 748.404350
_symmetry_space_group_name_H-M "P -1"
_symmetry_group_IT_number 2
_symmetry_cell_setting 'triclinic'
loop_
_space_group_symop_operation_xyz
x,y,z
-x,-y,-z
loop_
_atom_site_type_symbol
_atom_site_label
_atom_site_fract_x
_atom_site_fract_y
_atom_site_fract_z
Si Si1 0.662061 0.305475 0.261641
Si Si2 0.824927 0.580624 0.667967
Si Si3 0.635654 0.803832 0.356157
Si Si4 0.792045 0.267227 0.273540
Si Si5 0.031009 0.726215 0.715144
Si Si6 0.184263 0.073403 0.619289
Si Si7 0.576035 0.998586 0.363864
Si Si8 0.714467 0.168711 0.681714
O O1 0.684893 0.183184 0.249915
O O2 0.887883 0.546421 0.501753
O O3 0.623464 0.196118 0.329696
O O4 0.428369 0.273182 0.930686
O O5 0.631521 0.610661 0.418395
O O6 0.903078 0.617836 0.663514
O O7 0.701555 0.349833 0.595516
O O8 0.046267 0.745107 0.976866
O O9 0.813188 0.931704 0.479277
O O10 0.708587 0.933445 0.505321
O O11 0.380126 0.731674 0.017452
O O12 0.000000 0.500000 0.500000
O O13 0.859986 0.136605 0.353708
O O14 0.014057 0.909030 0.621224
O O15 0.296914 0.816793 0.049349
O O16 0.696063 0.060737 0.599070
O O17 0.500000 0.000000 0.500000
#
# Coordination Sequence:
#
# PCOD8012487 Si02
#       8
#     2   2   2   2   2   2   2   2
#     4  11  21  39  59  92 125 167 206 254 296 361
#     4  10  23  43  66  89 122 157 205 257 317 373
#     4  10  21  42  60  89 126 165 201 250 305 368
#     4  11  21  39  62  91 134 174 204 247 303 363
#     4  11  23  38  62  95 121 166 208 253 307 362
#     4  10  21  40  60  86 134 166 205 248 300 362
#     4  12  22  39  66  90 125 156 212 258 307 368
#     4  11  23  44  68  91 119 158 202 265 323 366
#
# _framework density 21.378817999999999
#
# number of rings (size 3 to 8) (size 9 to 14) (size 15 to 20)
#    0.000    1.250    5.000    1.875    0.000    2.000 
#    2.250    0.625    0.000    0.000    0.000    0.000 
#    0.000    0.000    0.000    0.000    0.000    0.000 
#
# Total GULP energy -198360.108148 kJ/mol
# GULP energy per Si atom -12397.506759 kJ/mol
# Density = 2.133016 g / cm^3
# Si number density = 21.378818 Si / 1000 Ang^3
#
#
#
# Elastic Constant Matrix: (Units=GPa)
#
#
# Indices 1 2 3 4 5 6 
#
# 1 69.9822 21.1639 18.5539 -4.5955 -15.1461 -25.9771
# 2 21.1639 113.4491 39.9269 -4.9638 3.0086 -11.6942
# 3 18.5539 39.9269 56.2453 5.7372 -11.0119 -14.1354
# 4 -4.5955 -4.9638 5.7372 36.0651 -4.4189 -0.5212
# 5 -15.1461 3.0086 -11.0119 -4.4189 32.9200 3.5433
# 6 -25.9771 -11.6942 -14.1354 -0.5212 3.5433 37.1559
#
#
#
# Elastic Compliance Matrix: (Units=1/GPa)
#
#
# Indices 1 2 3 4 5 6 
#
# 1 0.022789 -0.002655 -0.000658 0.004014 0.009540 0.013994
# 2 -0.002655 0.012897 -0.009796 0.002337 -0.005257 -0.000989
# 3 -0.000658 -0.009796 0.028817 -0.004834 0.008883 0.006505
# 4 0.004014 0.002337 -0.004834 0.029825 0.003831 0.001756
# 5 0.009540 -0.005257 0.008883 0.003831 0.038215 0.004804
# 6 0.013994 -0.000989 0.006505 0.001756 0.004804 0.038427
#
#
# Mechanical properties :
#
#
# Convention : Reuss Voigt Hill
#
# Bulk Modulus (GPa) = 26.11875 44.32955 35.22415
# Shear Modulus (GPa) = 23.81544 31.89699 27.85622
#
# Velocity S-wave (km/s) = 3.34125 3.86682 3.61360
# Velocity P-wave (km/s) = 5.20854 6.38096 5.82433
#
# Compressibility (1/GPa) = 0.03828667
#
# Stress axis : x y z
#
# Youngs Moduli (GPa) = 43.88015 77.53852 34.70187
#
# Poissons Ratio (x) = 0.20584 0.02283
# Poissons Ratio (y) = 0.11649 0.33992
# Poissons Ratio (z) = 0.02887 0.75953
#
# Static dielectric constant tensor:
#      x y z
#    x 3.714600 0.348590 0.089680 
#    y 0.348590 3.506370 -0.240110 
#    z 0.089680 -0.240110 3.635730 
# 
# 
# High freq. dielectric constant tensor:
#      x y z
#    x 1.858840 -0.007440 -0.009350 
#    y -0.007440 1.835610 0.005250 
#    z -0.009350 0.005250 1.820270 
# 
# From -- ./inp_files/201271.got.cif
#   From: 2010.06.25/outbox.cif.g09.slc.cpg/sg2_101_cif.got.tgz:201271.got - 2010.06.27 13:26:56.
