data_PCOD8012253
_publ_section_title
;
Structure prediction by ZEFSAII (Michael W. Deem and Ramdas Pophale) SiO2 
 PCOD8012253
Probable space group: P -1
;
_chemical_formula_sum "Si O2"
_cell_formula_units_Z 14
_cell_length_a 19.893178
_cell_length_b 11.220874
_cell_length_c 5.299874
_cell_angle_alpha 52.752492
_cell_angle_beta 112.440576
_cell_angle_gamma 133.863904
_cell_volume 677.508025
_symmetry_space_group_name_H-M "P -1"
_symmetry_group_IT_number 2
_symmetry_cell_setting 'triclinic'
loop_
_space_group_symop_operation_xyz
x,y,z
-x,-y,-z
loop_
_atom_site_type_symbol
_atom_site_label
_atom_site_fract_x
_atom_site_fract_y
_atom_site_fract_z
Si Si1 0.623862 0.899719 0.802927
Si Si2 0.949840 0.378184 0.331740
Si Si3 0.240027 0.376116 0.161327
Si Si4 0.573810 0.963732 0.153755
Si Si5 0.245264 0.726818 0.746024
Si Si6 0.087139 0.009657 0.171278
Si Si7 0.273203 0.278122 0.841096
O O1 0.558410 0.836883 0.540321
O O2 0.709502 0.130149 0.614681
O O3 0.563446 0.853222 0.026253
O O4 0.663592 0.785157 0.018232
O O5 0.844692 0.298964 0.264577
O O6 0.952062 0.202595 0.544171
O O7 0.000000 0.500000 0.500000
O O8 0.000000 0.500000 0.000000
O O9 0.290842 0.406020 0.459451
O O10 0.142119 0.157671 0.294945
O O11 0.218322 0.522559 0.906449
O O12 0.304151 0.406179 0.976688
O O13 0.678242 0.169118 0.052308
O O14 0.500000 0.000000 0.000000
O O15 0.162212 0.094284 0.939565
O O16 0.000000 0.000000 0.000000
#
# Coordination Sequence:
#
# PCOD8012253 Si02
#       7
#     2   2   2   2   2   2   2
#     4  10  21  39  68  87 128 156 213 246 316 364
#     4  12  28  39  61  91 127 163 219 255 303 363
#     4  10  23  36  61  84 121 158 211 243 317 357
#     4  10  22  38  70 100 121 155 209 262 315 367
#     4  10  24  40  65  91 127 164 208 261 309 364
#     4  10  23  40  57  83 122 163 211 257 306 356
#     4  10  22  39  60  86 118 168 207 240 315 368
#
# _framework density 20.663962999999999
#
# number of rings (size 3 to 8) (size 9 to 14) (size 15 to 20)
#    1.714    0.000    1.429    2.143   10.000    0.571 
#    0.000    0.000    0.000    5.143    0.000    0.000 
#    0.000    0.000    0.000    0.000    0.000    0.000 
#
# Total GULP energy -173474.946852 kJ/mol
# GULP energy per Si atom -12391.067632 kJ/mol
# Density = 2.061693 g / cm^3
# Si number density = 20.663963 Si / 1000 Ang^3
#
#
#
# Elastic Constant Matrix: (Units=GPa)
#
#
# Indices 1 2 3 4 5 6 
#
# 1 107.4868 9.0471 58.0401 18.0447 26.6428 -29.7941
# 2 9.0471 55.0024 44.0249 -3.7995 -2.5216 -18.1559
# 3 58.0401 44.0249 134.4916 2.3193 12.5314 -29.7574
# 4 18.0447 -3.7995 2.3193 46.3268 -13.1368 2.8056
# 5 26.6428 -2.5216 12.5314 -13.1368 47.1803 3.8976
# 6 -29.7941 -18.1559 -29.7574 2.8056 3.8976 34.9257
#
#
#
# Elastic Compliance Matrix: (Units=1/GPa)
#
#
# Indices 1 2 3 4 5 6 
#
# 1 0.026250 0.006423 -0.006006 -0.016368 -0.019433 0.024099
# 2 0.006423 0.028604 -0.009247 -0.000707 -0.000882 0.012625
# 3 -0.006006 -0.009247 0.013442 0.000638 -0.000623 0.001541
# 4 -0.016368 -0.000707 0.000638 0.034760 0.020271 -0.018841
# 5 -0.019433 -0.000882 -0.000623 0.020271 0.039885 -0.023646
# 6 0.024099 0.012625 0.001541 -0.018841 -0.023646 0.061218
#
#
# Mechanical properties :
#
#
# Convention : Reuss Voigt Hill
#
# Bulk Modulus (GPa) = 19.74886 57.68943 38.71914
# Shear Modulus (GPa) = 20.94672 38.07781 29.51227
#
# Velocity S-wave (km/s) = 3.18729 4.29734 3.78325
# Velocity P-wave (km/s) = 4.80864 7.25268 6.15323
#
# Compressibility (1/GPa) = 0.05063584
#
# Stress axis : x y z
#
# Youngs Moduli (GPa) = 38.09458 34.95956 74.39259
#
# Poissons Ratio (x) = -0.22453 0.44678
# Poissons Ratio (y) = -0.24466 0.68794
# Poissons Ratio (z) = 0.22879 0.32328
#
# Static dielectric constant tensor:
#      x y z
#    x 3.550590 -0.141070 -0.010860 
#    y -0.141070 3.582360 0.065490 
#    z -0.010860 0.065490 3.705650 
# 
# 
# High freq. dielectric constant tensor:
#      x y z
#    x 1.801600 -0.017560 0.009660 
#    y -0.017560 1.792450 -0.000890 
#    z 0.009660 -0.000890 1.816060 
# 
# From -- ./inp_files/106385.got.cif
#   From: 2010.06.25/outbox.cif.g09.slc.cpg/sg2_54_cif.got.tgz:106385.got - 2010.06.27 13:26:56.
