data_PCOD8012126
_publ_section_title
;
Structure prediction by ZEFSAII (Michael W. Deem and Ramdas Pophale) SiO2 
 PCOD8012126
Probable space group: P -1
;
_chemical_formula_sum "Si O2"
_cell_formula_units_Z 16
_cell_length_a 19.162401
_cell_length_b 12.749135
_cell_length_c 8.596091
_cell_angle_alpha 53.755450
_cell_angle_beta 33.385261
_cell_angle_gamma 41.060664
_cell_volume 754.771973
_symmetry_space_group_name_H-M "P -1"
_symmetry_group_IT_number 2
_symmetry_cell_setting 'triclinic'
loop_
_space_group_symop_operation_xyz
x,y,z
-x,-y,-z
loop_
_atom_site_type_symbol
_atom_site_label
_atom_site_fract_x
_atom_site_fract_y
_atom_site_fract_z
Si Si1 0.145656 0.357053 0.264341
Si Si2 0.049289 0.336259 0.123480
Si Si3 0.297463 0.521244 0.909328
Si Si4 0.346874 0.025030 0.333086
Si Si5 0.346937 0.738816 0.455161
Si Si6 0.729926 0.440583 0.726797
Si Si7 0.593144 0.273332 0.994624
Si Si8 0.345510 0.026577 0.699848
O O1 0.115113 0.313218 0.193398
O O2 0.207238 0.205961 0.393381
O O3 0.000000 0.500000 0.500000
O O4 0.260154 0.411980 0.979339
O O5 0.888752 0.348169 0.411046
O O6 0.183498 0.196649 0.887736
O O7 0.000000 0.500000 0.000000
O O8 0.243395 0.684952 0.773557
O O9 0.479894 0.408318 0.698722
O O10 0.214325 0.569526 0.190659
O O11 0.366482 0.999112 0.502204
O O12 0.308015 0.905916 0.442794
O O13 0.500000 0.000000 0.000000
O O14 0.321969 0.751997 0.305343
O O15 0.638994 0.359393 0.953072
O O16 0.597017 0.626412 0.757741
O O17 0.668778 0.102037 0.077922
O O18 0.500000 0.000000 0.500000
#
# Coordination Sequence:
#
# PCOD8012126 Si02
#       8
#     2   2   2   2   2   2   2   2
#     4  12  24  42  68  97 134 177 217 272 331 392
#     4  12  26  42  66  97 135 174 221 271 334 391
#     4  10  21  39  66  97 132 170 220 268 324 390
#     4  12  24  44  68  96 130 172 224 274 325 397
#     4  10  21  39  68  98 127 170 222 272 325 387
#     4  10  22  42  66  95 134 172 218 270 328 396
#     4  10  22  42  69  99 132 170 218 274 333 390
#     4  12  26  42  67  98 134 173 221 273 332 391
#
# _framework density 21.198454999999999
#
# number of rings (size 3 to 8) (size 9 to 14) (size 15 to 20)
#    0.000    1.000    2.500    4.500    3.500    1.500 
#    0.000    0.625    0.000    0.000    0.000    0.000 
#    0.000    0.000    0.000    0.000    0.000    0.000 
#
# Total GULP energy -198372.599280 kJ/mol
# GULP energy per Si atom -12398.287455 kJ/mol
# Density = 2.115021 g / cm^3
# Si number density = 21.198455 Si / 1000 Ang^3
#
#
#
# Elastic Constant Matrix: (Units=GPa)
#
#
# Indices 1 2 3 4 5 6 
#
# 1 87.0456 24.7871 19.5593 -7.4686 7.9285 1.6615
# 2 24.7871 142.0343 38.5892 -15.7372 10.9363 -7.3818
# 3 19.5593 38.5892 90.6139 -1.5124 7.4767 -7.7748
# 4 -7.4686 -15.7372 -1.5124 44.5772 3.6230 3.9245
# 5 7.9285 10.9363 7.4767 3.6230 17.2849 -3.9999
# 6 1.6615 -7.3818 -7.7748 3.9245 -3.9999 35.9951
#
#
#
# Elastic Compliance Matrix: (Units=1/GPa)
#
#
# Indices 1 2 3 4 5 6 
#
# 1 0.012997 -0.001164 -0.002013 0.002318 -0.005331 -0.002119
# 2 -0.001164 0.008763 -0.003045 0.003108 -0.004256 0.000381
# 3 -0.002013 -0.003045 0.013111 -0.000987 -0.002112 0.002173
# 4 0.002318 0.003108 -0.000987 0.024878 -0.008592 -0.003350
# 5 -0.005331 -0.004256 -0.002112 -0.008592 0.067406 0.007344
# 6 -0.002119 0.000381 0.002173 -0.003350 0.007344 0.029608
#
#
# Mechanical properties :
#
#
# Convention : Reuss Voigt Hill
#
# Bulk Modulus (GPa) = 44.58820 53.95166 49.26993
# Shear Modulus (GPa) = 28.29931 35.35533 31.82732
#
# Velocity S-wave (km/s) = 3.65769 4.08833 3.87899
# Velocity P-wave (km/s) = 6.23840 6.91317 6.58443
#
# Compressibility (1/GPa) = 0.02242746
#
# Stress axis : x y z
#
# Youngs Moduli (GPa) = 76.94155 114.11904 76.27068
#
# Poissons Ratio (x) = 0.13284 0.15353
# Poissons Ratio (y) = 0.08957 0.23222
# Poissons Ratio (z) = 0.15488 0.34746
#
# Static dielectric constant tensor:
#      x y z
#    x 4.116390 0.004720 0.109310 
#    y 0.004720 3.819320 0.121940 
#    z 0.109310 0.121940 3.818720 
# 
# 
# High freq. dielectric constant tensor:
#      x y z
#    x 1.835780 0.002110 0.008030 
#    y 0.002110 1.837840 -0.009300 
#    z 0.008030 -0.009300 1.831090 
# 
# From -- ./inp_files/345912.got.cif
#   From: 2010.06.25/outbox.cif.g09.slc.cpg/sg2_173_cif.got.tgz:345912.got - 2010.06.27 13:26:56.
