data_PCOD8012869
_publ_section_title
;
Structure prediction by ZEFSAII (Michael W. Deem and Ramdas Pophale) SiO2 
 PCOD8012869
Probable space group: P -1
;
_chemical_formula_sum "Si O2"
_cell_formula_units_Z 16
_cell_length_a 18.713110
_cell_length_b 10.793826
_cell_length_c 6.806076
_cell_angle_alpha 55.492865
_cell_angle_beta 135.008502
_cell_angle_gamma 124.602235
_cell_volume 767.226119
_symmetry_space_group_name_H-M "P -1"
_symmetry_group_IT_number 2
_symmetry_cell_setting 'triclinic'
loop_
_space_group_symop_operation_xyz
x,y,z
-x,-y,-z
loop_
_atom_site_type_symbol
_atom_site_label
_atom_site_fract_x
_atom_site_fract_y
_atom_site_fract_z
Si Si1 0.363937 0.317519 0.289371
Si Si2 0.282605 0.384905 0.666236
Si Si3 0.986997 0.006125 0.700282
Si Si4 0.768452 0.238768 0.138864
Si Si5 0.403525 0.605358 0.397025
Si Si6 0.748609 0.891810 0.413918
Si Si7 0.038100 0.763875 0.260175
Si Si8 0.092702 0.480953 0.063571
O O1 0.387516 0.453516 0.371169
O O2 0.473899 0.295388 0.442078
O O3 0.296995 0.158905 0.410123
O O4 0.298192 0.366350 0.943448
O O5 0.361935 0.545997 0.588669
O O6 0.307201 0.237076 0.740149
O O7 0.161551 0.383961 0.395388
O O8 0.871797 0.906400 0.638653
O O9 0.007234 0.183070 0.669310
O O10 0.000000 0.000000 0.500000
O O11 0.062867 0.912354 0.025960
O O12 0.847548 0.264513 0.456956
O O13 0.730501 0.056516 0.167131
O O14 0.663121 0.289393 0.928684
O O15 0.834032 0.345248 0.996331
O O16 0.955363 0.608841 0.150934
O O17 0.000000 0.500000 0.000000
#
# Coordination Sequence:
#
# PCOD8012869 Si02
#       8
#     2   2   2   2   2   2   2   2
#     4  10  21  40  68  87 118 158 203 256 307 364
#     4  10  21  40  64  88 123 158 208 245 301 370
#     4  10  22  40  62  88 127 167 209 250 299 370
#     4  10  23  41  58  85 131 152 205 255 300 367
#     4   9  21  42  63  92 117 155 205 255 307 361
#     4  10  22  39  58  94 119 157 204 249 306 372
#     4  10  22  39  61  90 122 169 204 249 304 362
#     4  11  24  39  60  93 127 167 207 250 306 366
#
# _framework density 20.85435
#
# number of rings (size 3 to 8) (size 9 to 14) (size 15 to 20)
#    0.000    2.000    1.250    0.750    5.250    4.500 
#    0.000    0.625    0.000    0.000    0.000    0.000 
#    0.000    0.000    0.000    0.000    0.000    0.000 
#
# Total GULP energy -198314.889346 kJ/mol
# GULP energy per Si atom -12394.680584 kJ/mol
# Density = 2.080688 g / cm^3
# Si number density = 20.854350 Si / 1000 Ang^3
#
#
#
# Elastic Constant Matrix: (Units=GPa)
#
#
# Indices 1 2 3 4 5 6 
#
# 1 118.9840 45.8787 50.8087 -2.9431 1.7115 10.6993
# 2 45.8787 91.5711 33.2117 -13.0548 -1.8037 5.7207
# 3 50.8087 33.2117 119.2364 -8.2804 6.3008 2.9546
# 4 -2.9431 -13.0548 -8.2804 30.5572 -6.6802 1.2131
# 5 1.7115 -1.8037 6.3008 -6.6802 43.3296 2.2576
# 6 10.6993 5.7207 2.9546 1.2131 2.2576 26.1836
#
#
#
# Elastic Compliance Matrix: (Units=1/GPa)
#
#
# Indices 1 2 3 4 5 6 
#
# 1 0.012153 -0.004728 -0.003892 -0.001817 -0.000214 -0.003391
# 2 -0.004728 0.014931 -0.001801 0.005951 0.002070 -0.001581
# 3 -0.003892 -0.001801 0.010695 0.001438 -0.001298 0.000822
# 4 -0.001817 0.005951 0.001438 0.036900 0.005953 -0.002943
# 5 -0.000214 0.002070 -0.001298 0.005953 0.024415 -0.002599
# 6 -0.003391 -0.001581 0.000822 -0.002943 -0.002599 0.040191
#
#
# Mechanical properties :
#
#
# Convention : Reuss Voigt Hill
#
# Bulk Modulus (GPa) = 59.04869 65.50996 62.27933
# Shear Modulus (GPa) = 30.16172 33.34023 31.75098
#
# Velocity S-wave (km/s) = 3.80716 4.00274 3.90617
# Velocity P-wave (km/s) = 6.90668 7.26937 7.09035
#
# Compressibility (1/GPa) = 0.01693518
#
# Stress axis : x y z
#
# Youngs Moduli (GPa) = 82.28481 66.97692 93.50262
#
# Poissons Ratio (x) = 0.31670 0.36394
# Poissons Ratio (y) = 0.38908 0.16838
# Poissons Ratio (z) = 0.32028 0.12061
#
# Static dielectric constant tensor:
#      x y z
#    x 3.876690 0.034850 0.136770 
#    y 0.034850 3.895450 -0.072510 
#    z 0.136770 -0.072510 3.792470 
# 
# 
# High freq. dielectric constant tensor:
#      x y z
#    x 1.801650 0.001750 0.004450 
#    y 0.001750 1.809690 -0.009630 
#    z 0.004450 -0.009630 1.817670 
# 
# From -- ./inp_files/108898.got.cif
#   From: 2010.06.25/outbox.cif.g09.slc.cpg/sg2_55_cif.got.tgz:108898.got - 2010.06.27 13:26:56.
