data_PCOD8012107
_publ_section_title
;
Structure prediction by ZEFSAII (Michael W. Deem and Ramdas Pophale) SiO2 
 PCOD8012107
Probable space group: P -1
;
_chemical_formula_sum "Si O2"
_cell_formula_units_Z 16
_cell_length_a 9.098257
_cell_length_b 15.212083
_cell_length_c 13.754459
_cell_angle_alpha 41.084419
_cell_angle_beta 118.334215
_cell_angle_gamma 140.135094
_cell_volume 777.096863
_symmetry_space_group_name_H-M "P -1"
_symmetry_group_IT_number 2
_symmetry_cell_setting 'triclinic'
loop_
_space_group_symop_operation_xyz
x,y,z
-x,-y,-z
loop_
_atom_site_type_symbol
_atom_site_label
_atom_site_fract_x
_atom_site_fract_y
_atom_site_fract_z
Si Si1 0.781591 0.779621 0.130562
Si Si2 0.306507 0.166581 0.559732
Si Si3 0.441062 0.553945 0.030652
Si Si4 0.971515 0.773657 0.687706
Si Si5 0.162095 0.485825 0.618142
Si Si6 0.901922 0.436084 0.128178
Si Si7 0.858251 0.273118 0.878129
Si Si8 0.631646 0.872091 0.173514
O O1 0.652876 0.685079 0.065278
O O2 0.865780 0.685362 0.281732
O O3 0.610225 0.752880 0.178410
O O4 0.000000 0.000000 0.000000
O O5 0.154507 0.208394 0.447560
O O6 0.567012 0.318944 0.468814
O O7 0.299532 0.164083 0.676094
O O8 0.193322 0.968995 0.645615
O O9 0.214005 0.363411 0.171357
O O10 0.500000 0.500000 0.000000
O O11 0.366774 0.658384 0.877789
O O12 0.077979 0.707977 0.715430
O O13 0.000000 0.500000 0.500000
O O14 0.080438 0.440500 0.742037
O O15 0.083139 0.633206 0.077966
O O16 0.000000 0.500000 0.000000
O O17 0.617643 0.199647 0.822961
O O18 0.828598 0.095776 0.022046
#
# Coordination Sequence:
#
# PCOD8012107 Si02
#       8
#     2   2   2   2   2   2   2   2
#     4  12  26  43  69 107 141 178 241 286 338 421
#     4  11  24  43  71  95 139 183 232 285 355 407
#     4  11  23  42  71  98 136 181 226 285 345 406
#     4  10  23  43  67  96 136 182 235 278 338 430
#     4  12  25  46  65 101 142 182 218 297 354 405
#     4  10  21  39  66  95 129 172 236 273 341 404
#     4  11  23  41  68 100 132 181 231 287 342 417
#     4  11  23  41  69  97 137 180 231 283 349 409
#
# _framework density 20.589454
#
# number of rings (size 3 to 8) (size 9 to 14) (size 15 to 20)
#    0.000    1.000    3.750    3.750    1.750    3.500 
#    0.000    0.625    0.000    0.000    0.000    0.000 
#    0.000    0.000    0.000    0.000    0.000    0.000 
#
# Total GULP energy -198347.338146 kJ/mol
# GULP energy per Si atom -12396.708634 kJ/mol
# Density = 2.054259 g / cm^3
# Si number density = 20.589454 Si / 1000 Ang^3
#
#
#
# Elastic Constant Matrix: (Units=GPa)
#
#
# Indices 1 2 3 4 5 6 
#
# 1 126.2536 57.6062 54.5402 -1.7442 13.6944 -16.1131
# 2 57.6062 135.7021 60.0215 -0.9919 3.0864 -9.6298
# 3 54.5402 60.0215 108.5742 -5.0445 6.7134 -1.6535
# 4 -1.7442 -0.9919 -5.0445 34.2237 -1.0733 -8.2561
# 5 13.6944 3.0864 6.7134 -1.0733 46.4009 -3.1555
# 6 -16.1131 -9.6298 -1.6535 -8.2561 -3.1555 36.3755
#
#
#
# Elastic Compliance Matrix: (Units=1/GPa)
#
#
# Indices 1 2 3 4 5 6 
#
# 1 0.011806 -0.002827 -0.004114 0.000872 -0.002389 0.004285
# 2 -0.002827 0.010638 -0.004499 -0.000133 0.000870 0.001405
# 3 -0.004114 -0.004499 0.013822 0.001153 -0.000608 -0.002176
# 4 0.000872 -0.000133 0.001153 0.031283 0.000823 0.007575
# 5 -0.002389 0.000870 -0.000608 0.000823 0.022392 0.001274
# 6 0.004285 0.001405 -0.002176 0.007575 0.001274 0.031492
#
#
# Mechanical properties :
#
#
# Convention : Reuss Voigt Hill
#
# Bulk Modulus (GPa) = 74.70975 79.42950 77.06963
# Shear Modulus (GPa) = 33.60744 36.62416 35.11580
#
# Velocity S-wave (km/s) = 4.04451 4.22214 4.13428
# Velocity P-wave (km/s) = 7.62725 7.90127 7.76547
#
# Compressibility (1/GPa) = 0.01338513
#
# Stress axis : x y z
#
# Youngs Moduli (GPa) = 84.70401 94.00025 72.34733
#
# Poissons Ratio (x) = 0.26576 0.29763
# Poissons Ratio (y) = 0.23948 0.32552
# Poissons Ratio (z) = 0.34847 0.42294
#
# Static dielectric constant tensor:
#      x y z
#    x 4.676260 -0.004020 0.895940 
#    y -0.004020 3.573230 0.018040 
#    z 0.895940 0.018040 4.510800 
# 
# 
# High freq. dielectric constant tensor:
#      x y z
#    x 1.817830 0.003510 0.013250 
#    y 0.003510 1.806170 0.006450 
#    z 0.013250 0.006450 1.806630 
# 
# From -- ./inp_files/503911.got.cif
#   From: 2010.06.25/outbox.cif.g09.slc.cpg/sg2_252_cif.got.tgz:503911.got - 2010.06.27 13:26:56.
