data_PCOD8012831
_publ_section_title
;
Structure prediction by ZEFSAII (Michael W. Deem and Ramdas Pophale) SiO2 
 PCOD8012831
Probable space group: P -1
;
_chemical_formula_sum "Si O2"
_cell_formula_units_Z 16
_cell_length_a 17.104052
_cell_length_b 9.602751
_cell_length_c 11.415470
_cell_angle_alpha 123.868903
_cell_angle_beta 51.419216
_cell_angle_gamma 150.682522
_cell_volume 717.227886
_symmetry_space_group_name_H-M "P -1"
_symmetry_group_IT_number 2
_symmetry_cell_setting 'triclinic'
loop_
_space_group_symop_operation_xyz
x,y,z
-x,-y,-z
loop_
_atom_site_type_symbol
_atom_site_label
_atom_site_fract_x
_atom_site_fract_y
_atom_site_fract_z
Si Si1 0.129866 0.390716 0.083663
Si Si2 0.501599 0.094476 0.371704
Si Si3 0.354010 0.018837 0.713346
Si Si4 0.022944 0.553438 0.143208
Si Si5 0.679416 0.658834 0.414445
Si Si6 0.052016 0.888183 0.435278
Si Si7 0.865048 0.463369 0.606218
Si Si8 0.764335 0.803866 0.146426
O O1 0.106452 0.378200 0.237268
O O2 0.164616 0.613133 0.087123
O O3 0.278431 0.451610 0.955599
O O4 0.951843 0.087056 0.050672
O O5 0.571563 0.995484 0.257349
O O6 0.649888 0.416475 0.333774
O O7 0.461763 0.107233 0.543811
O O8 0.326333 0.866892 0.357450
O O9 0.153034 0.713908 0.747709
O O10 0.368040 0.243252 0.813858
O O11 0.085159 0.821228 0.255355
O O12 0.000000 0.500000 0.000000
O O13 0.500000 0.500000 0.500000
O O14 0.778940 0.870285 0.531034
O O15 0.775783 0.845330 0.294812
O O16 0.000000 0.000000 0.500000
O O17 0.893210 0.603237 0.525413
O O18 0.000000 0.500000 0.500000
#
# Coordination Sequence:
#
# PCOD8012831 Si02
#       8
#     2   2   2   2   2   2   2   2
#     4  10  22  39  70  91 130 176 230 271 342 393
#     4  11  23  38  68  95 133 176 214 277 349 395
#     4  10  21  41  63  92 129 178 218 266 347 407
#     4  11  24  42  68  99 138 181 224 283 341 409
#     4  12  24  40  67 101 137 172 225 285 337 395
#     4  12  26  40  68 105 135 169 236 287 320 402
#     4  12  21  44  68  98 126 176 234 274 330 414
#     4  10  21  40  63  96 126 176 222 281 329 403
#
# _framework density 22.308112000000001
#
# number of rings (size 3 to 8) (size 9 to 14) (size 15 to 20)
#    0.000    1.000    5.000    2.250    5.250    1.000 
#    0.000    2.500    0.000    0.000    0.000    0.000 
#    0.000    0.000    0.000    0.000    0.000    0.000 
#
# Total GULP energy -198214.061018 kJ/mol
# GULP energy per Si atom -12388.378814 kJ/mol
# Density = 2.225734 g / cm^3
# Si number density = 22.308112 Si / 1000 Ang^3
#
#
#
# Elastic Constant Matrix: (Units=GPa)
#
#
# Indices 1 2 3 4 5 6 
#
# 1 134.2285 23.9517 65.7027 22.9499 -32.1282 -23.4200
# 2 23.9517 71.2290 13.7528 11.0651 -2.7116 -6.6744
# 3 65.7027 13.7528 125.2707 29.5446 -14.8056 -15.6271
# 4 22.9499 11.0651 29.5446 28.2179 -8.9292 -0.7970
# 5 -32.1282 -2.7116 -14.8056 -8.9292 47.8654 7.3530
# 6 -23.4200 -6.6744 -15.6271 -0.7970 7.3530 41.9248
#
#
#
# Elastic Compliance Matrix: (Units=1/GPa)
#
#
# Indices 1 2 3 4 5 6 
#
# 1 0.012639 -0.002375 -0.004579 -0.002593 0.005850 0.003900
# 2 -0.002375 0.015634 0.000852 -0.005597 -0.001747 0.001680
# 3 -0.004579 0.000852 0.012905 -0.010485 -0.001362 0.002428
# 4 -0.002593 -0.005597 -0.010485 0.052253 0.005400 -0.006201
# 5 0.005850 -0.001747 -0.001362 0.005400 0.025598 -0.001905
# 6 0.003900 0.001680 0.002428 -0.006201 -0.001905 0.027420
#
#
# Mechanical properties :
#
#
# Convention : Reuss Voigt Hill
#
# Bulk Modulus (GPa) = 34.51261 59.72696 47.11978
# Shear Modulus (GPa) = 29.70708 38.75637 34.23172
#
# Velocity S-wave (km/s) = 3.65317 4.17264 3.92151
# Velocity P-wave (km/s) = 5.77050 7.07434 6.45542
#
# Compressibility (1/GPa) = 0.02897492
#
# Stress axis : x y z
#
# Youngs Moduli (GPa) = 79.11988 63.96490 77.48737
#
# Poissons Ratio (x) = 0.15192 0.35480
# Poissons Ratio (y) = 0.18791 -0.06605
# Poissons Ratio (z) = 0.36228 -0.05452
#
# Static dielectric constant tensor:
#      x y z
#    x 4.312990 -0.211060 -0.462290 
#    y -0.211060 4.059840 0.469630 
#    z -0.462290 0.469630 3.835110 
# 
# 
# High freq. dielectric constant tensor:
#      x y z
#    x 1.884410 -0.022980 -0.021680 
#    y -0.022980 1.855520 0.004440 
#    z -0.021680 0.004440 1.866700 
# 
# From -- ./inp_files/462444.got.cif
#   From: 2010.06.25/outbox.cif.g09.slc.cpg/sg2_232_cif.got.tgz:462444.got - 2010.06.27 13:26:56.
