data_PCOD8012336
_publ_section_title
;
Structure prediction by ZEFSAII (Michael W. Deem and Ramdas Pophale) SiO2 
 PCOD8012336
Probable space group: P -1
;
_chemical_formula_sum "Si O2"
_cell_formula_units_Z 16
_cell_length_a 8.788847
_cell_length_b 16.270684
_cell_length_c 8.022298
_cell_angle_alpha 132.130426
_cell_angle_beta 63.385982
_cell_angle_gamma 108.756991
_cell_volume 760.253051
_symmetry_space_group_name_H-M "P -1"
_symmetry_group_IT_number 2
_symmetry_cell_setting 'triclinic'
loop_
_space_group_symop_operation_xyz
x,y,z
-x,-y,-z
loop_
_atom_site_type_symbol
_atom_site_label
_atom_site_fract_x
_atom_site_fract_y
_atom_site_fract_z
Si Si1 0.492905 0.024384 0.791684
Si Si2 0.970331 0.808521 0.034957
Si Si3 0.612126 0.411560 0.914770
Si Si4 0.219219 0.005626 0.151047
Si Si5 0.828011 0.550003 0.216298
Si Si6 0.069608 0.228831 0.631541
Si Si7 0.431677 0.176007 0.731058
Si Si8 0.048052 0.667803 0.490078
O O1 0.521471 0.897488 0.551045
O O2 0.636220 0.057033 0.901800
O O3 0.517843 0.115208 0.760483
O O4 0.301031 0.033227 0.968507
O O5 0.029468 0.773338 0.144736
O O6 0.769120 0.818464 0.139625
O O7 0.052379 0.927548 0.108125
O O8 0.034094 0.720465 0.749793
O O9 0.508599 0.298995 0.845820
O O10 0.774771 0.394761 0.692514
O O11 0.500000 0.500000 0.000000
O O12 0.672356 0.463615 0.137434
O O13 0.170506 0.116917 0.419196
O O14 0.796623 0.665116 0.286494
O O15 0.878606 0.584943 0.431007
O O16 0.000000 0.500000 0.000000
O O17 0.947433 0.243225 0.547899
#
# Coordination Sequence:
#
# PCOD8012336 Si02
#       8
#     2   2   2   2   2   2   2   2
#     4  10  24  42  61  97 137 170 214 274 331 380
#     4  12  23  41  66 101 125 178 219 263 324 399
#     4  11  22  42  72  97 127 176 215 273 337 379
#     4  11  23  40  66  94 132 176 218 264 330 390
#     4   8  19  42  64  88 125 173 210 266 326 380
#     4  10  21  39  69  92 132 170 220 269 316 393
#     4  11  24  40  65  98 136 167 221 270 325 395
#     4   9  23  42  68  91 131 171 217 267 325 389
#
# _framework density 21.045624
#
# number of rings (size 3 to 8) (size 9 to 14) (size 15 to 20)
#    0.750    1.000    1.250    2.625    1.750    3.000 
#    0.000    6.250    0.000    0.000    0.000    0.000 
#    0.000    0.000    0.000    0.000    0.000    0.000 
#
# Total GULP energy -198214.187273 kJ/mol
# GULP energy per Si atom -12388.386705 kJ/mol
# Density = 2.099772 g / cm^3
# Si number density = 21.045624 Si / 1000 Ang^3
#
#
#
# Elastic Constant Matrix: (Units=GPa)
#
#
# Indices 1 2 3 4 5 6 
#
# 1 98.0520 45.3100 49.3486 6.7081 -3.1964 12.8677
# 2 45.3100 94.1425 53.1073 20.2778 6.6241 21.4702
# 3 49.3486 53.1073 146.0251 0.4339 10.4773 4.0226
# 4 6.7081 20.2778 0.4339 35.4236 -0.6475 9.1229
# 5 -3.1964 6.6241 10.4773 -0.6475 24.3020 3.7435
# 6 12.8677 21.4702 4.0226 9.1229 3.7435 37.0088
#
#
#
# Elastic Compliance Matrix: (Units=1/GPa)
#
#
# Indices 1 2 3 4 5 6 
#
# 1 0.014740 -0.005169 -0.003410 0.000954 0.005231 -0.002520
# 2 -0.005169 0.019382 -0.004876 -0.008432 -0.003080 -0.006527
# 3 -0.003410 -0.004876 0.009962 0.002556 -0.003759 0.002682
# 4 0.000954 -0.008432 0.002556 0.034031 0.002907 -0.004401
# 5 0.005231 -0.003080 -0.003759 0.002907 0.045130 -0.004905
# 6 -0.002520 -0.006527 0.002682 -0.004401 -0.004905 0.032973
#
#
# Mechanical properties :
#
#
# Convention : Reuss Voigt Hill
#
# Bulk Modulus (GPa) = 58.23115 70.41681 64.32398
# Shear Modulus (GPa) = 26.47550 32.04379 29.25964
#
# Velocity S-wave (km/s) = 3.55068 3.90627 3.73271
# Velocity P-wave (km/s) = 6.67375 7.34009 7.01484
#
# Compressibility (1/GPa) = 0.01717294
#
# Stress axis : x y z
#
# Youngs Moduli (GPa) = 67.84456 51.59305 100.37953
#
# Poissons Ratio (x) = 0.26671 0.34228
# Poissons Ratio (y) = 0.35072 0.48948
# Poissons Ratio (z) = 0.23134 0.25158
#
# Static dielectric constant tensor:
#      x y z
#    x 4.068760 0.248580 0.421840 
#    y 0.248580 3.942700 0.371740 
#    z 0.421840 0.371740 4.183020 
# 
# 
# High freq. dielectric constant tensor:
#      x y z
#    x 1.826050 -0.005090 0.007730 
#    y -0.005090 1.805090 0.016500 
#    z 0.007730 0.016500 1.829200 
# 
# From -- ./inp_files/215751.got.cif
#   From: 2010.06.25/outbox.cif.g09.slc.cpg/sg2_108_cif.got.tgz:215751.got - 2010.06.27 13:26:56.
