data_PCOD8012989
_publ_section_title
;
Structure prediction by ZEFSAII (Michael W. Deem and Ramdas Pophale) SiO2 
 PCOD8012989
Probable space group: P -1
;
_chemical_formula_sum "Si O2"
_cell_formula_units_Z 16
_cell_length_a 10.120852
_cell_length_b 16.586000
_cell_length_c 8.071421
_cell_angle_alpha 106.122293
_cell_angle_beta 80.433760
_cell_angle_gamma 147.648735
_cell_volume 690.313775
_symmetry_space_group_name_H-M "P -1"
_symmetry_group_IT_number 2
_symmetry_cell_setting 'triclinic'
loop_
_space_group_symop_operation_xyz
x,y,z
-x,-y,-z
loop_
_atom_site_type_symbol
_atom_site_label
_atom_site_fract_x
_atom_site_fract_y
_atom_site_fract_z
Si Si1 0.774089 0.873579 0.105598
Si Si2 0.516897 0.442236 0.610843
Si Si3 0.217414 0.300393 0.082901
Si Si4 0.745644 0.345638 0.058782
Si Si5 0.946984 0.850396 0.611050
Si Si6 0.765261 0.172674 0.092048
Si Si7 0.896366 0.521397 0.428434
Si Si8 0.768058 0.160910 0.473029
O O1 0.712521 0.741864 0.074953
O O2 0.515308 0.783235 0.058721
O O3 0.874449 0.973134 0.308765
O O4 0.000000 0.000000 0.000000
O O5 0.500000 0.500000 0.500000
O O6 0.553358 0.512614 0.818905
O O7 0.275562 0.253977 0.536935
O O8 0.756879 0.510271 0.577214
O O9 0.149407 0.223298 0.228669
O O10 0.983048 0.225804 0.009915
O O11 0.794606 0.278018 0.066750
O O12 0.715442 0.391556 0.248863
O O13 0.000000 0.500000 0.000000
O O14 0.085019 0.843318 0.502961
O O15 0.778099 0.183906 0.290938
O O16 0.500000 0.000000 0.000000
O O17 0.000000 0.500000 0.500000
O O18 0.114798 0.691736 0.389752
O O19 0.500000 0.000000 0.500000
#
# Coordination Sequence:
#
# PCOD8012989 Si02
#       8
#     2   2   2   2   2   2   2   2
#     4  10  20  37  61  91 123 171 216 257 320 387
#     4  10  16  33  61  89 116 160 215 255 311 381
#     4   9  17  34  58  89 116 160 212 261 308 376
#     4  12  26  40  64 100 133 168 214 272 323 380
#     4   9  18  33  59  90 116 162 215 255 307 382
#     4  11  22  42  64  93 130 171 212 265 325 384
#     4  12  22  40  64  94 125 166 212 265 321 376
#     4  11  23  39  64  94 129 168 213 261 320 384
#
# _framework density 23.177864
#
# number of rings (size 3 to 8) (size 9 to 14) (size 15 to 20)
#    0.000    1.500    5.000    4.500    3.500    0.000 
#    0.000    0.625    0.000    5.250    0.000    0.000 
#    0.000    0.000    0.000    0.000    0.000    0.000 
#
# Total GULP energy -198230.461955 kJ/mol
# GULP energy per Si atom -12389.403872 kJ/mol
# Density = 2.312511 g / cm^3
# Si number density = 23.177864 Si / 1000 Ang^3
#
#
#
# Elastic Constant Matrix: (Units=GPa)
#
#
# Indices 1 2 3 4 5 6 
#
# 1 162.1372 62.7386 38.5088 25.7045 -1.7342 -7.3391
# 2 62.7386 130.6466 41.7356 43.5945 1.3686 -0.3000
# 3 38.5088 41.7356 69.6804 52.8774 -2.5695 -6.6683
# 4 25.7045 43.5945 52.8774 52.2837 -0.3650 -1.1314
# 5 -1.7342 1.3686 -2.5695 -0.3650 23.4218 18.5442
# 6 -7.3391 -0.3000 -6.6683 -1.1314 18.5442 41.1233
#
#
#
# Elastic Compliance Matrix: (Units=1/GPa)
#
#
# Indices 1 2 3 4 5 6 
#
# 1 0.008343 -0.003823 -0.006814 0.005990 -0.000351 0.000679
# 2 -0.003823 0.012411 0.004705 -0.013229 -0.000849 0.000190
# 3 -0.006814 0.004705 0.070507 -0.071698 -0.001114 0.008781
# 4 0.005990 -0.013229 -0.071698 0.099547 0.001818 -0.008734
# 5 -0.000351 -0.000849 -0.001114 0.001818 0.066540 -0.030205
# 6 0.000679 0.000190 0.008781 -0.008734 -0.030205 0.039244
#
#
# Mechanical properties :
#
#
# Convention : Reuss Voigt Hill
#
# Bulk Modulus (GPa) = 12.59520 72.04781 42.32150
# Shear Modulus (GPa) = 14.92892 37.99786 26.46339
#
# Velocity S-wave (km/s) = 2.54067 4.05335 3.38265
# Velocity P-wave (km/s) = 3.74868 7.28412 5.79271
#
# Compressibility (1/GPa) = 0.07939534
#
# Stress axis : x y z
#
# Youngs Moduli (GPa) = 119.86534 80.57634 14.18306
#
# Poissons Ratio (x) = 0.30804 0.09665
# Poissons Ratio (y) = 0.45824 -0.06673
# Poissons Ratio (z) = 0.81678 -0.37910
#
# Static dielectric constant tensor:
#      x y z
#    x 4.725440 -0.202510 -0.409960 
#    y -0.202510 4.449820 0.950100 
#    z -0.409960 0.950100 4.542550 
# 
# 
# High freq. dielectric constant tensor:
#      x y z
#    x 1.925010 -0.003950 -0.006500 
#    y -0.003950 1.918010 0.045090 
#    z -0.006500 0.045090 1.898790 
# 
# From -- ./inp_files/207826.got.cif
#   From: 2010.06.25/outbox.cif.g09.slc.cpg/sg2_104_cif.got.tgz:207826.got - 2010.06.27 13:26:56.
