data_PCOD8012891
_publ_section_title
;
Structure prediction by ZEFSAII (Michael W. Deem and Ramdas Pophale) SiO2 
 PCOD8012891
Probable space group: P -1
;
_chemical_formula_sum "Si O2"
_cell_formula_units_Z 16
_cell_length_a 13.658754
_cell_length_b 8.706007
_cell_length_c 22.683367
_cell_angle_alpha 67.959071
_cell_angle_beta 21.040757
_cell_angle_gamma 61.344627
_cell_volume 827.143473
_symmetry_space_group_name_H-M "P -1"
_symmetry_group_IT_number 2
_symmetry_cell_setting 'triclinic'
loop_
_space_group_symop_operation_xyz
x,y,z
-x,-y,-z
loop_
_atom_site_type_symbol
_atom_site_label
_atom_site_fract_x
_atom_site_fract_y
_atom_site_fract_z
Si Si1 0.497316 0.476792 0.386609
Si Si2 0.806749 0.267333 0.911092
Si Si3 0.147481 0.490375 0.255628
Si Si4 0.154776 0.297690 0.825777
Si Si5 0.653044 0.429200 0.170802
Si Si6 0.510076 0.896101 0.681282
Si Si7 0.109849 0.634659 0.384501
Si Si8 0.319867 0.918715 0.652905
O O1 0.618473 0.609529 0.333870
O O2 0.615760 0.462146 0.255809
O O3 0.642476 0.278295 0.363540
O O4 0.139284 0.561664 0.578050
O O5 0.868156 0.385509 0.809006
O O6 0.936047 0.310141 0.893019
O O7 0.455216 0.313197 0.107373
O O8 0.975624 0.055666 0.830887
O O9 0.139524 0.599897 0.303243
O O10 0.336485 0.094504 0.774853
O O11 0.975432 0.401401 0.969324
O O12 0.606273 0.247363 0.203707
O O13 0.424870 0.606562 0.239655
O O14 0.477792 0.889412 0.630745
O O15 0.861617 0.834770 0.505804
O O16 0.000000 0.500000 0.500000
O O17 0.500000 0.000000 0.500000
#
# Coordination Sequence:
#
# PCOD8012891 Si02
#       8
#     2   2   2   2   2   2   2   2
#     4  11  22  36  58  82 116 145 178 233 285 321
#     4  10  22  34  61  82 106 147 189 225 263 333
#     4  11  19  37  57  83 108 143 192 222 267 334
#     4  11  22  36  53  89 115 140 180 238 283 315
#     4  10  19  36  58  79 108 154 188 220 271 336
#     4   9  19  32  55  83 105 147 190 223 266 328
#     4  10  16  33  60  78 101 145 194 219 262 319
#     4  10  17  36  56  80 107 147 186 219 268 335
#
# _framework density 19.343681
#
# number of rings (size 3 to 8) (size 9 to 14) (size 15 to 20)
#    0.000    1.750    6.250    0.750    0.000    0.500 
#    0.000    1.875    0.000    1.500    0.000    0.000 
#    0.000    0.000    0.000    0.000    0.000    0.000 
#
# Total GULP energy -198286.170305 kJ/mol
# GULP energy per Si atom -12392.885644 kJ/mol
# Density = 1.929965 g / cm^3
# Si number density = 19.343681 Si / 1000 Ang^3
#
#
#
# Elastic Constant Matrix: (Units=GPa)
#
#
# Indices 1 2 3 4 5 6 
#
# 1 44.4923 23.6819 35.5397 4.7952 -4.6059 -17.2632
# 2 23.6819 68.7162 48.0750 10.1269 -28.2988 -6.4215
# 3 35.5397 48.0750 127.7784 12.4710 -15.6304 -10.6347
# 4 4.7952 10.1269 12.4710 32.0582 -9.6079 -7.4873
# 5 -4.6059 -28.2988 -15.6304 -9.6079 31.7730 -0.6369
# 6 -17.2632 -6.4215 -10.6347 -7.4873 -0.6369 25.1297
#
#
#
# Elastic Compliance Matrix: (Units=1/GPa)
#
#
# Indices 1 2 3 4 5 6 
#
# 1 0.041616 -0.009599 -0.006836 0.003875 -0.004221 0.024290
# 2 -0.009599 0.032462 -0.006659 0.001097 0.024574 -0.000167
# 3 -0.006836 -0.006659 0.012092 -0.002610 -0.001805 -0.002104
# 4 0.003875 0.001097 -0.002610 0.038034 0.012026 0.013474
# 5 -0.004221 0.024574 -0.001805 0.012026 0.055650 0.007610
# 6 0.024290 -0.000167 -0.002104 0.013474 0.007610 0.059754
#
#
# Mechanical properties :
#
#
# Convention : Reuss Voigt Hill
#
# Bulk Modulus (GPa) = 25.01146 50.62001 37.81574
# Shear Modulus (GPa) = 16.71562 26.70487 21.71024
#
# Velocity S-wave (km/s) = 2.94281 3.71960 3.35377
# Velocity P-wave (km/s) = 4.95025 6.68377 5.88123
#
# Compressibility (1/GPa) = 0.03998167
#
# Stress axis : x y z
#
# Youngs Moduli (GPa) = 24.02933 30.80542 82.70247
#
# Poissons Ratio (x) = 0.29570 0.56538
# Poissons Ratio (y) = 0.23065 0.55068
# Poissons Ratio (z) = 0.16427 0.20512
#
# Static dielectric constant tensor:
#      x y z
#    x 5.159290 1.101530 -0.640380 
#    y 1.101530 5.096190 -0.096830 
#    z -0.640380 -0.096830 4.094330 
# 
# 
# High freq. dielectric constant tensor:
#      x y z
#    x 1.739200 -0.032160 0.002210 
#    y -0.032160 1.723700 0.013850 
#    z 0.002210 0.013850 1.773220 
# 
# From -- ./inp_files/269462.got.cif
#   From: 2010.06.25/outbox.cif.g09.slc.cpg/sg2_135_cif.got.tgz:269462.got - 2010.06.27 13:26:56.
