data_PCOD8012217
_publ_section_title
;
Structure prediction by ZEFSAII (Michael W. Deem and Ramdas Pophale) SiO2 
 PCOD8012217
Probable space group: P -1
;
_chemical_formula_sum "Si O2"
_cell_formula_units_Z 14
_cell_length_a 18.220363
_cell_length_b 8.824663
_cell_length_c 9.500771
_cell_angle_alpha 31.450106
_cell_angle_beta 122.353844
_cell_angle_gamma 122.409684
_cell_volume 662.282821
_symmetry_space_group_name_H-M "P -1"
_symmetry_group_IT_number 2
_symmetry_cell_setting 'triclinic'
loop_
_space_group_symop_operation_xyz
x,y,z
-x,-y,-z
loop_
_atom_site_type_symbol
_atom_site_label
_atom_site_fract_x
_atom_site_fract_y
_atom_site_fract_z
Si Si1 0.769599 0.300695 0.692821
Si Si2 0.494840 0.669982 0.213818
Si Si3 0.781342 0.035054 0.617681
Si Si4 0.669785 0.460413 0.052890
Si Si5 0.342568 0.279437 0.865162
Si Si6 0.972601 0.256753 0.545697
Si Si7 0.040284 0.661618 0.049600
O O1 0.799965 0.198592 0.654948
O O2 0.734823 0.603541 0.391304
O O3 0.856344 0.359664 0.830367
O O4 0.690824 0.068528 0.868323
O O5 0.500000 0.500000 0.500000
O O6 0.404830 0.561543 0.123853
O O7 0.571962 0.643773 0.204611
O O8 0.500000 0.000000 0.000000
O O9 0.872425 0.084423 0.588368
O O10 0.751627 0.690659 0.892366
O O11 0.704680 0.154524 0.356062
O O12 0.635166 0.564426 0.084242
O O13 0.000000 0.500000 0.500000
O O14 0.033348 0.005031 0.796157
O O15 0.981716 0.455873 0.262299
O O16 0.000000 0.500000 0.000000
#
# Coordination Sequence:
#
# PCOD8012217 Si02
#       7
#     2   2   2   2   2   2   2
#     4  10  21  40  67  92 127 165 220 266 313 383
#     4  12  25  44  64  96 133 161 204 263 334 391
#     4  10  21  39  67  98 121 164 225 272 309 365
#     4  10  22  42  66  93 126 164 215 263 310 394
#     4  10  22  42  68  91 118 173 214 258 317 383
#     4  12  24  42  71  95 132 178 226 272 326 383
#     4  12  26  44  62  99 139 177 219 271 333 393
#
# _framework density 21.139005000000001
#
# number of rings (size 3 to 8) (size 9 to 14) (size 15 to 20)
#    0.000    1.143    1.429    4.714    4.000    0.000 
#   15.429    5.714    0.000    0.000    0.000    0.000 
#    0.000    0.000    0.000    0.000    0.000    0.000 
#
# Total GULP energy -173560.786102 kJ/mol
# GULP energy per Si atom -12397.199007 kJ/mol
# Density = 2.109089 g / cm^3
# Si number density = 21.139005 Si / 1000 Ang^3
#
#
#
# Elastic Constant Matrix: (Units=GPa)
#
#
# Indices 1 2 3 4 5 6 
#
# 1 96.4074 18.4125 40.9245 7.2268 -20.1200 17.4570
# 2 18.4125 126.0970 25.6781 21.1813 17.5441 -16.0336
# 3 40.9245 25.6781 152.4536 4.1331 -13.1985 0.9957
# 4 7.2268 21.1813 4.1331 42.7059 2.2906 5.1057
# 5 -20.1200 17.5441 -13.1985 2.2906 41.0365 -0.5078
# 6 17.4570 -16.0336 0.9957 5.1057 -0.5078 32.1109
#
#
#
# Elastic Compliance Matrix: (Units=1/GPa)
#
#
# Indices 1 2 3 4 5 6 
#
# 1 0.016178 -0.004513 -0.002765 0.000602 0.008803 -0.010919
# 2 -0.004513 0.012050 -0.001359 -0.005800 -0.007362 0.009318
# 3 -0.002765 -0.001359 0.007666 0.000241 0.001684 0.000575
# 4 0.000602 -0.005800 0.000241 0.026998 0.001253 -0.007504
# 5 0.008803 -0.007362 0.001684 0.001253 0.032203 -0.008204
# 6 -0.010919 0.009318 0.000575 -0.007504 -0.008204 0.042777
#
#
# Mechanical properties :
#
#
# Convention : Reuss Voigt Hill
#
# Bulk Modulus (GPa) = 53.71141 60.55422 57.13282
# Shear Modulus (GPa) = 30.98803 42.50020 36.74412
#
# Velocity S-wave (km/s) = 3.83288 4.48874 4.17371
# Velocity P-wave (km/s) = 6.71207 7.45473 7.09312
#
# Compressibility (1/GPa) = 0.01861802
#
# Stress axis : x y z
#
# Youngs Moduli (GPa) = 61.81259 82.98953 130.44350
#
# Poissons Ratio (x) = 0.37457 0.36073
# Poissons Ratio (y) = 0.27899 0.17727
# Poissons Ratio (z) = 0.17094 0.11278
#
# Static dielectric constant tensor:
#      x y z
#    x 3.611610 -0.076650 0.001320 
#    y -0.076650 3.616300 -0.013570 
#    z 0.001320 -0.013570 4.136010 
# 
# 
# High freq. dielectric constant tensor:
#      x y z
#    x 1.831010 0.008110 -0.008300 
#    y 0.008110 1.820220 0.001020 
#    z -0.008300 0.001020 1.852770 
# 
# From -- ./inp_files/98137.got.cif
#   From: 2010.06.25/outbox.cif.g09.slc.cpg/sg2_50_cif.got.tgz:98137.got - 2010.06.27 13:26:56.
