data_PCOD8012103
_publ_section_title
;
Structure prediction by ZEFSAII (Michael W. Deem and Ramdas Pophale) SiO2 
 PCOD8012103
Probable space group: P -1
;
_chemical_formula_sum "Si O2"
_cell_formula_units_Z 16
_cell_length_a 8.904373
_cell_length_b 16.716894
_cell_length_c 8.912682
_cell_angle_alpha 34.358895
_cell_angle_beta 98.771259
_cell_angle_gamma 91.034906
_cell_volume 726.032809
_symmetry_space_group_name_H-M "P -1"
_symmetry_group_IT_number 2
_symmetry_cell_setting 'triclinic'
loop_
_space_group_symop_operation_xyz
x,y,z
-x,-y,-z
loop_
_atom_site_type_symbol
_atom_site_label
_atom_site_fract_x
_atom_site_fract_y
_atom_site_fract_z
Si Si1 0.939827 0.122277 0.995446
Si Si2 0.153206 0.834801 0.410158
Si Si3 0.435160 0.306906 0.870521
Si Si4 0.514737 0.203267 0.567988
Si Si5 0.624898 0.053188 0.128746
Si Si6 0.601791 0.521507 0.704798
Si Si7 0.080425 0.353675 0.819021
Si Si8 0.942777 0.394293 0.041562
O O1 0.883747 0.206787 0.701695
O O2 0.982390 0.234873 0.943583
O O3 0.808121 0.050483 0.165378
O O4 0.091797 0.003949 0.164928
O O5 0.338000 0.800929 0.511576
O O6 0.071933 0.748982 0.649913
O O7 0.507276 0.389310 0.889440
O O8 0.444543 0.389484 0.589766
O O9 0.258639 0.300591 0.886641
O O10 0.536771 0.145549 0.111574
O O11 0.441455 0.372205 0.323111
O O12 0.398658 0.113423 0.607089
O O13 0.560688 0.124063 0.853717
O O14 0.783660 0.462125 0.829985
O O15 0.000000 0.500000 0.500000
O O16 0.073295 0.363664 0.981712
O O17 0.000000 0.500000 0.000000
#
# Coordination Sequence:
#
# PCOD8012103 Si02
#       8
#     2   2   2   2   2   2   2   2
#     4  10  22  41  71  96 128 174 223 271 325 399
#     4  10  23  41  64  97 135 171 219 271 331 391
#     4  10  21  39  66  95 124 168 225 272 315 392
#     4   9  19  35  61  90 127 168 212 265 321 388
#     4   9  18  35  63  95 121 161 222 269 319 377
#     4  10  22  39  65  93 129 170 219 271 324 388
#     4  12  24  41  69  95 130 176 224 269 329 395
#     4  12  27  42  62  98 140 173 216 276 336 389
#
# _framework density 22.037569999999999
#
# number of rings (size 3 to 8) (size 9 to 14) (size 15 to 20)
#    0.000    1.750    1.250    2.250    8.750    3.000 
#    0.000    0.000    0.000    3.000    0.000    0.000 
#    0.000    0.000    0.000    0.000    0.000    0.000 
#
# Total GULP energy -198406.676233 kJ/mol
# GULP energy per Si atom -12400.417265 kJ/mol
# Density = 2.198741 g / cm^3
# Si number density = 22.037570 Si / 1000 Ang^3
#
#
#
# Elastic Constant Matrix: (Units=GPa)
#
#
# Indices 1 2 3 4 5 6 
#
# 1 128.9295 58.4587 11.6777 -16.9918 -9.2592 -8.2691
# 2 58.4587 145.6871 33.1360 -28.6961 -13.6020 5.8308
# 3 11.6777 33.1360 40.3898 -10.1886 -12.8052 -4.0052
# 4 -16.9918 -28.6961 -10.1886 29.7362 -2.4973 -6.3779
# 5 -9.2592 -13.6020 -12.8052 -2.4973 32.9788 -4.4962
# 6 -8.2691 5.8308 -4.0052 -6.3779 -4.4962 46.0527
#
#
#
# Elastic Compliance Matrix: (Units=1/GPa)
#
#
# Indices 1 2 3 4 5 6 
#
# 1 0.010176 -0.003680 0.002397 0.004061 0.003036 0.003360
# 2 -0.003680 0.011208 -0.006233 0.006354 0.001432 -0.001602
# 3 0.002397 -0.006233 0.037219 0.010895 0.014383 0.007370
# 4 0.004061 0.006354 0.010895 0.048804 0.012899 0.008891
# 5 0.003036 0.001432 0.014383 0.012899 0.039314 0.007239
# 6 0.003360 -0.001602 0.007370 0.008891 0.007239 0.025099
#
#
# Mechanical properties :
#
#
# Convention : Reuss Voigt Hill
#
# Bulk Modulus (GPa) = 22.95133 57.95014 40.45074
# Shear Modulus (GPa) = 24.82923 35.86915 30.34919
#
# Velocity S-wave (km/s) = 3.36024 4.03877 3.71503
# Velocity P-wave (km/s) = 5.04898 6.93557 6.06607
#
# Compressibility (1/GPa) = 0.04357045
#
# Stress axis : x y z
#
# Youngs Moduli (GPa) = 98.26849 89.22565 26.86831
#
# Poissons Ratio (x) = 0.32832 -0.06439
# Poissons Ratio (y) = 0.36159 0.16747
# Poissons Ratio (z) = -0.23551 0.55613
#
# Static dielectric constant tensor:
#      x y z
#    x 4.011090 0.032510 -0.057800 
#    y 0.032510 4.168470 -0.256310 
#    z -0.057800 -0.256310 3.458310 
# 
# 
# High freq. dielectric constant tensor:
#      x y z
#    x 1.875560 -0.002140 -0.002090 
#    y -0.002140 1.871940 -0.018110 
#    z -0.002090 -0.018110 1.841010 
# 
# From -- ./inp_files/205302.got.cif
#   From: 2010.06.25/outbox.cif.g09.slc.cpg/sg2_103_cif.got.tgz:205302.got - 2010.06.27 13:26:56.
