data_PCOD8012631
_publ_section_title
;
Structure prediction by ZEFSAII (Michael W. Deem and Ramdas Pophale) SiO2 
 PCOD8012631
Probable space group: P -1
;
_chemical_formula_sum "Si O2"
_cell_formula_units_Z 16
_cell_length_a 6.346988
_cell_length_b 6.248242
_cell_length_c 19.216926
_cell_angle_alpha 77.506243
_cell_angle_beta 102.320514
_cell_angle_gamma 89.901212
_cell_volume 725.996205
_symmetry_space_group_name_H-M "P -1"
_symmetry_group_IT_number 2
_symmetry_cell_setting 'triclinic'
loop_
_space_group_symop_operation_xyz
x,y,z
-x,-y,-z
loop_
_atom_site_type_symbol
_atom_site_label
_atom_site_fract_x
_atom_site_fract_y
_atom_site_fract_z
Si Si1 0.999148 0.855834 0.104965
Si Si2 0.171931 0.391772 0.466849
Si Si3 0.328959 0.111438 0.030834
Si Si4 0.313626 0.823541 0.853500
Si Si5 0.275737 0.168507 0.710789
Si Si6 0.913368 0.884091 0.644253
Si Si7 0.061409 0.507265 0.772341
Si Si8 0.446337 0.762280 0.400867
O O1 0.064872 0.666379 0.178511
O O2 0.219835 0.928153 0.082577
O O3 0.872359 0.063782 0.118097
O O4 0.852119 0.759497 0.038423
O O5 0.042999 0.232407 0.418822
O O6 0.280902 0.571965 0.414116
O O7 0.356998 0.251797 0.530420
O O8 0.000000 0.500000 0.500000
O O9 0.468432 0.254855 0.083351
O O10 0.500000 0.000000 0.000000
O O11 0.241082 0.602811 0.828493
O O12 0.373439 0.001476 0.787064
O O13 0.170387 0.387056 0.722442
O O14 0.467146 0.251896 0.670737
O O15 0.099733 0.052266 0.658894
O O16 0.906142 0.706864 0.719014
O O17 0.677889 0.002934 0.615515
#
# Coordination Sequence:
#
# PCOD8012631 Si02
#       8
#     2   2   2   2   2   2   2   2
#     4   9  19  38  60  86 121 158 199 247 300 356
#     4  11  25  43  64  91 122 158 201 249 300 359
#     4   9  18  37  60  84 120 160 199 248 299 351
#     4   9  20  36  59  88 118 156 199 247 301 355
#     4  10  23  42  61  88 124 159 201 250 300 358
#     4  11  23  41  63  88 123 159 197 249 303 357
#     4  10  21  40  62  88 123 160 200 249 302 357
#     4  11  24  41  64  92 120 157 202 246 302 360
#
# _framework density 22.038681
#
# number of rings (size 3 to 8) (size 9 to 14) (size 15 to 20)
#    0.000    2.000    0.000    2.625    0.000   10.500 
#    0.000   15.625    0.000    0.000    0.000    0.000 
#    0.000    0.000    0.000    0.000    0.000    0.000 
#
# Total GULP energy -198367.291312 kJ/mol
# GULP energy per Si atom -12397.955707 kJ/mol
# Density = 2.198852 g / cm^3
# Si number density = 22.038681 Si / 1000 Ang^3
#
#
#
# Elastic Constant Matrix: (Units=GPa)
#
#
# Indices 1 2 3 4 5 6 
#
# 1 116.8544 47.9524 64.7102 4.8390 -20.2703 0.7451
# 2 47.9524 108.6147 56.2162 17.1176 -0.0688 -3.2288
# 3 64.7102 56.2162 113.7389 18.4219 -15.4287 -3.7842
# 4 4.8390 17.1176 18.4219 42.7274 15.5456 9.0026
# 5 -20.2703 -0.0688 -15.4287 15.5456 48.8809 -3.6384
# 6 0.7451 -3.2288 -3.7842 9.0026 -3.6384 19.3123
#
#
#
# Elastic Compliance Matrix: (Units=1/GPa)
#
#
# Indices 1 2 3 4 5 6 
#
# 1 0.013791 -0.003233 -0.006247 0.001913 0.002938 -0.002635
# 2 -0.003233 0.013510 -0.004447 -0.003140 -0.001527 0.002688
# 3 -0.006247 -0.004447 0.017096 -0.008864 0.006225 0.008152
# 4 0.001913 -0.003140 -0.008864 0.039150 -0.016219 -0.023641
# 5 0.002938 -0.001527 0.006225 -0.016219 0.029842 0.014034
# 6 -0.002635 0.002688 0.008152 -0.023641 0.014034 0.067594
#
#
# Mechanical properties :
#
#
# Convention : Reuss Voigt Hill
#
# Bulk Modulus (GPa) = 60.45316 75.21839 67.83577
# Shear Modulus (GPa) = 23.32632 33.53941 28.43286
#
# Velocity S-wave (km/s) = 3.25688 3.90531 3.59574
# Velocity P-wave (km/s) = 6.45237 7.38509 6.93443
#
# Compressibility (1/GPa) = 0.01654173
#
# Stress axis : x y z
#
# Youngs Moduli (GPa) = 72.50984 74.02119 58.49443
#
# Poissons Ratio (x) = 0.23933 0.36543
# Poissons Ratio (y) = 0.23444 0.26012
# Poissons Ratio (z) = 0.45299 0.32916
#
# Static dielectric constant tensor:
#      x y z
#    x 3.865010 0.088710 0.145650 
#    y 0.088710 3.809750 0.054520 
#    z 0.145650 0.054520 4.491190 
# 
# 
# High freq. dielectric constant tensor:
#      x y z
#    x 1.853670 0.005600 0.001650 
#    y 0.005600 1.849800 0.002510 
#    z 0.001650 0.002510 1.895920 
# 
# From -- ./inp_files/10692.got.cif
#   From: 2010.06.25/outbox.cif.g09.slc.cpg/sg2_6_cif.got.tgz:10692.got - 2010.06.27 13:26:56.
