data_PCOD8012206
_publ_section_title
;
Structure prediction by ZEFSAII (Michael W. Deem and Ramdas Pophale) SiO2 
 PCOD8012206
Probable space group: P -1
;
_chemical_formula_sum "Si O2"
_cell_formula_units_Z 16
_cell_length_a 11.211454
_cell_length_b 5.925642
_cell_length_c 24.088103
_cell_angle_alpha 122.973721
_cell_angle_beta 33.174426
_cell_angle_gamma 119.755436
_cell_volume 731.712231
_symmetry_space_group_name_H-M "P -1"
_symmetry_group_IT_number 2
_symmetry_cell_setting 'triclinic'
loop_
_space_group_symop_operation_xyz
x,y,z
-x,-y,-z
loop_
_atom_site_type_symbol
_atom_site_label
_atom_site_fract_x
_atom_site_fract_y
_atom_site_fract_z
Si Si1 0.851166 0.418620 0.202977
Si Si2 0.663853 0.352378 0.952509
Si Si3 0.881407 0.256541 0.051594
Si Si4 0.479438 0.179905 0.584877
Si Si5 0.259253 0.505397 0.330843
Si Si6 0.505546 0.803516 0.887691
Si Si7 0.193763 0.354270 0.455527
Si Si8 0.450935 0.002585 0.687450
O O1 0.802520 0.429120 0.157564
O O2 0.703088 0.608007 0.321279
O O3 0.775300 0.110464 0.210060
O O4 0.099961 0.498837 0.131991
O O5 0.642713 0.048392 0.897984
O O6 0.500000 0.500000 0.000000
O O7 0.616200 0.376082 0.040103
O O8 0.675510 0.121509 0.077564
O O9 0.000000 0.500000 0.000000
O O10 0.000000 0.000000 0.000000
O O11 0.715065 0.335366 0.526878
O O12 0.500000 0.000000 0.500000
O O13 0.406660 0.978489 0.636153
O O14 0.302296 0.343163 0.236586
O O15 0.203208 0.307408 0.378858
O O16 0.051704 0.684656 0.428860
O O17 0.485826 0.690770 0.277143
O O18 0.340595 0.156246 0.402180
#
# Coordination Sequence:
#
# PCOD8012206 Si02
#       8
#     2   2   2   2   2   2   2   2
#     4  11  25  43  71 101 136 183 233 295 364 422
#     4  11  26  48  62  96 140 182 233 290 352 433
#     4  12  26  45  77 108 140 188 246 303 365 424
#     4  10  23  41  65  94 136 173 229 282 347 429
#     4  10  21  40  65  97 133 169 219 282 347 411
#     4  11  25  43  68  99 135 180 238 287 357 426
#     4   9  20  39  62  98 131 169 218 279 342 413
#     4  10  21  39  67  96 132 170 225 279 343 420
#
# _framework density 21.866519
#
# number of rings (size 3 to 8) (size 9 to 14) (size 15 to 20)
#    0.000    1.500    1.250    3.375    5.250    5.000 
#    2.250    0.000    0.000    0.000    0.000    0.000 
#    0.000    0.000    0.000    0.000    0.000    0.000 
#
# Total GULP energy -198263.524108 kJ/mol
# GULP energy per Si atom -12391.470257 kJ/mol
# Density = 2.181675 g / cm^3
# Si number density = 21.866519 Si / 1000 Ang^3
#
#
#
# Elastic Constant Matrix: (Units=GPa)
#
#
# Indices 1 2 3 4 5 6 
#
# 1 107.3079 22.4957 42.6279 -8.7800 4.1421 5.9621
# 2 22.4957 78.5863 43.9717 -21.1119 4.4567 -0.2870
# 3 42.6279 43.9717 130.9363 -12.8627 12.5353 18.5200
# 4 -8.7800 -21.1119 -12.8627 39.5392 9.2235 -3.0054
# 5 4.1421 4.4567 12.5353 9.2235 48.7477 3.2245
# 6 5.9621 -0.2870 18.5200 -3.0054 3.2245 34.4362
#
#
#
# Elastic Compliance Matrix: (Units=1/GPa)
#
#
# Indices 1 2 3 4 5 6 
#
# 1 0.010848 -0.001192 -0.003007 0.000823 -0.000183 -0.000182
# 2 -0.001192 0.018552 -0.005378 0.008711 -0.002139 0.004214
# 3 -0.003007 -0.005378 0.011390 0.000184 -0.001855 -0.005460
# 4 0.000823 0.008711 0.000184 0.032118 -0.007210 0.003309
# 5 -0.000183 -0.002139 -0.001855 -0.007210 0.022681 -0.001741
# 6 -0.000182 0.004214 -0.005460 0.003309 -0.001741 0.032494
#
#
# Mechanical properties :
#
#
# Convention : Reuss Voigt Hill
#
# Bulk Modulus (GPa) = 46.21794 59.44679 52.83236
# Shear Modulus (GPa) = 32.37296 38.39364 35.38330
#
# Velocity S-wave (km/s) = 3.85188 4.19479 4.02699
# Velocity P-wave (km/s) = 6.40038 7.12088 6.77022
#
# Compressibility (1/GPa) = 0.02163662
#
# Stress axis : x y z
#
# Youngs Moduli (GPa) = 92.18287 53.90312 87.79346
#
# Poissons Ratio (x) = 0.06424 0.26403
# Poissons Ratio (y) = 0.10985 0.47213
# Poissons Ratio (z) = 0.27723 0.28988
#
# Static dielectric constant tensor:
#      x y z
#    x 3.667040 -0.501680 0.028740 
#    y -0.501680 3.604440 -0.255690 
#    z 0.028740 -0.255690 4.024900 
# 
# 
# High freq. dielectric constant tensor:
#      x y z
#    x 1.859430 -0.001280 -0.000270 
#    y -0.001280 1.860930 -0.009890 
#    z -0.000270 -0.009890 1.862930 
# 
# From -- ./inp_files/38776.got.cif
#   From: 2010.06.25/outbox.cif.g09.slc.cpg/sg2_20_cif.got.tgz:38776.got - 2010.06.27 13:26:56.
