data_PCOD8012967
_publ_section_title
;
Structure prediction by ZEFSAII (Michael W. Deem and Ramdas Pophale) SiO2 
 PCOD8012967
Probable space group: P -1
;
_chemical_formula_sum "Si O2"
_cell_formula_units_Z 16
_cell_length_a 18.338094
_cell_length_b 5.487059
_cell_length_c 17.033270
_cell_angle_alpha 123.267581
_cell_angle_beta 149.635644
_cell_angle_gamma 56.069568
_cell_volume 709.640563
_symmetry_space_group_name_H-M "P -1"
_symmetry_group_IT_number 2
_symmetry_cell_setting 'triclinic'
loop_
_space_group_symop_operation_xyz
x,y,z
-x,-y,-z
loop_
_atom_site_type_symbol
_atom_site_label
_atom_site_fract_x
_atom_site_fract_y
_atom_site_fract_z
Si Si1 0.039275 0.541146 0.913319
Si Si2 0.710730 0.858279 0.462510
Si Si3 0.170509 0.104139 0.097423
Si Si4 0.261365 0.733957 0.824592
Si Si5 0.781211 0.204622 0.377877
Si Si6 0.509209 0.847062 0.565413
Si Si7 0.443788 0.108035 0.836211
Si Si8 0.028814 0.949878 0.333879
O O1 0.893669 0.726999 0.852735
O O2 0.002971 0.378266 0.771060
O O3 0.107237 0.278601 0.990950
O O4 0.142880 0.766502 0.020369
O O5 0.787902 0.517796 0.477155
O O6 0.589558 0.904327 0.288862
O O7 0.631916 0.970979 0.489091
O O8 0.848243 0.019690 0.610431
O O9 0.342614 0.097086 0.248081
O O10 0.181754 0.838649 0.686620
O O11 0.343866 0.393794 0.837090
O O12 0.382926 0.926514 0.995053
O O13 0.125418 0.804738 0.772262
O O14 0.901255 0.991466 0.505463
O O15 0.611866 0.164015 0.222624
O O16 0.500000 0.500000 0.500000
O O17 0.500000 0.000000 0.500000
#
# Coordination Sequence:
#
# PCOD8012967 Si02
#       8
#     2   2   2   2   2   2   2   2
#     4  10  23  42  67  97 133 174 217 284 329 401
#     4  10  25  41  63  94 133 172 226 279 332 408
#     4  10  23  44  66  96 135 172 225 273 338 395
#     4  10  21  40  64  95 127 174 217 277 347 400
#     4  10  22  40  62  93 130 172 220 281 335 406
#     4  12  27  44  74 101 138 184 227 279 342 408
#     4   9  21  41  65  91 132 168 221 279 336 410
#     4  11  24  38  65  94 134 174 227 276 340 402
#
# _framework density 22.546627999999998
#
# number of rings (size 3 to 8) (size 9 to 14) (size 15 to 20)
#    0.000    1.750    0.000    2.250    8.750    7.500 
#    0.000    0.000    0.000    0.000    0.000    0.000 
#    0.000    0.000    0.000    0.000    0.000    0.000 
#
# Total GULP energy -198263.444330 kJ/mol
# GULP energy per Si atom -12391.465271 kJ/mol
# Density = 2.249531 g / cm^3
# Si number density = 22.546628 Si / 1000 Ang^3
#
#
#
# Elastic Constant Matrix: (Units=GPa)
#
#
# Indices 1 2 3 4 5 6 
#
# 1 113.6595 47.3041 53.7404 -1.9872 16.2447 -6.8935
# 2 47.3041 44.3805 44.5203 7.5705 7.8354 14.9510
# 3 53.7404 44.5203 135.6173 6.9571 26.3254 -9.4556
# 4 -1.9872 7.5705 6.9571 33.7448 -2.8533 9.9319
# 5 16.2447 7.8354 26.3254 -2.8533 33.7847 0.9667
# 6 -6.8935 14.9510 -9.4556 9.9319 0.9667 39.2357
#
#
#
# Elastic Compliance Matrix: (Units=1/GPa)
#
#
# Indices 1 2 3 4 5 6 
#
# 1 0.023046 -0.034408 0.004665 0.002253 -0.007058 0.017888
# 2 -0.034408 0.098638 -0.024717 -0.003431 0.014042 -0.049066
# 3 0.004665 -0.024717 0.016875 -0.003047 -0.010356 0.015331
# 4 0.002253 -0.003431 -0.003047 0.033878 0.005169 -0.007734
# 5 -0.007058 0.014042 -0.010356 0.005169 0.038566 -0.011345
# 6 0.017888 -0.049066 0.015331 -0.007734 -0.011345 0.053259
#
#
# Mechanical properties :
#
#
# Convention : Reuss Voigt Hill
#
# Bulk Modulus (GPa) = 33.74056 64.97632 49.35844
# Shear Modulus (GPa) = 13.05272 31.22587 22.13929
#
# Velocity S-wave (km/s) = 2.40869 3.72552 3.13698
# Velocity P-wave (km/s) = 4.76791 6.88384 5.92116
#
# Compressibility (1/GPa) = 0.02963792
#
# Stress axis : x y z
#
# Youngs Moduli (GPa) = 43.39123 10.13811 59.26090
#
# Poissons Ratio (x) = 0.34884 -0.27644
# Poissons Ratio (y) = 1.49303 1.46473
# Poissons Ratio (z) = -0.20241 0.25058
#
# Static dielectric constant tensor:
#      x y z
#    x 4.148110 0.107080 0.168060 
#    y 0.107080 3.932470 0.138120 
#    z 0.168060 0.138120 4.225980 
# 
# 
# High freq. dielectric constant tensor:
#      x y z
#    x 1.885580 0.001820 0.006010 
#    y 0.001820 1.877830 0.008370 
#    z 0.006010 0.008370 1.904680 
# 
# From -- ./inp_files/90440.got.cif
#   From: 2010.06.25/outbox.cif.g09.slc.cpg/sg2_46_cif.got.tgz:90440.got - 2010.06.27 13:26:56.
