data_PCOD8012801
_publ_section_title
;
Structure prediction by ZEFSAII (Michael W. Deem and Ramdas Pophale) SiO2 
 PCOD8012801
Probable space group: P -1
;
_chemical_formula_sum "Si O2"
_cell_formula_units_Z 16
_cell_length_a 9.354782
_cell_length_b 5.268760
_cell_length_c 20.325238
_cell_angle_alpha 86.807827
_cell_angle_beta 46.958259
_cell_angle_gamma 86.026970
_cell_volume 730.358662
_symmetry_space_group_name_H-M "P -1"
_symmetry_group_IT_number 2
_symmetry_cell_setting 'triclinic'
loop_
_space_group_symop_operation_xyz
x,y,z
-x,-y,-z
loop_
_atom_site_type_symbol
_atom_site_label
_atom_site_fract_x
_atom_site_fract_y
_atom_site_fract_z
Si Si1 0.638720 0.261743 0.219055
Si Si2 0.385132 0.251025 0.557263
Si Si3 0.432135 0.208346 0.967037
Si Si4 0.033751 0.223461 0.574589
Si Si5 0.766131 0.742599 0.251999
Si Si6 0.788123 0.097079 0.043532
Si Si7 0.197752 0.610755 0.100482
Si Si8 0.189304 0.256120 0.382166
O O1 0.680169 0.526398 0.236451
O O2 0.702136 0.292149 0.122417
O O3 0.412916 0.204451 0.294771
O O4 0.759305 0.017310 0.215034
O O5 0.500000 0.500000 0.500000
O O6 0.364636 0.237956 0.642161
O O7 0.170756 0.260304 0.593394
O O8 0.500000 0.000000 0.500000
O O9 0.626337 0.376012 0.900600
O O10 0.370126 0.123417 0.914015
O O11 0.234117 0.337835 0.059066
O O12 0.500000 0.000000 0.000000
O O13 0.876259 0.458272 0.621680
O O14 0.166222 0.222744 0.467867
O O15 0.931260 0.953979 0.615912
O O16 0.989410 0.652680 0.201056
O O17 0.796757 0.200687 0.965785
O O18 0.000000 0.000000 0.000000
#
# Coordination Sequence:
#
# PCOD8012801 Si02
#       8
#     2   2   2   2   2   2   2   2
#     4  12  26  42  66 101 133 172 224 278 331 392
#     4  12  25  45  69  97 133 173 222 272 335 403
#     4   9  21  41  63  94 132 182 221 276 340 394
#     4  10  21  40  66  91 124 168 206 264 331 391
#     4  12  26  43  68  98 132 174 222 279 329 401
#     4  11  22  40  66  95 135 174 227 275 334 400
#     4  10  22  42  66  94 135 181 222 279 338 400
#     4  10  21  40  63  93 128 160 209 266 327 388
#
# _framework density 21.907043000000002
#
# number of rings (size 3 to 8) (size 9 to 14) (size 15 to 20)
#    0.000    1.250    1.250    4.500    3.500    4.000 
#    6.750    0.000    0.000    0.000    0.000    0.000 
#    0.000    0.000    0.000    0.000    0.000    0.000 
#
# Total GULP energy -198313.347864 kJ/mol
# GULP energy per Si atom -12394.584242 kJ/mol
# Density = 2.185718 g / cm^3
# Si number density = 21.907043 Si / 1000 Ang^3
#
#
#
# Elastic Constant Matrix: (Units=GPa)
#
#
# Indices 1 2 3 4 5 6 
#
# 1 127.4096 23.1256 35.7558 15.4676 3.9549 15.8945
# 2 23.1256 102.8015 22.9443 20.4449 4.3684 12.2143
# 3 35.7558 22.9443 108.3207 24.0478 -5.3841 7.1180
# 4 15.4676 20.4449 24.0478 32.2786 -0.9940 -1.0715
# 5 3.9549 4.3684 -5.3841 -0.9940 39.1935 12.1592
# 6 15.8945 12.2143 7.1180 -1.0715 12.1592 37.3078
#
#
#
# Elastic Compliance Matrix: (Units=1/GPa)
#
#
# Indices 1 2 3 4 5 6 
#
# 1 0.009310 -0.000707 -0.002152 -0.002526 -0.000185 -0.003336
# 2 -0.000707 0.011809 -0.000529 -0.006876 -0.000396 -0.003532
# 3 -0.002152 -0.000529 0.012001 -0.007573 0.002417 -0.002205
# 4 -0.002526 -0.006876 -0.007573 0.042369 -0.000893 0.006280
# 5 -0.000185 -0.000396 0.002417 -0.000893 0.028894 -0.009695
# 6 -0.003336 -0.003532 -0.002205 0.006280 -0.009695 0.033143
#
#
# Mechanical properties :
#
#
# Convention : Reuss Voigt Hill
#
# Bulk Modulus (GPa) = 37.96245 55.79814 46.88029
# Shear Modulus (GPa) = 32.66214 38.86971 35.76593
#
# Velocity S-wave (km/s) = 3.86546 4.21682 4.04496
# Velocity P-wave (km/s) = 6.10646 7.01672 6.57736
#
# Compressibility (1/GPa) = 0.02634182
#
# Stress axis : x y z
#
# Youngs Moduli (GPa) = 107.41440 84.68390 83.32933
#
# Poissons Ratio (x) = 0.05989 0.17936
# Poissons Ratio (y) = 0.07596 0.04407
# Poissons Ratio (z) = 0.23120 0.04479
#
# Static dielectric constant tensor:
#      x y z
#    x 4.700340 0.584400 -0.094790 
#    y 0.584400 4.268560 0.098220 
#    z -0.094790 0.098220 3.892630 
# 
# 
# High freq. dielectric constant tensor:
#      x y z
#    x 1.877370 0.006190 -0.007630 
#    y 0.006190 1.872080 0.018340 
#    z -0.007630 0.018340 1.848670 
# 
# From -- ./inp_files/107034.got.cif
#   From: 2010.06.25/outbox.cif.g09.slc.cpg/sg2_54_cif.got.tgz:107034.got - 2010.06.27 13:26:56.
