data_PCOD8012727
_publ_section_title
;
Structure prediction by ZEFSAII (Michael W. Deem and Ramdas Pophale) SiO2 
 PCOD8012727
Probable space group: P -1
;
_chemical_formula_sum "Si O2"
_cell_formula_units_Z 12
_cell_length_a 11.161214
_cell_length_b 13.562561
_cell_length_c 9.043278
_cell_angle_alpha 62.075623
_cell_angle_beta 124.337019
_cell_angle_gamma 149.397619
_cell_volume 574.962227
_symmetry_space_group_name_H-M "P -1"
_symmetry_group_IT_number 2
_symmetry_cell_setting 'triclinic'
loop_
_space_group_symop_operation_xyz
x,y,z
-x,-y,-z
loop_
_atom_site_type_symbol
_atom_site_label
_atom_site_fract_x
_atom_site_fract_y
_atom_site_fract_z
Si Si1 0.588382 0.221446 0.445029
Si Si2 0.245102 0.090442 0.041314
Si Si3 0.643950 0.515330 0.974818
Si Si4 0.123520 0.938374 0.484843
Si Si5 0.038614 0.347720 0.640353
Si Si6 0.048527 0.154539 0.248336
O O1 0.377368 0.103851 0.253213
O O2 0.760312 0.438425 0.436050
O O3 0.756970 0.220325 0.526052
O O4 0.421163 0.097090 0.563431
O O5 0.453303 0.296526 0.958084
O O6 0.000000 0.000000 0.000000
O O7 0.157909 0.952211 0.947988
O O8 0.894478 0.632404 0.155134
O O9 0.500000 0.500000 0.000000
O O10 0.706148 0.621445 0.792617
O O11 0.952118 0.758559 0.377855
O O12 0.038954 0.852573 0.651042
O O13 0.093320 0.050480 0.354987
#
# Coordination Sequence:
#
# PCOD8012727 Si02
#       6
#     2   2   2   2   2   2
#     4  10  21  40  63  87 114 156 200 244 290 349
#     4  11  19  37  63  84 114 152 201 242 284 348
#     4  11  20  36  62  85 113 153 202 245 282 342
#     4  11  22  38  57  86 126 154 191 246 299 344
#     4  10  22  39  63  87 114 156 203 240 293 351
#     4  11  23  36  57  91 119 156 196 241 299 344
#
# _framework density 20.870937000000001
#
# number of rings (size 3 to 8) (size 9 to 14) (size 15 to 20)
#    0.000    1.333    3.333    3.500    0.000    1.333 
#    0.000    7.500    0.000    6.000    0.000    0.000 
#    0.000    0.000    0.000    0.000    0.000    0.000 
#
# Total GULP energy -148737.872280 kJ/mol
# GULP energy per Si atom -12394.822690 kJ/mol
# Density = 2.082343 g / cm^3
# Si number density = 20.870937 Si / 1000 Ang^3
#
#
#
# Elastic Constant Matrix: (Units=GPa)
#
#
# Indices 1 2 3 4 5 6 
#
# 1 80.6357 49.8371 39.6343 -9.1619 -8.8571 13.9736
# 2 49.8371 106.0812 54.2099 -15.2251 -20.5558 17.3557
# 3 39.6343 54.2099 79.1510 -5.9459 2.9175 22.9478
# 4 -9.1619 -15.2251 -5.9459 43.5925 11.6274 -2.4553
# 5 -8.8571 -20.5558 2.9175 11.6274 35.4577 -3.4953
# 6 13.9736 17.3557 22.9478 -2.4553 -3.4953 35.7978
#
#
#
# Elastic Compliance Matrix: (Units=1/GPa)
#
#
# Indices 1 2 3 4 5 6 
#
# 1 0.018917 -0.005552 -0.005363 0.000827 0.001574 -0.001044
# 2 -0.005552 0.020082 -0.011553 0.001438 0.010832 0.000993
# 3 -0.005363 -0.011553 0.026792 0.000994 -0.011607 -0.010545
# 4 0.000827 0.001438 0.000994 0.025727 -0.007540 -0.000629
# 5 0.001574 0.010832 -0.011607 -0.007540 0.038781 0.004844
# 6 -0.001044 0.000993 -0.010545 -0.000629 0.004844 0.035050
#
#
# Mechanical properties :
#
#
# Convention : Reuss Voigt Hill
#
# Bulk Modulus (GPa) = 47.95172 61.47004 54.71088
# Shear Modulus (GPa) = 23.01647 31.11539 27.06593
#
# Velocity S-wave (km/s) = 3.32445 3.86534 3.60505
# Velocity P-wave (km/s) = 6.14501 7.03118 6.60298
#
# Compressibility (1/GPa) = 0.02085431
#
# Stress axis : x y z
#
# Youngs Moduli (GPa) = 52.86344 49.79664 37.32462
#
# Poissons Ratio (x) = 0.27647 0.20018
# Poissons Ratio (y) = 0.29349 0.43121
# Poissons Ratio (z) = 0.28351 0.57530
#
# Static dielectric constant tensor:
#      x y z
#    x 3.641630 0.138420 0.157590 
#    y 0.138420 3.715850 -0.043670 
#    z 0.157590 -0.043670 4.482540 
# 
# 
# High freq. dielectric constant tensor:
#      x y z
#    x 1.780520 0.003150 0.005820 
#    y 0.003150 1.852400 -0.004320 
#    z 0.005820 -0.004320 1.805640 
# 
# From -- ./inp_files/260845.got.cif
#   From: 2010.06.25/outbox.cif.g09.slc.cpg/sg2_131_cif.got.tgz:260845.got - 2010.06.27 13:26:56.
