data_PCOD8012639
_publ_section_title
;
Structure prediction by ZEFSAII (Michael W. Deem and Ramdas Pophale) SiO2 
 PCOD8012639
Probable space group: P -1
;
_chemical_formula_sum "Si O2"
_cell_formula_units_Z 16
_cell_length_a 17.079765
_cell_length_b 7.423121
_cell_length_c 6.792194
_cell_angle_alpha 91.217690
_cell_angle_beta 95.286314
_cell_angle_gamma 50.539319
_cell_volume 661.252131
_symmetry_space_group_name_H-M "P -1"
_symmetry_group_IT_number 2
_symmetry_cell_setting 'triclinic'
loop_
_space_group_symop_operation_xyz
x,y,z
-x,-y,-z
loop_
_atom_site_type_symbol
_atom_site_label
_atom_site_fract_x
_atom_site_fract_y
_atom_site_fract_z
Si Si1 0.332738 0.095822 0.528195
Si Si2 0.825406 0.262673 0.841312
Si Si3 0.923155 0.844718 0.574293
Si Si4 0.457317 0.675782 0.298718
Si Si5 0.766080 0.207178 0.235071
Si Si6 0.419947 0.785708 0.879194
Si Si7 0.647571 0.554867 0.538574
Si Si8 0.886425 0.503327 0.621490
O O1 0.387687 0.186516 0.438606
O O2 0.214649 0.310217 0.522951
O O3 0.355620 0.874850 0.406351
O O4 0.381465 0.013012 0.754210
O O5 0.709568 0.396045 0.740245
O O6 0.858889 0.421781 0.805794
O O7 0.904632 0.018152 0.742324
O O8 0.827968 0.210900 0.070958
O O9 0.927532 0.643897 0.682843
O O10 0.033886 0.720693 0.501656
O O11 0.840259 0.974229 0.380435
O O12 0.477046 0.447931 0.204853
O O13 0.550248 0.571576 0.472166
O O14 0.450864 0.810432 0.104793
O O15 0.672813 0.223235 0.132662
O O16 0.724038 0.430411 0.366255
#
# Coordination Sequence:
#
# PCOD8012639 Si02
#       8
#     2   2   2   2   2   2   2   2
#     4  11  21  38  61  85 119 162 201 252 303 364
#     4  10  22  40  65  92 123 168 202 251 309 369
#     4  10  21  43  64  88 128 162 203 258 307 366
#     4  10  22  37  58  87 119 161 204 244 302 368
#     4  10  21  40  62  89 125 162 203 249 306 364
#     4  10  22  37  57  88 120 158 202 251 297 361
#     4   9  22  39  58  89 125 158 198 256 303 356
#     4  10  22  40  64  93 123 160 209 255 307 363
#
# _framework density 24.19652
#
# number of rings (size 3 to 8) (size 9 to 14) (size 15 to 20)
#    0.000    2.000    1.250    1.125    1.750    6.000 
#    0.000    3.750    0.000    0.000    0.000    0.000 
#    0.000    0.000    0.000    0.000    0.000    0.000 
#
# Total GULP energy -198218.846059 kJ/mol
# GULP energy per Si atom -12388.677879 kJ/mol
# Density = 2.414145 g / cm^3
# Si number density = 24.196520 Si / 1000 Ang^3
#
#
#
# Elastic Constant Matrix: (Units=GPa)
#
#
# Indices 1 2 3 4 5 6 
#
# 1 63.2223 26.9627 8.9244 7.9736 -17.0089 -0.0317
# 2 26.9627 118.7710 34.0759 -5.3969 -13.0049 -11.3492
# 3 8.9244 34.0759 118.4756 -1.8944 -20.9906 1.1067
# 4 7.9736 -5.3969 -1.8944 17.1534 2.5218 -7.2261
# 5 -17.0089 -13.0049 -20.9906 2.5218 30.5698 -8.5298
# 6 -0.0317 -11.3492 1.1067 -7.2261 -8.5298 38.1162
#
#
#
# Elastic Compliance Matrix: (Units=1/GPa)
#
#
# Indices 1 2 3 4 5 6 
#
# 1 0.022997 -0.005156 0.001763 -0.014609 0.012594 -0.001519
# 2 -0.005156 0.011276 -0.002617 0.007664 0.000918 0.005088
# 3 0.001763 -0.002617 0.010297 -0.001451 0.007126 0.000243
# 4 -0.014609 0.007664 -0.001451 0.074697 -0.007925 0.014700
# 5 0.012594 0.000918 0.007126 -0.007925 0.048273 0.009377
# 6 -0.001519 0.005088 0.000243 0.014700 0.009377 0.032627
#
#
# Mechanical properties :
#
#
# Convention : Reuss Voigt Hill
#
# Bulk Modulus (GPa) = 30.72287 48.93275 39.82781
# Shear Modulus (GPa) = 22.41760 32.53494 27.47627
#
# Velocity S-wave (km/s) = 3.04712 3.67087 3.37344
# Velocity P-wave (km/s) = 5.01046 6.18337 5.62755
#
# Compressibility (1/GPa) = 0.03254904
#
# Stress axis : x y z
#
# Youngs Moduli (GPa) = 43.48330 88.68465 97.11113
#
# Poissons Ratio (x) = 0.45730 -0.17117
# Poissons Ratio (y) = 0.22422 0.25414
# Poissons Ratio (z) = -0.07664 0.23209
#
# Static dielectric constant tensor:
#      x y z
#    x 4.218750 0.030550 -0.151030 
#    y 0.030550 4.692350 -0.108960 
#    z -0.151030 -0.108960 4.315030 
# 
# 
# High freq. dielectric constant tensor:
#      x y z
#    x 1.943500 -0.003420 -0.021490 
#    y -0.003420 1.978460 -0.013120 
#    z -0.021490 -0.013120 1.948230 
# 
# From -- ./inp_files/39830.got.cif
#   From: 2010.06.25/outbox.cif.g09.slc.cpg/sg2_20_cif.got.tgz:39830.got - 2010.06.27 13:26:56.
