data_PCOD8012400
_publ_section_title
;
Structure prediction by ZEFSAII (Michael W. Deem and Ramdas Pophale) SiO2 
 PCOD8012400
Probable space group: P -1
;
_chemical_formula_sum "Si O2"
_cell_formula_units_Z 16
_cell_length_a 9.462760
_cell_length_b 11.445318
_cell_length_c 13.369078
_cell_angle_alpha 95.265074
_cell_angle_beta 86.665174
_cell_angle_gamma 27.872797
_cell_volume 643.186700
_symmetry_space_group_name_H-M "P -1"
_symmetry_group_IT_number 2
_symmetry_cell_setting 'triclinic'
loop_
_space_group_symop_operation_xyz
x,y,z
-x,-y,-z
loop_
_atom_site_type_symbol
_atom_site_label
_atom_site_fract_x
_atom_site_fract_y
_atom_site_fract_z
Si Si1 0.460646 0.956110 0.306871
Si Si2 0.398889 0.768191 0.788516
Si Si3 0.716116 0.239523 0.858592
Si Si4 0.724734 0.797691 0.065620
Si Si5 0.296864 0.680396 0.349661
Si Si6 0.702049 0.504376 0.941629
Si Si7 0.286997 0.435819 0.598776
Si Si8 0.639989 0.062785 0.386977
O O1 0.633813 0.926120 0.366785
O O2 0.079595 0.254852 0.352749
O O3 0.538529 0.897733 0.180705
O O4 0.591170 0.738007 0.329956
O O5 0.525210 0.570451 0.699818
O O6 0.618906 0.650155 0.861969
O O7 0.361614 0.904795 0.727294
O O8 0.068928 0.968563 0.865457
O O9 0.717821 0.220673 0.738021
O O10 0.579366 0.470698 0.903950
O O11 0.490960 0.316008 0.935050
O O12 0.922705 0.770040 0.077761
O O13 0.000000 0.500000 0.000000
O O14 0.500000 0.000000 0.000000
O O15 0.493531 0.608849 0.417343
O O16 0.948082 0.893449 0.414853
O O17 0.336846 0.333005 0.482611
#
# Coordination Sequence:
#
# PCOD8012400 Si02
#       8
#     2   2   2   2   2   2   2   2
#     4  12  29  51  75 107 153 194 250 296 371 446
#     4  10  21  39  72 103 139 191 238 307 356 442
#     4   9  20  39  65 101 133 187 233 302 357 436
#     4  12  29  47  72 105 143 195 232 297 363 442
#     4  10  24  42  71 105 147 182 245 305 371 429
#     4  10  22  40  66  96 142 181 250 286 366 430
#     4  12  29  48  77 111 149 195 246 315 365 426
#     4  11  26  48  76 103 146 196 255 296 370 434
#
# _framework density 24.876135999999999
#
# number of rings (size 3 to 8) (size 9 to 14) (size 15 to 20)
#    0.000    1.250    0.000    4.500   15.750    0.500 
#    0.000    0.000    0.000    0.000    0.000    0.000 
#    0.000    0.000    0.000    0.000    0.000    0.000 
#
# Total GULP energy -198241.587242 kJ/mol
# GULP energy per Si atom -12390.099203 kJ/mol
# Density = 2.481952 g / cm^3
# Si number density = 24.876136 Si / 1000 Ang^3
#
#
#
# Elastic Constant Matrix: (Units=GPa)
#
#
# Indices 1 2 3 4 5 6 
#
# 1 80.3685 18.3341 6.5477 0.7373 0.3489 -21.1544
# 2 18.3341 122.8518 19.6822 11.1805 -18.9063 -17.3757
# 3 6.5477 19.6822 84.2271 21.2137 -8.8171 -15.5513
# 4 0.7373 11.1805 21.2137 37.6159 -1.3910 1.0915
# 5 0.3489 -18.9063 -8.8171 -1.3910 27.7424 2.6790
# 6 -21.1544 -17.3757 -15.5513 1.0915 2.6790 33.0238
#
#
#
# Elastic Compliance Matrix: (Units=1/GPa)
#
#
# Indices 1 2 3 4 5 6 
#
# 1 0.015217 -0.001240 0.000915 -0.000791 -0.001721 0.009692
# 2 -0.001240 0.010155 -0.000162 -0.002785 0.006354 0.004049
# 3 0.000915 -0.000162 0.016003 -0.009090 0.003732 0.008034
# 4 -0.000791 -0.002785 -0.009090 0.032670 -0.002450 -0.007133
# 5 -0.001721 0.006354 0.003732 -0.002450 0.041391 0.000721
# 6 0.009692 0.004049 0.008034 -0.007133 0.000721 0.042581
#
#
# Mechanical properties :
#
#
# Convention : Reuss Voigt Hill
#
# Bulk Modulus (GPa) = 24.75181 41.84170 33.29676
# Shear Modulus (GPa) = 28.99259 35.86865 32.43062
#
# Velocity S-wave (km/s) = 3.41761 3.80134 3.61457
# Velocity P-wave (km/s) = 5.05421 6.01028 5.55286
#
# Compressibility (1/GPa) = 0.04040108
#
# Stress axis : x y z
#
# Youngs Moduli (GPa) = 65.71702 98.47489 62.48831
#
# Poissons Ratio (x) = 0.12207 -0.05719
# Poissons Ratio (y) = 0.08146 0.01015
# Poissons Ratio (z) = -0.06015 0.01600
#
# Static dielectric constant tensor:
#      x y z
#    x 4.606530 -0.157160 -0.120740 
#    y -0.157160 4.505000 0.036940 
#    z -0.120740 0.036940 4.614090 
# 
# 
# High freq. dielectric constant tensor:
#      x y z
#    x 1.988160 -0.003560 0.000310 
#    y -0.003560 1.989860 0.007870 
#    z 0.000310 0.007870 2.002460 
# 
# From -- ./inp_files/500467.got.cif
#   From: 2010.06.25/outbox.cif.g09.slc.cpg/sg2_251_cif.got.tgz:500467.got - 2010.06.27 13:26:56.
