data_PCOD8012299
_publ_section_title
;
Structure prediction by ZEFSAII (Michael W. Deem and Ramdas Pophale) SiO2 
 PCOD8012299
Probable space group: P -1
;
_chemical_formula_sum "Si O2"
_cell_formula_units_Z 16
_cell_length_a 11.725636
_cell_length_b 8.723680
_cell_length_c 9.064594
_cell_angle_alpha 126.151640
_cell_angle_beta 117.644471
_cell_angle_gamma 69.088705
_cell_volume 658.723737
_symmetry_space_group_name_H-M "P -1"
_symmetry_group_IT_number 2
_symmetry_cell_setting 'triclinic'
loop_
_space_group_symop_operation_xyz
x,y,z
-x,-y,-z
loop_
_atom_site_type_symbol
_atom_site_label
_atom_site_fract_x
_atom_site_fract_y
_atom_site_fract_z
Si Si1 0.003408 0.989898 0.818764
Si Si2 0.675955 0.317929 0.036203
Si Si3 0.893516 0.512922 0.158961
Si Si4 0.220075 0.792081 0.675031
Si Si5 0.212110 0.077590 0.559711
Si Si6 0.561485 0.733910 0.299547
Si Si7 0.854338 0.655787 0.903252
Si Si8 0.625056 0.580650 0.556176
O O1 0.860961 0.016752 0.673377
O O2 0.080000 0.801340 0.678954
O O3 0.090795 0.149791 0.905325
O O4 0.000000 0.000000 0.000000
O O5 0.821847 0.335498 0.076350
O O6 0.678462 0.194800 0.119688
O O7 0.616425 0.536445 0.145331
O O8 0.588882 0.216502 0.809410
O O9 0.861652 0.711792 0.336931
O O10 0.048375 0.448491 0.222263
O O11 0.850412 0.524037 0.968890
O O12 0.261742 0.586378 0.512819
O O13 0.220663 0.952046 0.640929
O O14 0.359202 0.095463 0.609632
O O15 0.573528 0.720708 0.474458
O O16 0.705068 0.701401 0.784805
O O17 0.500000 0.500000 0.500000
#
# Coordination Sequence:
#
# PCOD8012299 Si02
#       8
#     2   2   2   2   2   2   2   2
#     4  12  25  43  67 104 144 172 221 282 341 401
#     4   9  19  39  64  92 128 168 231 264 329 393
#     4  10  21  39  68  98 129 183 216 280 329 412
#     4  11  24  43  69 101 135 179 219 285 341 398
#     4  11  23  43  69  98 140 174 222 280 345 399
#     4   9  20  40  64  92 127 179 221 274 327 402
#     4  11  23  38  67  98 133 174 229 269 339 400
#     4  11  24  45  69  96 136 179 234 277 333 404
#
# _framework density 24.289393
#
# number of rings (size 3 to 8) (size 9 to 14) (size 15 to 20)
#    0.000    1.500    1.250    3.375    3.500    1.500 
#    4.500    5.625    0.000    0.000    0.000    0.000 
#    0.000    0.000    0.000    0.000    0.000    0.000 
#
# Total GULP energy -198251.679174 kJ/mol
# GULP energy per Si atom -12390.729948 kJ/mol
# Density = 2.423411 g / cm^3
# Si number density = 24.289393 Si / 1000 Ang^3
#
#
#
# Elastic Constant Matrix: (Units=GPa)
#
#
# Indices 1 2 3 4 5 6 
#
# 1 113.5396 34.4783 67.8813 -23.4992 18.9843 29.7522
# 2 34.4783 79.8968 54.1846 -23.8202 6.9564 16.3600
# 3 67.8813 54.1846 141.2406 -34.1216 38.0906 19.7110
# 4 -23.4992 -23.8202 -34.1216 38.9209 -7.9884 -11.4913
# 5 18.9843 6.9564 38.0906 -7.9884 49.7837 -2.6751
# 6 29.7522 16.3600 19.7110 -11.4913 -2.6751 32.1866
#
#
#
# Elastic Compliance Matrix: (Units=1/GPa)
#
#
# Indices 1 2 3 4 5 6 
#
# 1 0.015242 -0.000728 -0.004595 0.001016 -0.002610 -0.010759
# 2 -0.000728 0.018876 -0.005875 0.005647 0.002876 -0.003069
# 3 -0.004595 -0.005875 0.015069 0.004876 -0.008224 -0.000937
# 4 0.001016 0.005647 0.004876 0.036119 0.001221 0.006201
# 5 -0.002610 0.002876 -0.008224 0.001221 0.027637 0.008720
# 6 -0.010759 -0.003069 -0.000937 0.006201 0.008720 0.046086
#
#
# Mechanical properties :
#
#
# Convention : Reuss Voigt Hill
#
# Bulk Modulus (GPa) = 37.32557 71.97393 54.64975
# Shear Modulus (GPa) = 26.26646 36.05376 31.16011
#
# Velocity S-wave (km/s) = 3.29203 3.85690 3.58560
# Velocity P-wave (km/s) = 5.46354 7.03778 6.30003
#
# Compressibility (1/GPa) = 0.02679128
#
# Stress axis : x y z
#
# Youngs Moduli (GPa) = 65.60850 52.97749 66.35970
#
# Poissons Ratio (x) = 0.03855 0.30495
# Poissons Ratio (y) = 0.04774 0.38986
# Poissons Ratio (z) = 0.30150 0.31124
#
# Static dielectric constant tensor:
#      x y z
#    x 4.581130 -0.076840 0.057250 
#    y -0.076840 4.294500 -0.108940 
#    z 0.057250 -0.108940 4.313270 
# 
# 
# High freq. dielectric constant tensor:
#      x y z
#    x 1.963740 -0.001090 -0.000930 
#    y -0.001090 1.958760 -0.013310 
#    z -0.000930 -0.013310 1.965520 
# 
# From -- ./inp_files/245657.got.cif
#   From: 2010.06.25/outbox.cif.g09.slc.cpg/sg2_123_cif.got.tgz:245657.got - 2010.06.27 13:26:56.
