data_PCOD8012465
_publ_section_title
;
Structure prediction by ZEFSAII (Michael W. Deem and Ramdas Pophale) SiO2 
 PCOD8012465
Probable space group: P -1
;
_chemical_formula_sum "Si O2"
_cell_formula_units_Z 16
_cell_length_a 17.814497
_cell_length_b 5.040794
_cell_length_c 20.497185
_cell_angle_alpha 97.082415
_cell_angle_beta 158.629574
_cell_angle_gamma 80.030630
_cell_volume 656.893357
_symmetry_space_group_name_H-M "P -1"
_symmetry_group_IT_number 2
_symmetry_cell_setting 'triclinic'
loop_
_space_group_symop_operation_xyz
x,y,z
-x,-y,-z
loop_
_atom_site_type_symbol
_atom_site_label
_atom_site_fract_x
_atom_site_fract_y
_atom_site_fract_z
Si Si1 0.151206 0.982850 0.561113
Si Si2 0.032047 0.813863 0.929347
Si Si3 0.547050 0.533661 0.366087
Si Si4 0.586047 0.585335 0.250924
Si Si5 0.763629 0.721341 0.829495
Si Si6 0.867050 0.395076 0.128626
Si Si7 0.939318 0.113348 0.655192
Si Si8 0.372852 0.011211 0.461808
O O1 0.254626 0.251619 0.650585
O O2 0.334740 0.729944 0.705896
O O3 0.015087 0.962066 0.385416
O O4 0.000000 0.000000 0.500000
O O5 0.129161 0.599678 0.946907
O O6 0.927531 0.649719 0.899450
O O7 0.855992 0.019820 0.751905
O O8 0.189651 0.007733 0.089656
O O9 0.563613 0.664524 0.312044
O O10 0.289573 0.518429 0.171137
O O11 0.698837 0.241354 0.478432
O O12 0.638250 0.705900 0.500581
O O13 0.362746 0.651539 0.036891
O O14 0.516652 0.768844 0.609836
O O15 0.903623 0.685996 0.191649
O O16 0.033367 0.157325 0.287571
O O17 0.500000 0.000000 0.500000
#
# Coordination Sequence:
#
# PCOD8012465 Si02
#       8
#     2   2   2   2   2   2   2   2
#     4  11  25  51  77 107 141 180 225 276 352 444
#     4  10  22  40  61  89 139 186 238 298 355 401
#     4  11  23  41  67  96 134 185 247 295 346 422
#     4  11  26  43  76 107 139 186 225 289 352 420
#     4  10  23  41  57  92 133 188 243 298 355 406
#     4  12  24  45  65 107 145 179 238 290 350 416
#     4  11  25  42  73 102 137 184 232 288 354 425
#     4  10  21  40  59  91 132 182 240 304 357 410
#
# _framework density 24.357073
#
# number of rings (size 3 to 8) (size 9 to 14) (size 15 to 20)
#    0.000    1.250    1.250    4.125    8.750    2.000 
#    4.500    7.500    0.000    0.000    0.000    0.000 
#    0.000    0.000    0.000    0.000    0.000    0.000 
#
# Total GULP energy -198305.011085 kJ/mol
# GULP energy per Si atom -12394.063193 kJ/mol
# Density = 2.430163 g / cm^3
# Si number density = 24.357073 Si / 1000 Ang^3
#
#
#
# Elastic Constant Matrix: (Units=GPa)
#
#
# Indices 1 2 3 4 5 6 
#
# 1 174.9156 36.3627 57.0960 13.8590 12.9908 -7.1525
# 2 36.3627 74.3092 4.9968 12.1697 -3.5125 6.5358
# 3 57.0960 4.9968 111.3840 11.7007 9.1142 7.6773
# 4 13.8590 12.1697 11.7007 35.1743 3.6277 0.7535
# 5 12.9908 -3.5125 9.1142 3.6277 30.0106 5.7284
# 6 -7.1525 6.5358 7.6773 0.7535 5.7284 36.1238
#
#
#
# Elastic Compliance Matrix: (Units=1/GPa)
#
#
# Indices 1 2 3 4 5 6 
#
# 1 0.008377 -0.004311 -0.004054 -0.000170 -0.003619 0.003878
# 2 -0.004311 0.016957 0.001944 -0.005207 0.004843 -0.004994
# 3 -0.004054 0.001944 0.011544 -0.002787 -0.000525 -0.003466
# 4 -0.000170 -0.005207 -0.002787 0.031585 -0.003783 0.001442
# 5 -0.003619 0.004843 -0.000525 -0.003783 0.037474 -0.007345
# 6 0.003878 -0.004994 -0.003466 0.001442 -0.007345 0.031225
#
#
# Mechanical properties :
#
#
# Convention : Reuss Voigt Hill
#
# Bulk Modulus (GPa) = 41.60430 61.94663 51.77546
# Shear Modulus (GPa) = 31.64228 37.73864 34.69046
#
# Velocity S-wave (km/s) = 3.60821 3.94050 3.77801
# Velocity P-wave (km/s) = 5.87171 6.79642 6.35092
#
# Compressibility (1/GPa) = 0.02403597
#
# Stress axis : x y z
#
# Youngs Moduli (GPa) = 119.36739 58.97208 86.62856
#
# Poissons Ratio (x) = 0.25423 0.35121
# Poissons Ratio (y) = 0.51460 -0.16842
# Poissons Ratio (z) = 0.48394 -0.11465
#
# Static dielectric constant tensor:
#      x y z
#    x 4.386320 -0.172740 0.018140 
#    y -0.172740 3.766450 0.141010 
#    z 0.018140 0.141010 4.343760 
# 
# 
# High freq. dielectric constant tensor:
#      x y z
#    x 1.966970 0.010650 -0.005090 
#    y 0.010650 1.965490 -0.016070 
#    z -0.005090 -0.016070 1.995870 
# 
# From -- ./inp_files/599043.got.cif
#   From: 2010.06.25/outbox.cif.g09.slc.cpg/sg2_300_cif.got.tgz:599043.got - 2010.06.27 13:26:56.
