data_PCOD8012585
_publ_section_title
;
Structure prediction by ZEFSAII (Michael W. Deem and Ramdas Pophale) SiO2 
 PCOD8012585
Probable space group: P -1
;
_chemical_formula_sum "Si O2"
_cell_formula_units_Z 16
_cell_length_a 15.661701
_cell_length_b 14.924890
_cell_length_c 8.594033
_cell_angle_alpha 124.544464
_cell_angle_beta 117.037991
_cell_angle_gamma 26.835137
_cell_volume 739.784213
_symmetry_space_group_name_H-M "P -1"
_symmetry_group_IT_number 2
_symmetry_cell_setting 'triclinic'
loop_
_space_group_symop_operation_xyz
x,y,z
-x,-y,-z
loop_
_atom_site_type_symbol
_atom_site_label
_atom_site_fract_x
_atom_site_fract_y
_atom_site_fract_z
Si Si1 0.398612 0.412624 0.931391
Si Si2 0.305563 0.072429 0.653929
Si Si3 0.830405 0.296660 0.261745
Si Si4 0.735810 0.623281 0.561618
Si Si5 0.171567 0.428006 0.748084
Si Si6 0.754280 0.086946 0.684630
Si Si7 0.488149 0.512221 0.318670
Si Si8 0.147940 0.305843 0.049637
O O1 0.230192 0.625279 0.891063
O O2 0.334871 0.352818 0.864922
O O3 0.603169 0.216409 0.824258
O O4 0.584326 0.533944 0.845430
O O5 0.230008 0.251325 0.677770
O O6 0.516534 0.838781 0.540132
O O7 0.180877 0.091398 0.514287
O O8 0.296970 0.092124 0.855800
O O9 0.789614 0.446916 0.475732
O O10 0.701669 0.325797 0.250281
O O11 0.054407 0.045941 0.215464
O O12 0.858217 0.541518 0.432538
O O13 0.753013 0.688840 0.782192
O O14 0.965190 0.658097 0.883055
O O15 0.661911 0.251509 0.635599
O O16 0.500000 0.500000 0.500000
O O17 0.000000 0.500000 0.000000
#
# Coordination Sequence:
#
# PCOD8012585 Si02
#       8
#     2   2   2   2   2   2   2   2
#     4  10  23  43  66  93 128 167 213 265 314 380
#     4  11  21  39  63  95 130 169 210 259 323 377
#     4  10  21  41  71  92 123 168 214 267 315 375
#     4  11  20  39  63  91 130 171 213 258 313 377
#     4  10  21  40  61  93 129 165 213 263 305 377
#     4  11  22  43  69  94 123 168 219 261 320 379
#     4  11  25  44  64  94 130 163 210 268 324 383
#     4  10  22  35  55  89 129 171 208 252 312 378
#
# _framework density 21.627929000000002
#
# number of rings (size 3 to 8) (size 9 to 14) (size 15 to 20)
#    0.000    1.500    3.750    4.125    0.000    6.500 
#    2.250    0.000    0.000    0.000    0.000    0.000 
#    0.000    0.000    0.000    0.000    0.000    0.000 
#
# Total GULP energy -198347.634482 kJ/mol
# GULP energy per Si atom -12396.727155 kJ/mol
# Density = 2.157870 g / cm^3
# Si number density = 21.627929 Si / 1000 Ang^3
#
#
#
# Elastic Constant Matrix: (Units=GPa)
#
#
# Indices 1 2 3 4 5 6 
#
# 1 64.1115 22.7221 20.8812 -2.5799 11.7107 -2.9463
# 2 22.7221 89.0944 12.0863 -12.3469 3.5582 -14.9652
# 3 20.8812 12.0863 114.9223 -21.6626 13.0047 2.5187
# 4 -2.5799 -12.3469 -21.6626 28.8838 -6.2044 7.3314
# 5 11.7107 3.5582 13.0047 -6.2044 36.9174 -1.7182
# 6 -2.9463 -14.9652 2.5187 7.3314 -1.7182 28.5476
#
#
#
# Elastic Compliance Matrix: (Units=1/GPa)
#
#
# Indices 1 2 3 4 5 6 
#
# 1 0.019085 -0.004695 -0.003134 -0.003874 -0.005126 0.000471
# 2 -0.004695 0.013952 -0.000068 0.004267 0.001156 0.005809
# 3 -0.003134 -0.000068 0.011176 0.008648 -0.001653 -0.003666
# 4 -0.003874 0.004267 0.008648 0.046346 0.005070 -0.010523
# 5 -0.005126 0.001156 -0.001653 0.005070 0.030071 0.000731
# 6 0.000471 0.005809 -0.003666 -0.010523 0.000731 0.041193
#
#
# Mechanical properties :
#
#
# Convention : Reuss Voigt Hill
#
# Bulk Modulus (GPa) = 35.18952 42.16750 38.67851
# Shear Modulus (GPa) = 26.72536 33.03234 29.87885
#
# Velocity S-wave (km/s) = 3.51905 3.91231 3.72088
# Velocity P-wave (km/s) = 5.72864 6.32039 6.03178
#
# Compressibility (1/GPa) = 0.02841755
#
# Stress axis : x y z
#
# Youngs Moduli (GPa) = 52.39754 71.67653 89.47963
#
# Poissons Ratio (x) = 0.33652 0.28046
# Poissons Ratio (y) = 0.24601 0.00608
# Poissons Ratio (z) = 0.16423 0.00487
#
# Static dielectric constant tensor:
#      x y z
#    x 4.265110 -0.383280 -0.125440 
#    y -0.383280 3.815420 0.127400 
#    z -0.125440 0.127400 3.495220 
# 
# 
# High freq. dielectric constant tensor:
#      x y z
#    x 1.845630 -0.021880 0.012290 
#    y -0.021880 1.837950 -0.004020 
#    z 0.012290 -0.004020 1.856070 
# 
# From -- ./inp_files/315763.got.cif
#   From: 2010.06.25/outbox.cif.g09.slc.cpg/sg2_158_cif.got.tgz:315763.got - 2010.06.27 13:26:56.
