data_PCOD8012159
_publ_section_title
;
Structure prediction by ZEFSAII (Michael W. Deem and Ramdas Pophale) SiO2 
 PCOD8012159
Probable space group: P -1
;
_chemical_formula_sum "Si O2"
_cell_formula_units_Z 16
_cell_length_a 14.104438
_cell_length_b 11.508652
_cell_length_c 8.833035
_cell_angle_alpha 82.538123
_cell_angle_beta 85.959280
_cell_angle_gamma 147.003998
_cell_volume 730.237850
_symmetry_space_group_name_H-M "P -1"
_symmetry_group_IT_number 2
_symmetry_cell_setting 'triclinic'
loop_
_space_group_symop_operation_xyz
x,y,z
-x,-y,-z
loop_
_atom_site_type_symbol
_atom_site_label
_atom_site_fract_x
_atom_site_fract_y
_atom_site_fract_z
Si Si1 0.825749 0.005317 0.191735
Si Si2 0.633477 0.451054 0.152117
Si Si3 0.476778 0.488229 0.327021
Si Si4 0.561247 0.990747 0.717070
Si Si5 0.947824 0.392745 0.683800
Si Si6 0.715549 0.122652 0.342192
Si Si7 0.985591 0.182052 0.823279
Si Si8 0.167951 0.222898 0.201752
O O1 0.746428 0.024210 0.300717
O O2 0.976544 0.092339 0.259263
O O3 0.654404 0.745442 0.202506
O O4 0.918419 0.150210 0.003434
O O5 0.475047 0.361358 0.263788
O O6 0.555700 0.239912 0.163650
O O7 0.799793 0.623408 0.224769
O O8 0.696239 0.573436 0.967360
O O9 0.500000 0.500000 0.500000
O O10 0.281121 0.342481 0.328035
O O11 0.436765 0.975184 0.728454
O O12 0.733967 0.199809 0.774541
O O13 0.641426 0.040926 0.535176
O O14 0.963729 0.268704 0.699274
O O15 0.000000 0.500000 0.500000
O O16 0.092112 0.602706 0.749008
O O17 0.873065 0.952680 0.814868
#
# Coordination Sequence:
#
# PCOD8012159 Si02
#       8
#     2   2   2   2   2   2   2   2
#     4  11  24  42  63  98 133 167 219 269 323 383
#     4  11  20  42  70  95 127 175 220 260 327 391
#     4  12  25  41  65 100 132 167 213 272 327 383
#     4  10  21  39  67  90 124 174 218 264 324 383
#     4  10  22  40  64  93 122 173 222 258 320 386
#     4  10  22  42  60  90 135 167 214 272 319 379
#     4  11  21  43  70  91 130 177 217 268 318 391
#     4  11  24  44  69  94 131 176 215 261 329 398
#
# _framework density 21.910671000000001
#
# number of rings (size 3 to 8) (size 9 to 14) (size 15 to 20)
#    0.000    1.250    3.750    2.625    1.750    3.000 
#    4.500    0.625    0.000    0.000    0.000    0.000 
#    0.000    0.000    0.000    0.000    0.000    0.000 
#
# Total GULP energy -198392.147958 kJ/mol
# GULP energy per Si atom -12399.509247 kJ/mol
# Density = 2.186080 g / cm^3
# Si number density = 21.910671 Si / 1000 Ang^3
#
#
#
# Elastic Constant Matrix: (Units=GPa)
#
#
# Indices 1 2 3 4 5 6 
#
# 1 149.1499 51.6947 41.4069 10.0849 11.9690 15.8715
# 2 51.6947 118.4162 27.9304 -8.1134 16.5822 34.4131
# 3 41.4069 27.9304 55.8398 -3.2725 16.1971 -4.1666
# 4 10.0849 -8.1134 -3.2725 28.7824 -4.8389 7.9978
# 5 11.9690 16.5822 16.1971 -4.8389 38.1799 0.8588
# 6 15.8715 34.4131 -4.1666 7.9978 0.8588 38.4357
#
#
#
# Elastic Compliance Matrix: (Units=1/GPa)
#
#
# Indices 1 2 3 4 5 6 
#
# 1 0.009859 -0.002751 -0.006379 -0.004532 0.000267 -0.001362
# 2 -0.002751 0.016951 -0.006499 0.009253 -0.002196 -0.016621
# 3 -0.006379 -0.006499 0.029012 -0.000949 -0.007874 0.011972
# 4 -0.004532 0.009253 -0.000949 0.043823 0.003712 -0.015718
# 5 0.000267 -0.002196 -0.007874 0.003712 0.030883 -0.000461
# 6 -0.001362 -0.016621 0.011972 -0.015718 -0.000461 0.046041
#
#
# Mechanical properties :
#
#
# Convention : Reuss Voigt Hill
#
# Bulk Modulus (GPa) = 40.71458 62.82997 51.77227
# Shear Modulus (GPa) = 23.14639 34.57120 28.85880
#
# Velocity S-wave (km/s) = 3.25375 3.97649 3.63314
# Velocity P-wave (km/s) = 5.72174 7.05841 6.42493
#
# Compressibility (1/GPa) = 0.02456123
#
# Stress axis : x y z
#
# Youngs Moduli (GPa) = 101.42676 58.99467 34.46892
#
# Poissons Ratio (x) = 0.16232 0.21989
# Poissons Ratio (y) = 0.27906 0.22403
# Poissons Ratio (z) = 0.64704 0.38343
#
# Static dielectric constant tensor:
#      x y z
#    x 4.064800 0.359930 0.224370 
#    y 0.359930 4.536150 -0.266140 
#    z 0.224370 -0.266140 3.614690 
# 
# 
# High freq. dielectric constant tensor:
#      x y z
#    x 1.868430 0.016680 0.019660 
#    y 0.016680 1.874210 -0.019370 
#    z 0.019660 -0.019370 1.836280 
# 
# From -- ./inp_files/273714.got.cif
#   From: 2010.06.25/outbox.cif.g09.slc.cpg/sg2_137_cif.got.tgz:273714.got - 2010.06.27 13:26:56.
