data_PCOD8012892
_publ_section_title
;
Structure prediction by ZEFSAII (Michael W. Deem and Ramdas Pophale) SiO2 
 PCOD8012892
Probable space group: P -1
;
_chemical_formula_sum "Si O2"
_cell_formula_units_Z 16
_cell_length_a 13.099367
_cell_length_b 9.540844
_cell_length_c 7.028109
_cell_angle_alpha 94.266628
_cell_angle_beta 120.373665
_cell_angle_gamma 108.755307
_cell_volume 686.714689
_symmetry_space_group_name_H-M "P -1"
_symmetry_group_IT_number 2
_symmetry_cell_setting 'triclinic'
loop_
_space_group_symop_operation_xyz
x,y,z
-x,-y,-z
loop_
_atom_site_type_symbol
_atom_site_label
_atom_site_fract_x
_atom_site_fract_y
_atom_site_fract_z
Si Si1 0.354638 0.581270 0.299470
Si Si2 0.419957 0.250504 0.987743
Si Si3 0.142885 0.961757 0.065764
Si Si4 0.240798 0.405204 0.811098
Si Si5 0.711494 0.344412 0.373526
Si Si6 0.360355 0.272967 0.366346
Si Si7 0.002106 0.877794 0.275619
Si Si8 0.226544 0.923448 0.753114
O O1 0.297059 0.664947 0.405379
O O2 0.341064 0.429780 0.392335
O O3 0.503941 0.699980 0.400241
O O4 0.283889 0.537630 0.028377
O O5 0.355572 0.356209 0.834443
O O6 0.356110 0.074351 0.833961
O O7 0.574536 0.311610 0.134191
O O8 0.369706 0.252219 0.150459
O O9 0.216302 0.901205 0.972182
O O10 0.071348 0.835452 0.151871
O O11 0.039795 0.995047 0.841838
O O12 0.239679 0.113981 0.295151
O O13 0.197098 0.483013 0.601271
O O14 0.120498 0.264662 0.773333
O O15 0.769200 0.225858 0.352707
O O16 0.103503 0.947348 0.551316
#
# Coordination Sequence:
#
# PCOD8012892 Si02
#       8
#     2   2   2   2   2   2   2   2
#     4   9  18  35  57  86 121 153 188 244 299 351
#     4   9  19  40  63  90 120 153 204 251 290 353
#     4  10  21  40  64  90 113 157 207 257 289 339
#     4  11  22  40  62  92 119 156 207 251 284 354
#     4  11  24  37  62  92 126 160 188 242 319 355
#     4   8  15  34  61  87 114 147 199 252 290 337
#     4  11  23  39  64  89 114 160 210 245 295 345
#     4  11  23  41  61  91 126 157 195 247 299 368
#
# _framework density 23.299341999999999
#
# number of rings (size 3 to 8) (size 9 to 14) (size 15 to 20)
#    0.000    2.000    3.750    1.875    0.000    4.500 
#    0.000    1.250    0.000    6.000    0.000    0.000 
#    0.000    0.000    0.000    0.000    0.000    0.000 
#
# Total GULP energy -198219.274245 kJ/mol
# GULP energy per Si atom -12388.704640 kJ/mol
# Density = 2.324631 g / cm^3
# Si number density = 23.299342 Si / 1000 Ang^3
#
#
#
# Elastic Constant Matrix: (Units=GPa)
#
#
# Indices 1 2 3 4 5 6 
#
# 1 76.6675 11.4583 8.8747 10.7084 -2.7842 8.6079
# 2 11.4583 44.3864 -3.1717 1.4175 2.9687 2.0539
# 3 8.8747 -3.1717 56.4009 5.0704 4.5744 11.8714
# 4 10.7084 1.4175 5.0704 15.7702 1.4975 -5.8860
# 5 -2.7842 2.9687 4.5744 1.4975 26.7363 4.6805
# 6 8.6079 2.0539 11.8714 -5.8860 4.6805 26.9043
#
#
#
# Elastic Compliance Matrix: (Units=1/GPa)
#
#
# Indices 1 2 3 4 5 6 
#
# 1 0.016907 -0.003763 0.000051 -0.015048 0.004631 -0.009242
# 2 -0.003763 0.023977 0.002532 -0.000599 -0.003224 -0.001314
# 3 0.000051 0.002532 0.021534 -0.011561 -0.001207 -0.012031
# 4 -0.015048 -0.000599 -0.011561 0.090083 -0.010069 0.031421
# 5 0.004631 -0.003224 -0.001207 -0.010069 0.040763 -0.009997
# 6 -0.009242 -0.001314 -0.012031 0.031421 -0.009997 0.054148
#
#
# Mechanical properties :
#
#
# Convention : Reuss Voigt Hill
#
# Bulk Modulus (GPa) = 16.65016 23.53082 20.09049
# Shear Modulus (GPa) = 18.53280 24.56839 21.55059
#
# Velocity S-wave (km/s) = 2.82338 3.25078 3.04459
# Velocity P-wave (km/s) = 4.21786 4.92050 4.58267
#
# Compressibility (1/GPa) = 0.06005949
#
# Stress axis : x y z
#
# Youngs Moduli (GPa) = 59.14561 41.70622 46.43795
#
# Poissons Ratio (x) = 0.15692 -0.00235
# Poissons Ratio (y) = 0.22254 -0.11760
# Poissons Ratio (z) = -0.00299 -0.10561
#
# Static dielectric constant tensor:
#      x y z
#    x 4.446290 0.256100 0.099470 
#    y 0.256100 3.979830 0.315920 
#    z 0.099470 0.315920 4.563080 
# 
# 
# High freq. dielectric constant tensor:
#      x y z
#    x 1.924440 0.017880 -0.016000 
#    y 0.017880 1.886500 0.012750 
#    z -0.016000 0.012750 1.918340 
# 
# From -- ./inp_files/295875.got.cif
#   From: 2010.06.25/outbox.cif.g09.slc.cpg/sg2_148_cif.got.tgz:295875.got - 2010.06.27 13:26:56.
