data_PCOD8012175
_publ_section_title
;
Structure prediction by ZEFSAII (Michael W. Deem and Ramdas Pophale) SiO2 
 PCOD8012175
Probable space group: P -1
;
_chemical_formula_sum "Si O2"
_cell_formula_units_Z 16
_cell_length_a 15.830695
_cell_length_b 8.523976
_cell_length_c 12.561038
_cell_angle_alpha 130.604612
_cell_angle_beta 65.054581
_cell_angle_gamma 76.243233
_cell_volume 779.398055
_symmetry_space_group_name_H-M "P -1"
_symmetry_group_IT_number 2
_symmetry_cell_setting 'triclinic'
loop_
_space_group_symop_operation_xyz
x,y,z
-x,-y,-z
loop_
_atom_site_type_symbol
_atom_site_label
_atom_site_fract_x
_atom_site_fract_y
_atom_site_fract_z
Si Si1 0.635497 0.648151 0.039056
Si Si2 0.095316 0.675511 0.364276
Si Si3 0.162299 0.607312 0.540666
Si Si4 0.668832 0.299490 0.047511
Si Si5 0.711099 0.234222 0.333022
Si Si6 0.088587 0.216835 0.161170
Si Si7 0.560868 0.075526 0.926549
Si Si8 0.505504 0.231613 0.474248
O O1 0.700916 0.349222 0.937981
O O2 0.528345 0.738942 0.049477
O O3 0.556111 0.916489 0.287651
O O4 0.754326 0.580608 0.885723
O O5 0.111009 0.719098 0.496852
O O6 0.034444 0.543388 0.331530
O O7 0.000000 0.000000 0.500000
O O8 0.216750 0.741956 0.606627
O O9 0.282259 0.239608 0.327757
O O10 0.039510 0.729630 0.736494
O O11 0.597353 0.584486 0.289359
O O12 0.813336 0.974512 0.872742
O O13 0.561665 0.286242 0.085818
O O14 0.643575 0.142518 0.381235
O O15 0.580844 0.566104 0.495799
O O16 0.829774 0.971687 0.072003
O O17 0.500000 0.000000 0.000000
#
# Coordination Sequence:
#
# PCOD8012175 Si02
#       8
#     2   2   2   2   2   2   2   2
#     4  12  23  42  64  98 131 163 215 265 316 379
#     4  12  26  43  67  92 129 170 213 265 323 382
#     4  12  23  40  68  92 131 166 216 261 322 378
#     4  11  24  40  66  95 131 168 211 263 318 381
#     4  10  21  40  67  96 122 172 213 261 316 381
#     4  11  23  44  65  92 126 174 216 257 318 389
#     4  12  23  41  65  99 127 166 211 267 320 375
#     4  10  21  39  67  93 130 167 212 258 323 376
#
# _framework density 20.528663999999999
#
# number of rings (size 3 to 8) (size 9 to 14) (size 15 to 20)
#    0.000    0.750    5.000    3.000    3.500    0.000 
#    0.000    0.625    0.000    0.000    0.000    0.000 
#    0.000    0.000    0.000    0.000    0.000    0.000 
#
# Total GULP energy -198454.803440 kJ/mol
# GULP energy per Si atom -12403.425215 kJ/mol
# Density = 2.048194 g / cm^3
# Si number density = 20.528664 Si / 1000 Ang^3
#
#
#
# Elastic Constant Matrix: (Units=GPa)
#
#
# Indices 1 2 3 4 5 6 
#
# 1 99.1781 7.4372 17.0672 -0.3174 5.4174 -3.9645
# 2 7.4372 80.8033 13.6860 4.0775 2.1222 -4.4236
# 3 17.0672 13.6860 74.4536 5.7793 -3.9118 -2.7415
# 4 -0.3174 4.0775 5.7793 29.3030 6.3145 -3.6079
# 5 5.4174 2.1222 -3.9118 6.3145 36.9902 -4.7287
# 6 -3.9645 -4.4236 -2.7415 -3.6079 -4.7287 27.2955
#
#
#
# Elastic Compliance Matrix: (Units=1/GPa)
#
#
# Indices 1 2 3 4 5 6 
#
# 1 0.010702 -0.000514 -0.002513 0.001217 -0.001877 0.001055
# 2 -0.000514 0.012941 -0.002146 -0.001079 -0.000508 0.001576
# 3 -0.002513 -0.002146 0.014817 -0.003130 0.002698 0.000829
# 4 0.001217 -0.001079 -0.003130 0.036682 -0.006268 0.003450
# 5 -0.001877 -0.000508 0.002698 -0.006268 0.029224 0.004150
# 6 0.001055 0.001576 0.000829 0.003450 0.004150 0.038303
#
#
# Mechanical properties :
#
#
# Convention : Reuss Voigt Hill
#
# Bulk Modulus (GPa) = 35.56886 36.75729 36.16308
# Shear Modulus (GPa) = 30.79067 33.13405 31.96236
#
# Velocity S-wave (km/s) = 3.87704 4.02187 3.95012
# Velocity P-wave (km/s) = 6.11604 6.28581 6.20151
#
# Compressibility (1/GPa) = 0.02811448
#
# Stress axis : x y z
#
# Youngs Moduli (GPa) = 93.43664 77.27621 67.48995
#
# Poissons Ratio (x) = 0.03970 0.16961
# Poissons Ratio (y) = 0.04801 0.14482
# Poissons Ratio (z) = 0.23482 0.16582
#
# Static dielectric constant tensor:
#      x y z
#    x 3.810280 -0.019310 -0.022860 
#    y -0.019310 3.563780 -0.008220 
#    z -0.022860 -0.008220 3.755340 
# 
# 
# High freq. dielectric constant tensor:
#      x y z
#    x 1.807530 0.002820 0.001950 
#    y 0.002820 1.793130 -0.006660 
#    z 0.001950 -0.006660 1.810100 
# 
# From -- ./inp_files/175115.got.cif
#   From: 2010.06.25/outbox.cif.g09.slc.cpg/sg2_88_cif.got.tgz:175115.got - 2010.06.27 13:26:56.
