data_PCOD8012939
_publ_section_title
;
Structure prediction by ZEFSAII (Michael W. Deem and Ramdas Pophale) SiO2 
 PCOD8012939
Probable space group: P -1
;
_chemical_formula_sum "Si O2"
_cell_formula_units_Z 16
_cell_length_a 27.728079
_cell_length_b 9.545264
_cell_length_c 9.302418
_cell_angle_alpha 43.288178
_cell_angle_beta 152.680420
_cell_angle_gamma 132.411470
_cell_volume 771.780165
_symmetry_space_group_name_H-M "P -1"
_symmetry_group_IT_number 2
_symmetry_cell_setting 'triclinic'
loop_
_space_group_symop_operation_xyz
x,y,z
-x,-y,-z
loop_
_atom_site_type_symbol
_atom_site_label
_atom_site_fract_x
_atom_site_fract_y
_atom_site_fract_z
Si Si1 0.038516 0.068623 0.206155
Si Si2 0.212133 0.395978 0.438893
Si Si3 0.489789 0.495429 0.304691
Si Si4 0.691176 0.219280 0.465465
Si Si5 0.809467 0.013172 0.693954
Si Si6 0.652396 0.885368 0.843440
Si Si7 0.285966 0.405876 0.317241
Si Si8 0.227411 0.849272 0.825800
O O1 0.090754 0.305208 0.162715
O O2 0.126767 0.916740 0.602021
O O3 0.933169 0.054299 0.035403
O O4 0.000000 0.000000 0.000000
O O5 0.222472 0.638251 0.319249
O O6 0.283131 0.351599 0.519972
O O7 0.256826 0.272380 0.784144
O O8 0.500000 0.500000 0.500000
O O9 0.456351 0.262099 0.337613
O O10 0.596872 0.560284 0.457354
O O11 0.410116 0.658524 0.922609
O O12 0.742862 0.163060 0.495648
O O13 0.660012 0.008086 0.622964
O O14 0.781940 0.057216 0.424847
O O15 0.774312 0.772985 0.804841
O O16 0.665529 0.050221 0.886843
O O17 0.223074 0.606404 0.983721
#
# Coordination Sequence:
#
# PCOD8012939 Si02
#       8
#     2   2   2   2   2   2   2   2
#     4   9  18  40  64  92 129 157 205 269 298 360
#     4  10  21  42  62  93 129 157 213 261 297 376
#     4  11  26  42  61  95 130 160 208 262 306 371
#     4  11  24  42  66  89 130 168 201 256 321 362
#     4  11  23  41  64  95 125 166 209 255 312 368
#     4  10  21  42  62  88 128 161 203 263 301 358
#     4  12  22  39  67  89 121 169 211 246 310 373
#     4  10  21  40  64  93 122 163 207 262 302 365
#
# _framework density 20.731293999999998
#
# number of rings (size 3 to 8) (size 9 to 14) (size 15 to 20)
#    0.000    1.500    5.000    1.500    0.000    7.500 
#    0.000    2.500    0.000    0.000    0.000    0.000 
#    0.000    0.000    0.000    0.000    0.000    0.000 
#
# Total GULP energy -198278.677211 kJ/mol
# GULP energy per Si atom -12392.417326 kJ/mol
# Density = 2.068411 g / cm^3
# Si number density = 20.731294 Si / 1000 Ang^3
#
#
#
# Elastic Constant Matrix: (Units=GPa)
#
#
# Indices 1 2 3 4 5 6 
#
# 1 96.0388 50.4087 53.1640 7.3932 16.9580 10.4300
# 2 50.4087 142.0414 51.0918 12.1841 14.2856 19.5550
# 3 53.1640 51.0918 80.6871 3.7627 10.5915 13.3303
# 4 7.3932 12.1841 3.7627 40.7232 0.0695 3.9298
# 5 16.9580 14.2856 10.5915 0.0695 30.2498 2.5205
# 6 10.4300 19.5550 13.3303 3.9298 2.5205 33.3058
#
#
#
# Elastic Compliance Matrix: (Units=1/GPa)
#
#
# Indices 1 2 3 4 5 6 
#
# 1 0.018068 -0.002227 -0.009694 -0.001724 -0.005693 0.000164
# 2 -0.002227 0.010082 -0.004053 -0.001922 -0.001819 -0.003235
# 3 -0.009694 -0.004053 0.021866 0.001289 -0.000020 -0.003487
# 4 -0.001724 -0.001922 0.001289 0.025513 0.001529 -0.001973
# 5 -0.005693 -0.001819 -0.000020 0.001529 0.037123 -0.000131
# 6 0.000164 -0.003235 -0.003487 -0.001973 -0.000131 0.033511
#
#
# Mechanical properties :
#
#
# Convention : Reuss Voigt Hill
#
# Bulk Modulus (GPa) = 55.35109 69.78847 62.56978
# Shear Modulus (GPa) = 27.15418 31.79594 29.47506
#
# Velocity S-wave (km/s) = 3.62306 3.92052 3.77472
# Velocity P-wave (km/s) = 6.65277 7.36413 7.01747
#
# Compressibility (1/GPa) = 0.01806649
#
# Stress axis : x y z
#
# Youngs Moduli (GPa) = 55.34716 99.18755 45.73342
#
# Poissons Ratio (x) = 0.22093 0.44333
# Poissons Ratio (y) = 0.12328 0.18538
# Poissons Ratio (z) = 0.53652 0.40205
#
# Static dielectric constant tensor:
#      x y z
#    x 3.696440 0.109240 0.185450 
#    y 0.109240 4.247170 0.183520 
#    z 0.185450 0.183520 4.047140 
# 
# 
# High freq. dielectric constant tensor:
#      x y z
#    x 1.789430 0.002390 -0.005210 
#    y 0.002390 1.837540 0.004920 
#    z -0.005210 0.004920 1.798680 
# 
# From -- ./inp_files/356374.got.cif
#   From: 2010.06.25/outbox.cif.g09.slc.cpg/sg2_179_cif.got.tgz:356374.got - 2010.06.27 13:26:56.
