data_PCOD8012009
_publ_section_title
;
Structure prediction by ZEFSAII (Michael W. Deem and Ramdas Pophale) SiO2 
 PCOD8012009
Probable space group: P -1
;
_chemical_formula_sum "Si O2"
_cell_formula_units_Z 14
_cell_length_a 18.076967
_cell_length_b 21.089367
_cell_length_c 11.358431
_cell_angle_alpha 28.960029
_cell_angle_beta 29.742068
_cell_angle_gamma 18.886326
_cell_volume 655.725105
_symmetry_space_group_name_H-M "P -1"
_symmetry_group_IT_number 2
_symmetry_cell_setting 'triclinic'
loop_
_space_group_symop_operation_xyz
x,y,z
-x,-y,-z
loop_
_atom_site_type_symbol
_atom_site_label
_atom_site_fract_x
_atom_site_fract_y
_atom_site_fract_z
Si Si1 0.030210 0.116838 0.704267
Si Si2 0.563657 0.539930 0.734577
Si Si3 0.799462 0.881380 0.999900
Si Si4 0.297598 0.511348 0.019142
Si Si5 0.451331 0.217584 0.488330
Si Si6 0.109844 0.754814 0.571059
Si Si7 0.498184 0.691604 0.182151
O O1 0.844115 0.346236 0.639663
O O2 0.984070 0.126390 0.614527
O O3 0.288408 0.000109 0.563282
O O4 0.000000 0.000000 0.000000
O O5 0.504751 0.731275 0.533317
O O6 0.500000 0.500000 0.000000
O O7 0.421256 0.569609 0.775224
O O8 0.706223 0.799460 0.238700
O O9 0.020410 0.726219 0.035593
O O10 0.881431 0.884172 0.757479
O O11 0.583517 0.110272 0.983000
O O12 0.321910 0.397038 0.280502
O O13 0.422705 0.359330 0.981033
O O14 0.274011 0.749602 0.417712
O O15 0.274698 0.511896 0.724768
#
# Coordination Sequence:
#
# PCOD8012009 Si02
#       7
#     2   2   2   2   2   2   2
#     4  12  22  41  69  96 123 164 217 265 323 377
#     4  10  21  39  65  96 127 159 213 271 313 377
#     4  11  25  41  64  94 134 175 208 260 328 385
#     4  10  21  40  68  96 124 167 223 270 310 371
#     4  11  25  40  62 101 134 167 211 265 330 378
#     4  10  23  40  64  94 126 167 218 265 313 383
#     4  10  21  42  65  91 126 169 223 262 315 375
#
# _framework density 21.35041
#
# number of rings (size 3 to 8) (size 9 to 14) (size 15 to 20)
#    0.000    1.429    4.286    0.857    2.000    6.857 
#    0.000    1.429    0.000    0.000    0.000    0.000 
#    0.000    0.000    0.000    0.000    0.000    0.000 
#
# Total GULP energy -173582.211998 kJ/mol
# GULP energy per Si atom -12398.729428 kJ/mol
# Density = 2.130182 g / cm^3
# Si number density = 21.350410 Si / 1000 Ang^3
#
#
#
# Elastic Constant Matrix: (Units=GPa)
#
#
# Indices 1 2 3 4 5 6 
#
# 1 94.9189 43.7196 51.5175 -8.9791 6.8108 1.8740
# 2 43.7196 99.2824 24.4029 0.6116 -9.8899 7.7877
# 3 51.5175 24.4029 93.4215 1.0580 -6.6860 8.2602
# 4 -8.9791 0.6116 1.0580 28.8326 1.9986 -2.0893
# 5 6.8108 -9.8899 -6.6860 1.9986 39.7894 -5.1719
# 6 1.8740 7.7877 8.2602 -2.0893 -5.1719 36.6215
#
#
#
# Elastic Compliance Matrix: (Units=1/GPa)
#
#
# Indices 1 2 3 4 5 6 
#
# 1 0.020837 -0.007591 -0.010318 0.007699 -0.007277 0.002287
# 2 -0.007591 0.013808 0.001163 -0.003199 0.004786 -0.002317
# 3 -0.010318 0.001163 0.016749 -0.004401 0.004690 -0.003086
# 4 0.007699 -0.003199 -0.004401 0.037818 -0.004386 0.002817
# 5 -0.007277 0.004786 0.004690 -0.004386 0.028852 0.002121
# 6 0.002287 -0.002317 -0.003086 0.002817 0.002121 0.028838
#
#
# Mechanical properties :
#
#
# Convention : Reuss Voigt Hill
#
# Bulk Modulus (GPa) = 55.86289 58.54477 57.20383
# Shear Modulus (GPa) = 26.82968 32.24758 29.53863
#
# Velocity S-wave (km/s) = 3.54875 3.89060 3.72360
# Velocity P-wave (km/s) = 6.55844 6.90382 6.73335
#
# Compressibility (1/GPa) = 0.01790097
#
# Stress axis : x y z
#
# Youngs Moduli (GPa) = 47.99079 72.42427 59.70676
#
# Poissons Ratio (x) = 0.54980 0.61605
# Poissons Ratio (y) = 0.36432 -0.06945
# Poissons Ratio (z) = 0.49517 -0.08425
#
# Static dielectric constant tensor:
#      x y z
#    x 3.976410 0.075120 0.009090 
#    y 0.075120 4.245020 0.012420 
#    z 0.009090 0.012420 3.691970 
# 
# 
# High freq. dielectric constant tensor:
#      x y z
#    x 1.827740 -0.001480 0.014430 
#    y -0.001480 1.853410 0.006840 
#    z 0.014430 0.006840 1.819470 
# 
# From -- ./inp_files/260423.got.cif
#   From: 2010.06.25/outbox.cif.g09.slc.cpg/sg2_131_cif.got.tgz:260423.got - 2010.06.27 13:26:56.
