data_PCOD8012352
_publ_section_title
;
Structure prediction by ZEFSAII (Michael W. Deem and Ramdas Pophale) SiO2 
 PCOD8012352
Probable space group: P -1
;
_chemical_formula_sum "Si O2"
_cell_formula_units_Z 12
_cell_length_a 5.001265
_cell_length_b 12.372892
_cell_length_c 16.193875
_cell_angle_alpha 42.757423
_cell_angle_beta 71.775003
_cell_angle_gamma 57.098339
_cell_volume 564.636948
_symmetry_space_group_name_H-M "P -1"
_symmetry_group_IT_number 2
_symmetry_cell_setting 'triclinic'
loop_
_space_group_symop_operation_xyz
x,y,z
-x,-y,-z
loop_
_atom_site_type_symbol
_atom_site_label
_atom_site_fract_x
_atom_site_fract_y
_atom_site_fract_z
Si Si1 0.110475 0.513288 0.574205
Si Si2 0.210435 0.563987 0.205082
Si Si3 0.693965 0.585555 0.888893
Si Si4 0.762932 0.192852 0.659002
Si Si5 0.449969 0.957213 0.794444
Si Si6 0.325155 0.290581 0.941055
O O1 0.456941 0.339760 0.658638
O O2 0.140041 0.696729 0.478433
O O3 0.000000 0.500000 0.500000
O O4 0.847851 0.521332 0.659121
O O5 0.375683 0.405895 0.208196
O O6 0.431105 0.652569 0.155584
O O7 0.879346 0.725924 0.105871
O O8 0.580401 0.789246 0.813745
O O9 0.080254 0.448806 0.940731
O O10 0.500000 0.500000 0.000000
O O11 0.653436 0.061136 0.697471
O O12 0.067182 0.082916 0.751065
O O13 0.496799 0.895665 0.920190
#
# Coordination Sequence:
#
# PCOD8012352 Si02
#       6
#     2   2   2   2   2   2
#     4  11  25  51  68  84 126 183 230 264 322 365
#     4  10  24  38  69  97 124 177 219 250 318 402
#     4  10  21  39  69  99 139 171 198 253 334 401
#     4  11  26  40  71  91 121 180 221 272 311 380
#     4  12  21  40  67 103 131 163 212 264 332 383
#     4  10  22  38  64 102 133 166 199 259 328 395
#
# _framework density 21.252594999999999
#
# number of rings (size 3 to 8) (size 9 to 14) (size 15 to 20)
#    1.000    0.333    3.333    2.500    7.000    0.000 
#    0.000    6.667    0.000    0.000    0.000    0.000 
#    0.000    0.000    0.000    0.000    0.000    0.000 
#
# Total GULP energy -148719.677612 kJ/mol
# GULP energy per Si atom -12393.306468 kJ/mol
# Density = 2.120422 g / cm^3
# Si number density = 21.252595 Si / 1000 Ang^3
#
#
#
# Elastic Constant Matrix: (Units=GPa)
#
#
# Indices 1 2 3 4 5 6 
#
# 1 150.4883 34.2369 61.7215 -3.8282 -21.6391 -12.5359
# 2 34.2369 62.9268 72.3354 11.9023 -19.0038 -0.4399
# 3 61.7215 72.3354 122.9579 1.3145 -21.7392 -10.5287
# 4 -3.8282 11.9023 1.3145 41.7176 -1.2871 -5.8752
# 5 -21.6391 -19.0038 -21.7392 -1.2871 42.7403 -0.0956
# 6 -12.5359 -0.4399 -10.5287 -5.8752 -0.0956 28.9112
#
#
#
# Elastic Compliance Matrix: (Units=1/GPa)
#
#
# Indices 1 2 3 4 5 6 
#
# 1 0.008822 0.000213 -0.003870 0.001332 0.002639 0.002698
# 2 0.000213 0.068016 -0.039716 -0.020296 0.009499 -0.017430
# 3 -0.003870 -0.039716 0.034043 0.011600 -0.001926 0.012466
# 4 0.001332 -0.020296 0.011600 0.030991 -0.001492 0.010786
# 5 0.002639 0.009499 -0.001926 -0.001492 0.027933 0.000376
# 6 0.002698 -0.017430 0.012466 0.010786 0.000376 0.042227
#
#
# Mechanical properties :
#
#
# Convention : Reuss Voigt Hill
#
# Bulk Modulus (GPa) = 41.43530 74.77340 58.10435
# Shear Modulus (GPa) = 16.29600 33.87909 25.08755
#
# Velocity S-wave (km/s) = 2.77208 3.99697 3.43949
# Velocity P-wave (km/s) = 5.45755 7.52068 6.57059
#
# Compressibility (1/GPa) = 0.02413401
#
# Stress axis : x y z
#
# Youngs Moduli (GPa) = 113.35172 14.70248 29.37421
#
# Poissons Ratio (x) = -0.00313 0.11369
# Poissons Ratio (y) = -0.02414 1.16663
# Poissons Ratio (z) = 0.43872 0.58393
#
# Static dielectric constant tensor:
#      x y z
#    x 4.109810 -0.083250 -0.099110 
#    y -0.083250 3.612910 -0.187350 
#    z -0.099110 -0.187350 3.835490 
# 
# 
# High freq. dielectric constant tensor:
#      x y z
#    x 1.858950 -0.005720 -0.007370 
#    y -0.005720 1.800640 -0.002020 
#    z -0.007370 -0.002020 1.825240 
# 
# From -- ./inp_files/439935.got.cif
#   From: 2010.06.25/outbox.cif.g09.slc.cpg/sg2_220_cif.got.tgz:439935.got - 2010.06.27 13:26:56.
