data_PCOD8012013
_publ_section_title
;
Structure prediction by ZEFSAII (Michael W. Deem and Ramdas Pophale) SiO2 
 PCOD8012013
Probable space group: P -1
;
_chemical_formula_sum "Si O2"
_cell_formula_units_Z 14
_cell_length_a 6.407613
_cell_length_b 8.710422
_cell_length_c 16.912811
_cell_angle_alpha 61.699535
_cell_angle_beta 110.963822
_cell_angle_gamma 129.103150
_cell_volume 642.575247
_symmetry_space_group_name_H-M "P -1"
_symmetry_group_IT_number 2
_symmetry_cell_setting 'triclinic'
loop_
_space_group_symop_operation_xyz
x,y,z
-x,-y,-z
loop_
_atom_site_type_symbol
_atom_site_label
_atom_site_fract_x
_atom_site_fract_y
_atom_site_fract_z
Si Si1 0.240703 0.472291 0.127134
Si Si2 0.325626 0.198810 0.603590
Si Si3 0.081356 0.034544 0.261694
Si Si4 0.803805 0.856093 0.111997
Si Si5 0.956138 0.704498 0.018351
Si Si6 0.097170 0.450986 0.445691
Si Si7 0.591747 0.096444 0.402230
O O1 0.133105 0.264852 0.215663
O O2 0.516982 0.669411 0.152000
O O3 0.037512 0.544399 0.089815
O O4 0.263547 0.413634 0.053460
O O5 0.191236 0.297167 0.514263
O O6 0.653621 0.349239 0.614412
O O7 0.256581 0.996314 0.595700
O O8 0.194187 0.127769 0.689419
O O9 0.340452 0.055122 0.328560
O O10 0.033076 0.936023 0.191210
O O11 0.844134 0.747225 0.070105
O O12 0.802761 0.061160 0.037031
O O13 0.000000 0.500000 0.500000
O O14 0.832257 0.343692 0.380170
O O15 0.500000 0.000000 0.500000
#
# Coordination Sequence:
#
# PCOD8012013 Si02
#       7
#     2   2   2   2   2   2   2
#     4  10  21  39  65  96 129 169 211 260 319 380
#     4  11  24  42  66  92 123 169 219 270 331 380
#     4  11  26  40  60  98 137 166 214 274 323 377
#     4  10  21  40  64  95 132 167 210 263 314 384
#     4   9  20  40  68  93 123 172 216 250 314 393
#     4  11  23  42  69  92 115 165 227 268 323 389
#     4  12  24  44  66  89 128 171 220 271 321 388
#
# _framework density 21.787331999999999
#
# number of rings (size 3 to 8) (size 9 to 14) (size 15 to 20)
#    0.000    1.429    2.857    1.286    0.000    5.714 
#    0.000    2.857    0.000    0.000    0.000    0.000 
#    0.000    0.000    0.000    0.000    0.000    0.000 
#
# Total GULP energy -173482.818774 kJ/mol
# GULP energy per Si atom -12391.629912 kJ/mol
# Density = 2.173774 g / cm^3
# Si number density = 21.787332 Si / 1000 Ang^3
#
#
#
# Elastic Constant Matrix: (Units=GPa)
#
#
# Indices 1 2 3 4 5 6 
#
# 1 83.1266 35.2846 25.4725 3.2084 7.0254 -1.9223
# 2 35.2846 129.9040 34.9980 5.5300 10.5499 13.0674
# 3 25.4725 34.9980 85.3357 -1.3878 15.5936 2.5391
# 4 3.2084 5.5300 -1.3878 36.0560 3.6451 1.1156
# 5 7.0254 10.5499 15.5936 3.6451 26.2357 -2.9941
# 6 -1.9223 13.0674 2.5391 1.1156 -2.9941 51.4264
#
#
#
# Elastic Compliance Matrix: (Units=1/GPa)
#
#
# Indices 1 2 3 4 5 6 
#
# 1 0.014400 -0.003183 -0.002956 -0.000900 -0.000525 0.001482
# 2 -0.003183 0.009715 -0.002684 -0.001070 -0.001598 -0.002525
# 3 -0.002956 -0.002684 0.015120 0.002032 -0.007473 -0.000654
# 4 -0.000900 -0.001070 0.002032 0.028544 -0.004588 -0.000748
# 5 -0.000525 -0.001598 -0.007473 -0.004588 0.044371 0.003438
# 6 0.001482 -0.002525 -0.000654 -0.000748 0.003438 0.020391
#
#
# Mechanical properties :
#
#
# Convention : Reuss Voigt Hill
#
# Bulk Modulus (GPa) = 46.32145 54.43070 50.37608
# Shear Modulus (GPa) = 31.76958 36.25103 34.01031
#
# Velocity S-wave (km/s) = 3.82274 4.08347 3.95525
# Velocity P-wave (km/s) = 6.38681 6.87531 6.63556
#
# Compressibility (1/GPa) = 0.02158827
#
# Stress axis : x y z
#
# Youngs Moduli (GPa) = 69.44400 102.93152 66.13911
#
# Poissons Ratio (x) = 0.32765 0.19548
# Poissons Ratio (y) = 0.22105 0.17755
# Poissons Ratio (z) = 0.20525 0.27632
#
# Static dielectric constant tensor:
#      x y z
#    x 3.828200 0.074120 0.094230 
#    y 0.074120 4.800630 0.383280 
#    z 0.094230 0.383280 4.374440 
# 
# 
# High freq. dielectric constant tensor:
#      x y z
#    x 1.846870 -0.007030 0.000370 
#    y -0.007030 1.883320 -0.000980 
#    z 0.000370 -0.000980 1.840320 
# 
# From -- ./inp_files/48481.got.cif
#   From: 2010.06.25/outbox.cif.g09.slc.cpg/sg2_25_cif.got.tgz:48481.got - 2010.06.27 13:26:56.
