data_PCOD8012284
_publ_section_title
;
Structure prediction by ZEFSAII (Michael W. Deem and Ramdas Pophale) SiO2 
 PCOD8012284
Probable space group: P -1
;
_chemical_formula_sum "Si O2"
_cell_formula_units_Z 16
_cell_length_a 15.818728
_cell_length_b 17.170186
_cell_length_c 9.790901
_cell_angle_alpha 147.502161
_cell_angle_beta 36.614280
_cell_angle_gamma 144.135602
_cell_volume 774.765523
_symmetry_space_group_name_H-M "P -1"
_symmetry_group_IT_number 2
_symmetry_cell_setting 'triclinic'
loop_
_space_group_symop_operation_xyz
x,y,z
-x,-y,-z
loop_
_atom_site_type_symbol
_atom_site_label
_atom_site_fract_x
_atom_site_fract_y
_atom_site_fract_z
Si Si1 0.054435 0.176630 0.138208
Si Si2 0.380319 0.360228 0.859607
Si Si3 0.132092 0.948835 0.298096
Si Si4 0.102203 0.731484 0.769805
Si Si5 0.987209 0.701270 0.345058
Si Si6 0.750116 0.407071 0.100932
Si Si7 0.776638 0.461717 0.838531
Si Si8 0.464449 0.155713 0.256251
O O1 0.037345 0.281801 0.438564
O O2 0.948715 0.180307 0.153378
O O3 0.234767 0.246977 0.969937
O O4 0.000000 0.000000 0.000000
O O5 0.464103 0.249181 0.534161
O O6 0.500000 0.500000 0.000000
O O7 0.325853 0.444340 0.933325
O O8 0.068880 0.866817 0.403879
O O9 0.292932 0.102416 0.336770
O O10 0.168744 0.843194 0.980021
O O11 0.000000 0.000000 0.500000
O O12 0.234249 0.676685 0.460382
O O13 0.957600 0.579117 0.789264
O O14 0.817776 0.593507 0.335605
O O15 0.115923 0.632720 0.066387
O O16 0.585829 0.288155 0.197927
O O17 0.722097 0.385045 0.943395
O O18 0.500000 0.000000 0.000000
#
# Coordination Sequence:
#
# PCOD8012284 Si02
#       8
#     2   2   2   2   2   2   2   2
#     4  11  22  41  67  98 133 169 225 283 330 400
#     4  11  26  45  67  95 134 181 224 275 346 411
#     4  12  24  44  68 101 138 184 229 280 349 406
#     4  10  21  39  68  95 129 175 225 276 335 398
#     4  11  22  40  72 100 129 179 234 270 335 415
#     4  11  23  42  68  99 133 176 229 280 334 410
#     4  10  21  41  67  95 129 171 230 281 326 402
#     4  12  27  45  68  99 143 178 219 288 354 409
#
# _framework density 20.651408
#
# number of rings (size 3 to 8) (size 9 to 14) (size 15 to 20)
#    0.000    1.000    3.750    3.750    1.750    0.500 
#    4.500    0.625    0.000    0.000    0.000    0.000 
#    0.000    0.000    0.000    0.000    0.000    0.000 
#
# Total GULP energy -198359.990946 kJ/mol
# GULP energy per Si atom -12397.499434 kJ/mol
# Density = 2.060440 g / cm^3
# Si number density = 20.651408 Si / 1000 Ang^3
#
#
#
# Elastic Constant Matrix: (Units=GPa)
#
#
# Indices 1 2 3 4 5 6 
#
# 1 71.1620 46.0193 24.9913 -9.1766 3.1878 4.4169
# 2 46.0193 151.3766 37.4528 -19.9192 0.0526 7.5677
# 3 24.9913 37.4528 109.7729 -2.1807 9.8469 8.3380
# 4 -9.1766 -19.9192 -2.1807 32.8835 -3.1361 7.1165
# 5 3.1878 0.0526 9.8469 -3.1361 38.5336 0.7014
# 6 4.4169 7.5677 8.3380 7.1165 0.7014 33.2437
#
#
#
# Elastic Compliance Matrix: (Units=1/GPa)
#
#
# Indices 1 2 3 4 5 6 
#
# 1 0.018274 -0.004588 -0.002390 0.002374 -0.000678 -0.001278
# 2 -0.004588 0.009211 -0.001965 0.004732 0.001291 -0.002035
# 3 -0.002390 -0.001965 0.010659 -0.001044 -0.002579 -0.001631
# 4 0.002374 0.004732 -0.001044 0.036104 0.003165 -0.008927
# 5 -0.000678 0.001291 -0.002579 0.003165 0.026937 -0.000803
# 6 -0.001278 -0.002035 -0.001631 -0.008927 -0.000803 0.033051
#
#
# Mechanical properties :
#
#
# Convention : Reuss Voigt Hill
#
# Bulk Modulus (GPa) = 49.36355 61.02646 55.19501
# Shear Modulus (GPa) = 31.47127 35.85538 33.66332
#
# Velocity S-wave (km/s) = 3.90799 4.17132 4.04180
# Velocity P-wave (km/s) = 6.65720 7.26738 6.96897
#
# Compressibility (1/GPa) = 0.02025786
#
# Stress axis : x y z
#
# Youngs Moduli (GPa) = 54.72120 108.56577 93.81845
#
# Poissons Ratio (x) = 0.49806 0.22424
# Poissons Ratio (y) = 0.25104 0.18440
# Poissons Ratio (z) = 0.13079 0.21339
#
# Static dielectric constant tensor:
#      x y z
#    x 3.595240 0.458870 0.342000 
#    y 0.458870 -0.037250 -2.076190 
#    z 0.342000 -2.076190 2.895890 
# 
# 
# High freq. dielectric constant tensor:
#      x y z
#    x 1.801110 -0.006150 0.009970 
#    y -0.006150 1.811390 0.002870 
#    z 0.009970 0.002870 1.819270 
# 
# From -- ./inp_files/316039.got.cif
#   From: 2010.06.25/outbox.cif.g09.slc.cpg/sg2_159_cif.got.tgz:316039.got - 2010.06.27 13:26:56.
