data_PCOD8012676
_publ_section_title
;
Structure prediction by ZEFSAII (Michael W. Deem and Ramdas Pophale) SiO2 
 PCOD8012676
Probable space group: P -1
;
_chemical_formula_sum "Si O2"
_cell_formula_units_Z 16
_cell_length_a 24.944448
_cell_length_b 6.509057
_cell_length_c 7.643882
_cell_angle_alpha 112.991152
_cell_angle_beta 43.287882
_cell_angle_gamma 100.779415
_cell_volume 774.018077
_symmetry_space_group_name_H-M "P -1"
_symmetry_group_IT_number 2
_symmetry_cell_setting 'triclinic'
loop_
_space_group_symop_operation_xyz
x,y,z
-x,-y,-z
loop_
_atom_site_type_symbol
_atom_site_label
_atom_site_fract_x
_atom_site_fract_y
_atom_site_fract_z
Si Si1 0.102391 0.084648 0.624215
Si Si2 0.416054 0.091062 0.152521
Si Si3 0.512055 0.755016 0.299895
Si Si4 0.032810 0.194094 0.180400
Si Si5 0.231707 0.658571 0.135932
Si Si6 0.097991 0.381730 0.408451
Si Si7 0.353772 0.564012 0.517938
Si Si8 0.644490 0.370097 0.870337
O O1 0.112567 0.287696 0.537859
O O2 0.178940 0.899559 0.362070
O O3 0.098553 0.159736 0.860301
O O4 0.018968 0.005985 0.749040
O O5 0.369718 0.297101 0.446648
O O6 0.367891 0.889295 0.163816
O O7 0.430596 0.224574 0.989423
O O8 0.500000 0.000000 0.000000
O O9 0.428499 0.690287 0.421946
O O10 0.500000 0.000000 0.500000
O O11 0.566424 0.537321 0.188286
O O12 0.079331 0.193432 0.252659
O O13 0.976942 0.424773 0.344440
O O14 0.176331 0.468713 0.182220
O O15 0.283918 0.594472 0.162930
O O16 0.282283 0.676029 0.846184
O O17 0.331460 0.598718 0.378175
#
# Coordination Sequence:
#
# PCOD8012676 Si02
#       8
#     2   2   2   2   2   2   2   2
#     4  10  21  40  62  93 124 156 204 243 296 361
#     4  11  20  39  65  83 107 155 212 262 306 356
#     4  11  23  38  64  91 112 154 213 260 311 369
#     4   9  20  39  68  93 115 160 205 246 288 350
#     4  11  27  38  56  93 127 161 196 242 315 380
#     4  10  21  40  63  91 126 158 200 245 296 359
#     4  11  24  42  60  88 120 160 210 256 311 367
#     4  11  24  43  61  86 124 159 207 263 308 365
#
# _framework density 20.671351000000001
#
# number of rings (size 3 to 8) (size 9 to 14) (size 15 to 20)
#    0.000    1.500    2.500    2.250    1.750    8.000 
#    0.000    2.500    0.000    0.000    0.000    0.000 
#    0.000    0.000    0.000    0.000    0.000    0.000 
#
# Total GULP energy -198333.079828 kJ/mol
# GULP energy per Si atom -12395.817489 kJ/mol
# Density = 2.062430 g / cm^3
# Si number density = 20.671351 Si / 1000 Ang^3
#
#
#
# Elastic Constant Matrix: (Units=GPa)
#
#
# Indices 1 2 3 4 5 6 
#
# 1 70.7260 14.4066 43.3295 2.4524 -5.4154 7.4854
# 2 14.4066 90.6767 36.6376 2.9148 3.1442 5.6592
# 3 43.3295 36.6376 135.4191 -8.6502 7.7002 0.3238
# 4 2.4524 2.9148 -8.6502 23.1813 -0.1682 9.8510
# 5 -5.4154 3.1442 7.7002 -0.1682 23.6031 5.2781
# 6 7.4854 5.6592 0.3238 9.8510 5.2781 27.5021
#
#
#
# Elastic Compliance Matrix: (Units=1/GPa)
#
#
# Indices 1 2 3 4 5 6 
#
# 1 0.019692 -0.000214 -0.006815 -0.001950 0.008119 -0.006095
# 2 -0.000214 0.012648 -0.003473 -0.002148 -0.000239 -0.001688
# 3 -0.006815 -0.003473 0.011076 0.004485 -0.005087 0.001809
# 4 -0.001950 -0.002148 0.004485 0.053267 0.002942 -0.018724
# 5 0.008119 -0.000239 -0.005087 0.002942 0.048739 -0.012509
# 6 -0.006095 -0.001688 0.001809 -0.018724 -0.012509 0.047454
#
#
# Mechanical properties :
#
#
# Convention : Reuss Voigt Hill
#
# Bulk Modulus (GPa) = 44.61667 53.95214 49.28441
# Shear Modulus (GPa) = 22.58872 28.35383 25.47127
#
# Velocity S-wave (km/s) = 3.30927 3.70760 3.51408
# Velocity P-wave (km/s) = 6.01933 6.66971 6.35285
#
# Compressibility (1/GPa) = 0.02241315
#
# Stress axis : x y z
#
# Youngs Moduli (GPa) = 50.78262 79.06286 90.28539
#
# Poissons Ratio (x) = 0.01689 0.61525
# Poissons Ratio (y) = 0.01085 0.31358
# Poissons Ratio (z) = 0.34606 0.27460
#
# Static dielectric constant tensor:
#      x y z
#    x 3.741560 0.111160 0.118970 
#    y 0.111160 4.179500 0.108450 
#    z 0.118970 0.108450 3.845120 
# 
# 
# High freq. dielectric constant tensor:
#      x y z
#    x 1.804920 0.002050 0.005880 
#    y 0.002050 1.816550 0.006510 
#    z 0.005880 0.006510 1.812460 
# 
# From -- ./inp_files/55255.got.cif
#   From: 2010.06.25/outbox.cif.g09.slc.cpg/sg2_28_cif.got.tgz:55255.got - 2010.06.27 13:26:56.
