data_PCOD8012131
_publ_section_title
;
Structure prediction by ZEFSAII (Michael W. Deem and Ramdas Pophale) SiO2 
 PCOD8012131
Probable space group: P -1
;
_chemical_formula_sum "Si O2"
_cell_formula_units_Z 14
_cell_length_a 19.992979
_cell_length_b 11.383464
_cell_length_c 14.971452
_cell_angle_alpha 149.725770
_cell_angle_beta 159.161598
_cell_angle_gamma 28.859562
_cell_volume 564.492216
_symmetry_space_group_name_H-M "P -1"
_symmetry_group_IT_number 2
_symmetry_cell_setting 'triclinic'
loop_
_space_group_symop_operation_xyz
x,y,z
-x,-y,-z
loop_
_atom_site_type_symbol
_atom_site_label
_atom_site_fract_x
_atom_site_fract_y
_atom_site_fract_z
Si Si1 0.272458 0.213357 0.354924
Si Si2 0.950997 0.495099 0.571083
Si Si3 0.262913 0.753445 0.112716
Si Si4 0.643101 0.584810 0.583344
Si Si5 0.754578 0.896164 0.060415
Si Si6 0.572901 0.593022 0.064693
Si Si7 0.846461 0.022274 0.444230
O O1 0.202736 0.436522 0.489115
O O2 0.225151 0.348807 0.288112
O O3 0.500000 0.000000 0.500000
O O4 0.151194 0.032575 0.112623
O O5 0.809688 0.559181 0.348734
O O6 0.089945 0.196006 0.544996
O O7 0.087679 0.657344 0.853159
O O8 0.401716 0.743195 0.367022
O O9 0.436322 0.570923 0.140576
O O10 0.677250 0.289214 0.438738
O O11 0.723324 0.651490 0.821178
O O12 0.959776 0.916346 0.297447
O O13 0.756259 0.902882 0.173941
O O14 0.560656 0.118859 0.925995
O O15 0.500000 0.500000 0.000000
#
# Coordination Sequence:
#
# PCOD8012131 Si02
#       7
#     2   2   2   2   2   2   2
#     4  10  21  39  66  98 127 173 234 280 327 399
#     4  12  25  42  67 100 145 179 217 290 352 407
#     4  11  24  42  67 102 140 179 228 282 351 406
#     4  11  22  44  70 101 132 183 234 281 336 405
#     4  11  22  41  71  98 131 176 237 290 327 396
#     4  12  21  42  69 100 128 180 238 281 331 402
#     4  11  24  42  67 103 140 174 230 284 340 410
#
# _framework density 24.801051000000001
#
# number of rings (size 3 to 8) (size 9 to 14) (size 15 to 20)
#    0.000    0.857    2.857    7.286    0.000    0.571 
#    0.000    0.714    0.000    0.000    0.000    0.000 
#    0.000    0.000    0.000    0.000    0.000    0.000 
#
# Total GULP energy -173532.933231 kJ/mol
# GULP energy per Si atom -12395.209516 kJ/mol
# Density = 2.474460 g / cm^3
# Si number density = 24.801051 Si / 1000 Ang^3
#
#
#
# Elastic Constant Matrix: (Units=GPa)
#
#
# Indices 1 2 3 4 5 6 
#
# 1 26.2674 12.8531 13.4195 -0.9781 -12.7754 -8.0072
# 2 12.8531 119.5167 21.9544 4.8873 -4.0168 12.5163
# 3 13.4195 21.9544 132.8786 -1.5551 -25.2301 1.4430
# 4 -0.9781 4.8873 -1.5551 40.0952 -5.4945 -7.0877
# 5 -12.7754 -4.0168 -25.2301 -5.4945 36.1270 8.0225
# 6 -8.0072 12.5163 1.4430 -7.0877 8.0225 23.4662
#
#
#
# Elastic Compliance Matrix: (Units=1/GPa)
#
#
# Indices 1 2 3 4 5 6 
#
# 1 0.056515 -0.007787 -0.001826 0.007946 0.014382 0.021033
# 2 -0.007787 0.010420 -0.001037 -0.003175 -0.000843 -0.008822
# 3 -0.001826 -0.001037 0.009114 0.000851 0.006294 -0.002525
# 4 0.007946 -0.003175 0.000851 0.028201 0.004851 0.011212
# 5 0.014382 -0.000843 0.006294 0.004851 0.039365 -0.007023
# 6 0.021033 -0.008822 -0.002525 0.011212 -0.007023 0.060440
#
#
# Mechanical properties :
#
#
# Convention : Reuss Voigt Hill
#
# Bulk Modulus (GPa) = 18.26433 41.67964 29.97198
# Shear Modulus (GPa) = 20.52513 35.30005 27.91259
#
# Velocity S-wave (km/s) = 2.87991 3.77680 3.35843
# Velocity P-wave (km/s) = 4.29405 5.98841 5.21056
#
# Compressibility (1/GPa) = 0.05475154
#
# Stress axis : x y z
#
# Youngs Moduli (GPa) = 17.69435 95.96690 109.72369
#
# Poissons Ratio (x) = 0.74726 0.20031
# Poissons Ratio (y) = 0.13778 0.11375
# Poissons Ratio (z) = 0.03230 0.09948
#
# Static dielectric constant tensor:
#      x y z
#    x 4.261450 0.024280 -0.058860 
#    y 0.024280 4.802960 0.099340 
#    z -0.058860 0.099340 4.670040 
# 
# 
# High freq. dielectric constant tensor:
#      x y z
#    x 1.955500 -0.004320 -0.002690 
#    y -0.004320 1.995860 0.005390 
#    z -0.002690 0.005390 1.995340 
# 
# From -- ./inp_files/333511.got.cif
#   From: 2010.06.25/outbox.cif.g09.slc.cpg/sg2_167_cif.got.tgz:333511.got - 2010.06.27 13:26:56.
