data_PCOD8012909
_publ_section_title
;
Structure prediction by ZEFSAII (Michael W. Deem and Ramdas Pophale) SiO2 
 PCOD8012909
Probable space group: P -1
;
_chemical_formula_sum "Si O2"
_cell_formula_units_Z 14
_cell_length_a 8.776112
_cell_length_b 12.702146
_cell_length_c 9.720517
_cell_angle_alpha 45.827355
_cell_angle_beta 113.871507
_cell_angle_gamma 124.529069
_cell_volume 640.204482
_symmetry_space_group_name_H-M "P -1"
_symmetry_group_IT_number 2
_symmetry_cell_setting 'triclinic'
loop_
_space_group_symop_operation_xyz
x,y,z
-x,-y,-z
loop_
_atom_site_type_symbol
_atom_site_label
_atom_site_fract_x
_atom_site_fract_y
_atom_site_fract_z
Si Si1 0.821305 0.795039 0.224021
Si Si2 0.464989 0.918751 0.281376
Si Si3 0.057082 0.152573 0.077626
Si Si4 0.441457 0.762642 0.127783
Si Si5 0.186986 0.018780 0.480850
Si Si6 0.129744 0.740500 0.529113
Si Si7 0.959532 0.427280 0.900935
O O1 0.603081 0.704060 0.257528
O O2 0.932596 0.718377 0.420108
O O3 0.840572 0.761820 0.101069
O O4 0.886694 0.983788 0.121196
O O5 0.407736 0.831206 0.195702
O O6 0.639218 0.898392 0.429550
O O7 0.290129 0.829695 0.397252
O O8 0.509166 0.106995 0.098970
O O9 0.205822 0.122913 0.253832
O O10 0.978827 0.259575 0.039333
O O11 0.252186 0.606117 0.169591
O O12 0.176613 0.844806 0.591695
O O13 0.000000 0.000000 0.500000
O O14 0.099384 0.559312 0.723769
O O15 0.000000 0.500000 0.000000
#
# Coordination Sequence:
#
# PCOD8012909 Si02
#       7
#     2   2   2   2   2   2   2
#     4  10  21  41  67  93 119 164 219 261 303 365
#     4  11  22  39  66  95 121 165 217 258 305 371
#     4  10  21  40  64  90 127 165 206 261 313 366
#     4  11  22  39  65  92 123 164 212 260 310 370
#     4  11  21  38  64  92 123 165 216 262 302 366
#     4  11  24  40  63  94 130 166 206 259 318 375
#     4  12  26  43  62  93 134 168 200 258 328 378
#
# _framework density 21.868013999999999
#
# number of rings (size 3 to 8) (size 9 to 14) (size 15 to 20)
#    0.000    1.143    0.000    9.857    0.000    4.000 
#    0.000    4.286    0.000    0.000    0.000    0.000 
#    0.000    0.000    0.000    0.000    0.000    0.000 
#
# Total GULP energy -173590.069017 kJ/mol
# GULP energy per Si atom -12399.290644 kJ/mol
# Density = 2.181824 g / cm^3
# Si number density = 21.868014 Si / 1000 Ang^3
#
#
#
# Elastic Constant Matrix: (Units=GPa)
#
#
# Indices 1 2 3 4 5 6 
#
# 1 124.0866 45.0536 28.6440 4.5151 0.5085 13.0659
# 2 45.0536 100.1898 41.4052 17.6972 1.4679 3.8759
# 3 28.6440 41.4052 88.3356 6.8048 -6.1480 10.1133
# 4 4.5151 17.6972 6.8048 29.6293 2.6899 -0.0186
# 5 0.5085 1.4679 -6.1480 2.6899 38.1836 2.8584
# 6 13.0659 3.8759 10.1133 -0.0186 2.8584 36.7537
#
#
#
# Elastic Compliance Matrix: (Units=1/GPa)
#
#
# Indices 1 2 3 4 5 6 
#
# 1 0.010086 -0.004196 -0.001073 0.001216 -0.000018 -0.002846
# 2 -0.004196 0.015383 -0.005536 -0.007183 -0.001031 0.001470
# 3 -0.001073 -0.005536 0.014864 -0.000207 0.002886 -0.003349
# 4 0.001216 -0.007183 -0.000207 0.038131 -0.002504 0.000596
# 5 -0.000018 -0.001031 0.002886 -0.002504 0.027079 -0.002786
# 6 -0.002846 0.001470 -0.003349 0.000596 -0.002786 0.029203
#
#
# Mechanical properties :
#
#
# Convention : Reuss Voigt Hill
#
# Bulk Modulus (GPa) = 53.41449 60.31305 56.86377
# Shear Modulus (GPa) = 30.75098 34.08059 32.41579
#
# Velocity S-wave (km/s) = 3.75401 3.95203 3.85429
# Velocity P-wave (km/s) = 6.57792 6.96168 6.77252
#
# Compressibility (1/GPa) = 0.01872151
#
# Stress axis : x y z
#
# Youngs Moduli (GPa) = 99.15108 65.00632 67.27859
#
# Poissons Ratio (x) = 0.27280 0.07216
# Poissons Ratio (y) = 0.41609 0.37248
# Poissons Ratio (z) = 0.10634 0.35990
#
# Static dielectric constant tensor:
#      x y z
#    x 3.877900 0.009140 0.016280 
#    y 0.009140 3.892410 0.254660 
#    z 0.016280 0.254660 4.225770 
# 
# 
# High freq. dielectric constant tensor:
#      x y z
#    x 1.861730 -0.001760 -0.001590 
#    y -0.001760 1.846650 0.026080 
#    z -0.001590 0.026080 1.863530 
# 
# From -- ./inp_files/184461.got.cif
#   From: 2010.06.25/outbox.cif.g09.slc.cpg/sg2_93_cif.got.tgz:184461.got - 2010.06.27 13:26:56.
