data_PCOD8012674
_publ_section_title
;
Structure prediction by ZEFSAII (Michael W. Deem and Ramdas Pophale) SiO2 
 PCOD8012674
Probable space group: P -1
;
_chemical_formula_sum "Si O2"
_cell_formula_units_Z 16
_cell_length_a 23.237236
_cell_length_b 11.784036
_cell_length_c 11.888812
_cell_angle_alpha 141.431511
_cell_angle_beta 22.623456
_cell_angle_gamma 140.630032
_cell_volume 762.629740
_symmetry_space_group_name_H-M "P -1"
_symmetry_group_IT_number 2
_symmetry_cell_setting 'triclinic'
loop_
_space_group_symop_operation_xyz
x,y,z
-x,-y,-z
loop_
_atom_site_type_symbol
_atom_site_label
_atom_site_fract_x
_atom_site_fract_y
_atom_site_fract_z
Si Si1 0.977688 0.478070 0.768684
Si Si2 0.480274 0.070627 0.405232
Si Si3 0.763096 0.607415 0.615727
Si Si4 0.237165 0.862136 0.201867
Si Si5 0.905649 0.793478 0.288058
Si Si6 0.522265 0.265043 0.707354
Si Si7 0.079267 0.751995 0.612776
Si Si8 0.847775 0.964348 0.098276
O O1 0.878915 0.267320 0.776973
O O2 0.136681 0.484636 0.551426
O O3 0.021685 0.550435 0.617896
O O4 0.880960 0.613221 0.110099
O O5 0.558092 0.178383 0.457932
O O6 0.325137 0.130288 0.694539
O O7 0.448877 0.852619 0.326073
O O8 0.591405 0.118861 0.135824
O O9 0.882802 0.732550 0.411360
O O10 0.642433 0.459515 0.646769
O O11 0.657402 0.724017 0.962914
O O12 0.216966 0.759298 0.280190
O O13 0.209369 0.071353 0.428645
O O14 0.076723 0.915366 0.053159
O O15 0.145615 0.900996 0.703478
O O16 0.937084 0.802753 0.840507
#
# Coordination Sequence:
#
# PCOD8012674 Si02
#       8
#     2   2   2   2   2   2   2   2
#     4  11  23  39  66  91 127 165 206 256 307 358
#     4  11  22  41  61  94 125 164 198 261 314 366
#     4  11  22  40  62  93 122 170 201 249 315 371
#     4  11  23  39  65  93 123 164 213 251 305 367
#     4  10  21  40  62  93 122 159 208 256 295 372
#     4  10  23  38  60  91 135 155 201 256 313 376
#     4   9  20  41  61  91 120 161 214 256 293 370
#     4   9  20  38  68  88 123 164 204 254 317 352
#
# _framework density 20.980036999999999
#
# number of rings (size 3 to 8) (size 9 to 14) (size 15 to 20)
#    0.000    1.750    1.250    3.750    3.500    3.000 
#    0.000    0.625    0.000    0.000    0.000    0.000 
#    0.000    0.000    0.000    0.000    0.000    0.000 
#
# Total GULP energy -198378.135862 kJ/mol
# GULP energy per Si atom -12398.633491 kJ/mol
# Density = 2.093229 g / cm^3
# Si number density = 20.980037 Si / 1000 Ang^3
#
#
#
# Elastic Constant Matrix: (Units=GPa)
#
#
# Indices 1 2 3 4 5 6 
#
# 1 76.8291 34.2693 53.0351 -16.9467 -4.9594 -21.8268
# 2 34.2693 70.4613 41.6067 -2.7095 1.0719 -16.3025
# 3 53.0351 41.6067 125.3224 -23.3572 14.4725 -12.3579
# 4 -16.9467 -2.7095 -23.3572 35.7911 -2.5352 5.5846
# 5 -4.9594 1.0719 14.4725 -2.5352 29.6470 -6.6944
# 6 -21.8268 -16.3025 -12.3579 5.5846 -6.6944 31.1259
#
#
#
# Elastic Compliance Matrix: (Units=1/GPa)
#
#
# Indices 1 2 3 4 5 6 
#
# 1 0.027857 -0.004473 -0.009335 0.005300 0.013309 0.015397
# 2 -0.004473 0.021121 -0.005656 -0.005150 0.002417 0.007124
# 3 -0.009335 -0.005656 0.015320 0.005471 -0.009841 -0.006524
# 4 0.005300 -0.005150 0.005471 0.034112 0.000691 -0.002781
# 5 0.013309 0.002417 -0.009841 0.000691 0.044370 0.016110
# 6 0.015397 0.007124 -0.006524 -0.002781 0.016110 0.048030
#
#
# Mechanical properties :
#
#
# Convention : Reuss Voigt Hill
#
# Bulk Modulus (GPa) = 39.41402 58.93725 49.17563
# Shear Modulus (GPa) = 20.99131 28.89291 24.94211
#
# Velocity S-wave (km/s) = 3.16656 3.71504 3.45171
# Velocity P-wave (km/s) = 5.67421 6.82313 6.27502
#
# Compressibility (1/GPa) = 0.02537168
#
# Stress axis : x y z
#
# Youngs Moduli (GPa) = 35.89762 47.34705 65.27294
#
# Poissons Ratio (x) = 0.21177 0.60931
# Poissons Ratio (y) = 0.16056 0.36917
# Poissons Ratio (z) = 0.33509 0.26778
#
# Static dielectric constant tensor:
#      x y z
#    x 3.561890 -0.167800 0.272800 
#    y -0.167800 3.810030 0.064470 
#    z 0.272800 0.064470 3.877010 
# 
# 
# High freq. dielectric constant tensor:
#      x y z
#    x 1.805300 -0.006800 0.021350 
#    y -0.006800 1.822780 0.003440 
#    z 0.021350 0.003440 1.823960 
# 
# From -- ./inp_files/179381.got.cif
#   From: 2010.06.25/outbox.cif.g09.slc.cpg/sg2_90_cif.got.tgz:179381.got - 2010.06.27 13:26:56.
