data_PCOD8012187
_publ_section_title
;
Structure prediction by ZEFSAII (Michael W. Deem and Ramdas Pophale) SiO2 
 PCOD8012187
Probable space group: P -1
;
_chemical_formula_sum "Si O2"
_cell_formula_units_Z 14
_cell_length_a 14.568673
_cell_length_b 6.658684
_cell_length_c 23.537349
_cell_angle_alpha 61.795585
_cell_angle_beta 161.115932
_cell_angle_gamma 120.746537
_cell_volume 634.622103
_symmetry_space_group_name_H-M "P -1"
_symmetry_group_IT_number 2
_symmetry_cell_setting 'triclinic'
loop_
_space_group_symop_operation_xyz
x,y,z
-x,-y,-z
loop_
_atom_site_type_symbol
_atom_site_label
_atom_site_fract_x
_atom_site_fract_y
_atom_site_fract_z
Si Si1 0.515088 0.364642 0.084982
Si Si2 0.540931 0.307877 0.425511
Si Si3 0.400294 0.854834 0.641871
Si Si4 0.457009 0.527372 0.149149
Si Si5 0.122211 0.832075 0.263516
Si Si6 0.870241 0.991536 0.362424
Si Si7 0.792518 0.320460 0.786558
O O1 0.521443 0.544273 0.117150
O O2 0.779533 0.233129 0.260808
O O3 0.500000 0.500000 0.000000
O O4 0.215877 0.168499 0.941339
O O5 0.621487 0.287406 0.410273
O O6 0.825918 0.304560 0.630542
O O7 0.441138 0.547047 0.343339
O O8 0.282234 0.101747 0.324254
O O9 0.391342 0.674421 0.712000
O O10 0.116095 0.962343 0.465403
O O11 0.696471 0.057891 0.791056
O O12 0.590786 0.775576 0.223015
O O13 0.116971 0.450622 0.977349
O O14 0.236686 0.699308 0.295990
O O15 0.000000 0.000000 0.500000
#
# Coordination Sequence:
#
# PCOD8012187 Si02
#       7
#     2   2   2   2   2   2   2
#     4  11  26  44  69  97 137 173 226 279 330 398
#     4  10  21  39  67  94 135 172 220 276 330 395
#     4  11  25  40  69 101 131 175 229 270 331 403
#     4  11  25  46  67  99 137 174 224 278 335 397
#     4   9  21  41  61  97 132 173 219 275 330 397
#     4  12  27  46  70  95 137 184 222 272 342 396
#     4  10  22  41  68  97 130 175 220 276 337 389
#
# _framework density 22.060372000000001
#
# number of rings (size 3 to 8) (size 9 to 14) (size 15 to 20)
#    0.000    1.429    1.429    2.143    6.000    1.143 
#    5.143    0.000    0.000    0.000    0.000    0.000 
#    0.000    0.000    0.000    0.000    0.000    0.000 
#
# Total GULP energy -173647.492684 kJ/mol
# GULP energy per Si atom -12403.392335 kJ/mol
# Density = 2.201016 g / cm^3
# Si number density = 22.060372 Si / 1000 Ang^3
#
#
#
# Elastic Constant Matrix: (Units=GPa)
#
#
# Indices 1 2 3 4 5 6 
#
# 1 113.7085 32.0983 27.2789 -12.7513 -15.8116 -2.6780
# 2 32.0983 85.9003 26.3460 0.1535 -15.5846 -5.3116
# 3 27.2789 26.3460 87.0011 -8.4208 -12.1124 -5.3395
# 4 -12.7513 0.1535 -8.4208 45.9355 -3.0260 0.3010
# 5 -15.8116 -15.5846 -12.1124 -3.0260 35.0193 -4.1196
# 6 -2.6780 -5.3116 -5.3395 0.3010 -4.1196 29.1291
#
#
#
# Elastic Compliance Matrix: (Units=1/GPa)
#
#
# Indices 1 2 3 4 5 6 
#
# 1 0.010827 -0.002876 -0.001743 0.002911 0.003327 0.000592
# 2 -0.002876 0.014541 -0.002843 -0.001096 0.004388 0.002498
# 3 -0.001743 -0.002843 0.013693 0.002228 0.003141 0.002253
# 4 0.002911 -0.001096 0.002228 0.023228 0.003694 0.000759
# 5 0.003327 0.004388 0.003141 0.003694 0.034178 0.006477
# 6 0.000592 0.002498 0.002253 0.000759 0.006477 0.036161
#
#
# Mechanical properties :
#
#
# Convention : Reuss Voigt Hill
#
# Bulk Modulus (GPa) = 41.43096 50.89513 46.16305
# Shear Modulus (GPa) = 32.13398 35.40924 33.77161
#
# Velocity S-wave (km/s) = 3.82073 4.01072 3.91688
# Velocity P-wave (km/s) = 6.18753 6.67599 6.43639
#
# Compressibility (1/GPa) = 0.02413654
#
# Stress axis : x y z
#
# Youngs Moduli (GPa) = 92.35764 68.77211 73.03144
#
# Poissons Ratio (x) = 0.19782 0.12726
# Poissons Ratio (y) = 0.26566 0.20765
# Poissons Ratio (z) = 0.16094 0.19554
#
# Static dielectric constant tensor:
#      x y z
#    x 3.920830 -0.045090 -0.008290 
#    y -0.045090 3.858990 0.162260 
#    z -0.008290 0.162260 4.109760 
# 
# 
# High freq. dielectric constant tensor:
#      x y z
#    x 1.870200 -0.003460 0.001240 
#    y -0.003460 1.866090 0.010630 
#    z 0.001240 0.010630 1.873990 
# 
# From -- ./inp_files/85340.got.cif
#   From: 2010.06.25/outbox.cif.g09.slc.cpg/sg2_43_cif.got.tgz:85340.got - 2010.06.27 13:26:56.
