data_PCOD8012295
_publ_section_title
;
Structure prediction by ZEFSAII (Michael W. Deem and Ramdas Pophale) SiO2 
 PCOD8012295
Probable space group: P -1
;
_chemical_formula_sum "Si O2"
_cell_formula_units_Z 16
_cell_length_a 13.961937
_cell_length_b 19.916282
_cell_length_c 22.087116
_cell_angle_alpha 20.146343
_cell_angle_beta 159.324596
_cell_angle_gamma 149.251876
_cell_volume 737.766281
_symmetry_space_group_name_H-M "P -1"
_symmetry_group_IT_number 2
_symmetry_cell_setting 'triclinic'
loop_
_space_group_symop_operation_xyz
x,y,z
-x,-y,-z
loop_
_atom_site_type_symbol
_atom_site_label
_atom_site_fract_x
_atom_site_fract_y
_atom_site_fract_z
Si Si1 0.229402 0.907327 0.906261
Si Si2 0.173689 0.695234 0.674350
Si Si3 0.808684 0.194237 0.743155
Si Si4 0.497075 0.455583 0.238880
Si Si5 0.787067 0.202760 0.141068
Si Si6 0.743716 0.550790 0.183959
Si Si7 0.692866 0.797008 0.480881
Si Si8 0.053942 0.547393 0.154906
O O1 0.266262 0.767502 0.987009
O O2 0.169816 0.756613 0.052313
O O3 0.978006 0.082334 0.600301
O O4 0.500000 0.000000 0.000000
O O5 0.211714 0.634935 0.677826
O O6 0.014329 0.537411 0.748190
O O7 0.467908 0.698498 0.877283
O O8 0.625004 0.276080 0.508370
O O9 0.611295 0.147920 0.719691
O O10 0.991092 0.344831 0.751212
O O11 0.000000 0.000000 0.000000
O O12 0.718902 0.478139 0.299250
O O13 0.443305 0.655040 0.078185
O O14 0.219340 0.409168 0.083935
O O15 0.088644 0.251909 0.293759
O O16 0.770863 0.976502 0.336576
O O17 0.715595 0.611544 0.606232
#
# Coordination Sequence:
#
# PCOD8012295 Si02
#       8
#     2   2   2   2   2   2   2   2
#     4  12  26  39  67 100 130 171 212 274 325 386
#     4  10  24  48  65  90 132 178 219 260 323 389
#     4  12  25  37  62 100 131 168 212 273 322 385
#     4  10  22  43  68  94 126 169 221 270 326 385
#     4  10  21  41  69  95 129 165 213 275 333 379
#     4  10  24  45  65  86 131 179 212 266 318 385
#     4  10  21  39  68  98 127 165 211 276 332 379
#     4  10  22  44  70  97 126 171 217 274 329 382
#
# _framework density 21.687085
#
# number of rings (size 3 to 8) (size 9 to 14) (size 15 to 20)
#    0.000    1.500    1.250    2.625    8.750    3.500 
#    2.250    1.875    0.000    0.000    0.000    0.000 
#    0.000    0.000    0.000    0.000    0.000    0.000 
#
# Total GULP energy -198464.733379 kJ/mol
# GULP energy per Si atom -12404.045836 kJ/mol
# Density = 2.163772 g / cm^3
# Si number density = 21.687085 Si / 1000 Ang^3
#
#
#
# Elastic Constant Matrix: (Units=GPa)
#
#
# Indices 1 2 3 4 5 6 
#
# 1 102.4049 17.8219 33.2081 -4.3608 22.7201 3.4182
# 2 17.8219 66.8794 15.2799 -6.9834 13.0052 16.9292
# 3 33.2081 15.2799 100.3387 -14.6305 12.6499 4.0187
# 4 -4.3608 -6.9834 -14.6305 29.8441 7.8037 1.3121
# 5 22.7201 13.0052 12.6499 7.8037 27.9307 1.6418
# 6 3.4182 16.9292 4.0187 1.3121 1.6418 32.8254
#
#
#
# Elastic Compliance Matrix: (Units=1/GPa)
#
#
# Indices 1 2 3 4 5 6 
#
# 1 0.013060 -0.000492 -0.002475 0.003254 -0.010158 -0.000425
# 2 -0.000492 0.020667 -0.000028 0.008043 -0.010847 -0.010383
# 3 -0.002475 -0.000028 0.012631 0.007364 -0.005676 -0.001284
# 4 0.003254 0.008043 0.007364 0.045519 -0.022086 -0.006103
# 5 -0.010158 -0.010847 -0.005676 -0.022086 0.057543 0.005352
# 6 -0.000425 -0.010383 -0.001284 -0.006103 0.005352 0.035997
#
#
# Mechanical properties :
#
#
# Convention : Reuss Voigt Hill
#
# Bulk Modulus (GPa) = 24.77295 44.69366 34.73331
# Shear Modulus (GPa) = 24.40658 31.67424 28.04041
#
# Velocity S-wave (km/s) = 3.35833 3.82581 3.59967
# Velocity P-wave (km/s) = 5.14641 6.33790 5.77298
#
# Compressibility (1/GPa) = 0.04036661
#
# Stress axis : x y z
#
# Youngs Moduli (GPa) = 76.57052 48.38577 79.17325
#
# Poissons Ratio (x) = 0.02380 0.19597
# Poissons Ratio (y) = 0.03767 0.00224
# Poissons Ratio (z) = 0.18953 0.00137
#
# Static dielectric constant tensor:
#      x y z
#    x 3.962610 0.056350 0.046490 
#    y 0.056350 3.862810 0.084410 
#    z 0.046490 0.084410 3.962980 
# 
# 
# High freq. dielectric constant tensor:
#      x y z
#    x 1.857820 0.004930 0.005170 
#    y 0.004930 1.845970 0.001380 
#    z 0.005170 0.001380 1.852570 
# 
# From -- ./inp_files/320177.got.cif
#   From: 2010.06.25/outbox.cif.g09.slc.cpg/sg2_161_cif.got.tgz:320177.got - 2010.06.27 13:26:56.
