data_PCOD8012235
_publ_section_title
;
Structure prediction by ZEFSAII (Michael W. Deem and Ramdas Pophale) SiO2 
 PCOD8012235
Probable space group: P -1
;
_chemical_formula_sum "Si O2"
_cell_formula_units_Z 16
_cell_length_a 11.848200
_cell_length_b 7.983191
_cell_length_c 11.877753
_cell_angle_alpha 47.319331
_cell_angle_beta 125.479632
_cell_angle_gamma 125.118171
_cell_volume 640.798335
_symmetry_space_group_name_H-M "P -1"
_symmetry_group_IT_number 2
_symmetry_cell_setting 'triclinic'
loop_
_space_group_symop_operation_xyz
x,y,z
-x,-y,-z
loop_
_atom_site_type_symbol
_atom_site_label
_atom_site_fract_x
_atom_site_fract_y
_atom_site_fract_z
Si Si1 0.764657 0.798426 0.913482
Si Si2 0.938937 0.991945 0.114999
Si Si3 0.048635 0.073019 0.368726
Si Si4 0.499780 0.229454 0.107678
Si Si5 0.600928 0.340839 0.484205
Si Si6 0.209847 0.617516 0.210942
Si Si7 0.673145 0.063446 0.447391
Si Si8 0.567090 0.359660 0.856979
O O1 0.842525 0.757511 0.096144
O O2 0.643064 0.927665 0.830196
O O3 0.683628 0.566315 0.902051
O O4 0.889169 0.966553 0.829570
O O5 0.917908 0.966464 0.249686
O O6 0.891736 0.211268 0.932811
O O7 0.104315 0.353007 0.244503
O O8 0.166246 0.943581 0.467598
O O9 0.000000 0.000000 0.500000
O O10 0.645056 0.207725 0.257547
O O11 0.500000 0.500000 0.000000
O O12 0.499159 0.158369 0.006718
O O13 0.724345 0.418722 0.613787
O O14 0.656716 0.183984 0.499909
O O15 0.570670 0.569586 0.303282
O O16 0.441507 0.201238 0.504462
O O17 0.343421 0.718243 0.154246
#
# Coordination Sequence:
#
# PCOD8012235 Si02
#       8
#     2   2   2   2   2   2   2   2
#     4  10  21  42  68  98 124 169 227 268 315 392
#     4  11  25  44  70  90 131 183 224 259 321 402
#     4  12  29  47  63  96 141 176 215 273 330 391
#     4  10  21  39  68 101 124 164 213 282 324 378
#     4  11  23  42  73 100 127 170 223 278 327 389
#     4  12  26  43  68  97 132 179 221 267 336 392
#     4  11  23  43  71  94 134 169 221 272 333 383
#     4  11  22  43  69  98 136 163 221 278 332 385
#
# _framework density 24.968855000000001
#
# number of rings (size 3 to 8) (size 9 to 14) (size 15 to 20)
#    0.000    1.000    5.000    1.500    8.750    2.000 
#    0.000    1.875    0.000    0.000    0.000    0.000 
#    0.000    0.000    0.000    0.000    0.000    0.000 
#
# Total GULP energy -198247.567204 kJ/mol
# GULP energy per Si atom -12390.472950 kJ/mol
# Density = 2.491203 g / cm^3
# Si number density = 24.968855 Si / 1000 Ang^3
#
#
#
# Elastic Constant Matrix: (Units=GPa)
#
#
# Indices 1 2 3 4 5 6 
#
# 1 118.4498 12.3449 44.9412 5.5445 -7.2774 -11.8440
# 2 12.3449 19.5199 33.8348 22.6929 -1.2636 -2.0654
# 3 44.9412 33.8348 169.4285 35.1461 -17.9592 -9.2487
# 4 5.5445 22.6929 35.1461 45.2511 -7.6619 -6.3970
# 5 -7.2774 -1.2636 -17.9592 -7.6619 43.5335 7.6041
# 6 -11.8440 -2.0654 -9.2487 -6.3970 7.6041 25.2787
#
#
#
# Elastic Compliance Matrix: (Units=1/GPa)
#
#
# Indices 1 2 3 4 5 6 
#
# 1 0.010335 -0.009915 -0.001602 0.005769 0.000990 0.004608
# 2 -0.009915 0.179975 -0.019417 -0.078393 -0.016140 -0.012028
# 3 -0.001602 -0.019417 0.010046 0.002886 0.003651 0.000971
# 4 0.005769 -0.078393 0.002886 0.061416 0.008904 0.010217
# 5 0.000990 -0.016140 0.003651 0.008904 0.026665 -0.005287
# 6 0.004608 -0.012028 0.000971 0.010217 -0.005287 0.045267
#
#
# Mechanical properties :
#
#
# Convention : Reuss Voigt Hill
#
# Bulk Modulus (GPa) = 7.22077 54.40444 30.81260
# Shear Modulus (GPa) = 11.31907 37.23112 24.27510
#
# Velocity S-wave (km/s) = 2.13146 3.86567 3.12142
# Velocity P-wave (km/s) = 2.99260 6.46226 5.03569
#
# Compressibility (1/GPa) = 0.13848948
#
# Stress axis : x y z
#
# Youngs Moduli (GPa) = 96.75877 5.55633 99.54452
#
# Poissons Ratio (x) = 0.05509 0.15943
# Poissons Ratio (y) = 0.95937 1.93281
# Poissons Ratio (z) = 0.15497 0.10788
#
# Static dielectric constant tensor:
#      x y z
#    x 5.466410 0.180880 -0.422190 
#    y 0.180880 4.565580 0.258430 
#    z -0.422190 0.258430 4.817200 
# 
# 
# High freq. dielectric constant tensor:
#      x y z
#    x 1.999570 -0.015460 -0.005020 
#    y -0.015460 1.983290 0.027790 
#    z -0.005020 0.027790 2.005220 
# 
# From -- ./inp_files/419017.got.cif
#   From: 2010.06.25/outbox.cif.g09.slc.cpg/sg2_210_cif.got.tgz:419017.got - 2010.06.27 13:26:56.
