data_PCOD8012738
_publ_section_title
;
Structure prediction by ZEFSAII (Michael W. Deem and Ramdas Pophale) SiO2 
 PCOD8012738
Probable space group: P -1
;
_chemical_formula_sum "Si O2"
_cell_formula_units_Z 16
_cell_length_a 7.455221
_cell_length_b 8.957215
_cell_length_c 18.710789
_cell_angle_alpha 113.437525
_cell_angle_beta 140.188728
_cell_angle_gamma 51.921993
_cell_volume 622.525813
_symmetry_space_group_name_H-M "P -1"
_symmetry_group_IT_number 2
_symmetry_cell_setting 'triclinic'
loop_
_space_group_symop_operation_xyz
x,y,z
-x,-y,-z
loop_
_atom_site_type_symbol
_atom_site_label
_atom_site_fract_x
_atom_site_fract_y
_atom_site_fract_z
Si Si1 0.718662 0.295873 0.230657
Si Si2 0.464823 0.047757 0.080184
Si Si3 0.710312 0.100124 0.689409
Si Si4 0.132696 0.974726 0.120954
Si Si5 0.144726 0.258941 0.754650
Si Si6 0.180095 0.595091 0.869634
Si Si7 0.007441 0.189025 0.546793
Si Si8 0.672022 0.498504 0.396434
O O1 0.428633 0.250135 0.122877
O O2 0.716326 0.402928 0.179446
O O3 0.619670 0.440615 0.291941
O O4 0.078662 0.105749 0.324572
O O5 0.804272 0.893517 0.196741
O O6 0.151699 0.038935 0.012834
O O7 0.500000 0.000000 0.000000
O O8 0.912484 0.071576 0.819255
O O9 0.349152 0.146932 0.609889
O O10 0.648750 0.280995 0.653004
O O11 0.486027 0.811383 0.171334
O O12 0.080593 0.187590 0.142771
O O13 0.005975 0.468784 0.788722
O O14 0.950805 0.256645 0.624842
O O15 0.500000 0.500000 0.000000
O O16 0.692869 0.359231 0.439312
O O17 0.000000 0.000000 0.500000
O O18 0.000000 0.500000 0.500000
#
# Coordination Sequence:
#
# PCOD8012738 Si02
#       8
#     2   2   2   2   2   2   2   2
#     4  11  22  39  62  90 124 162 200 253 313 349
#     4  12  21  39  63  94 129 158 199 256 298 363
#     4   9  20  39  64  86 121 159 206 245 300 375
#     4  10  21  40  63  90 126 166 204 240 307 373
#     4  11  23  41  65  88 123 169 203 245 312 370
#     4  11  20  36  62  89 124 163 206 244 296 373
#     4  10  21  40  64  89 120 158 205 260 306 353
#     4  10  21  40  63  88 117 157 211 256 298 362
#
# _framework density 25.701741999999999
#
# number of rings (size 3 to 8) (size 9 to 14) (size 15 to 20)
#    0.000    1.500    3.750    3.375    0.000    2.000 
#    0.000   10.000    0.000   15.750    0.000    0.000 
#    0.000    0.000    0.000    0.000    0.000    0.000 
#
# Total GULP energy -198364.831935 kJ/mol
# GULP energy per Si atom -12397.801996 kJ/mol
# Density = 2.564324 g / cm^3
# Si number density = 25.701742 Si / 1000 Ang^3
#
#
#
# Elastic Constant Matrix: (Units=GPa)
#
#
# Indices 1 2 3 4 5 6 
#
# 1 44.7951 19.8639 17.1272 -9.1007 -27.2890 1.8849
# 2 19.8639 146.5953 51.3736 -10.0692 -16.7558 17.9306
# 3 17.1272 51.3736 130.3767 4.1901 -26.5348 2.5632
# 4 -9.1007 -10.0692 4.1901 59.4017 2.4748 -1.8835
# 5 -27.2890 -16.7558 -26.5348 2.4748 37.7977 -13.9679
# 6 1.8849 17.9306 2.5632 -1.8835 -13.9679 47.7135
#
#
#
# Elastic Compliance Matrix: (Units=1/GPa)
#
#
# Indices 1 2 3 4 5 6 
#
# 1 0.046175 -0.003892 0.002635 0.005020 0.037026 0.010534
# 2 -0.003892 0.008784 -0.003487 0.001138 -0.002821 -0.003741
# 3 0.002635 -0.003487 0.010506 -0.001201 0.009004 0.003230
# 4 0.005020 0.001138 -0.001201 0.017807 0.002435 0.000855
# 5 0.037026 -0.002821 0.009004 0.002435 0.064820 0.018185
# 6 0.010534 -0.003741 0.003230 0.000855 0.018185 0.027132
#
#
# Mechanical properties :
#
#
# Convention : Reuss Voigt Hill
#
# Bulk Modulus (GPa) = 17.86467 55.38850 36.62659
# Shear Modulus (GPa) = 24.58576 44.54275 34.56425
#
# Velocity S-wave (km/s) = 3.09622 4.16752 3.67116
# Velocity P-wave (km/s) = 4.44386 6.68991 5.67904
#
# Compressibility (1/GPa) = 0.05597639
#
# Stress axis : x y z
#
# Youngs Moduli (GPa) = 21.65692 113.84087 95.18667
#
# Poissons Ratio (x) = 0.44304 -0.25080
# Poissons Ratio (y) = 0.08428 0.33193
# Poissons Ratio (z) = -0.05706 0.39698
#
# Static dielectric constant tensor:
#      x y z
#    x 3.714940 0.080540 0.044300 
#    y 0.080540 4.934920 -0.269260 
#    z 0.044300 -0.269260 5.016800 
# 
# 
# High freq. dielectric constant tensor:
#      x y z
#    x 2.044660 0.014050 -0.003950 
#    y 0.014050 2.033200 -0.010380 
#    z -0.003950 -0.010380 2.044560 
# 
# From -- ./inp_files/588076.got.cif
#   From: 2010.06.25/outbox.cif.g09.slc.cpg/sg2_295_cif.got.tgz:588076.got - 2010.06.27 13:26:56.
