data_PCOD8012317
_publ_section_title
;
Structure prediction by ZEFSAII (Michael W. Deem and Ramdas Pophale) SiO2 
 PCOD8012317
Probable space group: P -1
;
_chemical_formula_sum "Si O2"
_cell_formula_units_Z 16
_cell_length_a 14.631582
_cell_length_b 8.755512
_cell_length_c 10.247313
_cell_angle_alpha 59.646531
_cell_angle_beta 116.206549
_cell_angle_gamma 69.898733
_cell_volume 692.298835
_symmetry_space_group_name_H-M "P -1"
_symmetry_group_IT_number 2
_symmetry_cell_setting 'triclinic'
loop_
_space_group_symop_operation_xyz
x,y,z
-x,-y,-z
loop_
_atom_site_type_symbol
_atom_site_label
_atom_site_fract_x
_atom_site_fract_y
_atom_site_fract_z
Si Si1 0.593137 0.718242 0.727211
Si Si2 0.765646 0.403598 0.717373
Si Si3 0.140517 0.463088 0.892400
Si Si4 0.605829 0.220468 0.243872
Si Si5 0.632242 0.836732 0.256888
Si Si6 0.080576 0.629787 0.494606
Si Si7 0.917253 0.848712 0.047857
Si Si8 0.919496 0.004567 0.568428
O O1 0.701532 0.500272 0.780567
O O2 0.471122 0.728205 0.688583
O O3 0.500000 0.000000 0.500000
O O4 0.695310 0.657514 0.940326
O O5 0.643688 0.644503 0.437180
O O6 0.921063 0.312684 0.841540
O O7 0.796561 0.157168 0.813588
O O8 0.058327 0.597541 0.642917
O O9 0.146521 0.246686 0.021218
O O10 0.031992 0.707828 0.819301
O O11 0.612324 0.033198 0.247318
O O12 0.766768 0.101522 0.400383
O O13 0.500000 0.500000 0.000000
O O14 0.783645 0.659948 0.347126
O O15 0.500000 0.000000 0.000000
O O16 0.936303 0.783543 0.244100
O O17 0.112175 0.802403 0.427991
O O18 0.000000 0.000000 0.500000
#
# Coordination Sequence:
#
# PCOD8012317 Si02
#       8
#     2   2   2   2   2   2   2   2
#     4  12  26  47  67  99 152 189 232 291 360 422
#     4  10  23  45  68  96 146 185 232 296 351 428
#     4  11  23  41  70 102 136 184 240 291 347 422
#     4  12  25  45  71 105 138 186 239 292 356 424
#     4  11  22  42  67  95 139 185 233 286 349 421
#     4  10  21  39  69 102 135 171 231 299 350 407
#     4  10  22  43  70 105 137 181 237 293 358 412
#     4  10  21  41  69 104 136 176 237 293 342 411
#
# _framework density 23.111408000000001
#
# number of rings (size 3 to 8) (size 9 to 14) (size 15 to 20)
#    0.000    1.250    1.250    5.625    0.000    3.500 
#    9.000    1.875    0.000    0.000    0.000    0.000 
#    0.000    0.000    0.000    0.000    0.000    0.000 
#
# Total GULP energy -198267.992259 kJ/mol
# GULP energy per Si atom -12391.749516 kJ/mol
# Density = 2.305881 g / cm^3
# Si number density = 23.111408 Si / 1000 Ang^3
#
#
#
# Elastic Constant Matrix: (Units=GPa)
#
#
# Indices 1 2 3 4 5 6 
#
# 1 133.4279 46.9776 51.5766 -7.9733 6.0960 9.2417
# 2 46.9776 103.2409 48.4658 -29.0045 -4.4451 14.0754
# 3 51.5766 48.4658 137.9717 -17.5969 -7.1589 16.8215
# 4 -7.9733 -29.0045 -17.5969 45.1101 7.6410 -7.2431
# 5 6.0960 -4.4451 -7.1589 7.6410 37.3767 -3.4936
# 6 9.2417 14.0754 16.8215 -7.2431 -3.4936 41.4969
#
#
#
# Elastic Compliance Matrix: (Units=1/GPa)
#
#
# Indices 1 2 3 4 5 6 
#
# 1 0.009858 -0.003669 -0.002646 -0.001305 -0.002312 -0.000301
# 2 -0.003669 0.015027 -0.002701 0.007642 0.000134 -0.001840
# 3 -0.002646 -0.002701 0.009646 0.000955 0.001566 -0.002106
# 4 -0.001305 0.007642 0.000955 0.028253 -0.004295 0.001881
# 5 -0.002312 0.000134 0.001566 -0.004295 0.028464 0.001481
# 6 -0.000301 -0.001840 -0.002106 0.001881 0.001481 0.026096
#
#
# Mechanical properties :
#
#
# Convention : Reuss Voigt Hill
#
# Bulk Modulus (GPa) = 60.61202 74.29783 67.45493
# Shear Modulus (GPa) = 35.49254 39.97143 37.73199
#
# Velocity S-wave (km/s) = 3.92307 4.16325 4.04494
# Velocity P-wave (km/s) = 6.84132 7.43826 7.14602
#
# Compressibility (1/GPa) = 0.01649838
#
# Stress axis : x y z
#
# Youngs Moduli (GPa) = 101.44412 66.54701 103.67320
#
# Poissons Ratio (x) = 0.24413 0.27433
# Poissons Ratio (y) = 0.37216 0.28005
# Poissons Ratio (z) = 0.26843 0.17976
#
# Static dielectric constant tensor:
#      x y z
#    x 4.076880 0.132250 -0.318090 
#    y 0.132250 4.917610 -0.192650 
#    z -0.318090 -0.192650 4.312120 
# 
# 
# High freq. dielectric constant tensor:
#      x y z
#    x 1.903120 0.004120 -0.011900 
#    y 0.004120 1.925580 -0.022830 
#    z -0.011900 -0.022830 1.918520 
# 
# From -- ./inp_files/446975.got.cif
#   From: 2010.06.25/outbox.cif.g09.slc.cpg/sg2_224_cif.got.tgz:446975.got - 2010.06.27 13:26:56.
