data_PCOD8012482
_publ_section_title
;
Structure prediction by ZEFSAII (Michael W. Deem and Ramdas Pophale) SiO2 
 PCOD8012482
Probable space group: P -1
;
_chemical_formula_sum "Si O2"
_cell_formula_units_Z 14
_cell_length_a 11.303230
_cell_length_b 9.901914
_cell_length_c 7.528255
_cell_angle_alpha 105.012155
_cell_angle_beta 119.349632
_cell_angle_gamma 86.771084
_cell_volume 706.872288
_symmetry_space_group_name_H-M "P -1"
_symmetry_group_IT_number 2
_symmetry_cell_setting 'triclinic'
loop_
_space_group_symop_operation_xyz
x,y,z
-x,-y,-z
loop_
_atom_site_type_symbol
_atom_site_label
_atom_site_fract_x
_atom_site_fract_y
_atom_site_fract_z
Si Si1 0.989240 0.661604 0.074512
Si Si2 0.110990 0.125709 0.156682
Si Si3 0.264445 0.211580 0.975506
Si Si4 0.698004 0.918354 0.410550
Si Si5 0.285185 0.758346 0.419898
Si Si6 0.532552 0.318467 0.782723
Si Si7 0.450953 0.617494 0.784261
O O1 0.122471 0.736548 0.290826
O O2 0.859833 0.689088 0.114274
O O3 0.000000 0.500000 0.000000
O O4 0.962673 0.731226 0.885099
O O5 0.169577 0.118901 0.394631
O O6 0.234029 0.118433 0.099698
O O7 0.000000 0.000000 0.000000
O O8 0.273189 0.106157 0.782766
O O9 0.402377 0.309397 0.136346
O O10 0.568990 0.820595 0.350135
O O11 0.666046 0.078486 0.465796
O O12 0.340130 0.700834 0.256260
O O13 0.336766 0.669940 0.590848
O O14 0.452485 0.450253 0.704661
O O15 0.589140 0.345821 0.031991
#
# Coordination Sequence:
#
# PCOD8012482 Si02
#       7
#     2   2   2   2   2   2   2
#     4  10  23  41  62  89 121 156 203 245 300 353
#     4  10  21  40  60  85 121 161 192 243 300 354
#     4   9  22  41  64  83 126 156 197 245 303 353
#     4  11  22  40  62  90 119 162 201 240 303 354
#     4  12  23  37  62  94 119 155 203 250 293 352
#     4  10  23  39  63  89 123 155 203 243 300 358
#     4  10  22  42  63  88 120 162 197 247 300 349
#
# _framework density 19.805558999999999
#
# number of rings (size 3 to 8) (size 9 to 14) (size 15 to 20)
#    0.857    0.857    1.429    2.571    2.000    5.714 
#    2.571    0.714    0.000    0.000    0.000    0.000 
#    0.000    0.000    0.000    0.000    0.000    0.000 
#
# Total GULP energy -173578.840646 kJ/mol
# GULP energy per Si atom -12398.488618 kJ/mol
# Density = 1.976048 g / cm^3
# Si number density = 19.805559 Si / 1000 Ang^3
#
#
#
# Elastic Constant Matrix: (Units=GPa)
#
#
# Indices 1 2 3 4 5 6 
#
# 1 50.1341 12.2194 18.3172 -7.4410 -5.8722 -7.3916
# 2 12.2194 104.9650 9.3207 -1.2255 -13.0270 -3.7776
# 3 18.3172 9.3207 53.8794 -5.5180 1.7859 -1.5465
# 4 -7.4410 -1.2255 -5.5180 33.4539 -5.8780 -0.3405
# 5 -5.8722 -13.0270 1.7859 -5.8780 24.2276 -0.7586
# 6 -7.3916 -3.7776 -1.5465 -0.3405 -0.7586 29.7154
#
#
#
# Elastic Compliance Matrix: (Units=1/GPa)
#
#
# Indices 1 2 3 4 5 6 
#
# 1 0.025855 -0.001018 -0.008103 0.005832 0.007924 0.006149
# 2 -0.001018 0.010556 -0.001543 0.000938 0.005807 0.001168
# 3 -0.008103 -0.001543 0.021788 0.000986 -0.004197 -0.001174
# 4 0.005832 0.000938 0.000986 0.033159 0.009961 0.002255
# 5 0.007924 0.005807 -0.004197 0.009961 0.049165 0.003860
# 6 0.006149 0.001168 -0.001174 0.002255 0.003860 0.035394
#
#
# Mechanical properties :
#
#
# Convention : Reuss Voigt Hill
#
# Bulk Modulus (GPa) = 27.12037 32.07701 29.59869
# Shear Modulus (GPa) = 23.86227 28.75414 26.30821
#
# Velocity S-wave (km/s) = 3.47483 3.81441 3.64857
# Velocity P-wave (km/s) = 5.46098 5.96915 5.72071
#
# Compressibility (1/GPa) = 0.03687265
#
# Stress axis : x y z
#
# Youngs Moduli (GPa) = 38.67657 94.73148 45.89685
#
# Poissons Ratio (x) = 0.09639 0.37189
# Poissons Ratio (y) = 0.03935 0.07082
# Poissons Ratio (z) = 0.31339 0.14618
#
# Static dielectric constant tensor:
#      x y z
#    x 3.554520 0.119380 0.033750 
#    y 0.119380 3.726590 -0.137180 
#    z 0.033750 -0.137180 3.831880 
# 
# 
# High freq. dielectric constant tensor:
#      x y z
#    x 1.763820 0.006960 0.004180 
#    y 0.006960 1.782330 0.002880 
#    z 0.004180 0.002880 1.772910 
# 
# From -- ./inp_files/240049.got.cif
#   From: 2010.06.25/outbox.cif.g09.slc.cpg/sg2_121_cif.got.tgz:240049.got - 2010.06.27 13:26:56.
