data_PCOD8012769
_publ_section_title
;
Structure prediction by ZEFSAII (Michael W. Deem and Ramdas Pophale) SiO2 
 PCOD8012769
Probable space group: P -1
;
_chemical_formula_sum "Si O2"
_cell_formula_units_Z 16
_cell_length_a 9.275439
_cell_length_b 9.161726
_cell_length_c 16.288589
_cell_angle_alpha 101.153459
_cell_angle_beta 141.424872
_cell_angle_gamma 66.001733
_cell_volume 769.419027
_symmetry_space_group_name_H-M "P -1"
_symmetry_group_IT_number 2
_symmetry_cell_setting 'triclinic'
loop_
_space_group_symop_operation_xyz
x,y,z
-x,-y,-z
loop_
_atom_site_type_symbol
_atom_site_label
_atom_site_fract_x
_atom_site_fract_y
_atom_site_fract_z
Si Si1 0.927925 0.787587 0.400705
Si Si2 0.661528 0.797682 0.902793
Si Si3 0.999565 0.240524 0.107411
Si Si4 0.241164 0.496830 0.410400
Si Si5 0.194530 0.399346 0.896114
Si Si6 0.908960 0.107768 0.354802
Si Si7 0.756574 0.852303 0.626379
Si Si8 0.451100 0.841536 0.099122
O O1 0.140442 0.605489 0.459155
O O2 0.943797 0.830477 0.506736
O O3 0.650067 0.792843 0.258200
O O4 0.980826 0.915980 0.379790
O O5 0.394583 0.787633 0.762809
O O6 0.827478 0.753242 0.889784
O O7 0.609268 0.974804 0.935401
O O8 0.816543 0.667263 0.025877
O O9 0.817309 0.419915 0.080076
O O10 0.192414 0.134588 0.253041
O O11 0.810759 0.160646 0.985803
O O12 0.500000 0.500000 0.500000
O O13 0.265723 0.316437 0.421016
O O14 0.050480 0.587927 0.261636
O O15 0.445767 0.278982 0.946125
O O16 0.004923 0.137340 0.312700
O O17 0.500000 0.000000 0.500000
#
# Coordination Sequence:
#
# PCOD8012769 Si02
#       8
#     2   2   2   2   2   2   2   2
#     4   9  21  39  65  89 124 169 200 258 309 362
#     4  11  23  39  66  94 122 165 206 257 311 365
#     4  11  24  41  63  92 128 158 208 261 311 366
#     4  10  22  40  62  92 129 161 203 261 308 367
#     4  10  22  41  63  89 122 168 204 247 318 369
#     4  10  22  40  65  89 127 164 211 247 310 378
#     4  11  25  40  64  92 122 167 211 251 312 373
#     4  10  21  40  63  91 125 160 208 254 308 369
#
# _framework density 20.794910999999999
#
# number of rings (size 3 to 8) (size 9 to 14) (size 15 to 20)
#    0.000    1.750    0.000    3.000    8.750    5.500 
#    2.250    0.000    0.000    0.000    0.000    0.000 
#    0.000    0.000    0.000    0.000    0.000    0.000 
#
# Total GULP energy -198442.864187 kJ/mol
# GULP energy per Si atom -12402.679012 kJ/mol
# Density = 2.074758 g / cm^3
# Si number density = 20.794911 Si / 1000 Ang^3
#
#
#
# Elastic Constant Matrix: (Units=GPa)
#
#
# Indices 1 2 3 4 5 6 
#
# 1 116.8332 23.0129 54.6059 0.5400 1.9271 7.2241
# 2 23.0129 92.8696 47.5306 -5.9285 3.1945 -8.1121
# 3 54.6059 47.5306 104.0020 -0.7313 2.6005 3.1556
# 4 0.5400 -5.9285 -0.7313 31.5419 6.2535 -0.6196
# 5 1.9271 3.1945 2.6005 6.2535 38.6159 2.1140
# 6 7.2241 -8.1121 3.1556 -0.6196 2.1140 25.5806
#
#
#
# Elastic Compliance Matrix: (Units=1/GPa)
#
#
# Indices 1 2 3 4 5 6 
#
# 1 0.011506 -0.000061 -0.005940 -0.000403 0.000036 -0.002549
# 2 -0.000061 0.015135 -0.007002 0.003117 -0.001605 0.005889
# 3 -0.005940 -0.007002 0.016003 -0.000910 0.000085 -0.002546
# 4 -0.000403 0.003117 -0.000910 0.033461 -0.005732 0.002499
# 5 0.000036 -0.001605 0.000085 -0.005732 0.027109 -0.002909
# 6 -0.002549 0.005889 -0.002546 0.002499 -0.002909 0.042294
#
#
# Mechanical properties :
#
#
# Convention : Reuss Voigt Hill
#
# Bulk Modulus (GPa) = 60.09973 62.66706 61.38339
# Shear Modulus (GPa) = 28.23923 31.71803 29.97863
#
# Velocity S-wave (km/s) = 3.68909 3.90972 3.80100
# Velocity P-wave (km/s) = 6.86365 7.11213 6.98900
#
# Compressibility (1/GPa) = 0.01663901
#
# Stress axis : x y z
#
# Youngs Moduli (GPa) = 86.90904 66.07298 62.49017
#
# Poissons Ratio (x) = 0.00401 0.37119
# Poissons Ratio (y) = 0.00528 0.43753
# Poissons Ratio (z) = 0.51624 0.46261
#
# Static dielectric constant tensor:
#      x y z
#    x 3.576380 -0.068930 0.002760 
#    y -0.068930 3.971620 0.025120 
#    z 0.002760 0.025120 3.846500 
# 
# 
# High freq. dielectric constant tensor:
#      x y z
#    x 1.804450 -0.003780 0.006450 
#    y -0.003780 1.821300 0.002840 
#    z 0.006450 0.002840 1.820780 
# 
# From -- ./inp_files/184803.got.cif
#   From: 2010.06.25/outbox.cif.g09.slc.cpg/sg2_93_cif.got.tgz:184803.got - 2010.06.27 13:26:56.
