data_PCOD8012124
_publ_section_title
;
Structure prediction by ZEFSAII (Michael W. Deem and Ramdas Pophale) SiO2 
 PCOD8012124
Probable space group: P -1
;
_chemical_formula_sum "Si O2"
_cell_formula_units_Z 16
_cell_length_a 6.880440
_cell_length_b 24.395972
_cell_length_c 8.210854
_cell_angle_alpha 127.068064
_cell_angle_beta 86.677517
_cell_angle_gamma 128.796632
_cell_volume 735.153247
_symmetry_space_group_name_H-M "P -1"
_symmetry_group_IT_number 2
_symmetry_cell_setting 'triclinic'
loop_
_space_group_symop_operation_xyz
x,y,z
-x,-y,-z
loop_
_atom_site_type_symbol
_atom_site_label
_atom_site_fract_x
_atom_site_fract_y
_atom_site_fract_z
Si Si1 0.624660 0.915443 0.998065
Si Si2 0.690967 0.690003 0.995852
Si Si3 0.411314 0.729429 0.280443
Si Si4 0.599907 0.754706 0.666919
Si Si5 0.125453 0.874504 0.082648
Si Si6 0.252550 0.054267 0.318253
Si Si7 0.709990 0.443800 0.504719
Si Si8 0.240561 0.423319 0.004165
O O1 0.523438 0.810027 0.838131
O O2 0.615886 0.934019 0.841788
O O3 0.412073 0.906744 0.094682
O O4 0.945188 0.011121 0.225685
O O5 0.547259 0.612082 0.712657
O O6 0.765598 0.656159 0.073456
O O7 0.458254 0.685526 0.059780
O O8 0.977051 0.805312 0.128287
O O9 0.603000 0.757073 0.475903
O O10 0.531522 0.835329 0.405553
O O11 0.069122 0.643864 0.187734
O O12 0.352963 0.637106 0.520872
O O13 0.913382 0.813942 0.827045
O O14 0.216001 0.977421 0.294951
O O15 0.725178 0.516723 0.739016
O O16 0.000000 0.500000 0.500000
O O17 0.500000 0.500000 0.000000
#
# Coordination Sequence:
#
# PCOD8012124 Si02
#       8
#     2   2   2   2   2   2   2   2
#     4   9  18  36  64  93 131 163 213 261 312 389
#     4  11  26  43  65  97 127 170 218 265 331 388
#     4  11  24  44  63  93 137 166 216 271 321 387
#     4   9  22  38  64  95 123 169 211 260 327 376
#     4  10  21  39  66  97 128 165 217 265 313 390
#     4   9  20  37  62  94 126 174 206 257 328 379
#     4  11  23  43  69  90 127 170 210 271 327 379
#     4  12  28  45  68  96 128 174 223 269 324 389
#
# _framework density 21.764167
#
# number of rings (size 3 to 8) (size 9 to 14) (size 15 to 20)
#    0.000    1.750    1.250    2.250    3.500    9.500 
#    0.000    1.250    0.000    0.000    0.000    0.000 
#    0.000    0.000    0.000    0.000    0.000    0.000 
#
# Total GULP energy -198433.474799 kJ/mol
# GULP energy per Si atom -12402.092175 kJ/mol
# Density = 2.171463 g / cm^3
# Si number density = 21.764167 Si / 1000 Ang^3
#
#
#
# Elastic Constant Matrix: (Units=GPa)
#
#
# Indices 1 2 3 4 5 6 
#
# 1 104.7659 61.9884 34.1139 4.2575 -9.6486 17.1146
# 2 61.9884 138.3307 26.6933 19.3321 -8.6386 -1.1644
# 3 34.1139 26.6933 88.1745 13.4771 -13.4124 4.1006
# 4 4.2575 19.3321 13.4771 33.0337 -2.5965 -1.4804
# 5 -9.6486 -8.6386 -13.4124 -2.5965 23.8695 0.0724
# 6 17.1146 -1.1644 4.1006 -1.4804 0.0724 39.2007
#
#
#
# Elastic Compliance Matrix: (Units=1/GPa)
#
#
# Indices 1 2 3 4 5 6 
#
# 1 0.016030 -0.006808 -0.004030 0.003432 0.002145 -0.006654
# 2 -0.006808 0.011098 0.000071 -0.005453 0.000702 0.003087
# 3 -0.004030 0.000071 0.014557 -0.004985 0.006034 0.000039
# 4 0.003432 -0.005453 -0.004985 0.035097 0.000430 0.000185
# 5 0.002145 0.000702 0.006034 0.000430 0.046458 -0.001616
# 6 -0.006654 0.003087 0.000039 0.000185 -0.001616 0.028512
#
#
# Mechanical properties :
#
#
# Convention : Reuss Voigt Hill
#
# Bulk Modulus (GPa) = 49.62482 64.09583 56.86033
# Shear Modulus (GPa) = 27.77745 33.11915 30.44830
#
# Velocity S-wave (km/s) = 3.57640 3.90517 3.74439
# Velocity P-wave (km/s) = 6.31703 7.06030 6.69898
#
# Compressibility (1/GPa) = 0.02015121
#
# Stress axis : x y z
#
# Youngs Moduli (GPa) = 62.38194 90.10771 68.69654
#
# Poissons Ratio (x) = 0.61341 0.27685
# Poissons Ratio (y) = 0.42467 -0.00486
# Poissons Ratio (z) = 0.25140 -0.00637
#
# Static dielectric constant tensor:
#      x y z
#    x 2.761110 0.242710 0.763610 
#    y 0.242710 3.914670 -0.043230 
#    z 0.763610 -0.043230 3.216370 
# 
# 
# High freq. dielectric constant tensor:
#      x y z
#    x 1.848780 -0.004600 -0.003090 
#    y -0.004600 1.862290 0.017180 
#    z -0.003090 0.017180 1.850560 
# 
# From -- ./inp_files/142682.got.cif
#   From: 2010.06.25/outbox.cif.g09.slc.cpg/sg2_72_cif.got.tgz:142682.got - 2010.06.27 13:26:56.
