data_PCOD8012732
_publ_section_title
;
Structure prediction by ZEFSAII (Michael W. Deem and Ramdas Pophale) SiO2 
 PCOD8012732
Probable space group: P -1
;
_chemical_formula_sum "Si O2"
_cell_formula_units_Z 14
_cell_length_a 11.664724
_cell_length_b 24.593467
_cell_length_c 9.166009
_cell_angle_alpha 149.787292
_cell_angle_beta 142.293579
_cell_angle_gamma 29.469539
_cell_volume 642.917356
_symmetry_space_group_name_H-M "P -1"
_symmetry_group_IT_number 2
_symmetry_cell_setting 'triclinic'
loop_
_space_group_symop_operation_xyz
x,y,z
-x,-y,-z
loop_
_atom_site_type_symbol
_atom_site_label
_atom_site_fract_x
_atom_site_fract_y
_atom_site_fract_z
Si Si1 0.641594 0.045788 0.667990
Si Si2 0.194950 0.000365 0.773917
Si Si3 0.454949 0.215930 0.593516
Si Si4 0.823389 0.127801 0.270427
Si Si5 0.275823 0.611861 0.122798
Si Si6 0.524773 0.435791 0.219837
Si Si7 0.002254 0.303232 0.232342
O O1 0.500554 0.117168 0.542837
O O2 0.500000 0.000000 0.500000
O O3 0.659469 0.150832 0.022397
O O4 0.916095 0.919719 0.621776
O O5 0.437794 0.874873 0.655405
O O6 0.176420 0.979465 0.877979
O O7 0.000000 0.000000 0.500000
O O8 0.144943 0.142758 0.029482
O O9 0.178996 0.330234 0.540689
O O10 0.557608 0.295337 0.930630
O O11 0.701353 0.267506 0.557061
O O12 0.291784 0.548394 0.149956
O O13 0.500000 0.500000 0.000000
O O14 0.045043 0.663262 0.911860
O O15 0.500000 0.500000 0.500000
O O16 0.760021 0.399543 0.299111
#
# Coordination Sequence:
#
# PCOD8012732 Si02
#       7
#     2   2   2   2   2   2   2
#     4  11  24  40  62  95 127 160 200 253 318 375
#     4  12  19  40  69  94 124 158 200 257 323 367
#     4  12  24  41  66  95 126 162 207 261 314 367
#     4  11  22  41  65  91 127 162 203 256 308 370
#     4  10  21  40  63  87 120 164 208 249 302 361
#     4  11  24  43  63  86 123 173 213 249 301 366
#     4  11  23  40  63  95 126 158 206 259 312 372
#
# _framework density 21.775739000000002
#
# number of rings (size 3 to 8) (size 9 to 14) (size 15 to 20)
#    0.000    0.857    4.286    3.000    0.000    5.714 
#    0.000    2.857    0.000    0.000    0.000    0.000 
#    0.000    0.000    0.000    0.000    0.000    0.000 
#
# Total GULP energy -173521.788375 kJ/mol
# GULP energy per Si atom -12394.413455 kJ/mol
# Density = 2.172618 g / cm^3
# Si number density = 21.775739 Si / 1000 Ang^3
#
#
#
# Elastic Constant Matrix: (Units=GPa)
#
#
# Indices 1 2 3 4 5 6 
#
# 1 116.0975 50.1536 29.8890 -12.6044 -6.5918 6.0575
# 2 50.1536 107.7866 39.2716 -16.9658 -1.0015 3.0220
# 3 29.8890 39.2716 84.4233 -8.2262 -24.0508 -7.8838
# 4 -12.6044 -16.9658 -8.2262 40.0344 -1.4689 1.5609
# 5 -6.5918 -1.0015 -24.0508 -1.4689 30.5605 -2.2907
# 6 6.0575 3.0220 -7.8838 1.5609 -2.2907 33.9852
#
#
#
# Elastic Compliance Matrix: (Units=1/GPa)
#
#
# Indices 1 2 3 4 5 6 
#
# 1 0.011237 -0.004268 -0.001826 0.001462 0.000763 -0.002063
# 2 -0.004268 0.014215 -0.006666 0.003201 -0.005741 -0.002584
# 3 -0.001826 -0.006666 0.021071 0.001269 0.016545 0.006863
# 4 0.001462 0.003201 0.001269 0.027204 0.002628 -0.001323
# 5 0.000763 -0.005741 0.016545 0.002628 0.046387 0.007219
# 6 -0.002063 -0.002584 0.006863 -0.001323 0.007219 0.032161
#
#
# Mechanical properties :
#
#
# Convention : Reuss Voigt Hill
#
# Bulk Modulus (GPa) = 47.61404 60.77066 54.19235
# Shear Modulus (GPa) = 27.05673 33.51557 30.28615
#
# Velocity S-wave (km/s) = 3.52876 3.92742 3.73342
# Velocity P-wave (km/s) = 6.20612 6.96666 6.59736
#
# Compressibility (1/GPa) = 0.02100221
#
# Stress axis : x y z
#
# Youngs Moduli (GPa) = 88.99112 70.34581 47.45970
#
# Poissons Ratio (x) = 0.30027 0.08664
# Poissons Ratio (y) = 0.37985 0.31639
# Poissons Ratio (z) = 0.16246 0.46896
#
# Static dielectric constant tensor:
#      x y z
#    x 3.568960 0.138780 0.008690 
#    y 0.138780 4.053920 -0.243100 
#    z 0.008690 -0.243100 3.547600 
# 
# 
# High freq. dielectric constant tensor:
#      x y z
#    x 1.846320 0.009600 -0.011250 
#    y 0.009600 1.862400 -0.011710 
#    z -0.011250 -0.011710 1.859530 
# 
# From -- ./inp_files/244826.got.cif
#   From: 2010.06.25/outbox.cif.g09.slc.cpg/sg2_123_cif.got.tgz:244826.got - 2010.06.27 13:26:56.
