data_PCOD8012167
_publ_section_title
;
Structure prediction by ZEFSAII (Michael W. Deem and Ramdas Pophale) SiO2 
 PCOD8012167
Probable space group: P -1
;
_chemical_formula_sum "Si O2"
_cell_formula_units_Z 16
_cell_length_a 16.161301
_cell_length_b 6.655579
_cell_length_c 18.793117
_cell_angle_alpha 43.584798
_cell_angle_beta 33.784823
_cell_angle_gamma 43.758937
_cell_volume 735.876801
_symmetry_space_group_name_H-M "P -1"
_symmetry_group_IT_number 2
_symmetry_cell_setting 'triclinic'
loop_
_space_group_symop_operation_xyz
x,y,z
-x,-y,-z
loop_
_atom_site_type_symbol
_atom_site_label
_atom_site_fract_x
_atom_site_fract_y
_atom_site_fract_z
Si Si1 0.621409 0.725043 0.574187
Si Si2 0.381040 0.935742 0.274640
Si Si3 0.209357 0.968531 0.531781
Si Si4 0.306691 0.920554 0.950772
Si Si5 0.341760 0.286311 0.614494
Si Si6 0.916318 0.767089 0.094666
Si Si7 0.655920 0.756594 0.922411
Si Si8 0.896424 0.860422 0.831788
O O1 0.588063 0.405199 0.693110
O O2 0.656607 0.760567 0.458365
O O3 0.764518 0.753082 0.512896
O O4 0.478266 0.022344 0.623849
O O5 0.244578 0.012572 0.412249
O O6 0.545807 0.952291 0.182758
O O7 0.318655 0.181859 0.194090
O O8 0.332005 0.635732 0.552941
O O9 0.029415 0.987962 0.670167
O O10 0.182791 0.143324 0.929132
O O11 0.364711 0.576442 0.967280
O O12 0.228429 0.900991 0.088933
O O13 0.182987 0.237240 0.763589
O O14 0.035553 0.424883 0.089631
O O15 0.000000 0.000000 0.000000
O O16 0.808190 0.769006 0.852325
O O17 0.500000 0.000000 0.000000
#
# Coordination Sequence:
#
# PCOD8012167 Si02
#       8
#     2   2   2   2   2   2   2   2
#     4  10  21  39  67  92 139 174 225 279 330 398
#     4  11  26  42  71 101 128 184 234 272 333 404
#     4  10  23  42  65 100 134 174 226 279 341 398
#     4  12  26  45  73 101 138 178 230 280 340 409
#     4   9  21  37  60  98 133 179 219 270 341 398
#     4  11  23  40  68 101 141 172 220 276 348 402
#     4  12  27  48  71  97 141 177 235 283 333 399
#     4  11  26  45  69 105 137 181 220 283 347 399
#
# _framework density 21.742768999999999
#
# number of rings (size 3 to 8) (size 9 to 14) (size 15 to 20)
#    0.000    1.250    2.500    1.875    7.000    6.500 
#    0.000    1.250    0.000    0.000    0.000    0.000 
#    0.000    0.000    0.000    0.000    0.000    0.000 
#
# Total GULP energy -198361.732392 kJ/mol
# GULP energy per Si atom -12397.608274 kJ/mol
# Density = 2.169328 g / cm^3
# Si number density = 21.742769 Si / 1000 Ang^3
#
#
#
# Elastic Constant Matrix: (Units=GPa)
#
#
# Indices 1 2 3 4 5 6 
#
# 1 122.4153 35.2284 36.4341 -23.9112 -20.4892 2.4664
# 2 35.2284 82.0751 38.0410 -7.4041 -19.7442 10.1805
# 3 36.4341 38.0410 95.4137 -7.0753 -18.5878 4.5128
# 4 -23.9112 -7.4041 -7.0753 33.5600 4.4367 -1.8598
# 5 -20.4892 -19.7442 -18.5878 4.4367 35.3259 -14.7932
# 6 2.4664 10.1805 4.5128 -1.8598 -14.7932 30.2951
#
#
#
# Elastic Compliance Matrix: (Units=1/GPa)
#
#
# Indices 1 2 3 4 5 6 
#
# 1 0.011580 -0.002654 -0.002127 0.006786 0.004459 0.002860
# 2 -0.002654 0.016896 -0.004756 0.000122 0.004273 -0.002660
# 3 -0.002127 -0.004756 0.013912 -0.000086 0.004162 0.001726
# 4 0.006786 0.000122 -0.000086 0.034693 0.000314 0.001703
# 5 0.004459 0.004273 0.004162 0.000314 0.043278 0.018733
# 6 0.002860 -0.002660 0.001726 0.001703 0.018733 0.042664
#
#
# Mechanical properties :
#
#
# Convention : Reuss Voigt Hill
#
# Bulk Modulus (GPa) = 42.89314 57.70125 50.29719
# Shear Modulus (GPa) = 26.33399 32.51623 29.42511
#
# Velocity S-wave (km/s) = 3.48395 3.87136 3.68275
# Velocity P-wave (km/s) = 5.99619 6.82488 6.42391
#
# Compressibility (1/GPa) = 0.02331375
#
# Stress axis : x y z
#
# Youngs Moduli (GPa) = 86.35591 59.18483 71.88189
#
# Poissons Ratio (x) = 0.15711 0.15289
# Poissons Ratio (y) = 0.22923 0.34185
# Poissons Ratio (z) = 0.18367 0.28146
#
# Static dielectric constant tensor:
#      x y z
#    x 3.850400 -0.036980 0.017240 
#    y -0.036980 4.043890 -0.025510 
#    z 0.017240 -0.025510 3.953950 
# 
# 
# High freq. dielectric constant tensor:
#      x y z
#    x 1.852020 0.009450 0.001690 
#    y 0.009450 1.855230 -0.001140 
#    z 0.001690 -0.001140 1.865320 
# 
# From -- ./inp_files/441741.got.cif
#   From: 2010.06.25/outbox.cif.g09.slc.cpg/sg2_221_cif.got.tgz:441741.got - 2010.06.27 13:26:56.
