data_PCOD8012302
_publ_section_title
;
Structure prediction by ZEFSAII (Michael W. Deem and Ramdas Pophale) SiO2 
 PCOD8012302
Probable space group: P -1
;
_chemical_formula_sum "Si O2"
_cell_formula_units_Z 14
_cell_length_a 20.634937
_cell_length_b 7.173637
_cell_length_c 8.850605
_cell_angle_alpha 77.657017
_cell_angle_beta 140.356204
_cell_angle_gamma 125.656205
_cell_volume 605.319348
_symmetry_space_group_name_H-M "P -1"
_symmetry_group_IT_number 2
_symmetry_cell_setting 'triclinic'
loop_
_space_group_symop_operation_xyz
x,y,z
-x,-y,-z
loop_
_atom_site_type_symbol
_atom_site_label
_atom_site_fract_x
_atom_site_fract_y
_atom_site_fract_z
Si Si1 0.077541 0.001863 0.812016
Si Si2 0.655601 0.718406 0.202810
Si Si3 0.052139 0.246344 0.957882
Si Si4 0.809820 0.075097 0.694108
Si Si5 0.326342 0.789137 0.385161
Si Si6 0.792815 0.603154 0.264957
Si Si7 0.635521 0.062594 0.911222
O O1 0.028451 0.151696 0.758413
O O2 0.178001 0.174420 0.824804
O O3 0.940813 0.711382 0.570538
O O4 0.166837 0.004979 0.093910
O O5 0.703312 0.575353 0.245535
O O6 0.730315 0.843692 0.473678
O O7 0.500000 0.500000 0.000000
O O8 0.681471 0.926867 0.098181
O O9 0.957556 0.305764 0.835144
O O10 0.212736 0.481801 0.228131
O O11 0.000000 0.000000 0.000000
O O12 0.717906 0.139693 0.561918
O O13 0.326252 0.900491 0.204666
O O14 0.472532 0.882975 0.666939
O O15 0.711515 0.335223 0.079688
#
# Coordination Sequence:
#
# PCOD8012302 Si02
#       7
#     2   2   2   2   2   2   2
#     4  10  22  43  72  98 136 176 228 281 337 413
#     4  12  28  43  67 102 141 180 229 278 345 407
#     4  10  21  39  68  98 132 170 221 282 331 397
#     4  11  24  42  68 102 133 181 222 284 342 398
#     4  11  24  46  68 101 135 180 234 273 344 408
#     4  11  23  47  70 102 135 180 228 282 344 399
#     4  11  27  46  71  98 140 186 226 285 331 416
#
# _framework density 23.128288999999999
#
# number of rings (size 3 to 8) (size 9 to 14) (size 15 to 20)
#    0.000    1.143    2.857    2.143    4.000    5.714 
#    0.000    6.429    0.000    0.000    0.000    0.000 
#    0.000    0.000    0.000    0.000    0.000    0.000 
#
# Total GULP energy -173481.771399 kJ/mol
# GULP energy per Si atom -12391.555100 kJ/mol
# Density = 2.307565 g / cm^3
# Si number density = 23.128289 Si / 1000 Ang^3
#
#
#
# Elastic Constant Matrix: (Units=GPa)
#
#
# Indices 1 2 3 4 5 6 
#
# 1 103.4493 2.4701 15.4912 20.8628 1.3415 0.0243
# 2 2.4701 62.2378 31.0753 9.7963 12.8763 8.6993
# 3 15.4912 31.0753 131.7249 17.3096 -3.1545 9.5331
# 4 20.8628 9.7963 17.3096 47.5527 7.6122 3.1262
# 5 1.3415 12.8763 -3.1545 7.6122 33.2292 7.4949
# 6 0.0243 8.6993 9.5331 3.1262 7.4949 28.7780
#
#
#
# Elastic Compliance Matrix: (Units=1/GPa)
#
#
# Indices 1 2 3 4 5 6 
#
# 1 0.010698 0.000598 -0.000832 -0.004579 0.000186 0.000535
# 2 0.000598 0.020539 -0.004730 -0.001399 -0.007542 -0.002526
# 3 -0.000832 -0.004730 0.009409 -0.002549 0.003890 -0.002422
# 4 -0.004579 -0.001399 -0.002549 0.025100 -0.005245 -0.000090
# 5 0.000186 -0.007542 0.003890 -0.005245 0.036364 -0.007910
# 6 0.000535 -0.002526 -0.002422 -0.000090 -0.007910 0.038384
#
#
# Mechanical properties :
#
#
# Convention : Reuss Voigt Hill
#
# Bulk Modulus (GPa) = 32.55340 43.94281 38.24810
# Shear Modulus (GPa) = 31.12192 38.47032 34.79612
#
# Velocity S-wave (km/s) = 3.67225 4.08284 3.88297
# Velocity P-wave (km/s) = 5.66447 6.42393 6.05612
#
# Compressibility (1/GPa) = 0.03071876
#
# Stress axis : x y z
#
# Youngs Moduli (GPa) = 93.47789 48.68851 106.28583
#
# Poissons Ratio (x) = -0.02913 0.08841
# Poissons Ratio (y) = -0.05593 0.50269
# Poissons Ratio (z) = 0.07775 0.23028
#
# Static dielectric constant tensor:
#      x y z
#    x 5.305770 0.114720 -0.188310 
#    y 0.114720 3.916500 0.051420 
#    z -0.188310 0.051420 3.369230 
# 
# 
# High freq. dielectric constant tensor:
#      x y z
#    x 1.937170 0.015150 -0.007190 
#    y 0.015150 1.893170 0.009780 
#    z -0.007190 0.009780 1.924800 
# 
# From -- ./inp_files/351752.got.cif
#   From: 2010.06.25/outbox.cif.g09.slc.cpg/sg2_176_cif.got.tgz:351752.got - 2010.06.27 13:26:56.
