data_PCOD8012186
_publ_section_title
;
Structure prediction by ZEFSAII (Michael W. Deem and Ramdas Pophale) SiO2 
 PCOD8012186
Probable space group: P -1
;
_chemical_formula_sum "Si O2"
_cell_formula_units_Z 16
_cell_length_a 11.323959
_cell_length_b 12.250443
_cell_length_c 9.037621
_cell_angle_alpha 125.662459
_cell_angle_beta 95.863186
_cell_angle_gamma 50.186868
_cell_volume 704.732064
_symmetry_space_group_name_H-M "P -1"
_symmetry_group_IT_number 2
_symmetry_cell_setting 'triclinic'
loop_
_space_group_symop_operation_xyz
x,y,z
-x,-y,-z
loop_
_atom_site_type_symbol
_atom_site_label
_atom_site_fract_x
_atom_site_fract_y
_atom_site_fract_z
Si Si1 0.187661 0.323223 0.817897
Si Si2 0.715981 0.550930 0.852004
Si Si3 0.679601 0.310237 0.807634
Si Si4 0.712076 0.051982 0.387372
Si Si5 0.008628 0.912071 0.140974
Si Si6 0.545287 0.619430 0.607671
Si Si7 0.087230 0.738797 0.720120
Si Si8 0.023065 0.395667 0.568887
O O1 0.173875 0.332731 0.642886
O O2 0.283216 0.108117 0.701591
O O3 0.310214 0.341972 0.914283
O O4 0.000000 0.500000 0.000000
O O5 0.760381 0.360910 0.752736
O O6 0.550089 0.670950 0.818914
O O7 0.859828 0.512762 0.747860
O O8 0.651051 0.194043 0.626916
O O9 0.809753 0.179440 0.855063
O O10 0.500000 0.500000 0.000000
O O11 0.588370 0.177268 0.331894
O O12 0.906420 0.932935 0.280421
O O13 0.036169 0.772829 0.912724
O O14 0.896019 0.121067 0.218174
O O15 0.500000 0.500000 0.500000
O O16 0.732784 0.483448 0.452711
O O17 0.944547 0.780220 0.632659
O O18 0.000000 0.500000 0.500000
#
# Coordination Sequence:
#
# PCOD8012186 Si02
#       8
#     2   2   2   2   2   2   2   2
#     4  10  23  43  66 102 139 178 234 290 351 417
#     4  10  23  42  67  96 138 182 230 289 344 424
#     4  12  25  42  71 101 139 186 232 296 359 418
#     4  12  23  41  73  97 137 189 231 295 358 420
#     4  11  22  36  65 100 132 173 236 285 357 419
#     4  11  20  42  65  95 140 185 235 290 360 405
#     4  10  22  37  60 101 133 172 232 295 338 428
#     4  10  21  39  67  94 133 179 225 284 348 404
#
# _framework density 22.703664
#
# number of rings (size 3 to 8) (size 9 to 14) (size 15 to 20)
#    0.000    1.250    2.500    4.125    5.250    0.500 
#    0.000    0.625    5.500    0.000    0.000    0.000 
#    0.000    0.000    0.000    0.000    0.000    0.000 
#
# Total GULP energy -198252.584398 kJ/mol
# GULP energy per Si atom -12390.786525 kJ/mol
# Density = 2.265199 g / cm^3
# Si number density = 22.703664 Si / 1000 Ang^3
#
#
#
# Elastic Constant Matrix: (Units=GPa)
#
#
# Indices 1 2 3 4 5 6 
#
# 1 67.6239 33.9327 39.1709 -9.2404 27.8453 -6.6233
# 2 33.9327 145.0869 44.4940 -9.5481 24.8580 -13.6307
# 3 39.1709 44.4940 113.6869 -13.6987 33.9803 -17.8912
# 4 -9.2404 -9.5481 -13.6987 42.7512 -11.0647 11.0919
# 5 27.8453 24.8580 33.9803 -11.0647 57.1082 -10.5319
# 6 -6.6233 -13.6307 -17.8912 11.0919 -10.5319 44.8039
#
#
#
# Elastic Compliance Matrix: (Units=1/GPa)
#
#
# Indices 1 2 3 4 5 6 
#
# 1 0.021438 -0.002542 -0.004439 0.001236 -0.006698 -0.001257
# 2 -0.002542 0.008360 -0.001890 0.000150 -0.001037 0.001132
# 3 -0.004439 -0.001890 0.012785 0.000997 -0.003929 0.002704
# 4 0.001236 0.000150 0.000997 0.026086 0.002841 -0.005164
# 5 -0.006698 -0.001037 -0.003929 0.002841 0.024519 0.002186
# 6 -0.001257 0.001132 0.002704 -0.005164 0.002186 0.025350
#
#
# Mechanical properties :
#
#
# Convention : Reuss Voigt Hill
#
# Bulk Modulus (GPa) = 40.25367 62.39920 51.32644
# Shear Modulus (GPa) = 34.58767 42.85267 38.72017
#
# Velocity S-wave (km/s) = 3.90736 4.34922 4.13420
# Velocity P-wave (km/s) = 6.17456 7.26394 6.74129
#
# Compressibility (1/GPa) = 0.02484246
#
# Stress axis : x y z
#
# Youngs Moduli (GPa) = 46.64638 119.61047 78.21695
#
# Poissons Ratio (x) = 0.30404 0.34717
# Poissons Ratio (y) = 0.11857 0.14783
# Poissons Ratio (z) = 0.20704 0.22606
#
# Static dielectric constant tensor:
#      x y z
#    x 4.348820 -0.249590 0.567190 
#    y -0.249590 4.163730 -0.380670 
#    z 0.567190 -0.380670 4.371690 
# 
# 
# High freq. dielectric constant tensor:
#      x y z
#    x 1.883100 -0.006210 0.028310 
#    y -0.006210 1.896230 -0.022230 
#    z 0.028310 -0.022230 1.893260 
# 
# From -- ./inp_files/263059.got.cif
#   From: 2010.06.25/outbox.cif.g09.slc.cpg/sg2_132_cif.got.tgz:263059.got - 2010.06.27 13:26:56.
