data_PCOD8012707
_publ_section_title
;
Structure prediction by ZEFSAII (Michael W. Deem and Ramdas Pophale) SiO2 
 PCOD8012707
Probable space group: P -1
;
_chemical_formula_sum "Si O2"
_cell_formula_units_Z 16
_cell_length_a 20.555462
_cell_length_b 8.767469
_cell_length_c 17.161192
_cell_angle_alpha 136.739082
_cell_angle_beta 20.052729
_cell_angle_gamma 133.583185
_cell_volume 726.575238
_symmetry_space_group_name_H-M "P -1"
_symmetry_group_IT_number 2
_symmetry_cell_setting 'triclinic'
loop_
_space_group_symop_operation_xyz
x,y,z
-x,-y,-z
loop_
_atom_site_type_symbol
_atom_site_label
_atom_site_fract_x
_atom_site_fract_y
_atom_site_fract_z
Si Si1 0.596478 0.968683 0.633002
Si Si2 0.880566 0.214946 0.124762
Si Si3 0.370580 0.809883 0.034830
Si Si4 0.769005 0.902562 0.835989
Si Si5 0.990436 0.941932 0.757414
Si Si6 0.558617 0.529242 0.597796
Si Si7 0.282142 0.139110 0.709069
Si Si8 0.964158 0.454496 0.613049
O O1 0.535375 0.714290 0.626132
O O2 0.623737 0.988827 0.517217
O O3 0.784090 0.029831 0.492831
O O4 0.435754 0.136740 0.906744
O O5 0.775900 0.449625 0.326580
O O6 0.751198 0.043822 0.255661
O O7 0.086288 0.251849 0.945641
O O8 0.898706 0.127404 0.983693
O O9 0.508350 0.627370 0.775541
O O10 0.228617 0.689187 0.210173
O O11 0.500000 0.000000 0.000000
O O12 0.242322 0.908257 0.146409
O O13 0.915173 0.973039 0.766199
O O14 0.849756 0.682106 0.620133
O O15 0.948624 0.702017 0.758521
O O16 0.419685 0.326034 0.657827
O O17 0.000000 0.500000 0.500000
#
# Coordination Sequence:
#
# PCOD8012707 Si02
#       8
#     2   2   2   2   2   2   2   2
#     4  10  23  39  63  99 131 170 217 268 311 404
#     4  10  22  40  65  96 129 172 208 269 320 394
#     4  11  26  47  65 100 131 167 228 276 320 396
#     4  10  23  42  69  90 131 176 214 271 333 372
#     4  10  22  43  65  97 139 164 225 263 326 390
#     4  11  23  39  66  88 132 168 212 265 330 379
#     4  10  21  40  62  96 134 163 217 260 326 385
#     4  10  23  43  69  94 129 174 215 270 329 384
#
# _framework density 22.021118000000001
#
# number of rings (size 3 to 8) (size 9 to 14) (size 15 to 20)
#    0.000    1.750    0.000    2.625    7.000    7.500 
#   11.250    0.000    0.000    0.000    0.000    0.000 
#    0.000    0.000    0.000    0.000    0.000    0.000 
#
# Total GULP energy -198374.802395 kJ/mol
# GULP energy per Si atom -12398.425150 kJ/mol
# Density = 2.197100 g / cm^3
# Si number density = 22.021118 Si / 1000 Ang^3
#
#
#
# Elastic Constant Matrix: (Units=GPa)
#
#
# Indices 1 2 3 4 5 6 
#
# 1 85.6722 22.4199 23.2134 -1.5374 2.1901 14.5616
# 2 22.4199 65.3720 43.2393 -5.1634 -2.2778 7.4381
# 3 23.2134 43.2393 140.5549 10.1554 1.7189 10.7971
# 4 -1.5374 -5.1634 10.1554 44.1389 -7.8857 -0.9056
# 5 2.1901 -2.2778 1.7189 -7.8857 27.3774 -5.6331
# 6 14.5616 7.4381 10.7971 -0.9056 -5.6331 25.2904
#
#
#
# Elastic Compliance Matrix: (Units=1/GPa)
#
#
# Indices 1 2 3 4 5 6 
#
# 1 0.014158 -0.003815 -0.000508 -0.000549 -0.003125 -0.007529
# 2 -0.003815 0.021260 -0.006243 0.004436 0.003658 -0.000417
# 3 -0.000508 -0.006243 0.009610 -0.003486 -0.002639 -0.002686
# 4 -0.000549 0.004436 -0.003486 0.025579 0.008689 0.003351
# 5 -0.003125 0.003658 -0.002639 0.008689 0.042125 0.011544
# 6 -0.007529 -0.000417 -0.002686 0.003351 0.011544 0.047836
#
#
# Mechanical properties :
#
#
# Convention : Reuss Voigt Hill
#
# Bulk Modulus (GPa) = 41.85071 52.14935 47.00003
# Shear Modulus (GPa) = 26.36203 32.87642 29.61922
#
# Velocity S-wave (km/s) = 3.46370 3.86806 3.67145
# Velocity P-wave (km/s) = 5.91966 6.60925 6.27393
#
# Compressibility (1/GPa) = 0.02389446
#
# Stress axis : x y z
#
# Youngs Moduli (GPa) = 70.63039 47.03577 104.06035
#
# Poissons Ratio (x) = 0.17944 0.05291
# Poissons Ratio (y) = 0.26946 0.64970
# Poissons Ratio (z) = 0.03591 0.29367
#
# Static dielectric constant tensor:
#      x y z
#    x 3.855950 -0.063450 0.040560 
#    y -0.063450 4.392270 0.372770 
#    z 0.040560 0.372770 4.499880 
# 
# 
# High freq. dielectric constant tensor:
#      x y z
#    x 1.858340 -0.005420 0.005300 
#    y -0.005420 1.857020 0.001680 
#    z 0.005300 0.001680 1.888240 
# 
# From -- ./inp_files/226109.got.cif
#   From: 2010.06.25/outbox.cif.g09.slc.cpg/sg2_114_cif.got.tgz:226109.got - 2010.06.27 13:26:56.
