data_PCOD8012731
_publ_section_title
;
Structure prediction by ZEFSAII (Michael W. Deem and Ramdas Pophale) SiO2 
 PCOD8012731
Probable space group: P -1
;
_chemical_formula_sum "Si O2"
_cell_formula_units_Z 16
_cell_length_a 13.592558
_cell_length_b 8.322498
_cell_length_c 15.760097
_cell_angle_alpha 118.753363
_cell_angle_beta 138.361693
_cell_angle_gamma 92.905630
_cell_volume 737.342071
_symmetry_space_group_name_H-M "P -1"
_symmetry_group_IT_number 2
_symmetry_cell_setting 'triclinic'
loop_
_space_group_symop_operation_xyz
x,y,z
-x,-y,-z
loop_
_atom_site_type_symbol
_atom_site_label
_atom_site_fract_x
_atom_site_fract_y
_atom_site_fract_z
Si Si1 0.069672 0.441366 0.110296
Si Si2 0.653984 0.607821 0.810956
Si Si3 0.808118 0.811833 0.136406
Si Si4 0.228923 0.371962 0.496845
Si Si5 0.755238 0.311079 0.540211
Si Si6 0.133408 0.462247 0.770808
Si Si7 0.706641 0.060989 0.895121
Si Si8 0.419278 0.727147 0.866848
O O1 0.241050 0.435420 0.199376
O O2 0.173641 0.649802 0.305923
O O3 0.000000 0.500000 0.000000
O O4 0.860122 0.167205 0.941513
O O5 0.401755 0.361749 0.589365
O O6 0.694127 0.856654 0.881911
O O7 0.759462 0.652824 0.980235
O O8 0.823148 0.685799 0.190425
O O9 0.617229 0.775384 0.027778
O O10 0.021742 0.109802 0.337381
O O11 0.185078 0.435209 0.394979
O O12 0.332001 0.613079 0.687491
O O13 0.882416 0.271301 0.556583
O O14 0.511779 0.060887 0.314444
O O15 0.228278 0.520576 0.754158
O O16 0.221857 0.722300 0.938126
O O17 0.500000 0.000000 0.000000
#
# Coordination Sequence:
#
# PCOD8012731 Si02
#       8
#     2   2   2   2   2   2   2   2
#     4  11  23  38  59  91 124 156 196 246 305 358
#     4  10  21  40  63  87 119 158 202 247 294 353
#     4  11  23  39  60  88 123 156 193 248 302 350
#     4  10  23  40  62  90 116 156 204 244 292 351
#     4  10  22  40  61  87 118 156 202 245 293 354
#     4  11  23  39  60  89 125 158 194 246 301 351
#     4  10  22  40  62  87 119 160 202 245 292 352
#     4  11  23  41  64  89 119 158 203 244 290 353
#
# _framework density 21.699562
#
# number of rings (size 3 to 8) (size 9 to 14) (size 15 to 20)
#    0.000    1.500    0.000    6.750    0.000   10.000 
#    0.000    0.000    0.000    0.000    0.000    0.000 
#    0.000    0.000    0.000    0.000    0.000    0.000 
#
# Total GULP energy -198374.038501 kJ/mol
# GULP energy per Si atom -12398.377406 kJ/mol
# Density = 2.165017 g / cm^3
# Si number density = 21.699562 Si / 1000 Ang^3
#
#
#
# Elastic Constant Matrix: (Units=GPa)
#
#
# Indices 1 2 3 4 5 6 
#
# 1 146.1950 15.4818 38.2373 -3.6905 31.3993 8.3533
# 2 15.4818 51.1768 5.4435 -21.0988 -6.4500 4.4444
# 3 38.2373 5.4435 74.7531 -16.1313 19.7717 0.8558
# 4 -3.6905 -21.0988 -16.1313 27.9916 0.5188 -2.3095
# 5 31.3993 -6.4500 19.7717 0.5188 33.0400 -6.4578
# 6 8.3533 4.4444 0.8558 -2.3095 -6.4578 34.4227
#
#
#
# Elastic Compliance Matrix: (Units=1/GPa)
#
#
# Indices 1 2 3 4 5 6 
#
# 1 0.010557 -0.005840 -0.003449 -0.005139 -0.009791 -0.003904
# 2 -0.005840 0.032731 0.003688 0.025902 0.009445 0.000609
# 3 -0.003449 0.003688 0.020136 0.014021 -0.008424 -0.000779
# 4 -0.005139 0.025902 0.014021 0.062794 0.000944 0.001944
# 5 -0.009791 0.009445 -0.008424 0.000944 0.048499 0.010528
# 6 -0.003904 0.000609 -0.000779 0.001944 0.010528 0.032044
#
#
# Mechanical properties :
#
#
# Convention : Reuss Voigt Hill
#
# Bulk Modulus (GPa) = 19.14947 43.38332 31.26640
# Shear Modulus (GPa) = 21.24306 33.28836 27.26571
#
# Velocity S-wave (km/s) = 3.13223 3.92095 3.54857
# Velocity P-wave (km/s) = 4.68243 6.36668 5.58837
#
# Compressibility (1/GPa) = 0.05222076
#
# Stress axis : x y z
#
# Youngs Moduli (GPa) = 94.72327 30.55239 49.66239
#
# Poissons Ratio (x) = 0.17844 0.17130
# Poissons Ratio (y) = 0.55322 -0.18317
# Poissons Ratio (z) = 0.32673 -0.11269
#
# Static dielectric constant tensor:
#      x y z
#    x 4.318760 0.200480 0.429980 
#    y 0.200480 3.754480 -0.091170 
#    z 0.429980 -0.091170 4.062090 
# 
# 
# High freq. dielectric constant tensor:
#      x y z
#    x 1.867720 0.012120 0.025320 
#    y 0.012120 1.845530 -0.013760 
#    z 0.025320 -0.013760 1.855140 
# 
# From -- ./inp_files/528575.got.cif
#   From: 2010.06.25/outbox.cif.g09.slc.cpg/sg2_265_cif.got.tgz:528575.got - 2010.06.27 13:26:56.
