data_PCOD8012882
_publ_section_title
;
Structure prediction by ZEFSAII (Michael W. Deem and Ramdas Pophale) SiO2 
 PCOD8012882
Probable space group: P -1
;
_chemical_formula_sum "Si O2"
_cell_formula_units_Z 16
_cell_length_a 17.327384
_cell_length_b 8.666273
_cell_length_c 15.296329
_cell_angle_alpha 35.818662
_cell_angle_beta 143.081483
_cell_angle_gamma 141.537595
_cell_volume 745.789607
_symmetry_space_group_name_H-M "P -1"
_symmetry_group_IT_number 2
_symmetry_cell_setting 'triclinic'
loop_
_space_group_symop_operation_xyz
x,y,z
-x,-y,-z
loop_
_atom_site_type_symbol
_atom_site_label
_atom_site_fract_x
_atom_site_fract_y
_atom_site_fract_z
Si Si1 0.447742 0.343502 0.435411
Si Si2 0.820746 0.583358 0.874924
Si Si3 0.336668 0.345225 0.650629
Si Si4 0.302046 0.424577 0.901680
Si Si5 0.081365 0.885955 0.877062
Si Si6 0.199376 0.669284 0.852010
Si Si7 0.944932 0.742833 0.634289
Si Si8 0.464901 0.742196 0.744616
O O1 0.500000 0.500000 0.500000
O O2 0.283896 0.280698 0.319749
O O3 0.524863 0.553645 0.329122
O O4 0.476199 0.054926 0.583872
O O5 0.979759 0.812547 0.903771
O O6 0.825783 0.307894 0.953436
O O7 0.757918 0.490638 0.957507
O O8 0.220363 0.416592 0.456581
O O9 0.368438 0.515406 0.692047
O O10 0.282752 0.010503 0.778977
O O11 0.225635 0.570946 0.827000
O O12 0.403213 0.673640 0.817720
O O13 0.188357 0.206856 0.835564
O O14 0.383119 0.274692 0.103971
O O15 0.983637 0.847102 0.721193
O O16 0.032605 0.556694 0.769924
O O17 0.000000 0.000000 0.500000
#
# Coordination Sequence:
#
# PCOD8012882 Si02
#       8
#     2   2   2   2   2   2   2   2
#     4  12  24  39  62  92 124 159 203 252 304 362
#     4  10  22  40  61  89 121 160 205 245 301 363
#     4  11  23  42  63  88 126 164 200 247 306 364
#     4  11  23  41  63  91 121 157 206 252 303 361
#     4  10  21  40  64  89 123 160 199 252 304 357
#     4  10  22  39  63  90 118 161 207 250 298 358
#     4   9  19  38  61  87 118 158 200 243 300 355
#     4  11  25  41  61  90 125 161 200 250 305 363
#
# _framework density 21.453769999999999
#
# number of rings (size 3 to 8) (size 9 to 14) (size 15 to 20)
#    0.000    1.500    0.000    5.625    0.000    8.500 
#    0.000    3.750    0.000    0.000    0.000    0.000 
#    0.000    0.000    0.000    0.000    0.000    0.000 
#
# Total GULP energy -198300.388951 kJ/mol
# GULP energy per Si atom -12393.774309 kJ/mol
# Density = 2.140494 g / cm^3
# Si number density = 21.453770 Si / 1000 Ang^3
#
#
#
# Elastic Constant Matrix: (Units=GPa)
#
#
# Indices 1 2 3 4 5 6 
#
# 1 109.7510 28.9621 25.0179 8.6679 -1.3757 1.0302
# 2 28.9621 74.3192 29.7026 14.2152 -0.1808 -6.5284
# 3 25.0179 29.7026 96.8194 12.1593 -2.7222 -4.6129
# 4 8.6679 14.2152 12.1593 32.8047 7.1633 -7.0009
# 5 -1.3757 -0.1808 -2.7222 7.1633 27.8023 0.3200
# 6 1.0302 -6.5284 -4.6129 -7.0009 0.3200 36.5901
#
#
#
# Elastic Compliance Matrix: (Units=1/GPa)
#
#
# Indices 1 2 3 4 5 6 
#
# 1 0.010465 -0.003340 -0.001578 -0.001157 0.000655 -0.001317
# 2 -0.003340 0.017372 -0.003720 -0.005085 0.000873 0.001744
# 3 -0.001578 -0.003720 0.012305 -0.002853 0.001833 0.000370
# 4 -0.001157 -0.005085 -0.002853 0.037547 -0.010113 0.006038
# 5 0.000655 0.000873 0.001833 -0.010113 0.038813 -0.001906
# 6 -0.001317 0.001744 0.000370 0.006038 -0.001906 0.028897
#
#
# Mechanical properties :
#
#
# Convention : Reuss Voigt Hill
#
# Bulk Modulus (GPa) = 43.73608 49.80611 46.77110
# Shear Modulus (GPa) = 29.36044 32.58655 30.97349
#
# Velocity S-wave (km/s) = 3.70340 3.90156 3.80377
# Velocity P-wave (km/s) = 6.22232 6.60016 6.41403
#
# Compressibility (1/GPa) = 0.02286442
#
# Stress axis : x y z
#
# Youngs Moduli (GPa) = 95.55977 57.56471 81.26676
#
# Poissons Ratio (x) = 0.19227 0.12827
# Poissons Ratio (y) = 0.31918 0.30232
# Poissons Ratio (z) = 0.15083 0.21415
#
# Static dielectric constant tensor:
#      x y z
#    x 3.955240 0.209350 -0.017460 
#    y 0.209350 3.782080 -0.024380 
#    z -0.017460 -0.024380 3.955780 
# 
# 
# High freq. dielectric constant tensor:
#      x y z
#    x 1.855710 0.015170 -0.003890 
#    y 0.015170 1.823780 0.005700 
#    z -0.003890 0.005700 1.847860 
# 
# From -- ./inp_files/508691.got.cif
#   From: 2010.06.25/outbox.cif.g09.slc.cpg/sg2_255_cif.got.tgz:508691.got - 2010.06.27 13:26:56.
