data_PCOD8012848
_publ_section_title
;
Structure prediction by ZEFSAII (Michael W. Deem and Ramdas Pophale) SiO2 
 PCOD8012848
Probable space group: P -1
;
_chemical_formula_sum "Si O2"
_cell_formula_units_Z 14
_cell_length_a 9.799401
_cell_length_b 22.437077
_cell_length_c 9.686549
_cell_angle_alpha 46.364639
_cell_angle_beta 135.470303
_cell_angle_gamma 154.068730
_cell_volume 644.752013
_symmetry_space_group_name_H-M "P -1"
_symmetry_group_IT_number 2
_symmetry_cell_setting 'triclinic'
loop_
_space_group_symop_operation_xyz
x,y,z
-x,-y,-z
loop_
_atom_site_type_symbol
_atom_site_label
_atom_site_fract_x
_atom_site_fract_y
_atom_site_fract_z
Si Si1 0.339015 0.755235 0.509110
Si Si2 0.581296 0.437592 0.780148
Si Si3 0.780038 0.818045 0.507684
Si Si4 0.501812 0.984832 0.186140
Si Si5 0.616197 0.462096 0.457891
Si Si6 0.720185 0.915100 0.045674
Si Si7 0.339976 0.710083 0.874879
O O1 0.626139 0.813128 0.533958
O O2 0.462724 0.801986 0.682641
O O3 0.009647 0.588077 0.527947
O O4 0.277306 0.828605 0.302473
O O5 0.446479 0.395775 0.592542
O O6 0.462161 0.469211 0.746799
O O7 0.961687 0.568818 0.819949
O O8 0.472969 0.314047 0.963844
O O9 0.553571 0.661768 0.564907
O O10 0.788216 0.885277 0.279570
O O11 0.139022 0.908911 0.661136
O O12 0.330969 0.005863 0.094867
O O13 0.500000 0.000000 0.000000
O O14 0.398768 0.772522 0.965114
O O15 0.000000 0.000000 0.000000
#
# Coordination Sequence:
#
# PCOD8012848 Si02
#       7
#     2   2   2   2   2   2   2
#     4  11  25  43  72 101 143 184 230 283 352 420
#     4   9  19  37  66  96 140 177 219 285 342 410
#     4  12  25  48  70 101 144 181 232 292 346 413
#     4  12  28  48  71  99 143 189 231 286 354 410
#     4  10  21  40  69 103 136 178 231 283 347 406
#     4  12  27  43  75 102 136 181 239 288 342 412
#     4  10  21  40  64 101 136 179 228 279 347 403
#
# _framework density 21.713775999999999
#
# number of rings (size 3 to 8) (size 9 to 14) (size 15 to 20)
#    0.000    1.143    2.857    2.571    4.000    3.429 
#    0.000    1.429    0.000    0.000    0.000    0.000 
#    0.000    0.000    0.000    0.000    0.000    0.000 
#
# Total GULP energy -173515.944413 kJ/mol
# GULP energy per Si atom -12393.996029 kJ/mol
# Density = 2.166435 g / cm^3
# Si number density = 21.713776 Si / 1000 Ang^3
#
#
#
# Elastic Constant Matrix: (Units=GPa)
#
#
# Indices 1 2 3 4 5 6 
#
# 1 125.8459 22.0547 48.4011 -1.2122 13.8239 -2.7511
# 2 22.0547 78.5826 34.4123 -0.8078 -0.1326 -9.3769
# 3 48.4011 34.4123 133.7986 -2.3083 -4.2893 -4.7529
# 4 -1.2122 -0.8078 -2.3083 30.0223 -4.4026 -1.5373
# 5 13.8239 -0.1326 -4.2893 -4.4026 40.1119 -4.9624
# 6 -2.7511 -9.3769 -4.7529 -1.5373 -4.9624 30.8243
#
#
#
# Elastic Compliance Matrix: (Units=1/GPa)
#
#
# Indices 1 2 3 4 5 6 
#
# 1 0.009902 -0.001395 -0.003383 -0.000510 -0.003924 -0.000720
# 2 -0.001395 0.015002 -0.003177 0.000421 0.000743 0.004090
# 3 -0.003383 -0.003177 0.009629 0.000898 0.002363 0.000641
# 4 -0.000510 0.000421 0.000898 0.034140 0.004345 0.002623
# 5 -0.003924 0.000743 0.002363 0.004345 0.027621 0.004904
# 6 -0.000720 0.004090 0.000641 0.002623 0.004904 0.034641
#
#
# Mechanical properties :
#
#
# Convention : Reuss Voigt Hill
#
# Bulk Modulus (GPa) = 53.70149 60.88480 57.29314
# Shear Modulus (GPa) = 32.66795 35.74895 34.20845
#
# Velocity S-wave (km/s) = 3.88297 4.06195 3.97347
# Velocity P-wave (km/s) = 6.69989 7.07813 6.89160
#
# Compressibility (1/GPa) = 0.01862146
#
# Stress axis : x y z
#
# Youngs Moduli (GPa) = 100.98486 66.65751 103.85176
#
# Poissons Ratio (x) = 0.09300 0.35138
# Poissons Ratio (y) = 0.14090 0.32997
# Poissons Ratio (z) = 0.34168 0.21179
#
# Static dielectric constant tensor:
#      x y z
#    x 4.413320 -0.574340 -0.050340 
#    y -0.574340 4.318840 0.038660 
#    z -0.050340 0.038660 4.548880 
# 
# 
# High freq. dielectric constant tensor:
#      x y z
#    x 1.851940 -0.005940 0.009950 
#    y -0.005940 1.858180 -0.003180 
#    z 0.009950 -0.003180 1.862120 
# 
# From -- ./inp_files/223299.got.cif
#   From: 2010.06.25/outbox.cif.g09.slc.cpg/sg2_112_cif.got.tgz:223299.got - 2010.06.27 13:26:56.
