data_PCOD8012524
_publ_section_title
;
Structure prediction by ZEFSAII (Michael W. Deem and Ramdas Pophale) SiO2 
 PCOD8012524
Probable space group: P -1
;
_chemical_formula_sum "Si O2"
_cell_formula_units_Z 16
_cell_length_a 14.504831
_cell_length_b 11.131632
_cell_length_c 9.247376
_cell_angle_alpha 76.864966
_cell_angle_beta 102.929206
_cell_angle_gamma 151.944237
_cell_volume 683.001507
_symmetry_space_group_name_H-M "P -1"
_symmetry_group_IT_number 2
_symmetry_cell_setting 'triclinic'
loop_
_space_group_symop_operation_xyz
x,y,z
-x,-y,-z
loop_
_atom_site_type_symbol
_atom_site_label
_atom_site_fract_x
_atom_site_fract_y
_atom_site_fract_z
Si Si1 0.369170 0.435223 0.079654
Si Si2 0.115668 0.294849 0.505608
Si Si3 0.906961 0.276907 0.382966
Si Si4 0.293294 0.289366 0.408365
Si Si5 0.413707 0.082152 0.846260
Si Si6 0.457659 0.017796 0.165258
Si Si7 0.862518 0.221852 0.696315
Si Si8 0.172955 0.392868 0.822694
O O1 0.294979 0.271999 0.237917
O O2 0.482643 0.677636 0.126669
O O3 0.500000 0.500000 0.000000
O O4 0.193495 0.296846 0.961536
O O5 0.246007 0.377120 0.408173
O O6 0.208667 0.386807 0.672686
O O7 0.109904 0.430563 0.414073
O O8 0.885295 0.990626 0.507506
O O9 0.795182 0.116185 0.537898
O O10 0.955348 0.475636 0.330548
O O11 0.775340 0.083050 0.256808
O O12 0.500000 0.500000 0.500000
O O13 0.531279 0.118860 0.772377
O O14 0.350402 0.923145 0.001341
O O15 0.670989 0.324187 0.158228
O O16 0.328705 0.939775 0.258333
O O17 0.954065 0.204145 0.811014
#
# Coordination Sequence:
#
# PCOD8012524 Si02
#       8
#     2   2   2   2   2   2   2   2
#     4  11  25  42  69  96 125 175 226 268 327 382
#     4  10  24  41  66  96 130 172 216 271 323 380
#     4  10  21  40  60  99 131 161 218 257 313 397
#     4  11  24  45  67  94 128 171 225 272 323 378
#     4  10  22  41  63  94 129 167 219 261 315 391
#     4  10  22  40  64  92 132 174 203 259 326 379
#     4  10  22  39  64  95 134 170 203 258 325 384
#     4  10  22  44  63  98 136 162 217 263 315 402
#
# _framework density 23.426010999999999
#
# number of rings (size 3 to 8) (size 9 to 14) (size 15 to 20)
#    0.000    1.750    1.250    1.500    1.750   10.500 
#    0.000    1.250    0.000    0.000    0.000    0.000 
#    0.000    0.000    0.000    0.000    0.000    0.000 
#
# Total GULP energy -198225.687759 kJ/mol
# GULP energy per Si atom -12389.105485 kJ/mol
# Density = 2.337269 g / cm^3
# Si number density = 23.426011 Si / 1000 Ang^3
#
#
#
# Elastic Constant Matrix: (Units=GPa)
#
#
# Indices 1 2 3 4 5 6 
#
# 1 131.1457 17.2259 26.4661 -3.2960 -13.6780 -0.1360
# 2 17.2259 49.3290 19.7654 17.4083 0.1736 3.2817
# 3 26.4661 19.7654 109.2619 27.5908 11.1470 12.5446
# 4 -3.2960 17.4083 27.5908 31.5925 2.0623 -8.8945
# 5 -13.6780 0.1736 11.1470 2.0623 44.8678 2.2706
# 6 -0.1360 3.2817 12.5446 -8.8945 2.2706 21.4525
#
#
#
# Elastic Compliance Matrix: (Units=1/GPa)
#
#
# Indices 1 2 3 4 5 6 
#
# 1 0.010221 -0.005948 -0.005665 0.011501 0.003579 0.008677
# 2 -0.005948 0.031354 0.005037 -0.027621 -0.000948 -0.019131
# 3 -0.005665 0.005037 0.019249 -0.026239 -0.004184 -0.022499
# 4 0.011501 -0.027621 -0.026239 0.086266 0.003380 0.055051
# 5 0.003579 -0.000948 -0.004184 0.003380 0.024193 0.001455
# 6 0.008677 -0.019131 -0.022499 0.055051 0.001455 0.085423
#
#
# Mechanical properties :
#
#
# Convention : Reuss Voigt Hill
#
# Bulk Modulus (GPa) = 20.97680 46.29459 33.63569
# Shear Modulus (GPa) = 17.49780 34.66784 26.08282
#
# Velocity S-wave (km/s) = 2.73598 3.85110 3.34040
# Velocity P-wave (km/s) = 4.35370 6.29123 5.40991
#
# Compressibility (1/GPa) = 0.04767171
#
# Stress axis : x y z
#
# Youngs Moduli (GPa) = 97.83852 31.89349 51.95008
#
# Poissons Ratio (x) = 0.18969 0.29432
# Poissons Ratio (y) = 0.58191 -0.26165
# Poissons Ratio (z) = 0.55429 -0.16064
#
# Static dielectric constant tensor:
#      x y z
#    x 4.675250 -0.250270 0.078900 
#    y -0.250270 3.806330 0.197500 
#    z 0.078900 0.197500 4.506590 
# 
# 
# High freq. dielectric constant tensor:
#      x y z
#    x 1.948320 -0.016500 0.006750 
#    y -0.016500 1.900460 0.021430 
#    z 0.006750 0.021430 1.929650 
# 
# From -- ./inp_files/307137.got.cif
#   From: 2010.06.25/outbox.cif.g09.slc.cpg/sg2_154_cif.got.tgz:307137.got - 2010.06.27 13:26:56.
