data_PCOD8012828
_publ_section_title
;
Structure prediction by ZEFSAII (Michael W. Deem and Ramdas Pophale) SiO2 
 PCOD8012828
Probable space group: P -1
;
_chemical_formula_sum "Si O2"
_cell_formula_units_Z 16
_cell_length_a 10.768701
_cell_length_b 15.122453
_cell_length_c 9.563831
_cell_angle_alpha 142.139420
_cell_angle_beta 102.504331
_cell_angle_gamma 53.972500
_cell_volume 669.774960
_symmetry_space_group_name_H-M "P -1"
_symmetry_group_IT_number 2
_symmetry_cell_setting 'triclinic'
loop_
_space_group_symop_operation_xyz
x,y,z
-x,-y,-z
loop_
_atom_site_type_symbol
_atom_site_label
_atom_site_fract_x
_atom_site_fract_y
_atom_site_fract_z
Si Si1 0.247850 0.094561 0.671442
Si Si2 0.261666 0.569288 0.456910
Si Si3 0.657988 0.272833 0.794334
Si Si4 0.671807 0.240135 0.078512
Si Si5 0.308166 0.096091 0.245954
Si Si6 0.110564 0.723981 0.316133
Si Si7 0.277181 0.232416 0.109336
Si Si8 0.194112 0.364532 0.806464
O O1 0.326309 0.165858 0.688861
O O2 0.093316 0.139215 0.599773
O O3 0.394185 0.851961 0.416230
O O4 0.172269 0.217566 0.952153
O O5 0.461446 0.416492 0.261104
O O6 0.231246 0.714752 0.748666
O O7 0.131507 0.706884 0.467939
O O8 0.218758 0.445561 0.356748
O O9 0.823488 0.180657 0.618690
O O10 0.500000 0.500000 0.000000
O O11 0.717306 0.238022 0.926560
O O12 0.741808 0.027883 0.879257
O O13 0.232965 0.195263 0.199442
O O14 0.209846 0.290017 0.561788
O O15 0.518924 0.950070 0.115341
O O16 0.237252 0.499439 0.997047
O O17 0.000000 0.500000 0.000000
#
# Coordination Sequence:
#
# PCOD8012828 Si02
#       8
#     2   2   2   2   2   2   2   2
#     4  11  24  44  65  93 138 172 224 275 337 397
#     4  10  21  40  63  95 134 170 218 265 341 400
#     4  12  25  40  67  99 126 173 229 275 331 394
#     4  10  22  40  63  94 133 172 213 282 329 392
#     4  10  22  41  65 100 135 171 226 276 339 390
#     4  11  24  42  65  95 133 179 214 278 332 400
#     4  10  23  38  69 101 131 174 220 284 334 397
#     4  10  22  42  68  91 130 178 219 274 328 395
#
# _framework density 23.888621000000001
#
# number of rings (size 3 to 8) (size 9 to 14) (size 15 to 20)
#    0.000    1.500    3.750    0.375    5.250    1.500 
#    0.000    5.625    0.000    0.000    0.000    0.000 
#    0.000    0.000    0.000    0.000    0.000    0.000 
#
# Total GULP energy -198329.950513 kJ/mol
# GULP energy per Si atom -12395.621907 kJ/mol
# Density = 2.383425 g / cm^3
# Si number density = 23.888621 Si / 1000 Ang^3
#
#
#
# Elastic Constant Matrix: (Units=GPa)
#
#
# Indices 1 2 3 4 5 6 
#
# 1 30.4850 33.2481 19.2013 -3.2814 11.2141 10.9325
# 2 33.2481 146.7746 52.6680 -30.7481 15.9977 30.1953
# 3 19.2013 52.6680 153.2934 -18.3995 30.0206 13.6390
# 4 -3.2814 -30.7481 -18.3995 48.4590 3.0344 6.0388
# 5 11.2141 15.9977 30.0206 3.0344 38.3496 -2.0334
# 6 10.9325 30.1953 13.6390 6.0388 -2.0334 34.8809
#
#
#
# Elastic Compliance Matrix: (Units=1/GPa)
#
#
# Indices 1 2 3 4 5 6 
#
# 1 0.049015 -0.007874 -0.000446 -0.000023 -0.011175 -0.009019
# 2 -0.007874 0.013473 -0.000786 0.009306 -0.004008 -0.010733
# 3 -0.000446 -0.000786 0.009040 0.003822 -0.007122 -0.003792
# 4 -0.000023 0.009306 0.003822 0.030545 -0.010102 -0.015420
# 5 -0.011175 -0.004008 -0.007122 -0.010102 0.038118 0.013728
# 6 -0.009019 -0.010733 -0.003792 -0.015420 0.013728 0.045739
#
#
# Mechanical properties :
#
#
# Convention : Reuss Voigt Hill
#
# Bulk Modulus (GPa) = 18.75615 60.08752 39.42184
# Shear Modulus (GPa) = 22.53119 39.36695 30.94907
#
# Velocity S-wave (km/s) = 3.07445 4.06388 3.60329
# Velocity P-wave (km/s) = 4.52455 6.87226 5.81806
#
# Compressibility (1/GPa) = 0.05331584
#
# Stress axis : x y z
#
# Youngs Moduli (GPa) = 20.40200 74.22072 110.61716
#
# Poissons Ratio (x) = 0.58445 0.04932
# Poissons Ratio (y) = 0.16065 0.08694
# Poissons Ratio (z) = 0.00910 0.05833
#
# Static dielectric constant tensor:
#      x y z
#    x 4.510970 0.642330 0.561200 
#    y 0.642330 4.932110 0.512890 
#    z 0.561200 0.512890 4.778670 
# 
# 
# High freq. dielectric constant tensor:
#      x y z
#    x 1.928550 0.014210 0.010840 
#    y 0.014210 1.958510 0.007940 
#    z 0.010840 0.007940 1.957920 
# 
# From -- ./inp_files/274684.got.cif
#   From: 2010.06.25/outbox.cif.g09.slc.cpg/sg2_138_cif.got.tgz:274684.got - 2010.06.27 13:26:56.
