data_PCOD8012493
_publ_section_title
;
Structure prediction by ZEFSAII (Michael W. Deem and Ramdas Pophale) SiO2 
 PCOD8012493
Probable space group: P -1
;
_chemical_formula_sum "Si O2"
_cell_formula_units_Z 14
_cell_length_a 12.041225
_cell_length_b 13.594880
_cell_length_c 10.413844
_cell_angle_alpha 101.639894
_cell_angle_beta 132.843532
_cell_angle_gamma 119.299360
_cell_volume 598.186955
_symmetry_space_group_name_H-M "P -1"
_symmetry_group_IT_number 2
_symmetry_cell_setting 'triclinic'
loop_
_space_group_symop_operation_xyz
x,y,z
-x,-y,-z
loop_
_atom_site_type_symbol
_atom_site_label
_atom_site_fract_x
_atom_site_fract_y
_atom_site_fract_z
Si Si1 0.099255 0.920135 0.351298
Si Si2 0.745461 0.899646 0.158993
Si Si3 0.313332 0.179998 0.374098
Si Si4 0.160338 0.540963 0.754899
Si Si5 0.205074 0.866834 0.654698
Si Si6 0.714671 0.409919 0.507345
Si Si7 0.532056 0.517643 0.378740
O O1 0.291900 0.953395 0.599868
O O2 0.984220 0.945985 0.357995
O O3 0.311830 0.086031 0.447165
O O4 0.801667 0.690206 0.001844
O O5 0.922688 0.109311 0.363330
O O6 0.526804 0.762049 0.079185
O O7 0.548958 0.790113 0.843898
O O8 0.605225 0.337665 0.549917
O O9 0.331651 0.294110 0.502700
O O10 0.000000 0.000000 0.000000
O O11 0.000000 0.500000 0.500000
O O12 0.067153 0.370620 0.636884
O O13 0.033812 0.530220 0.776781
O O14 0.500000 0.000000 0.000000
O O15 0.754780 0.550355 0.530771
O O16 0.500000 0.500000 0.500000
#
# Coordination Sequence:
#
# PCOD8012493 Si02
#       7
#     2   2   2   2   2   2   2
#     4  11  24  39  64 103 128 163 225 258 315 393
#     4  10  21  41  63  95 125 167 219 264 317 375
#     4  11  19  38  64  96 133 165 209 268 320 384
#     4  10  21  40  60  87 127 167 218 256 317 380
#     4  12  24  42  65  92 133 176 213 266 320 372
#     4   9  18  36  62  94 129 166 209 256 325 383
#     4   9  18  36  61  93 128 168 207 259 322 370
#
# _framework density 23.404053999999999
#
# number of rings (size 3 to 8) (size 9 to 14) (size 15 to 20)
#    0.000    1.714    7.143    0.429    0.000    5.143 
#    2.571    0.714    0.000    4.286    0.000    0.000 
#    0.000    0.000    0.000    0.000    0.000    0.000 
#
# Total GULP energy -173470.368113 kJ/mol
# GULP energy per Si atom -12390.740580 kJ/mol
# Density = 2.335079 g / cm^3
# Si number density = 23.404054 Si / 1000 Ang^3
#
#
#
# Elastic Constant Matrix: (Units=GPa)
#
#
# Indices 1 2 3 4 5 6 
#
# 1 126.6140 45.1802 32.7401 10.2638 2.9442 -10.7574
# 2 45.1802 148.5107 42.9598 0.1507 -19.0175 -6.4947
# 3 32.7401 42.9598 79.4333 -6.9827 -4.3853 -6.7273
# 4 10.2638 0.1507 -6.9827 40.4601 0.1676 -16.9042
# 5 2.9442 -19.0175 -4.3853 0.1676 28.9827 15.3897
# 6 -10.7574 -6.4947 -6.7273 -16.9042 15.3897 43.8154
#
#
#
# Elastic Compliance Matrix: (Units=1/GPa)
#
#
# Indices 1 2 3 4 5 6 
#
# 1 0.010091 -0.002694 -0.002922 -0.002017 -0.004518 0.002438
# 2 -0.002694 0.009549 -0.004012 -0.001342 0.007550 -0.003032
# 3 -0.002922 -0.004012 0.016658 0.005302 -0.001959 0.003979
# 4 -0.002017 -0.001342 0.005302 0.032743 -0.008402 0.015703
# 5 -0.004518 0.007550 -0.001959 -0.008402 0.051069 -0.021470
# 6 0.002438 -0.003032 0.003979 0.015703 -0.021470 0.037183
#
#
# Mechanical properties :
#
#
# Convention : Reuss Voigt Hill
#
# Bulk Modulus (GPa) = 58.68059 66.25759 62.46909
# Shear Modulus (GPa) = 27.43773 38.23017 32.83395
#
# Velocity S-wave (km/s) = 3.42767 4.04602 3.74962
# Velocity P-wave (km/s) = 6.38690 7.08511 6.74505
#
# Compressibility (1/GPa) = 0.01704141
#
# Stress axis : x y z
#
# Youngs Moduli (GPa) = 99.09997 104.71835 60.03029
#
# Poissons Ratio (x) = 0.28216 0.17541
# Poissons Ratio (y) = 0.26702 0.24084
# Poissons Ratio (z) = 0.28958 0.42013
#
# Static dielectric constant tensor:
#      x y z
#    x 5.772030 -0.243900 0.313800 
#    y -0.243900 11.607770 4.517990 
#    z 0.313800 4.517990 6.972090 
# 
# 
# High freq. dielectric constant tensor:
#      x y z
#    x 1.925930 -0.010770 -0.025800 
#    y -0.010770 1.932070 0.002570 
#    z -0.025800 0.002570 1.908650 
# 
# From -- ./inp_files/428474.got.cif
#   From: 2010.06.25/outbox.cif.g09.slc.cpg/sg2_215_cif.got.tgz:428474.got - 2010.06.27 13:26:56.
