data_PCOD8012208
_publ_section_title
;
Structure prediction by ZEFSAII (Michael W. Deem and Ramdas Pophale) SiO2 
 PCOD8012208
Probable space group: P -1
;
_chemical_formula_sum "Si O2"
_cell_formula_units_Z 16
_cell_length_a 12.032430
_cell_length_b 12.998957
_cell_length_c 9.660680
_cell_angle_alpha 137.813689
_cell_angle_beta 127.166831
_cell_angle_gamma 76.971253
_cell_volume 735.602071
_symmetry_space_group_name_H-M "P -1"
_symmetry_group_IT_number 2
_symmetry_cell_setting 'triclinic'
loop_
_space_group_symop_operation_xyz
x,y,z
-x,-y,-z
loop_
_atom_site_type_symbol
_atom_site_label
_atom_site_fract_x
_atom_site_fract_y
_atom_site_fract_z
Si Si1 0.465491 0.313391 0.240362
Si Si2 0.085294 0.699764 0.767778
Si Si3 0.588935 0.190492 0.461668
Si Si4 0.894873 0.632358 0.319476
Si Si5 0.568101 0.373137 0.877746
Si Si6 0.424323 0.810229 0.046340
Si Si7 0.878562 0.808902 0.212102
Si Si8 0.070141 0.670718 0.038760
O O1 0.500000 0.500000 0.500000
O O2 0.540404 0.219933 0.302500
O O3 0.548646 0.322943 0.166320
O O4 0.282326 0.203988 0.981612
O O5 0.248416 0.773201 0.890319
O O6 0.000000 0.500000 0.500000
O O7 0.984868 0.755889 0.637963
O O8 0.090324 0.761012 0.991549
O O9 0.518535 0.292192 0.608455
O O10 0.771253 0.255339 0.682038
O O11 0.519570 0.995050 0.246673
O O12 0.849097 0.735326 0.272710
O O13 0.750789 0.476046 0.121294
O O14 0.989442 0.532875 0.222582
O O15 0.500000 0.500000 0.000000
O O16 0.514986 0.214555 0.782721
O O17 0.940144 0.701675 0.054715
O O18 0.000000 0.000000 0.500000
#
# Coordination Sequence:
#
# PCOD8012208 Si02
#       8
#     2   2   2   2   2   2   2   2
#     4  12  28  44  68 101 136 181 224 275 345 397
#     4  10  21  39  67  97 120 168 228 264 318 390
#     4  11  24  43  66 104 128 176 229 269 339 393
#     4  10  22  42  65  95 124 175 226 257 329 404
#     4  11  22  41  67  97 134 174 214 278 336 400
#     4  12  23  42  69  94 137 167 225 279 322 401
#     4  12  27  45  65  98 140 172 217 285 338 383
#     4  10  22  43  69  95 128 171 227 262 324 412
#
# _framework density 21.750889999999998
#
# number of rings (size 3 to 8) (size 9 to 14) (size 15 to 20)
#    0.000    1.000    3.750    4.875    7.000    1.000 
#    0.000    0.625    0.000    0.000    0.000    0.000 
#    0.000    0.000    0.000    0.000    0.000    0.000 
#
# Total GULP energy -198329.204989 kJ/mol
# GULP energy per Si atom -12395.575312 kJ/mol
# Density = 2.170138 g / cm^3
# Si number density = 21.750890 Si / 1000 Ang^3
#
#
#
# Elastic Constant Matrix: (Units=GPa)
#
#
# Indices 1 2 3 4 5 6 
#
# 1 73.7809 20.0256 7.0123 -23.4967 -5.5356 7.4509
# 2 20.0256 106.6406 32.4569 -18.3215 14.2751 6.4814
# 3 7.0123 32.4569 74.2014 -21.0613 13.0294 0.4181
# 4 -23.4967 -18.3215 -21.0613 44.3537 -5.9126 0.8053
# 5 -5.5356 14.2751 13.0294 -5.9126 27.4309 4.1117
# 6 7.4509 6.4814 0.4181 0.8053 4.1117 24.8402
#
#
#
# Elastic Compliance Matrix: (Units=1/GPa)
#
#
# Indices 1 2 3 4 5 6 
#
# 1 0.018804 -0.002702 0.001027 0.010516 0.007971 -0.006613
# 2 -0.002702 0.011940 -0.003864 0.001100 -0.004456 -0.001538
# 3 0.001027 -0.003864 0.017849 0.006745 -0.004956 0.001001
# 4 0.010516 0.001100 0.006745 0.032709 0.006243 -0.005648
# 5 0.007971 -0.004456 -0.004956 0.006243 0.045411 -0.008864
# 6 -0.006613 -0.001538 0.001001 -0.005648 -0.008864 0.044275
#
#
# Mechanical properties :
#
#
# Convention : Reuss Voigt Hill
#
# Bulk Modulus (GPa) = 26.65590 41.51248 34.08419
# Shear Modulus (GPa) = 25.69758 32.33352 29.01555
#
# Velocity S-wave (km/s) = 3.44095 3.85975 3.65635
# Velocity P-wave (km/s) = 5.29798 6.24423 5.79046
#
# Compressibility (1/GPa) = 0.03751515
#
# Stress axis : x y z
#
# Youngs Moduli (GPa) = 53.17949 83.75473 56.02552
#
# Poissons Ratio (x) = 0.22632 -0.05756
# Poissons Ratio (y) = 0.14370 0.21648
# Poissons Ratio (z) = -0.05464 0.32363
#
# Static dielectric constant tensor:
#      x y z
#    x 3.503060 0.174130 -0.262770 
#    y 0.174130 4.187040 -0.377150 
#    z -0.262770 -0.377150 4.162990 
# 
# 
# High freq. dielectric constant tensor:
#      x y z
#    x 1.854760 0.010710 -0.000980 
#    y 0.010710 1.859760 -0.017630 
#    z -0.000980 -0.017630 1.851020 
# 
# From -- ./inp_files/263611.got.cif
#   From: 2010.06.25/outbox.cif.g09.slc.cpg/sg2_132_cif.got.tgz:263611.got - 2010.06.27 13:26:56.
