data_PCOD8012950
_publ_section_title
;
Structure prediction by ZEFSAII (Michael W. Deem and Ramdas Pophale) SiO2 
 PCOD8012950
Probable space group: P -1
;
_chemical_formula_sum "Si O2"
_cell_formula_units_Z 14
_cell_length_a 11.140326
_cell_length_b 8.989711
_cell_length_c 11.306597
_cell_angle_alpha 112.562683
_cell_angle_beta 141.138950
_cell_angle_gamma 61.693163
_cell_volume 625.295149
_symmetry_space_group_name_H-M "P -1"
_symmetry_group_IT_number 2
_symmetry_cell_setting 'triclinic'
loop_
_space_group_symop_operation_xyz
x,y,z
-x,-y,-z
loop_
_atom_site_type_symbol
_atom_site_label
_atom_site_fract_x
_atom_site_fract_y
_atom_site_fract_z
Si Si1 0.907244 0.791763 0.773388
Si Si2 0.290397 0.237452 0.620942
Si Si3 0.192401 0.524462 0.332435
Si Si4 0.402732 0.556826 0.814578
Si Si5 0.625253 0.402557 0.726409
Si Si6 0.271623 0.895898 0.122551
Si Si7 0.055556 0.802480 0.506087
O O1 0.767087 0.841379 0.566479
O O2 0.945144 0.597494 0.784349
O O3 0.812681 0.907730 0.848987
O O4 0.115862 0.825746 0.906812
O O5 0.271181 0.432875 0.640782
O O6 0.521643 0.137799 0.802911
O O7 0.148585 0.228014 0.616661
O O8 0.421284 0.422362 0.505584
O O9 0.198291 0.566518 0.209809
O O10 0.117797 0.699496 0.400816
O O11 0.582919 0.526804 0.847614
O O12 0.238335 0.741373 0.725334
O O13 0.500000 0.500000 0.000000
O O14 0.693551 0.208030 0.759718
O O15 0.000000 0.000000 0.500000
#
# Coordination Sequence:
#
# PCOD8012950 Si02
#       7
#     2   2   2   2   2   2   2
#     4  11  22  40  66  97 134 170 234 277 338 407
#     4  11  23  41  68  93 134 185 222 278 346 405
#     4  10  21  40  64  93 135 178 223 272 348 399
#     4  10  22  43  72 102 135 180 237 278 333 413
#     4   9  20  39  64  97 128 176 221 281 337 396
#     4  10  23  38  64 104 121 172 225 290 325 399
#     4  11  25  41  65 103 136 185 224 284 344 407
#
# _framework density 22.389427000000001
#
# number of rings (size 3 to 8) (size 9 to 14) (size 15 to 20)
#    0.000    1.714    4.286    0.857    6.000    2.857 
#    0.000    0.714    0.000    0.000    0.000    0.000 
#    0.000    0.000    0.000    0.000    0.000    0.000 
#
# Total GULP energy -173495.970654 kJ/mol
# GULP energy per Si atom -12392.569332 kJ/mol
# Density = 2.233847 g / cm^3
# Si number density = 22.389427 Si / 1000 Ang^3
#
#
#
# Elastic Constant Matrix: (Units=GPa)
#
#
# Indices 1 2 3 4 5 6 
#
# 1 138.6788 29.1044 43.2400 -4.0141 3.4168 -7.7871
# 2 29.1044 133.5394 40.1087 0.6419 1.1324 -8.8667
# 3 43.2400 40.1087 101.0820 -0.3767 6.5386 -5.9212
# 4 -4.0141 0.6419 -0.3767 32.4254 -0.8393 4.2229
# 5 3.4168 1.1324 6.5386 -0.8393 30.4692 -4.9996
# 6 -7.7871 -8.8667 -5.9212 4.2229 -4.9996 18.9305
#
#
#
# Elastic Compliance Matrix: (Units=1/GPa)
#
#
# Indices 1 2 3 4 5 6 
#
# 1 0.008507 -0.000757 -0.003226 0.000774 0.000115 0.001993
# 2 -0.000757 0.008775 -0.003030 -0.000702 0.000923 0.003251
# 3 -0.003226 -0.003030 0.012654 -0.000342 -0.002132 0.000725
# 4 0.000774 -0.000702 -0.000342 0.031890 -0.000309 -0.007313
# 5 0.000115 0.000923 -0.002132 -0.000309 0.034706 0.009048
# 6 0.001993 0.003251 0.000725 -0.007313 0.009048 0.059415
#
#
# Mechanical properties :
#
#
# Convention : Reuss Voigt Hill
#
# Bulk Modulus (GPa) = 62.85553 66.46738 64.66145
# Shear Modulus (GPa) = 28.52596 33.75482 31.14039
#
# Velocity S-wave (km/s) = 3.57330 3.88702 3.73346
# Velocity P-wave (km/s) = 6.72007 7.06376 6.89406
#
# Compressibility (1/GPa) = 0.01590950
#
# Stress axis : x y z
#
# Youngs Moduli (GPa) = 117.54505 113.96145 79.02392
#
# Poissons Ratio (x) = 0.08632 0.25497
# Poissons Ratio (y) = 0.08903 0.23942
# Poissons Ratio (z) = 0.37925 0.34527
#
# Static dielectric constant tensor:
#      x y z
#    x 4.374390 0.019550 0.029450 
#    y 0.019550 3.959980 -0.119540 
#    z 0.029450 -0.119540 3.989790 
# 
# 
# High freq. dielectric constant tensor:
#      x y z
#    x 1.882240 -0.013110 0.005920 
#    y -0.013110 1.867650 -0.005240 
#    z 0.005920 -0.005240 1.872770 
# 
# From -- ./inp_files/418314.got.cif
#   From: 2010.06.25/outbox.cif.g09.slc.cpg/sg2_210_cif.got.tgz:418314.got - 2010.06.27 13:26:56.
