data_PCOD8012934
_publ_section_title
;
Structure prediction by ZEFSAII (Michael W. Deem and Ramdas Pophale) SiO2 
 PCOD8012934
Probable space group: P -1
;
_chemical_formula_sum "Si O2"
_cell_formula_units_Z 14
_cell_length_a 12.621616
_cell_length_b 9.121209
_cell_length_c 12.258549
_cell_angle_alpha 48.043931
_cell_angle_beta 36.128008
_cell_angle_gamma 56.917261
_cell_volume 618.716704
_symmetry_space_group_name_H-M "P -1"
_symmetry_group_IT_number 2
_symmetry_cell_setting 'triclinic'
loop_
_space_group_symop_operation_xyz
x,y,z
-x,-y,-z
loop_
_atom_site_type_symbol
_atom_site_label
_atom_site_fract_x
_atom_site_fract_y
_atom_site_fract_z
Si Si1 0.832865 0.915307 0.914649
Si Si2 0.459699 0.793151 0.320137
Si Si3 0.217985 0.186182 0.659262
Si Si4 0.940809 0.715417 0.476042
Si Si5 0.912305 0.234606 0.041752
Si Si6 0.183928 0.109343 0.298621
Si Si7 0.430420 0.610465 0.659680
O O1 0.786791 0.810480 0.888337
O O2 0.991237 0.802949 0.903110
O O3 0.648398 0.895204 0.146160
O O4 0.884647 0.143598 0.739773
O O5 0.369590 0.703451 0.547709
O O6 0.492822 0.610578 0.301029
O O7 0.338025 0.954627 0.281682
O O8 0.201328 0.208983 0.532281
O O9 0.417650 0.249610 0.488515
O O10 0.183087 0.959085 0.832192
O O11 0.062086 0.311445 0.792550
O O12 0.838182 0.719635 0.676341
O O13 0.000000 0.500000 0.500000
O O14 0.750190 0.391789 0.115249
O O15 0.000000 0.000000 0.500000
#
# Coordination Sequence:
#
# PCOD8012934 Si02
#       7
#     2   2   2   2   2   2   2
#     4  10  21  42  65  90 130 164 209 268 309 378
#     4  11  23  40  60  97 126 163 218 257 319 373
#     4  10  21  40  64  92 134 162 211 268 311 381
#     4  10  23  42  65  92 121 169 217 255 318 383
#     4  10  21  41  65  97 124 173 208 256 333 361
#     4  10  22  41  66  86 126 172 206 261 317 372
#     4  11  23  38  64  95 131 165 213 263 305 392
#
# _framework density 22.627479000000001
#
# number of rings (size 3 to 8) (size 9 to 14) (size 15 to 20)
#    0.000    1.714    1.429    3.429    4.000    1.714 
#    2.571    0.714    0.000    0.000    0.000    0.000 
#    0.000    0.000    0.000    0.000    0.000    0.000 
#
# Total GULP energy -173519.524037 kJ/mol
# GULP energy per Si atom -12394.251717 kJ/mol
# Density = 2.257598 g / cm^3
# Si number density = 22.627479 Si / 1000 Ang^3
#
#
#
# Elastic Constant Matrix: (Units=GPa)
#
#
# Indices 1 2 3 4 5 6 
#
# 1 99.4130 40.5511 21.3667 12.5703 -11.1689 11.3775
# 2 40.5511 117.3322 19.8543 21.0257 -6.2106 9.5344
# 3 21.3667 19.8543 60.8279 17.8265 -9.9280 3.2600
# 4 12.5703 21.0257 17.8265 35.8057 1.5881 -3.3561
# 5 -11.1689 -6.2106 -9.9280 1.5881 37.0594 16.6184
# 6 11.3775 9.5344 3.2600 -3.3561 16.6184 24.6392
#
#
#
# Elastic Compliance Matrix: (Units=1/GPa)
#
#
# Indices 1 2 3 4 5 6 
#
# 1 0.014367 -0.002409 -0.000490 -0.005034 0.009815 -0.012943
# 2 -0.002409 0.011445 0.000419 -0.007036 0.005085 -0.007760
# 3 -0.000490 0.000419 0.023220 -0.013459 0.012746 -0.013438
# 4 -0.005034 -0.007036 -0.013459 0.043876 -0.019961 0.026268
# 5 0.009815 0.005085 0.012746 -0.019961 0.057278 -0.049538
# 6 -0.012943 -0.007760 -0.013438 0.026268 -0.049538 0.088333
#
#
# Mechanical properties :
#
#
# Convention : Reuss Voigt Hill
#
# Bulk Modulus (GPa) = 22.69003 49.01305 35.85154
# Shear Modulus (GPa) = 19.36696 32.55426 25.96061
#
# Velocity S-wave (km/s) = 2.92876 3.79714 3.39086
# Velocity P-wave (km/s) = 4.63533 6.39783 5.58652
#
# Compressibility (1/GPa) = 0.04407222
#
# Stress axis : x y z
#
# Youngs Moduli (GPa) = 69.60166 87.37159 43.06596
#
# Poissons Ratio (x) = 0.21051 0.02108
# Poissons Ratio (y) = 0.16770 -0.01803
# Poissons Ratio (z) = 0.03408 -0.03657
#
# Static dielectric constant tensor:
#      x y z
#    x 4.051450 0.342520 0.274120 
#    y 0.342520 4.016360 0.317420 
#    z 0.274120 0.317420 4.509600 
# 
# 
# High freq. dielectric constant tensor:
#      x y z
#    x 1.895750 0.012570 -0.001310 
#    y 0.012570 1.875920 0.014120 
#    z -0.001310 0.014120 1.890740 
# 
# From -- ./inp_files/308492.got.cif
#   From: 2010.06.25/outbox.cif.g09.slc.cpg/sg2_155_cif.got.tgz:308492.got - 2010.06.27 13:26:56.
