data_PCOD8012792
_publ_section_title
;
Structure prediction by ZEFSAII (Michael W. Deem and Ramdas Pophale) SiO2 
 PCOD8012792
Probable space group: P -1
;
_chemical_formula_sum "Si O2"
_cell_formula_units_Z 16
_cell_length_a 12.368324
_cell_length_b 16.535137
_cell_length_c 8.723485
_cell_angle_alpha 116.124672
_cell_angle_beta 115.986611
_cell_angle_gamma 27.520487
_cell_volume 735.233831
_symmetry_space_group_name_H-M "P -1"
_symmetry_group_IT_number 2
_symmetry_cell_setting 'triclinic'
loop_
_space_group_symop_operation_xyz
x,y,z
-x,-y,-z
loop_
_atom_site_type_symbol
_atom_site_label
_atom_site_fract_x
_atom_site_fract_y
_atom_site_fract_z
Si Si1 0.693174 0.585820 0.179360
Si Si2 0.526260 0.593063 0.811001
Si Si3 0.612371 0.514554 0.347511
Si Si4 0.035330 0.676771 0.350334
Si Si5 0.181936 0.319706 0.552036
Si Si6 0.215140 0.217573 0.176626
Si Si7 0.318639 0.006892 0.834780
Si Si8 0.253894 0.845909 0.599905
O O1 0.715223 0.493490 0.242906
O O2 0.620310 0.734216 0.313644
O O3 0.959695 0.420842 0.142039
O O4 0.504197 0.671820 0.010724
O O5 0.534424 0.482507 0.772398
O O6 0.765342 0.472203 0.776371
O O7 0.299059 0.750355 0.691809
O O8 0.832147 0.350049 0.458657
O O9 0.442524 0.700900 0.465754
O O10 0.931903 0.653960 0.348183
O O11 0.822454 0.865827 0.295105
O O12 0.272736 0.188003 0.372158
O O13 0.000000 0.500000 0.500000
O O14 0.404599 0.154258 0.148793
O O15 0.233997 0.103871 0.025633
O O16 0.284431 0.923714 0.755417
O O17 0.000000 0.000000 0.500000
#
# Coordination Sequence:
#
# PCOD8012792 Si02
#       8
#     2   2   2   2   2   2   2   2
#     4  11  22  41  68  95 128 166 216 272 306 382
#     4  11  24  40  68  99 120 170 222 261 314 375
#     4  11  22  43  69  92 126 170 216 266 318 368
#     4  11  21  39  66  95 126 166 215 260 312 389
#     4  10  21  40  63  92 128 166 213 261 321 362
#     4  10  22  40  61  90 136 166 207 260 320 374
#     4  11  23  39  64  96 130 175 202 260 328 373
#     4  11  24  43  66  93 132 162 212 265 315 389
#
# _framework density 21.761785
#
# number of rings (size 3 to 8) (size 9 to 14) (size 15 to 20)
#    0.000    1.250    3.750    4.125    5.250    3.000 
#    0.000    1.875    0.000    0.000    0.000    0.000 
#    0.000    0.000    0.000    0.000    0.000    0.000 
#
# Total GULP energy -198259.371175 kJ/mol
# GULP energy per Si atom -12391.210698 kJ/mol
# Density = 2.171225 g / cm^3
# Si number density = 21.761785 Si / 1000 Ang^3
#
#
#
# Elastic Constant Matrix: (Units=GPa)
#
#
# Indices 1 2 3 4 5 6 
#
# 1 112.8406 25.2845 50.2498 12.1198 13.5353 14.7703
# 2 25.2845 73.8404 24.2842 -3.9883 -1.2028 -4.3370
# 3 50.2498 24.2842 132.0377 8.9178 21.0731 -1.2707
# 4 12.1198 -3.9883 8.9178 32.0093 8.0144 6.8037
# 5 13.5353 -1.2028 21.0731 8.0144 33.4648 1.5691
# 6 14.7703 -4.3370 -1.2707 6.8037 1.5691 26.3623
#
#
#
# Elastic Compliance Matrix: (Units=1/GPa)
#
#
# Indices 1 2 3 4 5 6 
#
# 1 0.012821 -0.003725 -0.003786 -0.002197 -0.002068 -0.007288
# 2 -0.003725 0.015894 -0.002052 0.002505 0.002592 0.003802
# 3 -0.003786 -0.002052 0.010271 -0.001064 -0.004889 0.002844
# 4 -0.002197 0.002505 -0.001064 0.035881 -0.006603 -0.007276
# 5 -0.002068 0.002592 -0.004889 -0.006603 0.035427 0.000945
# 6 -0.007288 0.003802 0.002844 -0.007276 0.000945 0.044601
#
#
# Mechanical properties :
#
#
# Convention : Reuss Voigt Hill
#
# Bulk Modulus (GPa) = 50.35222 57.59508 53.97365
# Shear Modulus (GPa) = 27.67924 32.96064 30.31994
#
# Velocity S-wave (km/s) = 3.57027 3.89602 3.73670
# Velocity P-wave (km/s) = 6.33908 6.83829 6.59341
#
# Compressibility (1/GPa) = 0.01986010
#
# Stress axis : x y z
#
# Youngs Moduli (GPa) = 77.99877 62.91685 97.35945
#
# Poissons Ratio (x) = 0.23439 0.36858
# Poissons Ratio (y) = 0.29058 0.19975
# Poissons Ratio (z) = 0.29529 0.12908
#
# Static dielectric constant tensor:
#      x y z
#    x 3.987480 0.000010 0.169550 
#    y 0.000010 3.778790 -0.003680 
#    z 0.169550 -0.003680 4.818130 
# 
# 
# High freq. dielectric constant tensor:
#      x y z
#    x 1.852510 -0.001590 0.013830 
#    y -0.001590 1.823270 -0.004210 
#    z 0.013830 -0.004210 1.871680 
# 
# From -- ./inp_files/273801.got.cif
#   From: 2010.06.25/outbox.cif.g09.slc.cpg/sg2_137_cif.got.tgz:273801.got - 2010.06.27 13:26:56.
