data_PCOD8012059
_publ_section_title
;
Structure prediction by ZEFSAII (Michael W. Deem and Ramdas Pophale) SiO2 
 PCOD8012059
Probable space group: P -1
;
_chemical_formula_sum "Si O2"
_cell_formula_units_Z 16
_cell_length_a 15.226372
_cell_length_b 11.291922
_cell_length_c 8.841520
_cell_angle_alpha 103.417521
_cell_angle_beta 141.979754
_cell_angle_gamma 61.172364
_cell_volume 788.921431
_symmetry_space_group_name_H-M "P -1"
_symmetry_group_IT_number 2
_symmetry_cell_setting 'triclinic'
loop_
_space_group_symop_operation_xyz
x,y,z
-x,-y,-z
loop_
_atom_site_type_symbol
_atom_site_label
_atom_site_fract_x
_atom_site_fract_y
_atom_site_fract_z
Si Si1 0.264120 0.637683 0.557593
Si Si2 0.986342 0.884127 0.757805
Si Si3 0.465182 0.332473 0.224826
Si Si4 0.391892 0.983246 0.723088
Si Si5 0.744414 0.384063 0.107804
Si Si6 0.550664 0.630949 0.441007
Si Si7 0.640089 0.867546 0.574907
Si Si8 0.954681 0.870169 0.059521
O O1 0.399485 0.681444 0.715894
O O2 0.270813 0.594431 0.727320
O O3 0.293945 0.512991 0.447401
O O4 0.086922 0.766123 0.324681
O O5 0.076529 0.743129 0.736403
O O6 0.793982 0.980623 0.472961
O O7 0.008564 0.836862 0.948276
O O8 0.079239 0.974633 0.894659
O O9 0.488732 0.177090 0.219409
O O10 0.490029 0.372817 0.439235
O O11 0.292291 0.465357 0.969771
O O12 0.358069 0.101072 0.589198
O O13 0.500000 0.000000 0.000000
O O14 0.610078 0.342131 0.860553
O O15 0.608113 0.740835 0.515791
O O16 0.500000 0.000000 0.500000
O O17 0.802204 0.846282 0.872957
#
# Coordination Sequence:
#
# PCOD8012059 Si02
#       8
#     2   2   2   2   2   2   2   2
#     4  11  23  39  64  96 124 163 207 268 308 363
#     4  10  21  42  65  93 120 169 207 256 305 377
#     4  11  21  43  64  94 121 173 206 253 310 376
#     4  11  25  40  68  93 130 161 204 258 320 370
#     4  11  24  38  67  96 126 161 213 260 312 360
#     4  11  22  39  66  90 129 163 213 253 308 375
#     4  11  23  39  61  97 121 167 207 257 310 368
#     4  10  21  39  66  87 128 158 217 250 307 374
#
# _framework density 20.280854000000001
#
# number of rings (size 3 to 8) (size 9 to 14) (size 15 to 20)
#    0.000    1.250    2.500    5.250    5.250    2.000 
#    0.000    0.625    0.000    0.000    0.000    0.000 
#    0.000    0.000    0.000    0.000    0.000    0.000 
#
# Total GULP energy -198282.512577 kJ/mol
# GULP energy per Si atom -12392.657036 kJ/mol
# Density = 2.023469 g / cm^3
# Si number density = 20.280854 Si / 1000 Ang^3
#
#
#
# Elastic Constant Matrix: (Units=GPa)
#
#
# Indices 1 2 3 4 5 6 
#
# 1 59.0095 18.2782 19.9204 -6.4663 -9.0248 -9.0495
# 2 18.2782 90.1591 26.1551 -15.5295 -1.2864 -9.1529
# 3 19.9204 26.1551 93.7552 -7.6874 -13.4302 -5.4721
# 4 -6.4663 -15.5295 -7.6874 30.8603 -1.1739 1.4054
# 5 -9.0248 -1.2864 -13.4302 -1.1739 29.5706 2.2589
# 6 -9.0495 -9.1529 -5.4721 1.4054 2.2589 37.3988
#
#
#
# Elastic Compliance Matrix: (Units=1/GPa)
#
#
# Indices 1 2 3 4 5 6 
#
# 1 0.020084 -0.002523 -0.002492 0.002337 0.004713 0.003505
# 2 -0.002523 0.013575 -0.002885 0.005430 -0.001440 0.002173
# 3 -0.002492 -0.002885 0.012843 0.001405 0.004986 0.000216
# 4 0.002337 0.005430 0.001405 0.036064 0.002976 0.000565
# 5 0.004713 -0.001440 0.004986 0.002976 0.037642 -0.000868
# 6 0.003505 0.002173 0.000216 0.000565 -0.000868 0.028182
#
#
# Mechanical properties :
#
#
# Convention : Reuss Voigt Hill
#
# Bulk Modulus (GPa) = 32.57243 41.29235 36.93239
# Shear Modulus (GPa) = 28.66592 31.47062 30.06827
#
# Velocity S-wave (km/s) = 3.76366 3.94349 3.85462
# Velocity P-wave (km/s) = 5.91459 6.41399 6.16935
#
# Compressibility (1/GPa) = 0.03070081
#
# Stress axis : x y z
#
# Youngs Moduli (GPa) = 49.79182 73.66271 77.86635
#
# Poissons Ratio (x) = 0.18585 0.19405
# Poissons Ratio (y) = 0.12562 0.22467
# Poissons Ratio (z) = 0.12408 0.21254
#
# Static dielectric constant tensor:
#      x y z
#    x 3.589560 -0.134740 0.016310 
#    y -0.134740 3.708360 -0.164920 
#    z 0.016310 -0.164920 3.659260 
# 
# 
# High freq. dielectric constant tensor:
#      x y z
#    x 1.786450 -0.002560 -0.009040 
#    y -0.002560 1.802490 -0.012390 
#    z -0.009040 -0.012390 1.785980 
# 
# From -- ./inp_files/279531.got.cif
#   From: 2010.06.25/outbox.cif.g09.slc.cpg/sg2_140_cif.got.tgz:279531.got - 2010.06.27 13:26:56.
