data_PCOD8012804
_publ_section_title
;
Structure prediction by ZEFSAII (Michael W. Deem and Ramdas Pophale) SiO2 
 PCOD8012804
Probable space group: P -1
;
_chemical_formula_sum "Si O2"
_cell_formula_units_Z 14
_cell_length_a 14.306819
_cell_length_b 21.961257
_cell_length_c 6.200554
_cell_angle_alpha 117.185296
_cell_angle_beta 66.055853
_cell_angle_gamma 160.173118
_cell_volume 585.936959
_symmetry_space_group_name_H-M "P -1"
_symmetry_group_IT_number 2
_symmetry_cell_setting 'triclinic'
loop_
_space_group_symop_operation_xyz
x,y,z
-x,-y,-z
loop_
_atom_site_type_symbol
_atom_site_label
_atom_site_fract_x
_atom_site_fract_y
_atom_site_fract_z
Si Si1 0.365528 0.106460 0.778443
Si Si2 0.451258 0.215059 0.313436
Si Si3 0.952080 0.940772 0.711730
Si Si4 0.171453 0.448281 0.232997
Si Si5 0.252366 0.708021 0.602094
Si Si6 0.145624 0.300310 0.283795
Si Si7 0.545487 0.437611 0.228917
O O1 0.607341 0.207489 0.629152
O O2 0.487807 0.234511 0.049674
O O3 0.233209 0.068202 0.630904
O O4 0.135016 0.916953 0.799351
O O5 0.131205 0.048729 0.365956
O O6 0.672074 0.406877 0.506835
O O7 0.511498 0.174657 0.268106
O O8 0.671197 0.721569 0.640450
O O9 0.000000 0.000000 0.000000
O O10 0.125204 0.342157 0.179324
O O11 0.864349 0.289731 0.224083
O O12 0.348493 0.556064 0.020850
O O13 0.000000 0.500000 0.500000
O O14 0.397718 0.404779 0.172017
O O15 0.191106 0.367392 0.577529
#
# Coordination Sequence:
#
# PCOD8012804 Si02
#       7
#     2   2   2   2   2   2   2
#     4  10  23  43  61  92 131 157 210 261 302 374
#     4  10  22  40  63  94 123 164 204 254 315 355
#     4   9  19  37  62  92 122 159 197 256 315 351
#     4  11  23  39  66  93 122 168 210 247 310 375
#     4  10  25  40  60  93 127 168 209 249 308 370
#     4  10  22  42  65  90 123 170 202 255 317 360
#     4  10  21  40  63  93 129 157 207 256 309 375
#
# _framework density 23.893356000000001
#
# number of rings (size 3 to 8) (size 9 to 14) (size 15 to 20)
#    0.000    2.000    1.429    0.429    8.000    5.714 
#    5.143    1.429    0.000    0.000    0.000    0.000 
#    0.000    0.000    0.000    0.000    0.000    0.000 
#
# Total GULP energy -173444.236114 kJ/mol
# GULP energy per Si atom -12388.874008 kJ/mol
# Density = 2.383897 g / cm^3
# Si number density = 23.893356 Si / 1000 Ang^3
#
#
#
# Elastic Constant Matrix: (Units=GPa)
#
#
# Indices 1 2 3 4 5 6 
#
# 1 136.4501 27.8313 28.0211 -13.7764 -8.8645 38.5612
# 2 27.8313 67.1208 36.2608 -8.4876 -8.1844 18.9245
# 3 28.0211 36.2608 93.6130 -3.5392 -16.8019 26.6293
# 4 -13.7764 -8.4876 -3.5392 36.4756 12.0169 -17.7548
# 5 -8.8645 -8.1844 -16.8019 12.0169 28.6934 -6.1168
# 6 38.5612 18.9245 26.6293 -17.7548 -6.1168 41.0006
#
#
#
# Elastic Compliance Matrix: (Units=1/GPa)
#
#
# Indices 1 2 3 4 5 6 
#
# 1 0.010256 -0.001889 0.000667 -0.001798 0.001699 -0.009733
# 2 -0.001889 0.020121 -0.006492 0.002223 -0.000076 -0.002343
# 3 0.000667 -0.006492 0.017605 -0.008182 0.009711 -0.011160
# 4 -0.001798 0.002223 -0.008182 0.043099 -0.018084 0.021945
# 5 0.001699 -0.000076 0.009711 -0.018084 0.046754 -0.008726
# 6 -0.009733 -0.002343 -0.011160 0.021945 -0.008726 0.050074
#
#
# Mechanical properties :
#
#
# Convention : Reuss Voigt Hill
#
# Bulk Modulus (GPa) = 30.71678 53.49004 42.10341
# Shear Modulus (GPa) = 23.34376 34.90530 29.12453
#
# Velocity S-wave (km/s) = 3.12909 3.82629 3.49512
# Velocity P-wave (km/s) = 5.09300 6.47737 5.82644
#
# Compressibility (1/GPa) = 0.03255550
#
# Stress axis : x y z
#
# Youngs Moduli (GPa) = 97.50079 49.69863 56.80131
#
# Poissons Ratio (x) = 0.09390 -0.03791
# Poissons Ratio (y) = 0.18422 0.36873
# Poissons Ratio (z) = -0.06507 0.32262
#
# Static dielectric constant tensor:
#      x y z
#    x 5.761250 0.712060 -0.461530 
#    y 0.712060 4.379870 -0.313720 
#    z -0.461530 -0.313720 4.499830 
# 
# 
# High freq. dielectric constant tensor:
#      x y z
#    x 1.965100 0.016580 0.002940 
#    y 0.016580 1.926570 -0.011630 
#    z 0.002940 -0.011630 1.947370 
# 
# From -- ./inp_files/76752.got.cif
#   From: 2010.06.25/outbox.cif.g09.slc.cpg/sg2_39_cif.got.tgz:76752.got - 2010.06.27 13:26:56.
