data_PCOD8012214
_publ_section_title
;
Structure prediction by ZEFSAII (Michael W. Deem and Ramdas Pophale) SiO2 
 PCOD8012214
Probable space group: P -1
;
_chemical_formula_sum "Si O2"
_cell_formula_units_Z 16
_cell_length_a 20.987827
_cell_length_b 12.178265
_cell_length_c 8.775121
_cell_angle_alpha 112.072519
_cell_angle_beta 42.035676
_cell_angle_gamma 145.127056
_cell_volume 680.356665
_symmetry_space_group_name_H-M "P -1"
_symmetry_group_IT_number 2
_symmetry_cell_setting 'triclinic'
loop_
_space_group_symop_operation_xyz
x,y,z
-x,-y,-z
loop_
_atom_site_type_symbol
_atom_site_label
_atom_site_fract_x
_atom_site_fract_y
_atom_site_fract_z
Si Si1 0.212624 0.019963 0.412216
Si Si2 0.812999 0.146181 0.336321
Si Si3 0.984361 0.841257 0.445574
Si Si4 0.511268 0.986472 0.654914
Si Si5 0.576499 0.309064 0.775721
Si Si6 0.301028 0.186654 0.818052
Si Si7 0.270945 0.306030 0.659631
Si Si8 0.225107 0.510017 0.794926
O O1 0.190863 0.120282 0.591921
O O2 0.188027 0.877677 0.490842
O O3 0.040383 0.838331 0.501311
O O4 0.415597 0.230224 0.068670
O O5 0.717246 0.161285 0.447281
O O6 0.675177 0.893072 0.385817
O O7 0.038623 0.383617 0.005100
O O8 0.770862 0.559290 0.647553
O O9 0.000000 0.000000 0.500000
O O10 0.135470 0.965486 0.112676
O O11 0.335575 0.699870 0.836660
O O12 0.500000 0.000000 0.500000
O O13 0.488956 0.081676 0.845606
O O14 0.622063 0.351196 0.538070
O O15 0.252051 0.251281 0.842340
O O16 0.509675 0.431620 0.652114
O O17 0.147402 0.294711 0.868598
#
# Coordination Sequence:
#
# PCOD8012214 Si02
#       8
#     2   2   2   2   2   2   2   2
#     4  11  27  42  66 103 143 176 217 277 344 397
#     4  11  24  44  68 104 132 174 232 280 328 402
#     4  12  25  41  67 100 140 182 218 268 339 405
#     4  10  25  45  72  99 130 176 231 283 334 391
#     4  11  25  45  67  97 137 179 225 279 334 399
#     4  10  21  39  67  97 136 177 224 270 330 401
#     4  10  21  40  68 100 139 175 216 278 335 400
#     4  11  22  41  75 100 132 176 228 277 336 396
#
# _framework density 23.517078000000001
#
# number of rings (size 3 to 8) (size 9 to 14) (size 15 to 20)
#    0.000    1.250    2.500    2.250    3.500    7.000 
#    0.000    1.250    0.000    0.000    0.000    0.000 
#    0.000    0.000    0.000    0.000    0.000    0.000 
#
# Total GULP energy -198208.921468 kJ/mol
# GULP energy per Si atom -12388.057592 kJ/mol
# Density = 2.346355 g / cm^3
# Si number density = 23.517078 Si / 1000 Ang^3
#
#
#
# Elastic Constant Matrix: (Units=GPa)
#
#
# Indices 1 2 3 4 5 6 
#
# 1 128.9593 41.0134 21.5572 8.1261 -11.9492 1.6234
# 2 41.0134 135.0624 30.5266 2.5837 -16.0648 10.6114
# 3 21.5572 30.5266 54.2596 -12.6563 -2.7702 4.9819
# 4 8.1261 2.5837 -12.6563 20.3785 0.0621 -6.1184
# 5 -11.9492 -16.0648 -2.7702 0.0621 34.6763 -0.1748
# 6 1.6234 10.6114 4.9819 -6.1184 -0.1748 30.8582
#
#
#
# Elastic Compliance Matrix: (Units=1/GPa)
#
#
# Indices 1 2 3 4 5 6 
#
# 1 0.009576 -0.001496 -0.004307 -0.006480 0.002272 -0.000566
# 2 -0.001496 0.009958 -0.005737 -0.005274 0.003632 -0.003445
# 3 -0.004307 -0.005737 0.027836 0.020252 -0.001946 0.001710
# 4 -0.006480 -0.005274 0.020252 0.068658 -0.003119 0.012481
# 5 0.002272 0.003632 -0.001946 -0.003119 0.031146 -0.001496
# 6 -0.000566 -0.003445 0.001710 0.012481 -0.001496 0.035811
#
#
# Mechanical properties :
#
#
# Convention : Reuss Voigt Hill
#
# Bulk Modulus (GPa) = 41.16630 56.05287 48.60959
# Shear Modulus (GPa) = 23.34688 32.19485 27.77086
#
# Velocity S-wave (km/s) = 3.15423 3.70401 3.44012
# Velocity P-wave (km/s) = 5.55053 6.49459 6.04103
#
# Compressibility (1/GPa) = 0.02429171
#
# Stress axis : x y z
#
# Youngs Moduli (GPa) = 104.42808 100.41796 35.92477
#
# Poissons Ratio (x) = 0.15021 0.15471
# Poissons Ratio (y) = 0.15621 0.20610
# Poissons Ratio (z) = 0.44973 0.57608
#
# Static dielectric constant tensor:
#      x y z
#    x 4.501200 -0.257930 -0.060470 
#    y -0.257930 4.794590 0.022460 
#    z -0.060470 0.022460 4.034910 
# 
# 
# High freq. dielectric constant tensor:
#      x y z
#    x 1.934230 0.003490 -0.012690 
#    y 0.003490 1.932320 -0.006960 
#    z -0.012690 -0.006960 1.917720 
# 
# From -- ./inp_files/346218.got.cif
#   From: 2010.06.25/outbox.cif.g09.slc.cpg/sg2_174_cif.got.tgz:346218.got - 2010.06.27 13:26:56.
