data_PCOD8012042
_publ_section_title
;
Structure prediction by ZEFSAII (Michael W. Deem and Ramdas Pophale) SiO2 
 PCOD8012042
Probable space group: P -1
;
_chemical_formula_sum "Si O2"
_cell_formula_units_Z 16
_cell_length_a 20.444281
_cell_length_b 8.836975
_cell_length_c 5.789329
_cell_angle_alpha 129.949513
_cell_angle_beta 116.953361
_cell_angle_gamma 61.522103
_cell_volume 687.806630
_symmetry_space_group_name_H-M "P -1"
_symmetry_group_IT_number 2
_symmetry_cell_setting 'triclinic'
loop_
_space_group_symop_operation_xyz
x,y,z
-x,-y,-z
loop_
_atom_site_type_symbol
_atom_site_label
_atom_site_fract_x
_atom_site_fract_y
_atom_site_fract_z
Si Si1 0.962527 0.724264 0.255009
Si Si2 0.233376 0.745710 0.633629
Si Si3 0.333299 0.319331 0.326801
Si Si4 0.459064 0.550728 0.738293
Si Si5 0.308258 0.997310 0.320632
Si Si6 0.918650 0.087194 0.195440
Si Si7 0.830078 0.945630 0.542033
Si Si8 0.417295 0.957943 0.842660
O O1 0.880016 0.754522 0.280143
O O2 0.018752 0.785677 0.592042
O O3 0.952495 0.869600 0.159562
O O4 0.000000 0.500000 0.000000
O O5 0.258563 0.507699 0.364983
O O6 0.151183 0.773911 0.637275
O O7 0.228293 0.885638 0.538984
O O8 0.292848 0.810390 0.964429
O O9 0.403168 0.413147 0.544015
O O10 0.328530 0.183863 0.407807
O O11 0.350023 0.165844 0.986086
O O12 0.500000 0.500000 0.500000
O O13 0.419547 0.795432 0.894885
O O14 0.500000 0.500000 0.000000
O O15 0.227269 0.114515 0.428920
O O16 0.383946 0.885615 0.483519
O O17 0.891181 0.048764 0.858745
O O18 0.500000 0.000000 0.000000
#
# Coordination Sequence:
#
# PCOD8012042 Si02
#       8
#     2   2   2   2   2   2   2   2
#     4  10  21  39  66 100 138 179 228 288 349 419
#     4  10  24  45  67  97 136 187 235 295 358 431
#     4  12  26  43  72  98 138 182 235 299 361 434
#     4  12  28  48  75 104 144 188 239 298 377 446
#     4  11  25  44  70  98 140 181 238 297 363 428
#     4   9  21  40  64  96 136 178 230 286 351 422
#     4  10  21  44  68  95 140 182 232 291 354 428
#     4  12  27  47  70 104 138 182 239 300 365 441
#
# _framework density 23.262353999999998
#
# number of rings (size 3 to 8) (size 9 to 14) (size 15 to 20)
#    0.000    1.250    1.250    3.375    3.500    7.500 
#    0.000    6.250    0.000    0.000    0.000    0.000 
#    0.000    0.000    0.000    0.000    0.000    0.000 
#
# Total GULP energy -198239.071387 kJ/mol
# GULP energy per Si atom -12389.941962 kJ/mol
# Density = 2.320941 g / cm^3
# Si number density = 23.262354 Si / 1000 Ang^3
#
#
#
# Elastic Constant Matrix: (Units=GPa)
#
#
# Indices 1 2 3 4 5 6 
#
# 1 102.7926 41.4313 28.7255 10.2983 -3.7134 8.5589
# 2 41.4313 124.8119 61.8188 10.0642 -8.2792 -16.8517
# 3 28.7255 61.8188 103.3631 -8.0727 3.6460 -9.7639
# 4 10.2983 10.0642 -8.0727 51.0399 -12.1099 -4.0618
# 5 -3.7134 -8.2792 3.6460 -12.1099 41.5086 5.2596
# 6 8.5589 -16.8517 -9.7639 -4.0618 5.2596 35.6990
#
#
#
# Elastic Compliance Matrix: (Units=1/GPa)
#
#
# Indices 1 2 3 4 5 6 
#
# 1 0.012511 -0.003683 -0.002018 -0.002432 0.000568 -0.005650
# 2 -0.003683 0.013599 -0.006880 -0.002229 0.001714 0.004914
# 3 -0.002018 -0.006880 0.014912 0.003808 -0.002011 0.002044
# 4 -0.002432 -0.002229 0.003808 0.022568 0.005288 0.002361
# 5 0.000568 0.001714 -0.002011 0.005288 0.026609 -0.003196
# 6 -0.005650 0.004914 0.002044 0.002361 -0.003196 0.032985
#
#
# Mechanical properties :
#
#
# Convention : Reuss Voigt Hill
#
# Bulk Modulus (GPa) = 63.05110 66.10207 64.57658
# Shear Modulus (GPa) = 32.54518 38.91564 35.73041
#
# Velocity S-wave (km/s) = 3.74444 4.09455 3.92340
# Velocity P-wave (km/s) = 6.77183 7.12961 6.95302
#
# Compressibility (1/GPa) = 0.01586015
#
# Stress axis : x y z
#
# Youngs Moduli (GPa) = 79.92765 73.53375 67.06068
#
# Poissons Ratio (x) = 0.27079 0.13535
# Poissons Ratio (y) = 0.29434 0.46139
# Poissons Ratio (z) = 0.16132 0.50593
#
# Static dielectric constant tensor:
#      x y z
#    x 4.038530 0.398370 -0.543210 
#    y 0.398370 3.743450 0.703730 
#    z -0.543210 0.703730 2.381450 
# 
# 
# High freq. dielectric constant tensor:
#      x y z
#    x 1.941870 -0.011760 -0.002890 
#    y -0.011760 1.910010 -0.003700 
#    z -0.002890 -0.003700 1.923260 
# 
# From -- ./inp_files/117548.got.cif
#   From: 2010.06.25/outbox.cif.g09.slc.cpg/sg2_59_cif.got.tgz:117548.got - 2010.06.27 13:26:56.
