data_PCOD8012729
_publ_section_title
;
Structure prediction by ZEFSAII (Michael W. Deem and Ramdas Pophale) SiO2 
 PCOD8012729
Probable space group: P -1
;
_chemical_formula_sum "Si O2"
_cell_formula_units_Z 16
_cell_length_a 6.205077
_cell_length_b 17.599726
_cell_length_c 8.820236
_cell_angle_alpha 97.358403
_cell_angle_beta 93.598916
_cell_angle_gamma 127.968263
_cell_volume 740.667769
_symmetry_space_group_name_H-M "P -1"
_symmetry_group_IT_number 2
_symmetry_cell_setting 'triclinic'
loop_
_space_group_symop_operation_xyz
x,y,z
-x,-y,-z
loop_
_atom_site_type_symbol
_atom_site_label
_atom_site_fract_x
_atom_site_fract_y
_atom_site_fract_z
Si Si1 0.107526 0.258770 0.139243
Si Si2 0.151470 0.420314 0.352698
Si Si3 0.730516 0.557326 0.292547
Si Si4 0.840627 0.297289 0.878199
Si Si5 0.321269 0.951689 0.831993
Si Si6 0.279494 0.102483 0.693953
Si Si7 0.668820 0.978486 0.602133
Si Si8 0.288654 0.609070 0.878834
O O1 0.163525 0.332065 0.295912
O O2 0.393381 0.292864 0.089445
O O3 0.973740 0.152116 0.172298
O O4 0.913973 0.252846 0.999907
O O5 0.418083 0.518865 0.302281
O O6 0.147327 0.436045 0.535633
O O7 0.871137 0.394834 0.275217
O O8 0.718494 0.484103 0.154944
O O9 0.934628 0.661166 0.238438
O O10 0.530531 0.212434 0.783569
O O11 0.841367 0.383781 0.971282
O O12 0.490247 0.927782 0.732352
O O13 0.275134 0.022499 0.767304
O O14 0.500000 0.000000 0.000000
O O15 0.310698 0.094776 0.512404
O O16 0.979115 0.076876 0.690905
O O17 0.500000 0.000000 0.500000
#
# Coordination Sequence:
#
# PCOD8012729 Si02
#       8
#     2   2   2   2   2   2   2   2
#     4  10  23  40  57  91 123 157 203 246 292 356
#     4   9  21  41  64  86 118 155 199 248 301 361
#     4  10  21  40  63  87 118 154 195 251 305 354
#     4  11  23  37  61  90 122 156 201 244 298 358
#     4  11  22  39  63  87 124 163 198 249 299 347
#     4  10  22  41  62  89 121 164 203 243 298 360
#     4   9  22  42  61  84 122 158 203 250 296 352
#     4  10  22  39  59  88 121 153 201 245 300 362
#
# _framework density 21.602129999999999
#
# number of rings (size 3 to 8) (size 9 to 14) (size 15 to 20)
#    0.000    2.000    1.250    0.750    3.500    8.000 
#    4.500    0.000    0.000    0.000    0.000    0.000 
#    0.000    0.000    0.000    0.000    0.000    0.000 
#
# Total GULP energy -198303.439820 kJ/mol
# GULP energy per Si atom -12393.964989 kJ/mol
# Density = 2.155296 g / cm^3
# Si number density = 21.602130 Si / 1000 Ang^3
#
#
#
# Elastic Constant Matrix: (Units=GPa)
#
#
# Indices 1 2 3 4 5 6 
#
# 1 86.7933 21.7112 30.9101 -1.3643 10.9786 23.4062
# 2 21.7112 99.2862 38.6005 -2.6050 0.9402 22.1812
# 3 30.9101 38.6005 108.6911 -1.3233 -1.7614 21.6950
# 4 -1.3643 -2.6050 -1.3233 29.9774 13.5753 2.6930
# 5 10.9786 0.9402 -1.7614 13.5753 31.5429 5.9532
# 6 23.4062 22.1812 21.6950 2.6930 5.9532 29.6294
#
#
#
# Elastic Compliance Matrix: (Units=1/GPa)
#
#
# Indices 1 2 3 4 5 6 
#
# 1 0.015873 -0.000128 -0.002547 0.003982 -0.005522 -0.009831
# 2 -0.000128 0.013023 -0.003047 0.001562 0.000250 -0.007610
# 3 -0.002547 -0.003047 0.012054 -0.000713 0.002911 -0.005053
# 4 0.003982 0.001562 -0.000713 0.042637 -0.019100 -0.003831
# 5 -0.005522 0.000250 0.002911 -0.019100 0.042914 -0.004843
# 6 -0.009831 -0.007610 -0.005053 -0.003831 -0.004843 0.052234
#
#
# Mechanical properties :
#
#
# Convention : Reuss Voigt Hill
#
# Bulk Modulus (GPa) = 33.89085 53.02379 43.45732
# Shear Modulus (GPa) = 24.99822 31.79987 28.39905
#
# Velocity S-wave (km/s) = 3.40547 3.84092 3.62973
# Velocity P-wave (km/s) = 5.58442 6.65351 6.14227
#
# Compressibility (1/GPa) = 0.02950649
#
# Stress axis : x y z
#
# Youngs Moduli (GPa) = 63.00021 76.78740 82.96058
#
# Poissons Ratio (x) = 0.00979 0.21134
# Poissons Ratio (y) = 0.00803 0.25275
# Poissons Ratio (z) = 0.16049 0.23395
#
# Static dielectric constant tensor:
#      x y z
#    x 4.193990 0.555600 -0.380380 
#    y 0.555600 4.038260 -0.166750 
#    z -0.380380 -0.166750 4.369610 
# 
# 
# High freq. dielectric constant tensor:
#      x y z
#    x 1.848080 0.028460 -0.003530 
#    y 0.028460 1.827820 0.009030 
#    z -0.003530 0.009030 1.861490 
# 
# From -- ./inp_files/81644.got.cif
#   From: 2010.06.25/outbox.cif.g09.slc.cpg/sg2_41_cif.got.tgz:81644.got - 2010.06.27 13:26:56.
