data_PCOD8012237
_publ_section_title
;
Structure prediction by ZEFSAII (Michael W. Deem and Ramdas Pophale) SiO2 
 PCOD8012237
Probable space group: P -1
;
_chemical_formula_sum "Si O2"
_cell_formula_units_Z 16
_cell_length_a 14.634142
_cell_length_b 9.118796
_cell_length_c 12.019628
_cell_angle_alpha 129.854773
_cell_angle_beta 104.159544
_cell_angle_gamma 115.445087
_cell_volume 735.339253
_symmetry_space_group_name_H-M "P -1"
_symmetry_group_IT_number 2
_symmetry_cell_setting 'triclinic'
loop_
_space_group_symop_operation_xyz
x,y,z
-x,-y,-z
loop_
_atom_site_type_symbol
_atom_site_label
_atom_site_fract_x
_atom_site_fract_y
_atom_site_fract_z
Si Si1 0.358117 0.195940 0.375212
Si Si2 0.079641 0.862199 0.988332
Si Si3 0.899497 0.857025 0.069723
Si Si4 0.452544 0.212944 0.875801
Si Si5 0.856252 0.211784 0.522535
Si Si6 0.397263 0.827970 0.279711
Si Si7 0.324203 0.387499 0.677930
Si Si8 0.948942 0.796607 0.491122
O O1 0.500000 0.500000 0.500000
O O2 0.350821 0.324030 0.540180
O O3 0.381180 0.014291 0.321878
O O4 0.208787 0.953181 0.135652
O O5 0.921809 0.489832 0.750184
O O6 0.143324 0.031904 0.968916
O O7 0.040879 0.980365 0.111435
O O8 0.759960 0.496140 0.874913
O O9 0.947545 0.996355 0.272519
O O10 0.533326 0.194728 0.806879
O O11 0.266311 0.899494 0.658897
O O12 0.500000 0.500000 0.000000
O O13 0.518338 0.290162 0.058519
O O14 0.012875 0.366704 0.595702
O O15 0.768382 0.912592 0.421707
O O16 0.500000 0.000000 0.500000
O O17 0.227675 0.429480 0.649157
O O18 0.000000 0.000000 0.500000
#
# Coordination Sequence:
#
# PCOD8012237 Si02
#       8
#     2   2   2   2   2   2   2   2
#     4  12  27  44  67 100 139 180 230 292 350 406
#     4  11  25  41  65  99 143 173 229 287 343 404
#     4  11  23  43  67  95 134 185 224 284 340 413
#     4  10  21  41  67 101 135 177 227 283 335 408
#     4  10  22  39  68 101 133 176 228 276 341 402
#     4  12  24  41  72 100 133 183 238 278 346 417
#     4  10  21  42  68  96 139 176 227 283 336 415
#     4  10  21  39  68 101 131 174 228 277 341 407
#
# _framework density 21.758664
#
# number of rings (size 3 to 8) (size 9 to 14) (size 15 to 20)
#    0.000    1.250    1.250    6.000    5.250    3.500 
#    0.000    0.625    0.000    0.000    0.000    0.000 
#    0.000    0.000    0.000    0.000    0.000    0.000 
#
# Total GULP energy -198263.448148 kJ/mol
# GULP energy per Si atom -12391.465509 kJ/mol
# Density = 2.170914 g / cm^3
# Si number density = 21.758664 Si / 1000 Ang^3
#
#
#
# Elastic Constant Matrix: (Units=GPa)
#
#
# Indices 1 2 3 4 5 6 
#
# 1 148.3990 46.7548 50.3011 -19.1607 5.9374 -6.8237
# 2 46.7548 94.1334 47.5621 -21.9559 4.7481 -10.5320
# 3 50.3011 47.5621 138.0932 -30.9495 8.2928 -6.1579
# 4 -19.1607 -21.9559 -30.9495 36.3652 4.0896 2.6571
# 5 5.9374 4.7481 8.2928 4.0896 33.7367 -11.4362
# 6 -6.8237 -10.5320 -6.1579 2.6571 -11.4362 25.6470
#
#
#
# Elastic Compliance Matrix: (Units=1/GPa)
#
#
# Indices 1 2 3 4 5 6 
#
# 1 0.008462 -0.002985 -0.001719 0.001268 -0.000751 0.000147
# 2 -0.002985 0.015153 -0.002854 0.004847 -0.000066 0.004212
# 3 -0.001719 -0.002854 0.010493 0.006737 -0.003094 -0.001187
# 4 0.001268 0.004847 0.006737 0.038052 -0.008450 -0.003765
# 5 -0.000751 -0.000066 -0.003094 -0.008450 0.037151 0.016472
# 6 0.000147 0.004212 -0.001187 -0.003765 0.016472 0.048209
#
#
# Mechanical properties :
#
#
# Convention : Reuss Voigt Hill
#
# Bulk Modulus (GPa) = 52.64883 74.42906 63.53895
# Shear Modulus (GPa) = 27.93840 34.88362 31.41101
#
# Velocity S-wave (km/s) = 3.58720 4.00835 3.80361
# Velocity P-wave (km/s) = 6.43479 7.46347 6.96814
#
# Compressibility (1/GPa) = 0.01899377
#
# Stress axis : x y z
#
# Youngs Moduli (GPa) = 118.17646 65.99566 95.30122
#
# Poissons Ratio (x) = 0.19697 0.16379
# Poissons Ratio (y) = 0.35271 0.27195
# Poissons Ratio (z) = 0.20310 0.18833
#
# Static dielectric constant tensor:
#      x y z
#    x 4.398800 -0.184870 0.251270 
#    y -0.184870 3.940700 -0.341370 
#    z 0.251270 -0.341370 4.173710 
# 
# 
# High freq. dielectric constant tensor:
#      x y z
#    x 1.873460 -0.006360 0.000450 
#    y -0.006360 1.836290 -0.021140 
#    z 0.000450 -0.021140 1.869090 
# 
# From -- ./inp_files/207403.got.cif
#   From: 2010.06.25/outbox.cif.g09.slc.cpg/sg2_104_cif.got.tgz:207403.got - 2010.06.27 13:26:56.
