data_PCOD8012457
_publ_section_title
;
Structure prediction by ZEFSAII (Michael W. Deem and Ramdas Pophale) SiO2 
 PCOD8012457
Probable space group: P -1
;
_chemical_formula_sum "Si O2"
_cell_formula_units_Z 16
_cell_length_a 13.891261
_cell_length_b 14.073723
_cell_length_c 13.829500
_cell_angle_alpha 136.181454
_cell_angle_beta 30.502608
_cell_angle_gamma 146.824155
_cell_volume 750.954342
_symmetry_space_group_name_H-M "P -1"
_symmetry_group_IT_number 2
_symmetry_cell_setting 'triclinic'
loop_
_space_group_symop_operation_xyz
x,y,z
-x,-y,-z
loop_
_atom_site_type_symbol
_atom_site_label
_atom_site_fract_x
_atom_site_fract_y
_atom_site_fract_z
Si Si1 0.506435 0.163594 0.400501
Si Si2 0.034294 0.475131 0.725272
Si Si3 0.369258 0.145425 0.286395
Si Si4 0.082595 0.941224 0.744385
Si Si5 0.137731 0.665382 0.436372
Si Si6 0.320461 0.045913 0.823021
Si Si7 0.988225 0.784931 0.301694
Si Si8 0.821329 0.509725 0.099795
O O1 0.685095 0.368858 0.418946
O O2 0.450273 0.130518 0.311109
O O3 0.271473 0.090696 0.614964
O O4 0.638417 0.081120 0.254333
O O5 0.000808 0.330275 0.715252
O O6 0.895261 0.388635 0.684858
O O7 0.907851 0.549791 0.942968
O O8 0.158864 0.159939 0.484512
O O9 0.570065 0.319364 0.183332
O O10 0.261808 0.967113 0.186679
O O11 0.022727 0.763741 0.625982
O O12 0.192503 0.968288 0.774759
O O13 0.842377 0.927710 0.948308
O O14 0.420128 0.775263 0.293739
O O15 0.000000 0.500000 0.500000
O O16 0.850136 0.675465 0.242076
O O17 0.000000 0.500000 0.000000
#
# Coordination Sequence:
#
# PCOD8012457 Si02
#       8
#     2   2   2   2   2   2   2   2
#     4  11  21  40  64  92 125 169 210 265 321 377
#     4  11  23  41  60  91 125 168 214 259 327 381
#     4  11  22  41  63  91 129 170 215 268 326 376
#     4  10  22  42  65  93 126 165 211 260 324 383
#     4  11  22  42  68  94 130 164 206 267 319 381
#     4  10  22  42  65  93 126 163 214 262 320 388
#     4  10  22  40  63  90 127 171 217 267 321 383
#     4  10  21  40  59  88 127 165 214 267 312 384
#
# _framework density 21.306222000000002
#
# number of rings (size 3 to 8) (size 9 to 14) (size 15 to 20)
#    0.000    1.500    2.500    4.875    0.000    3.500 
#   11.250    0.000    0.000    0.000    0.000    0.000 
#    0.000    0.000    0.000    0.000    0.000    0.000 
#
# Total GULP energy -198283.294845 kJ/mol
# GULP energy per Si atom -12392.705928 kJ/mol
# Density = 2.125773 g / cm^3
# Si number density = 21.306222 Si / 1000 Ang^3
#
#
#
# Elastic Constant Matrix: (Units=GPa)
#
#
# Indices 1 2 3 4 5 6 
#
# 1 180.9677 76.4064 24.7288 56.6408 -25.9629 5.8551
# 2 76.4064 189.1718 45.7430 26.9119 -16.1792 17.7814
# 3 24.7288 45.7430 113.2157 -6.9205 5.5617 -0.1870
# 4 56.6408 26.9119 -6.9205 44.1423 -9.6712 -5.5504
# 5 -25.9629 -16.1792 5.5617 -9.6712 49.5477 0.3696
# 6 5.8551 17.7814 -0.1870 -5.5504 0.3696 13.7388
#
#
#
# Elastic Compliance Matrix: (Units=1/GPa)
#
#
# Indices 1 2 3 4 5 6 
#
# 1 0.012420 -0.000183 -0.003886 -0.017167 0.003624 -0.012142
# 2 -0.000183 0.008921 -0.004128 -0.007241 0.001975 -0.014502
# 3 -0.003886 -0.004128 0.012132 0.010213 -0.002837 0.011366
# 4 -0.017167 -0.007241 0.010213 0.055179 -0.002028 0.039173
# 5 0.003624 0.001975 -0.002837 -0.002028 0.022691 -0.005569
# 6 -0.012142 -0.014502 0.011366 0.039173 -0.005569 0.112861
#
#
# Mechanical properties :
#
#
# Convention : Reuss Voigt Hill
#
# Bulk Modulus (GPa) = 58.55567 86.34574 72.45071
# Shear Modulus (GPa) = 20.30131 43.91756 32.10943
#
# Velocity S-wave (km/s) = 3.09015 4.54503 3.88628
# Velocity P-wave (km/s) = 6.34623 8.25573 7.36314
#
# Compressibility (1/GPa) = 0.01707776
#
# Stress axis : x y z
#
# Youngs Moduli (GPa) = 80.51445 112.10044 82.42858
#
# Poissons Ratio (x) = 0.02055 0.32033
# Poissons Ratio (y) = 0.01476 0.34025
# Poissons Ratio (z) = 0.31290 0.46272
#
# Static dielectric constant tensor:
#      x y z
#    x 3.704300 0.215960 0.212680 
#    y 0.215960 4.283720 0.335390 
#    z 0.212680 0.335390 4.549810 
# 
# 
# High freq. dielectric constant tensor:
#      x y z
#    x 1.824730 0.006920 0.005860 
#    y 0.006920 1.854890 -0.002190 
#    z 0.005860 -0.002190 1.839390 
# 
# From -- ./inp_files/534406.got.cif
#   From: 2010.06.25/outbox.cif.g09.slc.cpg/sg2_268_cif.got.tgz:534406.got - 2010.06.27 13:26:56.
