data_PCOD8012810
_publ_section_title
;
Structure prediction by ZEFSAII (Michael W. Deem and Ramdas Pophale) SiO2 
 PCOD8012810
Probable space group: P -1
;
_chemical_formula_sum "Si O2"
_cell_formula_units_Z 14
_cell_length_a 6.644209
_cell_length_b 20.043927
_cell_length_c 7.463789
_cell_angle_alpha 63.021229
_cell_angle_beta 122.094892
_cell_angle_gamma 129.949518
_cell_volume 635.793203
_symmetry_space_group_name_H-M "P -1"
_symmetry_group_IT_number 2
_symmetry_cell_setting 'triclinic'
loop_
_space_group_symop_operation_xyz
x,y,z
-x,-y,-z
loop_
_atom_site_type_symbol
_atom_site_label
_atom_site_fract_x
_atom_site_fract_y
_atom_site_fract_z
Si Si1 0.834065 0.482697 0.263403
Si Si2 0.332764 0.816850 0.414380
Si Si3 0.183342 0.358965 0.092195
Si Si4 0.806017 0.762393 0.040933
Si Si5 0.635963 0.941758 0.095092
Si Si6 0.742603 0.921959 0.769352
Si Si7 0.215023 0.665163 0.783901
O O1 0.507891 0.413010 0.230024
O O2 0.934281 0.436392 0.225519
O O3 0.000000 0.500000 0.500000
O O4 0.902693 0.575866 0.110743
O O5 0.475169 0.851356 0.244419
O O6 0.503457 0.898733 0.534936
O O7 0.338402 0.731947 0.589816
O O8 0.004114 0.785028 0.281233
O O9 0.007598 0.319815 0.239011
O O10 0.091481 0.277405 0.016628
O O11 0.838783 0.852371 0.883284
O O12 0.476932 0.689873 0.011032
O O13 0.602483 0.918935 0.896474
O O14 0.966460 0.986607 0.243709
O O15 0.500000 0.000000 0.000000
#
# Coordination Sequence:
#
# PCOD8012810 Si02
#       7
#     2   2   2   2   2   2   2
#     4  10  21  40  63  94 125 167 214 253 312 375
#     4  11  23  41  65  93 127 168 212 257 317 376
#     4  10  22  40  65  88 134 163 204 270 302 369
#     4  10  22  41  59  94 126 162 212 260 305 376
#     4  11  23  45  66  91 129 164 210 272 311 374
#     4  10  24  44  63  94 126 165 216 257 322 372
#     4  10  23  40  60  97 127 169 212 254 320 371
#
# _framework density 22.019735000000001
#
# number of rings (size 3 to 8) (size 9 to 14) (size 15 to 20)
#    0.000    1.714    1.429    1.714    4.000    2.286 
#   10.286    0.000    0.000    0.000    0.000    0.000 
#    0.000    0.000    0.000    0.000    0.000    0.000 
#
# Total GULP energy -173528.336338 kJ/mol
# GULP energy per Si atom -12394.881167 kJ/mol
# Density = 2.196962 g / cm^3
# Si number density = 22.019735 Si / 1000 Ang^3
#
#
#
# Elastic Constant Matrix: (Units=GPa)
#
#
# Indices 1 2 3 4 5 6 
#
# 1 100.4934 35.2287 43.4458 2.4243 -20.1123 -8.5315
# 2 35.2287 85.1449 36.5128 3.2338 -6.3072 -7.7288
# 3 43.4458 36.5128 115.6510 18.3901 11.3125 11.9680
# 4 2.4243 3.2338 18.3901 40.5219 8.5678 7.5423
# 5 -20.1123 -6.3072 11.3125 8.5678 32.6918 5.5330
# 6 -8.5315 -7.7288 11.9680 7.5423 5.5330 29.4581
#
#
#
# Elastic Compliance Matrix: (Units=1/GPa)
#
#
# Indices 1 2 3 4 5 6 
#
# 1 0.016594 -0.002550 -0.006915 -0.001027 0.011525 0.005044
# 2 -0.002550 0.015372 -0.004554 -0.000382 0.002257 0.004818
# 3 -0.006915 -0.004554 0.014656 -0.002842 -0.008297 -0.006866
# 4 -0.001027 -0.000382 -0.002842 0.028375 -0.006256 -0.005333
# 5 0.011525 0.002257 -0.008297 -0.006256 0.042468 0.000926
# 6 0.005044 0.004818 -0.006866 -0.005333 0.000926 0.040652
#
#
# Mechanical properties :
#
#
# Convention : Reuss Voigt Hill
#
# Bulk Modulus (GPa) = 53.80821 59.07376 56.44099
# Shear Modulus (GPa) = 25.99451 32.94117 29.46784
#
# Velocity S-wave (km/s) = 3.43958 3.87199 3.66217
# Velocity P-wave (km/s) = 6.34537 6.84658 6.60073
#
# Compressibility (1/GPa) = 0.01858452
#
# Stress axis : x y z
#
# Youngs Moduli (GPa) = 60.26415 65.05499 68.23147
#
# Poissons Ratio (x) = 0.16588 0.47179
# Poissons Ratio (y) = 0.15366 0.31072
# Poissons Ratio (z) = 0.41670 0.29626
#
# Static dielectric constant tensor:
#      x y z
#    x 4.026600 0.190090 0.223990 
#    y 0.190090 4.413720 0.346810 
#    z 0.223990 0.346810 4.041450 
# 
# 
# High freq. dielectric constant tensor:
#      x y z
#    x 1.860820 0.004450 0.012600 
#    y 0.004450 1.877220 0.016090 
#    z 0.012600 0.016090 1.855880 
# 
# From -- ./inp_files/10890.got.cif
#   From: 2010.06.25/outbox.cif.g09.slc.cpg/sg2_6_cif.got.tgz:10890.got - 2010.06.27 13:26:56.
