data_PCOD8012663
_publ_section_title
;
Structure prediction by ZEFSAII (Michael W. Deem and Ramdas Pophale) SiO2 
 PCOD8012663
Probable space group: P -1
;
_chemical_formula_sum "Si O2"
_cell_formula_units_Z 16
_cell_length_a 8.099650
_cell_length_b 14.077417
_cell_length_c 8.378642
_cell_angle_alpha 67.366430
_cell_angle_beta 88.757919
_cell_angle_gamma 68.014542
_cell_volume 809.246624
_symmetry_space_group_name_H-M "P -1"
_symmetry_group_IT_number 2
_symmetry_cell_setting 'triclinic'
loop_
_space_group_symop_operation_xyz
x,y,z
-x,-y,-z
loop_
_atom_site_type_symbol
_atom_site_label
_atom_site_fract_x
_atom_site_fract_y
_atom_site_fract_z
Si Si1 0.677904 0.842411 0.672277
Si Si2 0.047922 0.096077 0.867509
Si Si3 0.234771 0.709026 0.433608
Si Si4 0.722177 0.019708 0.352411
Si Si5 0.426072 0.326314 0.379787
Si Si6 0.230076 0.759788 0.742175
Si Si7 0.116564 0.543982 0.356465
Si Si8 0.957380 0.736753 0.994572
O O1 0.490011 0.914665 0.714334
O O2 0.648557 0.771861 0.568636
O O3 0.762942 0.928861 0.553353
O O4 0.810068 0.752601 0.851455
O O5 0.861998 0.187219 0.746168
O O6 0.120993 0.151782 0.968856
O O7 0.202126 0.048504 0.765035
O O8 0.000000 0.000000 0.000000
O O9 0.444915 0.691650 0.455558
O O10 0.142168 0.737506 0.593645
O O11 0.218588 0.599412 0.432085
O O12 0.812214 0.107302 0.334504
O O13 0.552768 0.314352 0.226781
O O14 0.262241 0.445311 0.315533
O O15 0.148329 0.721796 0.920413
O O16 0.987056 0.629511 0.173515
O O17 0.000000 0.500000 0.500000
#
# Coordination Sequence:
#
# PCOD8012663 Si02
#       8
#     2   2   2   2   2   2   2   2
#     4  10  23  40  62  95 125 161 207 243 302 360
#     4  11  22  35  61  92 127 160 200 245 306 362
#     4   9  22  42  63  90 116 163 207 247 296 372
#     4  10  21  40  62  91 130 166 197 245 299 364
#     4   9  22  42  66  85 119 162 209 248 303 355
#     4   9  20  40  64  92 113 164 207 245 294 356
#     4  11  25  44  63  92 121 158 200 259 322 353
#     4  11  24  39  61  92 124 156 208 257 297 367
#
# _framework density 19.771474999999999
#
# number of rings (size 3 to 8) (size 9 to 14) (size 15 to 20)
#    0.750    1.250    1.250    1.125    7.000    2.500 
#    2.250    1.250    0.000    0.000    0.000    0.000 
#    0.000    0.000    0.000    0.000    0.000    0.000 
#
# Total GULP energy -198319.083818 kJ/mol
# GULP energy per Si atom -12394.942739 kJ/mol
# Density = 1.972647 g / cm^3
# Si number density = 19.771475 Si / 1000 Ang^3
#
#
#
# Elastic Constant Matrix: (Units=GPa)
#
#
# Indices 1 2 3 4 5 6 
#
# 1 81.6795 44.6124 52.4353 -10.4097 3.5811 6.5174
# 2 44.6124 126.3486 36.3385 -6.5974 0.1807 -0.2754
# 3 52.4353 36.3385 105.0807 -11.1614 -8.1501 6.7786
# 4 -10.4097 -6.5974 -11.1614 29.5777 3.7715 -2.7765
# 5 3.5811 0.1807 -8.1501 3.7715 27.1933 2.7715
# 6 6.5174 -0.2754 6.7786 -2.7765 2.7715 25.9386
#
#
#
# Elastic Compliance Matrix: (Units=1/GPa)
#
#
# Indices 1 2 3 4 5 6 
#
# 1 0.021549 -0.004823 -0.009012 0.003650 -0.005799 -0.002100
# 2 -0.004823 0.009954 -0.001111 0.000252 0.000035 0.001631
# 3 -0.009012 -0.001111 0.015128 0.001350 0.005762 -0.002172
# 4 0.003650 0.000252 0.001350 0.036665 -0.005493 0.003244
# 5 -0.005799 0.000035 0.005762 -0.005493 0.040532 -0.004967
# 6 -0.002100 0.001631 -0.002172 0.003244 -0.004967 0.040543
#
#
# Mechanical properties :
#
#
# Convention : Reuss Voigt Hill
#
# Bulk Modulus (GPa) = 59.73940 64.43123 62.08532
# Shear Modulus (GPa) = 25.01950 28.52341 26.77145
#
# Velocity S-wave (km/s) = 3.56115 3.80235 3.68373
# Velocity P-wave (km/s) = 6.86947 7.20665 7.04008
#
# Compressibility (1/GPa) = 0.01673937
#
# Stress axis : x y z
#
# Youngs Moduli (GPa) = 46.40480 100.46447 66.10112
#
# Poissons Ratio (x) = 0.48451 0.59571
# Poissons Ratio (y) = 0.22380 0.07346
# Poissons Ratio (z) = 0.41820 0.11166
#
# Static dielectric constant tensor:
#      x y z
#    x 3.422170 0.048240 0.029950 
#    y 0.048240 3.837120 0.036000 
#    z 0.029950 0.036000 3.315590 
# 
# 
# High freq. dielectric constant tensor:
#      x y z
#    x 1.763460 0.000220 -0.000330 
#    y 0.000220 1.787960 0.001210 
#    z -0.000330 0.001210 1.749210 
# 
# From -- ./inp_files/200244.got.cif
#   From: 2010.06.25/outbox.cif.g09.slc.cpg/sg2_101_cif.got.tgz:200244.got - 2010.06.27 13:26:56.
