data_PCOD8012283
_publ_section_title
;
Structure prediction by ZEFSAII (Michael W. Deem and Ramdas Pophale) SiO2 
 PCOD8012283
Probable space group: P -1
;
_chemical_formula_sum "Si O2"
_cell_formula_units_Z 16
_cell_length_a 5.652866
_cell_length_b 15.624528
_cell_length_c 15.420155
_cell_angle_alpha 135.090945
_cell_angle_beta 106.137589
_cell_angle_gamma 101.095072
_cell_volume 756.304894
_symmetry_space_group_name_H-M "P -1"
_symmetry_group_IT_number 2
_symmetry_cell_setting 'triclinic'
loop_
_space_group_symop_operation_xyz
x,y,z
-x,-y,-z
loop_
_atom_site_type_symbol
_atom_site_label
_atom_site_fract_x
_atom_site_fract_y
_atom_site_fract_z
Si Si1 0.796029 0.969436 0.826900
Si Si2 0.260442 0.708671 0.356049
Si Si3 0.925942 0.973335 0.653411
Si Si4 0.846519 0.587360 0.564196
Si Si5 0.871896 0.229800 0.436260
Si Si6 0.158287 0.873430 0.894432
Si Si7 0.267375 0.519190 0.093300
Si Si8 0.846911 0.732774 0.202922
O O1 0.440965 0.840697 0.696779
O O2 0.944680 0.891217 0.823683
O O3 0.919603 0.033594 0.790429
O O4 0.887993 0.109736 0.996722
O O5 0.094381 0.674082 0.407019
O O6 0.249361 0.562271 0.222036
O O7 0.120651 0.748665 0.293282
O O8 0.595225 0.850656 0.500302
O O9 0.079511 0.109092 0.700538
O O10 0.118679 0.905335 0.626412
O O11 0.500000 0.500000 0.500000
O O12 0.000000 0.500000 0.500000
O O13 0.863512 0.664326 0.529101
O O14 0.062625 0.708588 0.746499
O O15 0.500000 0.000000 0.000000
O O16 0.573119 0.660579 0.188994
O O17 0.246693 0.368353 0.967183
O O18 0.000000 0.500000 0.000000
#
# Coordination Sequence:
#
# PCOD8012283 Si02
#       8
#     2   2   2   2   2   2   2   2
#     4  10  21  39  68  95 129 172 226 286 334 410
#     4  10  22  38  66  92 130 174 216 278 339 400
#     4  11  22  38  66  94 134 163 232 277 331 404
#     4  12  27  46  71 104 141 181 231 291 359 423
#     4  11  23  42  64  97 133 176 221 286 339 412
#     4  11  21  42  74  92 128 177 231 275 353 408
#     4   9  20  40  61  84 127 170 216 266 337 403
#     4  10  21  40  63  97 125 176 219 277 334 399
#
# _framework density 21.15549
#
# number of rings (size 3 to 8) (size 9 to 14) (size 15 to 20)
#    0.000    1.500    2.500    1.875    3.500    6.000 
#    2.250    2.500    0.000    0.000    0.000    0.000 
#    0.000    0.000    0.000    0.000    0.000    0.000 
#
# Total GULP energy -198304.128426 kJ/mol
# GULP energy per Si atom -12394.008027 kJ/mol
# Density = 2.110734 g / cm^3
# Si number density = 21.155490 Si / 1000 Ang^3
#
#
#
# Elastic Constant Matrix: (Units=GPa)
#
#
# Indices 1 2 3 4 5 6 
#
# 1 126.8838 32.0557 63.0106 -0.3846 -2.4197 -1.4859
# 2 32.0557 63.1663 42.7258 -7.1136 -4.1996 -1.4112
# 3 63.0106 42.7258 155.5537 -12.3683 -27.1692 8.8008
# 4 -0.3846 -7.1136 -12.3683 23.3605 -2.0155 1.6374
# 5 -2.4197 -4.1996 -27.1692 -2.0155 42.9235 0.3562
# 6 -1.4859 -1.4112 8.8008 1.6374 0.3562 22.7374
#
#
#
# Elastic Compliance Matrix: (Units=1/GPa)
#
#
# Indices 1 2 3 4 5 6 
#
# 1 0.010815 -0.002995 -0.004449 -0.003499 -0.002685 0.002537
# 2 -0.002995 0.020812 -0.004505 0.003649 -0.000834 0.002590
# 3 -0.004449 -0.004505 0.011418 0.005576 0.006843 -0.005499
# 4 -0.003499 0.003649 0.005576 0.047728 0.005977 -0.005691
# 5 -0.002685 -0.000834 0.006843 0.005977 0.027707 -0.003740
# 6 0.002537 0.002590 -0.005499 -0.005691 -0.003740 0.046904
#
#
# Mechanical properties :
#
#
# Convention : Reuss Voigt Hill
#
# Bulk Modulus (GPa) = 52.22924 69.02091 60.62507
# Shear Modulus (GPa) = 25.55395 31.65840 28.60618
#
# Velocity S-wave (km/s) = 3.47927 3.87261 3.68120
# Velocity P-wave (km/s) = 6.39393 7.25896 6.84013
#
# Compressibility (1/GPa) = 0.01914636
#
# Stress axis : x y z
#
# Youngs Moduli (GPa) = 92.46293 48.04944 87.58179
#
# Poissons Ratio (x) = 0.14391 0.38964
# Poissons Ratio (y) = 0.27693 0.39458
# Poissons Ratio (z) = 0.41136 0.21648
#
# Static dielectric constant tensor:
#      x y z
#    x 4.259340 0.246980 -0.468790 
#    y 0.246980 3.606700 -0.282920 
#    z -0.468790 -0.282920 4.516520 
# 
# 
# High freq. dielectric constant tensor:
#      x y z
#    x 1.850880 0.003370 -0.010870 
#    y 0.003370 1.788350 -0.013790 
#    z -0.010870 -0.013790 1.849330 
# 
# From -- ./inp_files/89918.got.cif
#   From: 2010.06.25/outbox.cif.g09.slc.cpg/sg2_45_cif.got.tgz:89918.got - 2010.06.27 13:26:56.
