data_PCOD8012466
_publ_section_title
;
Structure prediction by ZEFSAII (Michael W. Deem and Ramdas Pophale) SiO2 
 PCOD8012466
Probable space group: P -1
;
_chemical_formula_sum "Si O2"
_cell_formula_units_Z 16
_cell_length_a 13.435972
_cell_length_b 11.380761
_cell_length_c 16.409094
_cell_angle_alpha 128.211252
_cell_angle_beta 25.007651
_cell_angle_gamma 127.503724
_cell_volume 824.603070
_symmetry_space_group_name_H-M "P -1"
_symmetry_group_IT_number 2
_symmetry_cell_setting 'triclinic'
loop_
_space_group_symop_operation_xyz
x,y,z
-x,-y,-z
loop_
_atom_site_type_symbol
_atom_site_label
_atom_site_fract_x
_atom_site_fract_y
_atom_site_fract_z
Si Si1 0.710591 0.306942 0.792304
Si Si2 0.811413 0.647383 0.816315
Si Si3 0.772326 0.194030 0.528871
Si Si4 0.015094 0.145666 0.609803
Si Si5 0.936961 0.888402 0.263654
Si Si6 0.426254 0.320971 0.473454
Si Si7 0.745160 0.818346 0.093893
Si Si8 0.837708 0.133463 0.078440
O O1 0.804249 0.471009 0.758354
O O2 0.770756 0.192656 0.627969
O O3 0.842558 0.261684 0.755643
O O4 0.430562 0.299799 0.015976
O O5 0.015389 0.691885 0.618259
O O6 0.866203 0.722620 0.896190
O O7 0.523634 0.249387 0.709865
O O8 0.792562 0.026575 0.410920
O O9 0.924811 0.085822 0.740889
O O10 0.279960 0.247079 0.469452
O O11 0.000000 0.000000 0.500000
O O12 0.742846 0.735223 0.347449
O O13 0.134954 0.882717 0.045706
O O14 0.500000 0.500000 0.500000
O O15 0.675283 0.259921 0.269687
O O16 0.721943 0.980966 0.142501
O O17 0.898854 0.819075 0.061220
#
# Coordination Sequence:
#
# PCOD8012466 Si02
#       8
#     2   2   2   2   2   2   2   2
#     4  10  21  40  59  92 128 158 210 260 321 378
#     4  10  22  37  64  89 125 162 201 272 318 370
#     4  11  19  39  61  95 124 159 212 259 322 375
#     4  10  21  42  67  90 124 172 212 256 310 383
#     4  10  22  38  64  90 124 165 211 263 302 384
#     4  10  24  43  63  89 132 168 206 269 318 365
#     4  10  22  35  63  90 120 162 209 257 318 379
#     4  11  22  41  60  90 125 163 211 263 314 377
#
# _framework density 19.403274
#
# number of rings (size 3 to 8) (size 9 to 14) (size 15 to 20)
#    0.750    1.000    3.750    0.375    3.500    2.000 
#    2.250    1.250    0.000    0.000    0.000    0.000 
#    0.000    0.000    0.000    0.000    0.000    0.000 
#
# Total GULP energy -198271.351112 kJ/mol
# GULP energy per Si atom -12391.959445 kJ/mol
# Density = 1.935911 g / cm^3
# Si number density = 19.403274 Si / 1000 Ang^3
#
#
#
# Elastic Constant Matrix: (Units=GPa)
#
#
# Indices 1 2 3 4 5 6 
#
# 1 94.3447 35.5177 45.1316 -14.4082 -4.9989 -3.0376
# 2 35.5177 83.2935 36.1967 6.1769 -15.5662 9.7281
# 3 45.1316 36.1967 111.4154 -8.8407 -5.7430 -11.8080
# 4 -14.4082 6.1769 -8.8407 22.0016 2.6270 -0.9052
# 5 -4.9989 -15.5662 -5.7430 2.6270 15.4168 0.8796
# 6 -3.0376 9.7281 -11.8080 -0.9052 0.8796 25.3531
#
#
#
# Elastic Compliance Matrix: (Units=1/GPa)
#
#
# Indices 1 2 3 4 5 6 
#
# 1 0.017245 -0.009126 -0.002767 0.013821 -0.007296 0.005026
# 2 -0.009126 0.027461 -0.007246 -0.020447 0.026503 -0.016655
# 3 -0.002767 -0.007246 0.013714 0.006682 -0.004771 0.009240
# 4 0.013821 -0.020447 0.006682 0.066680 -0.025944 0.015895
# 5 -0.007296 0.026503 -0.004771 -0.025944 0.092896 -0.017414
# 6 0.005026 -0.016655 0.009240 0.015895 -0.017414 0.051911
#
#
# Mechanical properties :
#
#
# Convention : Reuss Voigt Hill
#
# Bulk Modulus (GPa) = 49.65142 58.08285 53.86714
# Shear Modulus (GPa) = 15.87811 24.03479 19.95645
#
# Velocity S-wave (km/s) = 2.86373 3.52333 3.21052
# Velocity P-wave (km/s) = 6.04809 6.82286 6.44712
#
# Compressibility (1/GPa) = 0.02014041
#
# Stress axis : x y z
#
# Youngs Moduli (GPa) = 57.98767 36.41563 72.91779
#
# Poissons Ratio (x) = 0.33235 0.20178
# Poissons Ratio (y) = 0.52922 0.52836
# Poissons Ratio (z) = 0.16047 0.26387
#
# Static dielectric constant tensor:
#      x y z
#    x 3.520500 0.095600 -0.054000 
#    y 0.095600 3.529000 0.007810 
#    z -0.054000 0.007810 3.414870 
# 
# 
# High freq. dielectric constant tensor:
#      x y z
#    x 1.743620 0.003120 -0.004980 
#    y 0.003120 1.754440 0.003800 
#    z -0.004980 0.003800 1.752940 
# 
# From -- ./inp_files/573443.got.cif
#   From: 2010.06.25/outbox.cif.g09.slc.cpg/sg2_287_cif.got.tgz:573443.got - 2010.06.27 13:26:56.
