data_PCOD8012082
_publ_section_title
;
Structure prediction by ZEFSAII (Michael W. Deem and Ramdas Pophale) SiO2 
 PCOD8012082
Probable space group: P -1
;
_chemical_formula_sum "Si O2"
_cell_formula_units_Z 16
_cell_length_a 5.401208
_cell_length_b 9.304773
_cell_length_c 13.765539
_cell_angle_alpha 68.527573
_cell_angle_beta 90.985558
_cell_angle_gamma 102.469297
_cell_volume 627.155313
_symmetry_space_group_name_H-M "P -1"
_symmetry_group_IT_number 2
_symmetry_cell_setting 'triclinic'
loop_
_space_group_symop_operation_xyz
x,y,z
-x,-y,-z
loop_
_atom_site_type_symbol
_atom_site_label
_atom_site_fract_x
_atom_site_fract_y
_atom_site_fract_z
Si Si1 0.183552 0.138918 0.410617
Si Si2 0.470882 0.140462 0.230557
Si Si3 0.926825 0.398609 0.659767
Si Si4 0.972523 0.826134 0.083385
Si Si5 0.250587 0.363485 0.050921
Si Si6 0.508921 0.163918 0.797797
Si Si7 0.736984 0.636814 0.484979
Si Si8 0.949212 0.385001 0.224643
O O1 0.346452 0.067144 0.350217
O O2 0.343881 0.231666 0.479517
O O3 0.059500 0.257442 0.317475
O O4 0.000000 0.000000 0.500000
O O5 0.291402 0.197146 0.136426
O O6 0.661298 0.304446 0.219158
O O7 0.588542 0.006402 0.213037
O O8 0.633227 0.295855 0.684839
O O9 0.942904 0.564352 0.564565
O O10 0.114634 0.301307 0.630541
O O11 0.031537 0.449565 0.757208
O O12 0.732066 0.792290 0.164104
O O13 0.244817 0.829015 0.133526
O O14 0.908934 0.688897 0.035343
O O15 0.000000 0.000000 0.000000
O O16 0.085443 0.434334 0.110522
O O17 0.500000 0.500000 0.000000
O O18 0.500000 0.500000 0.500000
#
# Coordination Sequence:
#
# PCOD8012082 Si02
#       8
#     2   2   2   2   2   2   2   2
#     4  10  22  40  63  94 129 167 216 269 335 396
#     4  11  24  41  65  95 129 173 217 275 329 395
#     4  10  23  41  63 100 128 177 221 273 336 396
#     4  12  26  47  68  98 136 177 224 281 334 393
#     4  11  25  42  66  94 130 176 221 272 332 394
#     4  12  27  43  72  99 136 177 227 276 333 398
#     4  10  21  39  66  92 136 170 218 275 330 399
#     4  10  23  42  63  92 134 166 220 274 330 396
#
# _framework density 25.512022000000002
#
# number of rings (size 3 to 8) (size 9 to 14) (size 15 to 20)
#    0.000    1.250    1.250    3.375    7.000    2.000 
#    0.000    0.000    0.000    0.000    0.000    0.000 
#    0.000    0.000    0.000    0.000    0.000    0.000 
#
# Total GULP energy -198266.225054 kJ/mol
# GULP energy per Si atom -12391.639066 kJ/mol
# Density = 2.545396 g / cm^3
# Si number density = 25.512022 Si / 1000 Ang^3
#
#
#
# Elastic Constant Matrix: (Units=GPa)
#
#
# Indices 1 2 3 4 5 6 
#
# 1 44.7790 -4.5740 24.0242 15.3968 -18.7366 7.3598
# 2 -4.5740 115.4723 36.4966 27.3093 -3.4479 9.7009
# 3 24.0242 36.4966 150.4489 19.3207 -39.3380 -3.1881
# 4 15.3968 27.3093 19.3207 49.1778 5.5310 -9.7959
# 5 -18.7366 -3.4479 -39.3380 5.5310 32.7324 -0.3321
# 6 7.3598 9.7009 -3.1881 -9.7959 -0.3321 39.9737
#
#
#
# Elastic Compliance Matrix: (Units=1/GPa)
#
#
# Indices 1 2 3 4 5 6 
#
# 1 0.054300 0.012105 0.003195 -0.033772 0.041695 -0.020610
# 2 0.012105 0.013846 -0.001373 -0.013739 0.008967 -0.008991
# 3 0.003195 -0.001373 0.011799 -0.006964 0.017032 -0.000879
# 4 -0.033772 -0.013739 -0.006964 0.049623 -0.037322 0.020847
# 5 0.041695 0.008967 0.017032 -0.037322 0.081965 -0.016960
# 6 -0.020610 -0.008991 -0.000879 0.020847 -0.016960 0.035891
#
#
# Mechanical properties :
#
#
# Convention : Reuss Voigt Hill
#
# Bulk Modulus (GPa) = 9.27667 46.95488 28.11578
# Shear Modulus (GPa) = 19.56922 41.36035 30.46479
#
# Velocity S-wave (km/s) = 2.77259 4.03079 3.45937
# Velocity P-wave (km/s) = 3.72743 6.33309 5.19624
#
# Compressibility (1/GPa) = 0.10779732
#
# Stress axis : x y z
#
# Youngs Moduli (GPa) = 18.41625 72.22394 84.75527
#
# Poissons Ratio (x) = -0.87425 -0.27080
# Poissons Ratio (y) = -0.22292 0.11639
# Poissons Ratio (z) = -0.05884 0.09918
#
# Static dielectric constant tensor:
#      x y z
#    x 4.240980 0.093610 -0.042770 
#    y 0.093610 4.732010 0.267430 
#    z -0.042770 0.267430 5.910230 
# 
# 
# High freq. dielectric constant tensor:
#      x y z
#    x 2.002100 0.001410 0.002460 
#    y 0.001410 2.028970 0.005250 
#    z 0.002460 0.005250 2.050240 
# 
# From -- ./inp_files/90047.got.cif
#   From: 2010.06.25/outbox.cif.g09.slc.cpg/sg2_46_cif.got.tgz:90047.got - 2010.06.27 13:26:56.
