data_PCOD8012655
_publ_section_title
;
Structure prediction by ZEFSAII (Michael W. Deem and Ramdas Pophale) SiO2 
 PCOD8012655
Probable space group: P -1
;
_chemical_formula_sum "Si O2"
_cell_formula_units_Z 16
_cell_length_a 17.581785
_cell_length_b 11.112104
_cell_length_c 8.911591
_cell_angle_alpha 51.666950
_cell_angle_beta 100.537000
_cell_angle_gamma 57.924371
_cell_volume 737.452153
_symmetry_space_group_name_H-M "P -1"
_symmetry_group_IT_number 2
_symmetry_cell_setting 'triclinic'
loop_
_space_group_symop_operation_xyz
x,y,z
-x,-y,-z
loop_
_atom_site_type_symbol
_atom_site_label
_atom_site_fract_x
_atom_site_fract_y
_atom_site_fract_z
Si Si1 0.103271 0.273322 0.016293
Si Si2 0.505862 0.817852 0.087352
Si Si3 0.221089 0.679350 0.258447
Si Si4 0.414123 0.194829 0.173665
Si Si5 0.977306 0.784129 0.708720
Si Si6 0.279206 0.150370 0.971223
Si Si7 0.951403 0.326328 0.702514
Si Si8 0.187628 0.697508 0.907981
O O1 0.071850 0.494410 0.896673
O O2 0.244160 0.057506 0.130801
O O3 0.970686 0.426815 0.756144
O O4 0.129619 0.111358 0.287578
O O5 0.649116 0.500004 0.444947
O O6 0.502467 0.830102 0.893625
O O7 0.500000 0.000000 0.000000
O O8 0.370156 0.956056 0.004530
O O9 0.153258 0.631126 0.314692
O O10 0.277302 0.568149 0.193537
O O11 0.106225 0.004551 0.970523
O O12 0.500000 0.000000 0.500000
O O13 0.366198 0.125052 0.121250
O O14 0.281039 0.509900 0.941227
O O15 0.075510 0.746991 0.855133
O O16 0.889967 0.012457 0.370971
O O17 0.124637 0.472607 0.623870
#
# Coordination Sequence:
#
# PCOD8012655 Si02
#       8
#     2   2   2   2   2   2   2   2
#     4  11  22  41  60 100 135 176 204 265 333 396
#     4  10  21  40  62  90 130 166 220 271 309 383
#     4  11  22  38  66  99 127 163 224 272 316 373
#     4  11  23  37  66  94 124 172 221 267 319 376
#     4  10  23  36  62  96 134 164 209 261 330 384
#     4  11  22  41  62  94 131 171 220 258 320 395
#     4  11  23  36  67  95 132 166 214 270 320 381
#     4  11  21  38  64  93 128 164 213 270 315 373
#
# _framework density 21.696321999999999
#
# number of rings (size 3 to 8) (size 9 to 14) (size 15 to 20)
#    0.000    1.250    5.000    2.625    3.500    0.000 
#    0.000    0.625    0.000    3.000    0.000    0.000 
#    0.000    0.000    0.000    0.000    0.000    0.000 
#
# Total GULP energy -198316.642390 kJ/mol
# GULP energy per Si atom -12394.790149 kJ/mol
# Density = 2.164694 g / cm^3
# Si number density = 21.696322 Si / 1000 Ang^3
#
#
#
# Elastic Constant Matrix: (Units=GPa)
#
#
# Indices 1 2 3 4 5 6 
#
# 1 104.4279 44.6560 31.8425 0.9824 -18.3992 -28.0231
# 2 44.6560 80.7279 35.6868 15.6276 -15.3685 -36.0286
# 3 31.8425 35.6868 118.1364 12.0733 -2.4552 -8.7123
# 4 0.9824 15.6276 12.0733 37.1303 -4.1057 0.8291
# 5 -18.3992 -15.3685 -2.4552 -4.1057 23.7055 3.9603
# 6 -28.0231 -36.0286 -8.7123 0.8291 3.9603 46.8824
#
#
#
# Elastic Compliance Matrix: (Units=1/GPa)
#
#
# Indices 1 2 3 4 5 6 
#
# 1 0.014704 -0.003978 -0.002557 0.002937 0.008325 0.004502
# 2 -0.003978 0.028698 -0.005073 -0.009585 0.010320 0.018031
# 3 -0.002557 -0.005073 0.010538 -0.001590 -0.003938 -0.003108
# 4 0.002937 -0.009585 -0.001590 0.031835 0.002531 -0.006683
# 5 0.008325 0.010320 -0.003938 0.002531 0.054104 0.007560
# 6 0.004502 0.018031 -0.003108 -0.006683 0.007560 0.036780
#
#
# Mechanical properties :
#
#
# Convention : Reuss Voigt Hill
#
# Bulk Modulus (GPa) = 32.54780 58.62917 45.58849
# Shear Modulus (GPa) = 23.79658 34.28409 29.04033
#
# Velocity S-wave (km/s) = 3.31539 3.97946 3.66251
# Velocity P-wave (km/s) = 5.44884 6.94234 6.24043
#
# Compressibility (1/GPa) = 0.03072404
#
# Stress axis : x y z
#
# Youngs Moduli (GPa) = 68.00919 34.84597 94.89619
#
# Poissons Ratio (x) = 0.13862 0.24262
# Poissons Ratio (y) = 0.27054 0.48141
# Poissons Ratio (z) = 0.17388 0.17677
#
# Static dielectric constant tensor:
#      x y z
#    x 4.040370 -0.481050 -0.132650 
#    y -0.481050 4.265050 0.117250 
#    z -0.132650 0.117250 3.909460 
# 
# 
# High freq. dielectric constant tensor:
#      x y z
#    x 1.836350 -0.021140 -0.015340 
#    y -0.021140 1.853770 0.014650 
#    z -0.015340 0.014650 1.843690 
# 
# From -- ./inp_files/332900.got.cif
#   From: 2010.06.25/outbox.cif.g09.slc.cpg/sg2_167_cif.got.tgz:332900.got - 2010.06.27 13:26:56.
