data_PCOD8012685
_publ_section_title
;
Structure prediction by ZEFSAII (Michael W. Deem and Ramdas Pophale) SiO2 
 PCOD8012685
Probable space group: P -1
;
_chemical_formula_sum "Si O2"
_cell_formula_units_Z 16
_cell_length_a 13.482757
_cell_length_b 19.794777
_cell_length_c 9.385704
_cell_angle_alpha 51.008467
_cell_angle_beta 53.193891
_cell_angle_gamma 22.985100
_cell_volume 758.631656
_symmetry_space_group_name_H-M "P -1"
_symmetry_group_IT_number 2
_symmetry_cell_setting 'triclinic'
loop_
_space_group_symop_operation_xyz
x,y,z
-x,-y,-z
loop_
_atom_site_type_symbol
_atom_site_label
_atom_site_fract_x
_atom_site_fract_y
_atom_site_fract_z
Si Si1 0.504214 0.135411 0.265274
Si Si2 0.390019 0.492237 0.509310
Si Si3 0.819037 0.824011 0.602708
Si Si4 0.701665 0.021379 0.660589
Si Si5 0.707112 0.429652 0.833128
Si Si6 0.727431 0.623670 0.599888
Si Si7 0.167497 0.035483 0.048361
Si Si8 0.095249 0.907724 0.392077
O O1 0.283156 0.204267 0.325921
O O2 0.379145 0.285434 0.273661
O O3 0.741553 0.944439 0.393716
O O4 0.599248 0.117089 0.059098
O O5 0.500000 0.500000 0.500000
O O6 0.358348 0.546403 0.305645
O O7 0.599442 0.287797 0.607117
O O8 0.120542 0.624911 0.623706
O O9 0.692744 0.928973 0.725379
O O10 0.449704 0.230566 0.566938
O O11 0.741059 0.996116 0.828881
O O12 0.937157 0.915815 0.499306
O O13 0.721067 0.523218 0.733297
O O14 0.500000 0.500000 0.000000
O O15 0.983435 0.223742 0.905059
O O16 0.000000 0.500000 0.500000
O O17 0.030422 0.024324 0.180582
O O18 0.000000 0.000000 0.500000
#
# Coordination Sequence:
#
# PCOD8012685 Si02
#       8
#     2   2   2   2   2   2   2   2
#     4  10  23  43  68  97 131 174 226 283 331 396
#     4  12  23  41  68  99 130 181 228 269 332 413
#     4  10  21  42  67  94 130 178 227 268 339 412
#     4  10  21  42  67  94 135 180 217 270 349 410
#     4  12  25  43  66 101 137 171 228 286 332 399
#     4  11  25  47  72  94 133 188 228 270 348 417
#     4  11  23  41  66 101 133 172 225 283 339 387
#     4  10  21  40  62  93 137 176 212 264 344 406
#
# _framework density 21.090603000000002
#
# number of rings (size 3 to 8) (size 9 to 14) (size 15 to 20)
#    0.000    1.250    2.500    4.500    3.500    1.500 
#    0.000    3.750    0.000    0.000    0.000    0.000 
#    0.000    0.000    0.000    0.000    0.000    0.000 
#
# Total GULP energy -198300.682640 kJ/mol
# GULP energy per Si atom -12393.792665 kJ/mol
# Density = 2.104260 g / cm^3
# Si number density = 21.090603 Si / 1000 Ang^3
#
#
#
# Elastic Constant Matrix: (Units=GPa)
#
#
# Indices 1 2 3 4 5 6 
#
# 1 135.9181 54.8202 59.2941 -0.4350 13.0269 7.3084
# 2 54.8202 143.8124 46.5344 -3.2147 -3.5367 -3.3630
# 3 59.2941 46.5344 105.9573 8.8222 9.8226 13.9098
# 4 -0.4350 -3.2147 8.8222 35.2585 2.1668 1.4452
# 5 13.0269 -3.5367 9.8226 2.1668 31.9418 3.5034
# 6 7.3084 -3.3630 13.9098 1.4452 3.5034 36.7108
#
#
#
# Elastic Compliance Matrix: (Units=1/GPa)
#
#
# Indices 1 2 3 4 5 6 
#
# 1 0.010794 -0.002686 -0.004607 0.001261 -0.003327 -0.000382
# 2 -0.002686 0.009158 -0.003182 0.001336 0.002749 0.002264
# 3 -0.004607 -0.003182 0.014515 -0.003659 -0.002193 -0.004521
# 4 0.001261 0.001336 -0.003659 0.029484 -0.001265 0.000218
# 5 -0.003327 0.002749 -0.002193 -0.001265 0.033886 -0.001439
# 6 -0.000382 0.002264 -0.004521 0.000218 -0.001439 0.029365
#
#
# Mechanical properties :
#
#
# Convention : Reuss Voigt Hill
#
# Bulk Modulus (GPa) = 73.98872 78.55392 76.27132
# Shear Modulus (GPa) = 32.75318 35.78482 34.26900
#
# Velocity S-wave (km/s) = 3.94506 4.12359 4.03531
# Velocity P-wave (km/s) = 7.47722 7.74589 7.61274
#
# Compressibility (1/GPa) = 0.01351557
#
# Stress axis : x y z
#
# Youngs Moduli (GPa) = 92.64295 109.19960 68.89573
#
# Poissons Ratio (x) = 0.29336 0.31741
# Poissons Ratio (y) = 0.24888 0.21922
# Poissons Ratio (z) = 0.42682 0.34746
#
# Static dielectric constant tensor:
#      x y z
#    x 5.283020 -0.183330 -0.839670 
#    y -0.183330 4.025650 0.193870 
#    z -0.839670 0.193870 4.359290 
# 
# 
# High freq. dielectric constant tensor:
#      x y z
#    x 1.842000 0.005000 0.005570 
#    y 0.005000 1.839790 0.004980 
#    z 0.005570 0.004980 1.809010 
# 
# From -- ./inp_files/319245.got.cif
#   From: 2010.06.25/outbox.cif.g09.slc.cpg/sg2_160_cif.got.tgz:319245.got - 2010.06.27 13:26:56.
