data_PCOD8012031
_publ_section_title
;
Structure prediction by ZEFSAII (Michael W. Deem and Ramdas Pophale) SiO2 
 PCOD8012031
Probable space group: P -1
;
_chemical_formula_sum "Si O2"
_cell_formula_units_Z 16
_cell_length_a 8.969463
_cell_length_b 15.175582
_cell_length_c 15.458677
_cell_angle_alpha 27.313250
_cell_angle_beta 128.693941
_cell_angle_gamma 131.301700
_cell_volume 720.748202
_symmetry_space_group_name_H-M "P -1"
_symmetry_group_IT_number 2
_symmetry_cell_setting 'triclinic'
loop_
_space_group_symop_operation_xyz
x,y,z
-x,-y,-z
loop_
_atom_site_type_symbol
_atom_site_label
_atom_site_fract_x
_atom_site_fract_y
_atom_site_fract_z
Si Si1 0.396662 0.088743 0.460457
Si Si2 0.032359 0.306564 0.915090
Si Si3 0.606447 0.566962 0.348750
Si Si4 0.600775 0.100154 0.193176
Si Si5 0.645814 0.007939 0.965909
Si Si6 0.432094 0.464977 0.824526
Si Si7 0.198445 0.407580 0.428545
Si Si8 0.968734 0.040991 0.289175
O O1 0.464657 0.330440 0.265730
O O2 0.157509 0.012055 0.433746
O O3 0.500000 0.000000 0.500000
O O4 0.461442 0.011553 0.641299
O O5 0.849976 0.182922 0.897369
O O6 0.996271 0.524408 0.726052
O O7 0.239020 0.331449 0.920658
O O8 0.043080 0.204471 0.099169
O O9 0.626367 0.466523 0.351249
O O10 0.371932 0.512328 0.333123
O O11 0.728122 0.506110 0.524066
O O12 0.701094 0.802320 0.161295
O O13 0.829777 0.115852 0.240182
O O14 0.461697 0.963355 0.187790
O O15 0.580653 0.326020 0.991470
O O16 0.500000 0.000000 0.000000
O O17 0.151327 0.168919 0.615586
#
# Coordination Sequence:
#
# PCOD8012031 Si02
#       8
#     2   2   2   2   2   2   2   2
#     4  12  28  50  70  95 140 186 233 287 335 401
#     4  12  24  40  68 103 139 184 215 278 345 412
#     4  10  21  39  65  98 141 173 219 284 334 408
#     4  11  25  45  73 102 134 181 230 289 334 402
#     4  11  19  42  69 104 143 174 222 278 346 408
#     4  11  27  45  65 103 138 180 228 279 349 405
#     4  11  22  39  69 102 133 179 225 277 340 402
#     4  12  25  45  72 102 135 181 237 274 337 404
#
# _framework density 22.199155000000001
#
# number of rings (size 3 to 8) (size 9 to 14) (size 15 to 20)
#    0.000    0.750    3.750    3.375    3.500    6.000 
#    2.250    0.000    0.000    0.000    0.000    0.000 
#    0.000    0.000    0.000    0.000    0.000    0.000 
#
# Total GULP energy -198448.002866 kJ/mol
# GULP energy per Si atom -12403.000179 kJ/mol
# Density = 2.214863 g / cm^3
# Si number density = 22.199155 Si / 1000 Ang^3
#
#
#
# Elastic Constant Matrix: (Units=GPa)
#
#
# Indices 1 2 3 4 5 6 
#
# 1 130.5054 48.3460 47.8459 -2.5688 -5.2757 -10.4630
# 2 48.3460 102.0014 33.5453 -0.6195 2.3097 -7.0834
# 3 47.8459 33.5453 99.5710 7.9530 -1.8775 -12.8222
# 4 -2.5688 -0.6195 7.9530 33.3803 -11.2939 -2.7137
# 5 -5.2757 2.3097 -1.8775 -11.2939 39.7693 3.4834
# 6 -10.4630 -7.0834 -12.8222 -2.7137 3.4834 33.3290
#
#
#
# Elastic Compliance Matrix: (Units=1/GPa)
#
#
# Indices 1 2 3 4 5 6 
#
# 1 0.010696 -0.003746 -0.003901 0.002465 0.002061 0.001046
# 2 -0.003746 0.012426 -0.002327 0.000093 -0.001365 0.000720
# 3 -0.003901 -0.002327 0.013390 -0.003630 -0.001066 0.003248
# 4 0.002465 0.000093 -0.003630 0.034434 0.009826 0.001174
# 5 0.002061 -0.001365 -0.001066 0.009826 0.028433 -0.002225
# 6 0.001046 0.000720 0.003248 0.001174 -0.002225 0.032063
#
#
# Mechanical properties :
#
#
# Convention : Reuss Voigt Hill
#
# Bulk Modulus (GPa) = 60.37084 65.72804 63.04944
# Shear Modulus (GPa) = 31.86539 34.78509 33.32524
#
# Velocity S-wave (km/s) = 3.79282 3.96277 3.87873
# Velocity P-wave (km/s) = 6.81431 7.11412 6.96583
#
# Compressibility (1/GPa) = 0.01656429
#
# Stress axis : x y z
#
# Youngs Moduli (GPa) = 93.49237 80.47724 74.68470
#
# Poissons Ratio (x) = 0.30145 0.29135
# Poissons Ratio (y) = 0.35020 0.17378
# Poissons Ratio (z) = 0.36472 0.18726
#
# Static dielectric constant tensor:
#      x y z
#    x 3.927840 -0.145320 0.035900 
#    y -0.145320 4.175010 0.088980 
#    z 0.035900 0.088980 4.071130 
# 
# 
# High freq. dielectric constant tensor:
#      x y z
#    x 1.867900 -0.008140 -0.002970 
#    y -0.008140 1.869080 -0.000990 
#    z -0.002970 -0.000990 1.888060 
# 
# From -- ./inp_files/499994.got.cif
#   From: 2010.06.25/outbox.cif.g09.slc.cpg/sg2_250_cif.got.tgz:499994.got - 2010.06.27 13:26:56.
