data_PCOD8012789
_publ_section_title
;
Structure prediction by ZEFSAII (Michael W. Deem and Ramdas Pophale) SiO2 
 PCOD8012789
Probable space group: P -1
;
_chemical_formula_sum "Si O2"
_cell_formula_units_Z 16
_cell_length_a 9.118750
_cell_length_b 18.473870
_cell_length_c 6.454059
_cell_angle_alpha 111.910444
_cell_angle_beta 66.094739
_cell_angle_gamma 70.338230
_cell_volume 754.501898
_symmetry_space_group_name_H-M "P -1"
_symmetry_group_IT_number 2
_symmetry_cell_setting 'triclinic'
loop_
_space_group_symop_operation_xyz
x,y,z
-x,-y,-z
loop_
_atom_site_type_symbol
_atom_site_label
_atom_site_fract_x
_atom_site_fract_y
_atom_site_fract_z
Si Si1 0.426041 0.099638 0.044213
Si Si2 0.483468 0.607591 0.188952
Si Si3 0.789528 0.048955 0.572312
Si Si4 0.150872 0.124860 0.869492
Si Si5 0.174379 0.810420 0.551967
Si Si6 0.942395 0.755630 0.339577
Si Si7 0.869282 0.462580 0.069718
Si Si8 0.634778 0.492238 0.599900
O O1 0.273870 0.186299 0.373991
O O2 0.613050 0.104256 0.900890
O O3 0.321083 0.111532 0.899880
O O4 0.500000 0.000000 0.000000
O O5 0.384327 0.718232 0.407350
O O6 0.674523 0.538151 0.138347
O O7 0.324565 0.586900 0.336717
O O8 0.527673 0.590369 0.897962
O O9 0.771667 0.119438 0.484215
O O10 0.761171 0.971031 0.412558
O O11 0.000000 0.000000 0.500000
O O12 0.074884 0.214511 0.858039
O O13 0.969944 0.141419 0.121161
O O14 0.080567 0.780191 0.399941
O O15 0.034847 0.643776 0.183248
O O16 0.831564 0.466277 0.344514
O O17 0.000000 0.500000 0.000000
O O18 0.500000 0.500000 0.500000
#
# Coordination Sequence:
#
# PCOD8012789 Si02
#       8
#     2   2   2   2   2   2   2   2
#     4  11  24  44  68  96 133 176 218 263 327 396
#     4  10  21  40  63  92 127 166 213 271 319 377
#     4  12  23  44  65 100 135 168 217 278 318 388
#     4  11  23  44  68  94 136 176 212 265 338 387
#     4  11  23  39  67  99 127 168 225 269 328 381
#     4  11  23  43  67  91 132 178 215 266 331 392
#     4  11  25  42  61  95 133 171 222 265 322 391
#     4   9  18  37  64  84 119 159 207 260 320 369
#
# _framework density 21.206043999999999
#
# number of rings (size 3 to 8) (size 9 to 14) (size 15 to 20)
#    0.000    1.250    2.500    4.500    0.000    4.500 
#    2.250    0.000    0.000    0.000    0.000    0.000 
#    0.000    0.000    0.000    0.000    0.000    0.000 
#
# Total GULP energy -198348.590120 kJ/mol
# GULP energy per Si atom -12396.786883 kJ/mol
# Density = 2.115778 g / cm^3
# Si number density = 21.206044 Si / 1000 Ang^3
#
#
#
# Elastic Constant Matrix: (Units=GPa)
#
#
# Indices 1 2 3 4 5 6 
#
# 1 69.6748 45.5551 35.8069 -11.1645 -19.2748 2.3574
# 2 45.5551 127.8461 43.7724 2.6831 -19.3927 -6.5936
# 3 35.8069 43.7724 123.4819 -18.0929 -29.6317 1.4809
# 4 -11.1645 2.6831 -18.0929 39.6462 -0.3741 -5.6398
# 5 -19.2748 -19.3927 -29.6317 -0.3741 38.2351 -4.9653
# 6 2.3574 -6.5936 1.4809 -5.6398 -4.9653 35.3286
#
#
#
# Elastic Compliance Matrix: (Units=1/GPa)
#
#
# Indices 1 2 3 4 5 6 
#
# 1 0.022277 -0.006524 -0.001700 0.005891 0.006561 -0.000770
# 2 -0.006524 0.011289 -0.002442 -0.003393 0.000799 0.002215
# 3 -0.001700 -0.002442 0.012010 0.005387 0.007401 0.001054
# 4 0.005891 -0.003393 0.005387 0.030265 0.006300 0.004465
# 5 0.006561 0.000799 0.007401 0.006300 0.036381 0.005520
# 6 -0.000770 0.002215 0.001054 0.004465 0.005520 0.030215
#
#
# Mechanical properties :
#
#
# Convention : Reuss Voigt Hill
#
# Bulk Modulus (GPa) = 41.24815 63.47463 52.36139
# Shear Modulus (GPa) = 29.09514 35.69988 32.39751
#
# Velocity S-wave (km/s) = 3.70810 4.10747 3.91288
# Velocity P-wave (km/s) = 6.15034 7.24516 6.72008
#
# Compressibility (1/GPa) = 0.02424351
#
# Stress axis : x y z
#
# Youngs Moduli (GPa) = 44.89006 88.57939 83.26485
#
# Poissons Ratio (x) = 0.57787 0.14158
# Poissons Ratio (y) = 0.29285 0.20334
# Poissons Ratio (z) = 0.07633 0.21632
#
# Static dielectric constant tensor:
#      x y z
#    x 3.634280 -0.089750 -0.180030 
#    y -0.089750 3.986340 -0.125550 
#    z -0.180030 -0.125550 4.332580 
# 
# 
# High freq. dielectric constant tensor:
#      x y z
#    x 1.810740 -0.008700 -0.012380 
#    y -0.008700 1.838200 -0.008670 
#    z -0.012380 -0.008670 1.848250 
# 
# From -- ./inp_files/48564.got.cif
#   From: 2010.06.25/outbox.cif.g09.slc.cpg/sg2_25_cif.got.tgz:48564.got - 2010.06.27 13:26:56.
