data_PCOD8012027
_publ_section_title
;
Structure prediction by ZEFSAII (Michael W. Deem and Ramdas Pophale) SiO2 
 PCOD8012027
Probable space group: P -1
;
_chemical_formula_sum "Si O2"
_cell_formula_units_Z 14
_cell_length_a 19.357449
_cell_length_b 11.192966
_cell_length_c 6.521728
_cell_angle_alpha 124.526559
_cell_angle_beta 112.095662
_cell_angle_gamma 32.730834
_cell_volume 613.176788
_symmetry_space_group_name_H-M "P -1"
_symmetry_group_IT_number 2
_symmetry_cell_setting 'triclinic'
loop_
_space_group_symop_operation_xyz
x,y,z
-x,-y,-z
loop_
_atom_site_type_symbol
_atom_site_label
_atom_site_fract_x
_atom_site_fract_y
_atom_site_fract_z
Si Si1 0.449190 0.996176 0.247566
Si Si2 0.588120 0.674232 0.728134
Si Si3 0.618578 0.213921 0.437973
Si Si4 0.784080 0.823808 0.887235
Si Si5 0.837661 0.179702 0.326950
Si Si6 0.814854 0.008485 0.779374
Si Si7 0.027957 0.735677 0.415581
O O1 0.384835 0.212156 0.226913
O O2 0.337615 0.060994 0.247594
O O3 0.500000 0.000000 0.500000
O O4 0.568436 0.721761 0.998306
O O5 0.453787 0.822525 0.624287
O O6 0.714844 0.371271 0.534346
O O7 0.500000 0.500000 0.500000
O O8 0.681165 0.187469 0.681808
O O9 0.733569 0.003724 0.194695
O O10 0.850601 0.817773 0.783824
O O11 0.887353 0.541642 0.813941
O O12 0.882822 0.271588 0.423581
O O13 0.951744 0.900394 0.283353
O O14 0.791767 0.188040 0.066886
O O15 0.935454 0.844225 0.606191
#
# Coordination Sequence:
#
# PCOD8012027 Si02
#       7
#     2   2   2   2   2   2   2
#     4  10  21  39  65  98 129 169 220 275 336 400
#     4  10  21  41  65  95 130 172 217 275 342 388
#     4  11  25  44  68 102 137 178 221 283 352 402
#     4  11  24  44  68 101 138 175 226 288 337 403
#     4  11  25  46  71  97 139 183 228 285 332 407
#     4  12  25  43  70 100 136 184 230 275 337 414
#     4  11  25  47  66 100 136 185 231 279 340 392
#
# _framework density 22.831916
#
# number of rings (size 3 to 8) (size 9 to 14) (size 15 to 20)
#    0.000    1.143    1.429    4.286    0.000    9.143 
#    5.143    0.000    0.000    0.000    0.000    0.000 
#    0.000    0.000    0.000    0.000    0.000    0.000 
#
# Total GULP energy -173625.392493 kJ/mol
# GULP energy per Si atom -12401.813750 kJ/mol
# Density = 2.277995 g / cm^3
# Si number density = 22.831916 Si / 1000 Ang^3
#
#
#
# Elastic Constant Matrix: (Units=GPa)
#
#
# Indices 1 2 3 4 5 6 
#
# 1 116.0332 29.4966 52.2374 -3.8498 -5.0785 -4.6933
# 2 29.4966 105.4238 68.4088 14.8206 8.1943 1.7022
# 3 52.2374 68.4088 157.4075 3.7081 22.6943 -20.4752
# 4 -3.8498 14.8206 3.7081 41.4894 -11.5047 8.6095
# 5 -5.0785 8.1943 22.6943 -11.5047 35.8638 1.1417
# 6 -4.6933 1.7022 -20.4752 8.6095 1.1417 36.6583
#
#
#
# Elastic Compliance Matrix: (Units=1/GPa)
#
#
# Indices 1 2 3 4 5 6 
#
# 1 0.011240 -0.001281 -0.004408 0.003998 0.006023 -0.002090
# 2 -0.001281 0.014511 -0.006049 -0.004376 -0.000973 -0.003158
# 3 -0.004408 -0.006049 0.012818 -0.003463 -0.008718 0.007961
# 4 0.003998 -0.004376 -0.003463 0.032257 0.014400 -0.009244
# 5 0.006023 -0.000973 -0.008718 0.014400 0.039370 -0.008661
# 6 -0.002090 -0.003158 0.007961 -0.009244 -0.008661 0.034045
#
#
# Mechanical properties :
#
#
# Convention : Reuss Voigt Hill
#
# Bulk Modulus (GPa) = 66.25080 75.46112 70.85596
# Shear Modulus (GPa) = 28.94389 38.05040 33.49715
#
# Velocity S-wave (km/s) = 3.56433 4.08676 3.83445
# Velocity P-wave (km/s) = 6.78373 7.44253 7.12076
#
# Compressibility (1/GPa) = 0.01509416
#
# Stress axis : x y z
#
# Youngs Moduli (GPa) = 88.96858 68.91483 78.01271
#
# Poissons Ratio (x) = 0.08829 0.34385
# Poissons Ratio (y) = 0.11399 0.47187
# Poissons Ratio (z) = 0.39214 0.41684
#
# Static dielectric constant tensor:
#      x y z
#    x 4.675240 -0.109800 0.163290 
#    y -0.109800 3.858900 0.129210 
#    z 0.163290 0.129210 4.134820 
# 
# 
# High freq. dielectric constant tensor:
#      x y z
#    x 1.930410 -0.005400 0.011760 
#    y -0.005400 1.881280 0.009860 
#    z 0.011760 0.009860 1.902380 
# 
# From -- ./inp_files/75397.got.cif
#   From: 2010.06.25/outbox.cif.g09.slc.cpg/sg2_38_cif.got.tgz:75397.got - 2010.06.27 13:26:56.
