data_PCOD8012484
_publ_section_title
;
Structure prediction by ZEFSAII (Michael W. Deem and Ramdas Pophale) SiO2 
 PCOD8012484
Probable space group: P -1
;
_chemical_formula_sum "Si O2"
_cell_formula_units_Z 16
_cell_length_a 13.540410
_cell_length_b 14.237618
_cell_length_c 7.628497
_cell_angle_alpha 113.386040
_cell_angle_beta 60.560085
_cell_angle_gamma 66.155792
_cell_volume 777.799049
_symmetry_space_group_name_H-M "P -1"
_symmetry_group_IT_number 2
_symmetry_cell_setting 'triclinic'
loop_
_space_group_symop_operation_xyz
x,y,z
-x,-y,-z
loop_
_atom_site_type_symbol
_atom_site_label
_atom_site_fract_x
_atom_site_fract_y
_atom_site_fract_z
Si Si1 0.097760 0.077856 0.592205
Si Si2 0.750643 0.281905 0.178376
Si Si3 0.513700 0.734385 0.292883
Si Si4 0.439074 0.515414 0.849203
Si Si5 0.559170 0.069684 0.212519
Si Si6 0.540971 0.090908 0.841316
Si Si7 0.882667 0.968732 0.844340
Si Si8 0.773709 0.191383 0.528164
O O1 0.037630 0.125419 0.479097
O O2 0.254054 0.049838 0.475618
O O3 0.158938 0.918604 0.445628
O O4 0.936921 0.210999 0.959111
O O5 0.647970 0.375345 0.521013
O O6 0.645103 0.394242 0.190047
O O7 0.770329 0.146612 0.044947
O O8 0.624227 0.556906 0.098789
O O9 0.557364 0.786396 0.444875
O O10 0.549580 0.760919 0.090181
O O11 0.310188 0.835559 0.551759
O O12 0.384982 0.628130 0.138306
O O13 0.534156 0.967179 0.191745
O O14 0.507009 0.137490 0.110482
O O15 0.755897 0.963822 0.012387
O O16 0.053783 0.869439 0.744707
#
# Coordination Sequence:
#
# PCOD8012484 Si02
#       8
#     2   2   2   2   2   2   2   2
#     4   9  16  33  56  81 109 146 185 240 267 316
#     4  10  18  30  54  84 113 148 188 218 278 342
#     4  11  22  35  56  85 118 144 184 230 279 337
#     4  11  20  31  50  85 120 154 174 216 283 349
#     4  10  20  38  59  89 100 150 188 243 275 316
#     4   9  21  37  62  83 109 139 197 239 280 312
#     4  10  16  33  56  80 114 141 189 234 270 322
#     4  10  19  32  50  81 116 149 175 220 283 333
#
# _framework density 20.570864
#
# number of rings (size 3 to 8) (size 9 to 14) (size 15 to 20)
#    0.000    2.000    3.750    1.500    0.000    0.500 
#    2.250    0.000    0.000    1.500    6.500    0.000 
#    0.000    0.000    0.000    0.000    0.000    0.000 
#
# Total GULP energy -198224.118013 kJ/mol
# GULP energy per Si atom -12389.007376 kJ/mol
# Density = 2.052404 g / cm^3
# Si number density = 20.570864 Si / 1000 Ang^3
#
#
#
# Elastic Constant Matrix: (Units=GPa)
#
#
# Indices 1 2 3 4 5 6 
#
# 1 98.4859 27.8451 37.0053 -1.9194 1.3878 21.4523
# 2 27.8451 98.8563 43.2338 -5.7205 4.6364 10.4504
# 3 37.0053 43.2338 90.8473 -0.3874 4.0790 0.9115
# 4 -1.9194 -5.7205 -0.3874 30.0854 -5.2537 1.2310
# 5 1.3878 4.6364 4.0790 -5.2537 33.9508 -10.3899
# 6 21.4523 10.4504 0.9115 1.2310 -10.3899 25.6424
#
#
#
# Elastic Compliance Matrix: (Units=1/GPa)
#
#
# Indices 1 2 3 4 5 6 
#
# 1 0.015707 0.000033 -0.006070 0.000781 -0.004300 -0.014718
# 2 0.000033 0.013892 -0.006421 0.002343 -0.002820 -0.006716
# 3 -0.006070 -0.006421 0.016394 -0.001488 0.001282 0.007703
# 4 0.000781 0.002343 -0.001488 0.034604 0.004791 -0.001276
# 5 -0.004300 -0.002820 0.001282 0.004791 0.036496 0.019259
# 6 -0.014718 -0.006716 0.007703 -0.001276 0.019259 0.061639
#
#
# Mechanical properties :
#
#
# Convention : Reuss Voigt Hill
#
# Bulk Modulus (GPa) = 47.44115 56.03975 51.74045
# Shear Modulus (GPa) = 23.73348 29.94272 26.83810
#
# Velocity S-wave (km/s) = 3.40036 3.81936 3.61593
# Velocity P-wave (km/s) = 6.20717 6.83750 6.52995
#
# Compressibility (1/GPa) = 0.02107875
#
# Stress axis : x y z
#
# Youngs Moduli (GPa) = 63.66739 71.98251 60.99714
#
# Poissons Ratio (x) = -0.00238 0.37022
# Poissons Ratio (y) = -0.00211 0.39165
# Poissons Ratio (z) = 0.38643 0.46218
#
# Static dielectric constant tensor:
#      x y z
#    x 3.744470 -0.130760 -0.100990 
#    y -0.130760 4.008440 -0.163810 
#    z -0.100990 -0.163810 3.814810 
# 
# 
# High freq. dielectric constant tensor:
#      x y z
#    x 1.793330 -0.020000 0.005990 
#    y -0.020000 1.814870 -0.022790 
#    z 0.005990 -0.022790 1.783980 
# 
# From -- ./inp_files/311074.got.cif
#   From: 2010.06.25/outbox.cif.g09.slc.cpg/sg2_156_cif.got.tgz:311074.got - 2010.06.27 13:26:56.
