data_PCOD8012917
_publ_section_title
;
Structure prediction by ZEFSAII (Michael W. Deem and Ramdas Pophale) SiO2 
 PCOD8012917
Probable space group: P -1
;
_chemical_formula_sum "Si O2"
_cell_formula_units_Z 14
_cell_length_a 7.507529
_cell_length_b 21.218162
_cell_length_c 5.066902
_cell_angle_alpha 61.835628
_cell_angle_beta 119.959300
_cell_angle_gamma 112.368812
_cell_volume 605.301530
_symmetry_space_group_name_H-M "P -1"
_symmetry_group_IT_number 2
_symmetry_cell_setting 'triclinic'
loop_
_space_group_symop_operation_xyz
x,y,z
-x,-y,-z
loop_
_atom_site_type_symbol
_atom_site_label
_atom_site_fract_x
_atom_site_fract_y
_atom_site_fract_z
Si Si1 0.905850 0.828064 0.496747
Si Si2 0.148768 0.567379 0.110640
Si Si3 0.206009 0.726631 0.766999
Si Si4 0.486112 0.727864 0.466459
Si Si5 0.235001 0.950990 0.678701
Si Si6 0.605922 0.431421 0.206949
Si Si7 0.709553 0.954625 0.980124
O O1 0.709272 0.778446 0.596912
O O2 0.036726 0.779020 0.524159
O O3 0.065435 0.876192 0.724626
O O4 0.807307 0.883613 0.128484
O O5 0.194785 0.549936 0.483179
O O6 0.072177 0.644925 0.885886
O O7 0.351264 0.579856 0.047104
O O8 0.000000 0.500000 0.000000
O O9 0.317814 0.734415 0.552843
O O10 0.384949 0.749025 0.076925
O O11 0.529843 0.645075 0.641910
O O12 0.464031 0.930427 0.912640
O O13 0.229031 0.987824 0.318098
O O14 0.184747 0.005862 0.756816
O O15 0.500000 0.500000 0.000000
#
# Coordination Sequence:
#
# PCOD8012917 Si02
#       7
#     2   2   2   2   2   2   2
#     4  12  24  42  72  94 130 176 218 258 330 390
#     4  10  21  40  64  91 126 167 216 272 325 383
#     4  10  25  44  61  96 135 168 215 272 325 381
#     4  10  25  44  61  96 135 168 215 272 325 381
#     4  10  23  42  65  95 128 165 213 266 318 380
#     4  10  21  40  64  91 126 167 216 272 325 383
#     4  10  23  42  65  95 128 165 213 266 318 380
#
# _framework density 23.128972000000001
#
# number of rings (size 3 to 8) (size 9 to 14) (size 15 to 20)
#    0.000    1.714    0.000    2.571    2.000    9.143 
#    0.000    0.000    0.000    0.000    0.000    0.000 
#    0.000    0.000    0.000    0.000    0.000    0.000 
#
# Total GULP energy -173506.677793 kJ/mol
# GULP energy per Si atom -12393.334128 kJ/mol
# Density = 2.307633 g / cm^3
# Si number density = 23.128972 Si / 1000 Ang^3
#
#
#
# Elastic Constant Matrix: (Units=GPa)
#
#
# Indices 1 2 3 4 5 6 
#
# 1 71.6147 54.7879 24.3348 -3.9162 10.5515 -8.1513
# 2 54.7879 171.2744 50.5411 -5.1036 28.5108 6.9439
# 3 24.3348 50.5411 77.9183 5.8292 4.8528 -12.1135
# 4 -3.9162 -5.1036 5.8292 31.4670 -18.8526 13.3557
# 5 10.5515 28.5108 4.8528 -18.8526 34.1105 0.2406
# 6 -8.1513 6.9439 -12.1135 13.3557 0.2406 50.2720
#
#
#
# Elastic Compliance Matrix: (Units=1/GPa)
#
#
# Indices 1 2 3 4 5 6 
#
# 1 0.019465 -0.005658 -0.001706 -0.000581 -0.001397 0.003688
# 2 -0.005658 0.010319 -0.005014 -0.000512 -0.006420 -0.003384
# 3 -0.001706 -0.005014 0.018723 -0.009697 -0.003357 0.007520
# 4 -0.000581 -0.000512 -0.009697 0.064326 0.037678 -0.019630
# 5 -0.001397 -0.006420 -0.003357 0.037678 0.056491 -0.010429
# 6 0.003688 -0.003384 0.007520 -0.019630 -0.010429 0.028034
#
#
# Mechanical properties :
#
#
# Convention : Reuss Voigt Hill
#
# Bulk Modulus (GPa) = 42.10205 64.45945 53.28075
# Shear Modulus (GPa) = 21.73640 35.91281 28.82460
#
# Velocity S-wave (km/s) = 3.06893 3.94473 3.53406
# Velocity P-wave (km/s) = 5.54981 6.97696 6.30390
#
# Compressibility (1/GPa) = 0.02375181
#
# Stress axis : x y z
#
# Youngs Moduli (GPa) = 51.37360 96.91169 53.41134
#
# Poissons Ratio (x) = 0.54828 0.09110
# Poissons Ratio (y) = 0.29065 0.26781
# Poissons Ratio (z) = 0.08763 0.48593
#
# Static dielectric constant tensor:
#      x y z
#    x 4.131670 -0.081010 -0.095920 
#    y -0.081010 4.542700 -0.122680 
#    z -0.095920 -0.122680 4.269070 
# 
# 
# High freq. dielectric constant tensor:
#      x y z
#    x 1.905770 -0.004720 0.000570 
#    y -0.004720 1.933840 -0.006590 
#    z 0.000570 -0.006590 1.908790 
# 
# From -- ./inp_files/52627.got.cif
#   From: 2010.06.25/outbox.cif.g09.slc.cpg/sg2_27_cif.got.tgz:52627.got - 2010.06.27 13:26:56.
