data_PCOD8012294
_publ_section_title
;
Structure prediction by ZEFSAII (Michael W. Deem and Ramdas Pophale) SiO2 
 PCOD8012294
Probable space group: P -1
;
_chemical_formula_sum "Si O2"
_cell_formula_units_Z 16
_cell_length_a 11.231227
_cell_length_b 8.890038
_cell_length_c 14.977552
_cell_angle_alpha 36.429949
_cell_angle_beta 68.116347
_cell_angle_gamma 54.869246
_cell_volume 713.633428
_symmetry_space_group_name_H-M "P -1"
_symmetry_group_IT_number 2
_symmetry_cell_setting 'triclinic'
loop_
_space_group_symop_operation_xyz
x,y,z
-x,-y,-z
loop_
_atom_site_type_symbol
_atom_site_label
_atom_site_fract_x
_atom_site_fract_y
_atom_site_fract_z
Si Si1 0.786225 0.120029 0.730231
Si Si2 0.494447 0.622738 0.542250
Si Si3 0.608094 0.707641 0.757935
Si Si4 0.637750 0.355767 0.250124
Si Si5 0.294713 0.339493 0.057235
Si Si6 0.010770 0.170326 0.042126
Si Si7 0.045871 0.216782 0.560891
Si Si8 0.057352 0.598721 0.235493
O O1 0.663509 0.460776 0.609150
O O2 0.931241 0.095780 0.654490
O O3 0.706022 0.962543 0.778941
O O4 0.834468 0.948801 0.892701
O O5 0.500000 0.500000 0.500000
O O6 0.397401 0.566497 0.671528
O O7 0.432070 0.961739 0.398047
O O8 0.491259 0.668220 0.752590
O O9 0.615954 0.626355 0.900151
O O10 0.770358 0.498441 0.772833
O O11 0.789902 0.049784 0.338895
O O12 0.637850 0.629958 0.069948
O O13 0.124752 0.592056 0.977120
O O14 0.982141 0.895304 0.173263
O O15 0.024189 0.313373 0.878805
O O16 0.036256 0.340163 0.404599
O O17 0.000000 0.500000 0.500000
#
# Coordination Sequence:
#
# PCOD8012294 Si02
#       8
#     2   2   2   2   2   2   2   2
#     4  12  24  44  70  94 148 183 223 291 357 407
#     4  12  26  48  67 105 145 189 231 291 352 419
#     4  11  23  45  73 101 140 183 236 299 344 417
#     4  12  25  43  76 102 139 189 245 280 353 423
#     4  11  24  45  67 103 142 184 234 291 353 418
#     4  10  21  39  68  97 137 178 221 292 348 408
#     4  12  23  41  71 109 135 183 240 291 347 426
#     4  10  21  41  66 104 135 174 239 284 347 412
#
# _framework density 22.420475
#
# number of rings (size 3 to 8) (size 9 to 14) (size 15 to 20)
#    0.000    0.750    5.000    2.625    0.000    0.500 
#    2.250    5.625    0.000    0.000    0.000    0.000 
#    0.000    0.000    0.000    0.000    0.000    0.000 
#
# Total GULP energy -198258.251905 kJ/mol
# GULP energy per Si atom -12391.140744 kJ/mol
# Density = 2.236945 g / cm^3
# Si number density = 22.420475 Si / 1000 Ang^3
#
#
#
# Elastic Constant Matrix: (Units=GPa)
#
#
# Indices 1 2 3 4 5 6 
#
# 1 80.5371 22.8874 35.6425 10.5907 1.4096 -3.7547
# 2 22.8874 81.9698 23.1856 12.4392 -2.4836 -5.2130
# 3 35.6425 23.1856 127.9461 12.9053 -0.9994 -5.1859
# 4 10.5907 12.4392 12.9053 29.1181 -10.3632 6.9339
# 5 1.4096 -2.4836 -0.9994 -10.3632 45.2404 -6.2141
# 6 -3.7547 -5.2130 -5.1859 6.9339 -6.2141 27.6000
#
#
#
# Elastic Compliance Matrix: (Units=1/GPa)
#
#
# Indices 1 2 3 4 5 6 
#
# 1 0.015246 -0.002682 -0.003326 -0.003782 -0.001344 0.001590
# 2 -0.002682 0.014327 -0.001158 -0.005439 0.000081 0.003508
# 3 -0.003326 -0.001158 0.009316 -0.002909 -0.000177 0.001770
# 4 -0.003782 -0.005439 -0.002909 0.045098 0.008506 -0.011503
# 5 -0.001344 0.000081 -0.000177 0.008506 0.024532 0.003186
# 6 0.001590 0.003508 0.001770 -0.011503 0.003186 0.041051
#
#
# Mechanical properties :
#
#
# Convention : Reuss Voigt Hill
#
# Bulk Modulus (GPa) = 40.71995 50.43158 45.57576
# Shear Modulus (GPa) = 29.05536 34.30752 31.68144
#
# Velocity S-wave (km/s) = 3.60381 3.91600 3.76314
# Velocity P-wave (km/s) = 5.95969 6.55661 6.26527
#
# Compressibility (1/GPa) = 0.02455799
#
# Stress axis : x y z
#
# Youngs Moduli (GPa) = 65.59275 69.79950 107.34412
#
# Poissons Ratio (x) = 0.18718 0.35698
# Poissons Ratio (y) = 0.17590 0.12428
# Poissons Ratio (z) = 0.21813 0.08081
#
# Static dielectric constant tensor:
#      x y z
#    x 3.836100 -0.064040 0.222630 
#    y -0.064040 4.204930 0.109050 
#    z 0.222630 0.109050 4.574560 
# 
# 
# High freq. dielectric constant tensor:
#      x y z
#    x 1.857810 -0.005560 0.022300 
#    y -0.005560 1.879440 -0.002440 
#    z 0.022300 -0.002440 1.915240 
# 
# From -- ./inp_files/514902.got.cif
#   From: 2010.06.25/outbox.cif.g09.slc.cpg/sg2_258_cif.got.tgz:514902.got - 2010.06.27 13:26:56.
