data_PCOD8012712
_publ_section_title
;
Structure prediction by ZEFSAII (Michael W. Deem and Ramdas Pophale) SiO2 
 PCOD8012712
Probable space group: P -1
;
_chemical_formula_sum "Si O2"
_cell_formula_units_Z 16
_cell_length_a 16.802135
_cell_length_b 7.920327
_cell_length_c 10.770712
_cell_angle_alpha 124.223308
_cell_angle_beta 37.345290
_cell_angle_gamma 125.155169
_cell_volume 694.883675
_symmetry_space_group_name_H-M "P -1"
_symmetry_group_IT_number 2
_symmetry_cell_setting 'triclinic'
loop_
_space_group_symop_operation_xyz
x,y,z
-x,-y,-z
loop_
_atom_site_type_symbol
_atom_site_label
_atom_site_fract_x
_atom_site_fract_y
_atom_site_fract_z
Si Si1 0.592750 0.285000 0.425439
Si Si2 0.117108 0.988744 0.513494
Si Si3 0.654181 0.552184 0.208994
Si Si4 0.599854 0.895153 0.114697
Si Si5 0.705268 0.290525 0.545359
Si Si6 0.833812 0.726880 0.672800
Si Si7 0.858963 0.926145 0.208822
Si Si8 0.357631 0.854497 0.073958
O O1 0.621585 0.429736 0.328511
O O2 0.443278 0.303415 0.656104
O O3 0.692008 0.369359 0.452900
O O4 0.593764 0.040371 0.302373
O O5 0.118925 0.118620 0.691961
O O6 0.974749 0.811403 0.605821
O O7 0.150575 0.151870 0.427180
O O8 0.238159 0.869449 0.322855
O O9 0.649141 0.392232 0.034604
O O10 0.798321 0.711403 0.120444
O O11 0.444470 0.764158 0.225652
O O12 0.668298 0.061131 0.993083
O O13 0.708301 0.753056 0.927093
O O14 0.805469 0.478832 0.574757
O O15 0.766363 0.089605 0.382690
O O16 0.000000 0.000000 0.000000
O O17 0.500000 0.000000 0.000000
#
# Coordination Sequence:
#
# PCOD8012712 Si02
#       8
#     2   2   2   2   2   2   2   2
#     4  10  22  40  69  94 132 170 221 277 321 398
#     4  10  24  48  66  92 134 174 230 269 326 404
#     4  10  23  43  67  98 129 176 224 271 333 385
#     4  10  21  40  63 100 130 166 220 276 333 385
#     4  12  24  41  64 102 133 171 222 274 338 390
#     4  10  24  43  71  94 128 181 220 278 330 389
#     4  12  28  45  64  96 139 178 218 273 337 397
#     4  10  22  40  71  96 127 173 224 272 323 393
#
# _framework density 23.025438000000001
#
# number of rings (size 3 to 8) (size 9 to 14) (size 15 to 20)
#    0.000    1.500    1.250    2.250   10.500    0.500 
#    4.500    1.250    0.000    0.000    0.000    0.000 
#    0.000    0.000    0.000    0.000    0.000    0.000 
#
# Total GULP energy -198310.154122 kJ/mol
# GULP energy per Si atom -12394.384633 kJ/mol
# Density = 2.297303 g / cm^3
# Si number density = 23.025438 Si / 1000 Ang^3
#
#
#
# Elastic Constant Matrix: (Units=GPa)
#
#
# Indices 1 2 3 4 5 6 
#
# 1 75.7627 28.7998 31.0827 7.9826 -7.9673 23.2769
# 2 28.7998 135.6474 47.0920 13.4177 -9.6141 45.9119
# 3 31.0827 47.0920 142.7521 -2.8994 -8.9573 26.1864
# 4 7.9826 13.4177 -2.8994 30.3227 12.6525 -0.4756
# 5 -7.9673 -9.6141 -8.9573 12.6525 33.3287 -4.9725
# 6 23.2769 45.9119 26.1864 -0.4756 -4.9725 43.5947
#
#
#
# Elastic Compliance Matrix: (Units=1/GPa)
#
#
# Indices 1 2 3 4 5 6 
#
# 1 0.017900 0.001243 -0.002498 -0.008016 0.005696 -0.008804
# 2 0.001243 0.013543 -0.002194 -0.008824 0.005004 -0.013134
# 3 -0.002498 -0.002194 0.008593 0.002459 -0.000078 -0.001499
# 4 -0.008016 -0.008824 0.002459 0.047927 -0.020461 0.010285
# 5 0.005696 0.005004 -0.000078 -0.020461 0.039970 -0.003929
# 6 -0.008804 -0.013134 -0.001499 0.010285 -0.003929 0.042036
#
#
# Mechanical properties :
#
#
# Convention : Reuss Voigt Hill
#
# Bulk Modulus (GPa) = 30.17719 63.12347 46.65033
# Shear Modulus (GPa) = 26.60819 37.92840 32.26830
#
# Velocity S-wave (km/s) = 3.40310 4.06302 3.74762
# Velocity P-wave (km/s) = 5.34564 7.03456 6.24744
#
# Compressibility (1/GPa) = 0.03313762
#
# Stress axis : x y z
#
# Youngs Moduli (GPa) = 55.86641 73.84071 116.37442
#
# Poissons Ratio (x) = -0.09181 0.29071
# Poissons Ratio (y) = -0.06946 0.25535
# Poissons Ratio (z) = 0.13956 0.16202
#
# Static dielectric constant tensor:
#      x y z
#    x 4.510040 -0.132310 -0.260810 
#    y -0.132310 4.325360 0.458640 
#    z -0.260810 0.458640 5.089150 
# 
# 
# High freq. dielectric constant tensor:
#      x y z
#    x 1.914660 -0.000810 0.011500 
#    y -0.000810 1.910560 0.000210 
#    z 0.011500 0.000210 1.911740 
# 
# From -- ./inp_files/403163.got.cif
#   From: 2010.06.25/outbox.cif.g09.slc.cpg/sg2_202_cif.got.tgz:403163.got - 2010.06.27 13:26:56.
