data_PCOD8012180
_publ_section_title
;
Structure prediction by ZEFSAII (Michael W. Deem and Ramdas Pophale) SiO2 
 PCOD8012180
Probable space group: P -1
;
_chemical_formula_sum "Si O2"
_cell_formula_units_Z 14
_cell_length_a 5.128526
_cell_length_b 8.742146
_cell_length_c 20.156216
_cell_angle_alpha 119.121611
_cell_angle_beta 56.650762
_cell_angle_gamma 104.366814
_cell_volume 659.225123
_symmetry_space_group_name_H-M "P -1"
_symmetry_group_IT_number 2
_symmetry_cell_setting 'triclinic'
loop_
_space_group_symop_operation_xyz
x,y,z
-x,-y,-z
loop_
_atom_site_type_symbol
_atom_site_label
_atom_site_fract_x
_atom_site_fract_y
_atom_site_fract_z
Si Si1 0.544882 0.868520 0.286216
Si Si2 0.725300 0.499851 0.724051
Si Si3 0.326377 0.042191 0.851942
Si Si4 0.858217 0.447621 0.439510
Si Si5 0.060559 0.050848 0.316914
Si Si6 0.185425 0.401736 0.011944
Si Si7 0.099396 0.674053 0.825782
O O1 0.419575 0.676088 0.266588
O O2 0.759581 0.883604 0.193496
O O3 0.770334 0.918430 0.325519
O O4 0.245745 0.005256 0.349916
O O5 0.454428 0.611675 0.747947
O O6 0.983859 0.451700 0.622349
O O7 0.865710 0.605455 0.788256
O O8 0.693562 0.977412 0.784701
O O9 0.096708 0.885301 0.869899
O O10 0.267379 0.198227 0.944576
O O11 0.500000 0.500000 0.500000
O O12 0.000000 0.500000 0.500000
O O13 0.909750 0.242483 0.376568
O O14 0.985754 0.406167 0.108102
O O15 0.500000 0.500000 0.000000
O O16 0.000000 0.500000 0.000000
#
# Coordination Sequence:
#
# PCOD8012180 Si02
#       7
#     2   2   2   2   2   2   2
#     4  10  21  39  67  93 133 174 219 259 330 392
#     4  12  24  44  68 103 128 177 220 274 336 401
#     4  10  24  41  69  92 140 173 226 266 328 386
#     4  12  25  45  70 100 133 169 219 280 333 401
#     4  10  22  42  65  96 129 177 211 264 337 394
#     4  12  27  43  63 103 139 177 226 279 323 375
#     4  12  24  42  69  96 137 177 227 268 328 395
#
# _framework density 21.237054000000001
#
# number of rings (size 3 to 8) (size 9 to 14) (size 15 to 20)
#    0.857    0.000    1.429    6.429    4.000    0.000 
#    0.000    7.143    0.000    0.000    0.000    0.000 
#    0.000    0.000    0.000    0.000    0.000    0.000 
#
# Total GULP energy -173543.600130 kJ/mol
# GULP energy per Si atom -12395.971438 kJ/mol
# Density = 2.118872 g / cm^3
# Si number density = 21.237054 Si / 1000 Ang^3
#
#
#
# Elastic Constant Matrix: (Units=GPa)
#
#
# Indices 1 2 3 4 5 6 
#
# 1 147.2063 45.6179 36.4724 9.4968 6.6303 19.6157
# 2 45.6179 134.3799 35.8045 -5.4871 6.1558 22.5455
# 3 36.4724 35.8045 96.5436 -1.8942 -3.6376 5.8129
# 4 9.4968 -5.4871 -1.8942 33.2251 -6.1354 -1.1512
# 5 6.6303 6.1558 -3.6376 -6.1354 32.4160 3.0379
# 6 19.6157 22.5455 5.8129 -1.1512 3.0379 33.5073
#
#
#
# Elastic Compliance Matrix: (Units=1/GPa)
#
#
# Indices 1 2 3 4 5 6 
#
# 1 0.008751 -0.001749 -0.002597 -0.003441 -0.002079 -0.003425
# 2 -0.001749 0.009668 -0.002638 0.001590 -0.001016 -0.004877
# 3 -0.002597 -0.002638 0.012388 0.001530 0.002622 0.000961
# 4 -0.003441 0.001590 0.001530 0.032701 0.006650 0.001200
# 5 -0.002079 -0.001016 0.002622 0.006650 0.033145 -0.001330
# 6 -0.003425 -0.004877 0.000961 0.001200 -0.001330 0.035126
#
#
# Mechanical properties :
#
#
# Convention : Reuss Voigt Hill
#
# Bulk Modulus (GPa) = 59.38715 68.21326 63.80021
# Shear Modulus (GPa) = 33.03393 37.17866 35.10629
#
# Velocity S-wave (km/s) = 3.94824 4.18862 4.07020
# Velocity P-wave (km/s) = 6.98638 7.45536 7.22467
#
# Compressibility (1/GPa) = 0.01683866
#
# Stress axis : x y z
#
# Youngs Moduli (GPa) = 114.27678 103.43423 80.72104
#
# Poissons Ratio (x) = 0.18094 0.20961
# Poissons Ratio (y) = 0.19991 0.21295
# Poissons Ratio (z) = 0.29674 0.27287
#
# Static dielectric constant tensor:
#      x y z
#    x 3.890080 0.086760 -0.103270 
#    y 0.086760 3.866910 0.006690 
#    z -0.103270 0.006690 3.768320 
# 
# 
# High freq. dielectric constant tensor:
#      x y z
#    x 1.845750 0.006080 -0.002530 
#    y 0.006080 1.845090 0.006490 
#    z -0.002530 0.006490 1.811990 
# 
# From -- ./inp_files/547438.got.cif
#   From: 2010.06.25/outbox.cif.g09.slc.cpg/sg2_274_cif.got.tgz:547438.got - 2010.06.27 13:26:56.
