data_PCOD8012659
_publ_section_title
;
Structure prediction by ZEFSAII (Michael W. Deem and Ramdas Pophale) SiO2 
 PCOD8012659
Probable space group: P -1
;
_chemical_formula_sum "Si O2"
_cell_formula_units_Z 12
_cell_length_a 8.215121
_cell_length_b 11.925065
_cell_length_c 9.243994
_cell_angle_alpha 142.890663
_cell_angle_beta 119.188539
_cell_angle_gamma 74.965835
_cell_volume 462.353381
_symmetry_space_group_name_H-M "P -1"
_symmetry_group_IT_number 2
_symmetry_cell_setting 'triclinic'
loop_
_space_group_symop_operation_xyz
x,y,z
-x,-y,-z
loop_
_atom_site_type_symbol
_atom_site_label
_atom_site_fract_x
_atom_site_fract_y
_atom_site_fract_z
Si Si1 0.697068 0.507362 0.510605
Si Si2 0.084545 0.814078 0.044936
Si Si3 0.712828 0.974651 0.238367
Si Si4 0.897438 0.813774 0.381700
Si Si5 0.712244 0.084628 0.040147
Si Si6 0.690599 0.495342 0.162039
O O1 0.500000 0.500000 0.500000
O O2 0.733298 0.297529 0.329097
O O3 0.675635 0.558045 0.385236
O O4 0.880587 0.659705 0.810586
O O5 0.124845 0.913918 0.006557
O O6 0.258621 0.709349 0.036661
O O7 0.103170 0.979031 0.338965
O O8 0.738411 0.947815 0.046148
O O9 0.881271 0.162008 0.551360
O O10 0.747940 0.790439 0.156429
O O11 0.501564 0.000599 0.206956
O O12 0.858130 0.649287 0.312760
O O13 0.500000 0.500000 0.000000
#
# Coordination Sequence:
#
# PCOD8012659 Si02
#       6
#     2   2   2   2   2   2
#     4  11  23  41  64  93 127 167 213 259 312 373
#     4  11  24  42  67  93 126 170 209 256 316 373
#     4  10  22  39  63  92 126 164 208 261 308 370
#     4  11  23  42  64  93 128 164 208 257 315 371
#     4  10  21  40  62  91 127 165 211 257 309 372
#     4  11  25  44  66  94 129 165 209 263 313 371
#
# _framework density 25.954177000000001
#
# number of rings (size 3 to 8) (size 9 to 14) (size 15 to 20)
#    0.000    1.333    0.000    7.000    0.000   10.667 
#    0.000    5.000    0.000    0.000    0.000    0.000 
#    0.000    0.000    0.000    0.000    0.000    0.000 
#
# Total GULP energy -148707.511822 kJ/mol
# GULP energy per Si atom -12392.292652 kJ/mol
# Density = 2.589510 g / cm^3
# Si number density = 25.954177 Si / 1000 Ang^3
#
#
#
# Elastic Constant Matrix: (Units=GPa)
#
#
# Indices 1 2 3 4 5 6 
#
# 1 103.7664 35.1536 25.3193 2.5023 21.6816 18.5140
# 2 35.1536 149.2865 28.4237 -17.6617 5.5840 13.4542
# 3 25.3193 28.4237 65.6712 0.5407 5.2744 -8.1053
# 4 2.5023 -17.6617 0.5407 37.3479 -3.3873 10.0855
# 5 21.6816 5.5840 5.2744 -3.3873 32.9365 -5.7498
# 6 18.5140 13.4542 -8.1053 10.0855 -5.7498 54.2011
#
#
#
# Elastic Compliance Matrix: (Units=1/GPa)
#
#
# Indices 1 2 3 4 5 6 
#
# 1 0.014524 -0.001697 -0.004836 -0.000931 -0.009662 -0.006115
# 2 -0.001697 0.008631 -0.003512 0.005078 0.000213 -0.003010
# 3 -0.004836 -0.003512 0.019281 -0.003145 0.001441 0.006145
# 4 -0.000931 0.005078 -0.003145 0.031383 0.002258 -0.007013
# 5 -0.009662 0.000213 0.001441 0.002258 0.037921 0.007066
# 6 -0.006115 -0.003010 0.006145 -0.007013 0.007066 0.024259
#
#
# Mechanical properties :
#
#
# Convention : Reuss Voigt Hill
#
# Bulk Modulus (GPa) = 44.75156 55.16859 49.96007
# Shear Modulus (GPa) = 30.57391 40.21892 35.39642
#
# Velocity S-wave (km/s) = 3.43592 3.94078 3.69698
# Velocity P-wave (km/s) = 5.74636 6.48141 6.12492
#
# Compressibility (1/GPa) = 0.02234559
#
# Stress axis : x y z
#
# Youngs Moduli (GPa) = 68.84972 115.86303 51.86548
#
# Poissons Ratio (x) = 0.19661 0.25084
# Poissons Ratio (y) = 0.11683 0.18214
# Poissons Ratio (z) = 0.33299 0.40689
#
# Static dielectric constant tensor:
#      x y z
#    x 5.079230 0.387160 0.391270 
#    y 0.387160 5.353900 -0.099280 
#    z 0.391270 -0.099280 4.542470 
# 
# 
# High freq. dielectric constant tensor:
#      x y z
#    x 2.050950 0.012530 0.026610 
#    y 0.012530 2.066830 -0.013650 
#    z 0.026610 -0.013650 2.011820 
# 
# From -- ./inp_files/145102.got.cif
#   From: 2010.06.25/outbox.cif.g09.slc.cpg/sg2_73_cif.got.tgz:145102.got - 2010.06.27 13:26:56.
