data_PCOD8012348
_publ_section_title
;
Structure prediction by ZEFSAII (Michael W. Deem and Ramdas Pophale) SiO2 
 PCOD8012348
Probable space group: P -1
;
_chemical_formula_sum "Si O2"
_cell_formula_units_Z 16
_cell_length_a 12.179230
_cell_length_b 11.942453
_cell_length_c 9.161260
_cell_angle_alpha 129.879286
_cell_angle_beta 59.737996
_cell_angle_gamma 87.607731
_cell_volume 737.358396
_symmetry_space_group_name_H-M "P -1"
_symmetry_group_IT_number 2
_symmetry_cell_setting 'triclinic'
loop_
_space_group_symop_operation_xyz
x,y,z
-x,-y,-z
loop_
_atom_site_type_symbol
_atom_site_label
_atom_site_fract_x
_atom_site_fract_y
_atom_site_fract_z
Si Si1 0.613063 0.986782 0.795815
Si Si2 0.900786 0.214145 0.643236
Si Si3 0.352817 0.504620 0.146621
Si Si4 0.808767 0.122653 0.895607
Si Si5 0.192361 0.766104 0.692582
Si Si6 0.132223 0.112810 0.903904
Si Si7 0.901761 0.708181 0.238025
Si Si8 0.598755 0.854096 0.192944
O O1 0.727219 0.795493 0.484121
O O2 0.707613 0.047520 0.868418
O O3 0.504159 0.117246 0.852919
O O4 0.500000 0.000000 0.000000
O O5 0.802556 0.336448 0.682019
O O6 0.783382 0.244635 0.876402
O O7 0.021868 0.250617 0.651295
O O8 0.006607 0.017990 0.341699
O O9 0.317165 0.565368 0.391337
O O10 0.500000 0.500000 0.000000
O O11 0.357096 0.336458 0.947000
O O12 0.760122 0.221733 0.164445
O O13 0.200205 0.904610 0.695714
O O14 0.026532 0.793557 0.824116
O O15 0.104972 0.196173 0.829175
O O16 0.248599 0.148036 0.940626
O O17 0.000000 0.500000 0.000000
O O18 0.500000 0.000000 0.500000
#
# Coordination Sequence:
#
# PCOD8012348 Si02
#       8
#     2   2   2   2   2   2   2   2
#     4  11  25  43  68 101 137 183 227 283 354 418
#     4  10  21  39  69  98 131 173 229 278 344 404
#     4  12  27  43  66 104 140 183 235 290 350 419
#     4  10  21  43  70  99 136 180 224 285 341 415
#     4  11  24  43  72 106 135 183 237 293 342 418
#     4  11  22  42  74 101 137 184 232 284 353 412
#     4  11  23  42  69  98 137 182 231 284 341 416
#     4  12  25  45  70  98 142 188 226 284 359 423
#
# _framework density 21.699082000000001
#
# number of rings (size 3 to 8) (size 9 to 14) (size 15 to 20)
#    0.000    1.000    2.500    4.500    3.500    2.500 
#    0.000    1.250    0.000    0.000    0.000    0.000 
#    0.000    0.000    0.000    0.000    0.000    0.000 
#
# Total GULP energy -198219.284480 kJ/mol
# GULP energy per Si atom -12388.705280 kJ/mol
# Density = 2.164969 g / cm^3
# Si number density = 21.699082 Si / 1000 Ang^3
#
#
#
# Elastic Constant Matrix: (Units=GPa)
#
#
# Indices 1 2 3 4 5 6 
#
# 1 108.2955 34.2412 52.7827 -3.9257 -9.3304 15.2419
# 2 34.2412 88.0617 47.2758 -9.1424 3.0307 15.6301
# 3 52.7827 47.2758 143.0090 -6.9756 9.3120 14.6883
# 4 -3.9257 -9.1424 -6.9756 31.4027 3.8848 3.5278
# 5 -9.3304 3.0307 9.3120 3.8848 34.4368 -7.7543
# 6 15.2419 15.6301 14.6883 3.5278 -7.7543 41.4397
#
#
#
# Elastic Compliance Matrix: (Units=1/GPa)
#
#
# Indices 1 2 3 4 5 6 
#
# 1 0.012561 -0.002761 -0.003903 -0.000505 0.004462 -0.001317
# 2 -0.002761 0.015530 -0.003257 0.004306 -0.002749 -0.004569
# 3 -0.003903 -0.003257 0.010029 0.001492 -0.004051 -0.001776
# 4 -0.000505 0.004306 0.001492 0.034821 -0.006220 -0.006096
# 5 0.004462 -0.002749 -0.004051 -0.006220 0.034027 0.007728
# 6 -0.001317 -0.004569 -0.001776 -0.006096 0.007728 0.028934
#
#
# Mechanical properties :
#
#
# Convention : Reuss Voigt Hill
#
# Bulk Modulus (GPa) = 54.70970 67.55173 61.13071
# Shear Modulus (GPa) = 30.89567 35.12694 33.01130
#
# Velocity S-wave (km/s) = 3.77745 4.02782 3.90465
# Velocity P-wave (km/s) = 6.65531 7.26842 6.96861
#
# Compressibility (1/GPa) = 0.01827830
#
# Stress axis : x y z
#
# Youngs Moduli (GPa) = 79.61233 64.39131 99.71328
#
# Poissons Ratio (x) = 0.17777 0.38921
# Poissons Ratio (y) = 0.21979 0.32474
# Poissons Ratio (z) = 0.31075 0.20970
#
# Static dielectric constant tensor:
#      x y z
#    x 3.740350 -0.021070 0.257200 
#    y -0.021070 5.035700 1.100470 
#    z 0.257200 1.100470 4.695220 
# 
# 
# High freq. dielectric constant tensor:
#      x y z
#    x 1.872920 -0.001800 0.001110 
#    y -0.001800 1.840220 -0.010970 
#    z 0.001110 -0.010970 1.852080 
# 
# From -- ./inp_files/263320.got.cif
#   From: 2010.06.25/outbox.cif.g09.slc.cpg/sg2_132_cif.got.tgz:263320.got - 2010.06.27 13:26:56.
