data_PCOD8012199
_publ_section_title
;
Structure prediction by ZEFSAII (Michael W. Deem and Ramdas Pophale) SiO2 
 PCOD8012199
Probable space group: P -1
;
_chemical_formula_sum "Si O2"
_cell_formula_units_Z 14
_cell_length_a 11.914714
_cell_length_b 21.761930
_cell_length_c 15.383343
_cell_angle_alpha 154.529272
_cell_angle_beta 154.175262
_cell_angle_gamma 20.190087
_cell_volume 553.299022
_symmetry_space_group_name_H-M "P -1"
_symmetry_group_IT_number 2
_symmetry_cell_setting 'triclinic'
loop_
_space_group_symop_operation_xyz
x,y,z
-x,-y,-z
loop_
_atom_site_type_symbol
_atom_site_label
_atom_site_fract_x
_atom_site_fract_y
_atom_site_fract_z
Si Si1 0.448246 0.237235 0.913826
Si Si2 0.652512 0.478934 0.671154
Si Si3 0.825198 0.518357 0.547371
Si Si4 0.821810 0.208370 0.799394
Si Si5 0.343385 0.120756 0.326186
Si Si6 0.355910 0.937586 0.704260
Si Si7 0.446660 0.407129 0.953760
O O1 0.541049 0.294756 0.966409
O O2 0.062738 0.319290 0.744857
O O3 0.690458 0.005432 0.795448
O O4 0.484000 0.318194 0.129051
O O5 0.500000 0.500000 0.500000
O O6 0.524283 0.406719 0.555442
O O7 0.686043 0.709130 0.645985
O O8 0.975034 0.342795 0.360006
O O9 0.123097 0.445877 0.732487
O O10 0.642363 0.121504 0.561749
O O11 0.787306 0.275226 0.960127
O O12 0.643858 0.390407 0.841067
O O13 0.231402 0.050703 0.854861
O O14 0.475654 0.014995 0.188145
O O15 0.000000 0.000000 0.500000
#
# Coordination Sequence:
#
# PCOD8012199 Si02
#       7
#     2   2   2   2   2   2   2
#     4  11  25  44  75 104 144 191 233 293 367 429
#     4  11  24  44  71 106 142 187 238 294 354 427
#     4  11  23  42  68 101 141 188 240 301 353 420
#     4   9  21  40  68  97 142 188 234 287 354 420
#     4  10  23  42  67 106 140 190 238 294 360 424
#     4  10  21  39  67  95 133 183 238 287 355 415
#     4  10  22  43  68 107 139 186 241 286 361 430
#
# _framework density 25.302772999999998
#
# number of rings (size 3 to 8) (size 9 to 14) (size 15 to 20)
#    0.000    1.714    1.429    2.143    8.000    3.429 
#    5.143    1.429    0.000    0.000    0.000    0.000 
#    0.000    0.000    0.000    0.000    0.000    0.000 
#
# Total GULP energy -173443.864473 kJ/mol
# GULP energy per Si atom -12388.847462 kJ/mol
# Density = 2.524518 g / cm^3
# Si number density = 25.302773 Si / 1000 Ang^3
#
#
#
# Elastic Constant Matrix: (Units=GPa)
#
#
# Indices 1 2 3 4 5 6 
#
# 1 174.3780 59.6834 29.4259 23.3595 -8.5338 1.4674
# 2 59.6834 134.0513 33.1686 34.0132 -14.7161 6.7963
# 3 29.4259 33.1686 76.8459 13.3888 3.7154 4.9649
# 4 23.3595 34.0132 13.3888 43.1974 0.3931 6.1436
# 5 -8.5338 -14.7161 3.7154 0.3931 34.3565 20.4561
# 6 1.4674 6.7963 4.9649 6.1436 20.4561 34.6827
#
#
#
# Elastic Compliance Matrix: (Units=1/GPa)
#
#
# Indices 1 2 3 4 5 6 
#
# 1 0.007013 -0.002266 -0.001484 -0.001574 0.000878 0.000120
# 2 -0.002266 0.012168 -0.003276 -0.006618 0.008422 -0.005614
# 3 -0.001484 -0.003276 0.015382 -0.001521 -0.004141 0.001214
# 4 -0.001574 -0.006618 -0.001521 0.030081 -0.001810 -0.002680
# 5 0.000878 0.008422 -0.004141 -0.001810 0.052189 -0.031555
# 6 0.000120 -0.005614 0.001214 -0.002680 -0.031555 0.048840
#
#
# Mechanical properties :
#
#
# Convention : Reuss Voigt Hill
#
# Bulk Modulus (GPa) = 48.75037 69.98123 59.36580
# Shear Modulus (GPa) = 26.80100 39.98046 33.39073
#
# Velocity S-wave (km/s) = 3.25808 3.97934 3.63664
# Velocity P-wave (km/s) = 5.78465 6.98792 6.41456
#
# Compressibility (1/GPa) = 0.02051267
#
# Stress axis : x y z
#
# Youngs Moduli (GPa) = 142.58592 82.18557 65.01219
#
# Poissons Ratio (x) = 0.18622 0.09645
# Poissons Ratio (y) = 0.32307 0.21295
# Poissons Ratio (z) = 0.21154 0.26920
#
# Static dielectric constant tensor:
#      x y z
#    x 4.951380 -0.177300 -0.211280 
#    y -0.177300 4.214250 0.297010 
#    z -0.211280 0.297010 4.677210 
# 
# 
# High freq. dielectric constant tensor:
#      x y z
#    x 2.024650 -0.021560 0.008770 
#    y -0.021560 1.997970 -0.001850 
#    z 0.008770 -0.001850 2.012720 
# 
# From -- ./inp_files/418801.got.cif
#   From: 2010.06.25/outbox.cif.g09.slc.cpg/sg2_210_cif.got.tgz:418801.got - 2010.06.27 13:26:56.
