data_PCOD8012258
_publ_section_title
;
Structure prediction by ZEFSAII (Michael W. Deem and Ramdas Pophale) SiO2 
 PCOD8012258
Probable space group: P -1
;
_chemical_formula_sum "Si O2"
_cell_formula_units_Z 12
_cell_length_a 16.415501
_cell_length_b 8.358248
_cell_length_c 5.641763
_cell_angle_alpha 58.009348
_cell_angle_beta 105.467779
_cell_angle_gamma 125.638904
_cell_volume 532.567428
_symmetry_space_group_name_H-M "P -1"
_symmetry_group_IT_number 2
_symmetry_cell_setting 'triclinic'
loop_
_space_group_symop_operation_xyz
x,y,z
-x,-y,-z
loop_
_atom_site_type_symbol
_atom_site_label
_atom_site_fract_x
_atom_site_fract_y
_atom_site_fract_z
Si Si1 0.200281 0.557184 0.095937
Si Si2 0.391935 0.861129 0.258258
Si Si3 0.973979 0.871806 0.828206
Si Si4 0.551192 0.763474 0.361183
Si Si5 0.915572 0.330910 0.746678
Si Si6 0.734276 0.088434 0.508054
O O1 0.314632 0.655011 0.186940
O O2 0.130496 0.536816 0.277722
O O3 0.146612 0.311162 0.128374
O O4 0.199551 0.728394 0.779928
O O5 0.481568 0.823046 0.413826
O O6 0.334968 0.840434 0.470380
O O7 0.428807 0.102923 0.976378
O O8 0.034918 0.748804 0.962121
O O9 0.000000 0.000000 0.500000
O O10 0.000000 0.000000 0.000000
O O11 0.500000 0.500000 0.500000
O O12 0.656299 0.849004 0.513178
O O13 0.820281 0.101907 0.732281
O O14 0.000000 0.500000 0.500000
#
# Coordination Sequence:
#
# PCOD8012258 Si02
#       6
#     2   2   2   2   2   2
#     4  10  22  42  65  90 129 180 226 267 339 410
#     4   9  21  41  64  92 130 172 217 276 339 411
#     4  12  27  41  63 101 141 174 226 292 345 393
#     4  10  21  40  65  96 128 166 220 280 339 407
#     4  11  22  42  70  90 127 184 232 269 332 418
#     4  10  21  39  68  91 124 176 227 267 342 404
#
# _framework density 22.532357999999999
#
# number of rings (size 3 to 8) (size 9 to 14) (size 15 to 20)
#    0.000    1.667    1.667    2.000    4.667    2.000 
#    6.000    0.000    0.000    0.000    0.000    0.000 
#    0.000    0.000    0.000    0.000    0.000    0.000 
#
# Total GULP energy -148673.105693 kJ/mol
# GULP energy per Si atom -12389.425474 kJ/mol
# Density = 2.248107 g / cm^3
# Si number density = 22.532358 Si / 1000 Ang^3
#
#
#
# Elastic Constant Matrix: (Units=GPa)
#
#
# Indices 1 2 3 4 5 6 
#
# 1 73.0582 14.1609 33.8550 -8.9247 -13.2336 14.4372
# 2 14.1609 170.7899 52.6640 -19.4835 -3.2320 29.8716
# 3 33.8550 52.6640 97.0884 -0.5354 -2.4001 13.4284
# 4 -8.9247 -19.4835 -0.5354 30.6405 0.0292 -1.8746
# 5 -13.2336 -3.2320 -2.4001 0.0292 36.6220 6.7214
# 6 14.4372 29.8716 13.4284 -1.8746 6.7214 38.0199
#
#
#
# Elastic Compliance Matrix: (Units=1/GPa)
#
#
# Indices 1 2 3 4 5 6 
#
# 1 0.020840 0.003160 -0.007478 0.007391 0.008961 -0.008975
# 2 0.003160 0.009073 -0.004983 0.006186 0.002853 -0.006768
# 3 -0.007478 -0.004983 0.015312 -0.004983 -0.002415 0.001528
# 4 0.007391 0.006186 -0.004983 0.038346 0.003717 -0.004673
# 5 0.008961 0.002853 -0.002415 0.003717 0.032536 -0.010360
# 6 -0.008975 -0.006768 0.001528 -0.004673 -0.010360 0.036090
#
#
# Mechanical properties :
#
#
# Convention : Reuss Voigt Hill
#
# Bulk Modulus (GPa) = 37.55906 60.25517 48.90711
# Shear Modulus (GPa) = 27.82853 37.07358 32.45106
#
# Velocity S-wave (km/s) = 3.51814 4.06069 3.79911
# Velocity P-wave (km/s) = 5.76265 6.98465 6.40287
#
# Compressibility (1/GPa) = 0.02662474
#
# Stress axis : x y z
#
# Youngs Moduli (GPa) = 47.98480 110.21665 65.30942
#
# Poissons Ratio (x) = -0.34833 0.48836
# Poissons Ratio (y) = -0.15165 0.32542
# Poissons Ratio (z) = 0.35881 0.54919
#
# Static dielectric constant tensor:
#      x y z
#    x 4.265180 0.359750 0.051400 
#    y 0.359750 4.559530 0.205930 
#    z 0.051400 0.205930 3.974130 
# 
# 
# High freq. dielectric constant tensor:
#      x y z
#    x 1.880670 0.033590 -0.017360 
#    y 0.033590 1.901480 0.018740 
#    z -0.017360 0.018740 1.873960 
# 
# From -- ./inp_files/8242.got.cif
#   From: 2010.06.25/outbox.cif.g09.slc.cpg/sg2_5_cif.got.tgz:8242.got - 2010.06.27 13:26:56.
