data_PCOD8012100
_publ_section_title
;
Structure prediction by ZEFSAII (Michael W. Deem and Ramdas Pophale) SiO2 
 PCOD8012100
Probable space group: P -1
;
_chemical_formula_sum "Si O2"
_cell_formula_units_Z 16
_cell_length_a 12.314137
_cell_length_b 17.508531
_cell_length_c 19.496027
_cell_angle_alpha 22.380068
_cell_angle_beta 29.905738
_cell_angle_gamma 29.877674
_cell_volume 748.876855
_symmetry_space_group_name_H-M "P -1"
_symmetry_group_IT_number 2
_symmetry_cell_setting 'triclinic'
loop_
_space_group_symop_operation_xyz
x,y,z
-x,-y,-z
loop_
_atom_site_type_symbol
_atom_site_label
_atom_site_fract_x
_atom_site_fract_y
_atom_site_fract_z
Si Si1 0.697514 0.757156 0.784997
Si Si2 0.292871 0.108416 0.072602
Si Si3 0.473454 0.712704 0.377707
Si Si4 0.570894 0.223529 0.496942
Si Si5 0.268693 0.423502 0.934398
Si Si6 0.196925 0.823014 0.955384
Si Si7 0.034354 0.334831 0.902463
Si Si8 0.056149 0.287467 0.691980
O O1 0.921250 0.591419 0.762165
O O2 0.732864 0.985153 0.584229
O O3 0.663617 0.685428 0.939394
O O4 0.470809 0.775014 0.849988
O O5 0.264249 0.913424 0.293823
O O6 0.383630 0.254855 0.951691
O O7 0.068599 0.235928 0.043431
O O8 0.500000 0.000000 0.000000
O O9 0.500000 0.500000 0.500000
O O10 0.389489 0.706877 0.505885
O O11 0.726985 0.735735 0.212791
O O12 0.632786 0.383097 0.279497
O O13 0.307733 0.237756 0.626816
O O14 0.000000 0.500000 0.000000
O O15 0.145597 0.747420 0.971525
O O16 0.121689 0.687617 0.168219
O O17 0.055453 0.078760 0.823363
O O18 0.000000 0.500000 0.500000
#
# Coordination Sequence:
#
# PCOD8012100 Si02
#       8
#     2   2   2   2   2   2   2   2
#     4  11  24  42  66  93 133 171 212 261 321 385
#     4  10  22  39  63  91 128 165 211 261 319 372
#     4  11  23  39  63  95 126 163 218 266 314 374
#     4  11  23  41  64  93 125 166 216 265 313 382
#     4  12  24  42  64  94 128 170 212 263 323 380
#     4  10  22  40  65  96 128 166 216 260 317 382
#     4  11  22  43  62  93 132 173 206 263 326 374
#     4  10  21  39  66  95 123 166 214 267 317 366
#
# _framework density 21.365328000000002
#
# number of rings (size 3 to 8) (size 9 to 14) (size 15 to 20)
#    0.000    1.250    3.750    2.625    0.000    4.500 
#    0.000    0.000    0.000    4.500    0.000    0.000 
#    0.000    0.000    0.000    0.000    0.000    0.000 
#
# Total GULP energy -198342.978450 kJ/mol
# GULP energy per Si atom -12396.436153 kJ/mol
# Density = 2.131670 g / cm^3
# Si number density = 21.365328 Si / 1000 Ang^3
#
#
#
# Elastic Constant Matrix: (Units=GPa)
#
#
# Indices 1 2 3 4 5 6 
#
# 1 104.3490 12.0879 24.5516 -23.4111 -8.0621 6.0916
# 2 12.0879 78.2560 15.1782 -24.7855 -3.4623 3.4326
# 3 24.5516 15.1782 113.4465 -32.3916 3.2052 4.5701
# 4 -23.4111 -24.7855 -32.3916 40.5692 -0.8047 -2.8537
# 5 -8.0621 -3.4623 3.2052 -0.8047 34.5988 -5.9742
# 6 6.0916 3.4326 4.5701 -2.8537 -5.9742 29.2728
#
#
#
# Elastic Compliance Matrix: (Units=1/GPa)
#
#
# Indices 1 2 3 4 5 6 
#
# 1 0.011384 0.000544 -0.000783 0.006250 0.002727 -0.001145
# 2 0.000544 0.016051 0.000775 0.010725 0.001789 -0.000706
# 3 -0.000783 0.000775 0.011573 0.009163 -0.001150 -0.001076
# 4 0.006250 0.010725 0.009163 0.042228 0.002783 0.000696
# 5 0.002727 0.001789 -0.001150 0.002783 0.030922 0.005984
# 6 -0.001145 -0.000706 -0.001076 0.000696 0.005984 0.035939
#
#
# Mechanical properties :
#
#
# Convention : Reuss Voigt Hill
#
# Bulk Modulus (GPa) = 24.95039 44.40965 34.68002
# Shear Modulus (GPa) = 31.17486 37.17042 34.17264
#
# Velocity S-wave (km/s) = 3.82400 4.17556 4.00364
# Velocity P-wave (km/s) = 5.58576 6.63913 6.13509
#
# Compressibility (1/GPa) = 0.04007953
#
# Stress axis : x y z
#
# Youngs Moduli (GPa) = 87.84086 62.30095 86.41131
#
# Poissons Ratio (x) = -0.03388 0.06765
# Poissons Ratio (y) = -0.04777 -0.06695
# Poissons Ratio (z) = 0.06877 -0.04827
#
# Static dielectric constant tensor:
#      x y z
#    x 4.340400 -0.083990 -0.268350 
#    y -0.083990 4.054320 -0.278760 
#    z -0.268350 -0.278760 3.782800 
# 
# 
# High freq. dielectric constant tensor:
#      x y z
#    x 1.842550 0.001910 -0.001600 
#    y 0.001910 1.841840 -0.018650 
#    z -0.001600 -0.018650 1.832880 
# 
# From -- ./inp_files/272837.got.cif
#   From: 2010.06.25/outbox.cif.g09.slc.cpg/sg2_137_cif.got.tgz:272837.got - 2010.06.27 13:26:56.
