data_PCOD8012032
_publ_section_title
;
Structure prediction by ZEFSAII (Michael W. Deem and Ramdas Pophale) SiO2 
 PCOD8012032
Probable space group: P -1
;
_chemical_formula_sum "Si O2"
_cell_formula_units_Z 14
_cell_length_a 8.811234
_cell_length_b 9.923943
_cell_length_c 21.457544
_cell_angle_alpha 35.599382
_cell_angle_beta 143.304248
_cell_angle_gamma 136.174809
_cell_volume 639.515755
_symmetry_space_group_name_H-M "P -1"
_symmetry_group_IT_number 2
_symmetry_cell_setting 'triclinic'
loop_
_space_group_symop_operation_xyz
x,y,z
-x,-y,-z
loop_
_atom_site_type_symbol
_atom_site_label
_atom_site_fract_x
_atom_site_fract_y
_atom_site_fract_z
Si Si1 0.263562 0.131840 0.365483
Si Si2 0.550830 0.453247 0.812321
Si Si3 0.201173 0.837379 0.266784
Si Si4 0.975861 0.230111 0.995059
Si Si5 0.948398 0.711898 0.361495
Si Si6 0.084563 0.506145 0.244368
Si Si7 0.531958 0.321063 0.179521
O O1 0.304322 0.288700 0.258269
O O2 0.231853 0.296611 0.352164
O O3 0.500000 0.000000 0.500000
O O4 0.002881 0.940320 0.338168
O O5 0.774939 0.302008 0.952196
O O6 0.350048 0.329921 0.740496
O O7 0.398500 0.500455 0.806261
O O8 0.131922 0.746113 0.347984
O O9 0.218859 0.614313 0.312171
O O10 0.468376 0.038033 0.281441
O O11 0.976977 0.956727 0.114765
O O12 0.878683 0.282678 0.874221
O O13 0.269410 0.383387 0.040348
O O14 0.000000 0.500000 0.500000
O O15 0.781587 0.383494 0.194821
#
# Coordination Sequence:
#
# PCOD8012032 Si02
#       7
#     2   2   2   2   2   2   2
#     4  11  24  45  67  94 126 174 231 275 321 394
#     4  11  21  42  68  96 139 174 224 272 325 391
#     4  10  23  41  64 101 136 170 222 273 328 393
#     4   9  22  39  66 101 143 171 214 267 335 395
#     4  12  24  43  70  92 129 183 229 272 326 385
#     4  11  22  42  68  98 135 176 211 274 341 393
#     4  10  21  39  65  98 142 168 215 267 334 395
#
# _framework density 21.891563000000001
#
# number of rings (size 3 to 8) (size 9 to 14) (size 15 to 20)
#    0.857    0.571    4.286    1.286    0.000    2.857 
#    5.143    3.571    0.000    0.000    0.000    0.000 
#    0.000    0.000    0.000    0.000    0.000    0.000 
#
# Total GULP energy -173478.290897 kJ/mol
# GULP energy per Si atom -12391.306493 kJ/mol
# Density = 2.184174 g / cm^3
# Si number density = 21.891563 Si / 1000 Ang^3
#
#
#
# Elastic Constant Matrix: (Units=GPa)
#
#
# Indices 1 2 3 4 5 6 
#
# 1 105.0162 30.9760 37.0827 -15.5764 0.2557 -13.5646
# 2 30.9760 120.4661 28.5759 -8.7507 2.8735 -13.9350
# 3 37.0827 28.5759 76.5485 -11.3292 5.6492 -8.4145
# 4 -15.5764 -8.7507 -11.3292 29.7810 5.1097 4.7467
# 5 0.2557 2.8735 5.6492 5.1097 39.2101 -3.8440
# 6 -13.5646 -13.9350 -8.4145 4.7467 -3.8440 40.3104
#
#
#
# Elastic Compliance Matrix: (Units=1/GPa)
#
#
# Indices 1 2 3 4 5 6 
#
# 1 0.012504 -0.001572 -0.004681 0.003862 0.000428 0.002273
# 2 -0.001572 0.009599 -0.002455 0.000758 -0.000226 0.002166
# 3 -0.004681 -0.002455 0.017042 0.003704 -0.002684 0.000442
# 4 0.003862 0.000758 0.003704 0.038692 -0.005930 -0.002787
# 5 0.000428 -0.000226 -0.002684 -0.005930 0.026949 0.002774
# 6 0.002273 0.002166 0.000442 -0.002787 0.002774 0.027006
#
#
# Mechanical properties :
#
#
# Convention : Reuss Voigt Hill
#
# Bulk Modulus (GPa) = 46.01836 55.03335 50.52586
# Shear Modulus (GPa) = 31.95913 35.55339 33.75626
#
# Velocity S-wave (km/s) = 3.82499 4.03435 3.93106
# Velocity P-wave (km/s) = 6.36978 6.84798 6.61320
#
# Compressibility (1/GPa) = 0.02173046
#
# Stress axis : x y z
#
# Youngs Moduli (GPa) = 79.97314 104.18250 58.67715
#
# Poissons Ratio (x) = 0.16373 0.27466
# Poissons Ratio (y) = 0.12569 0.14404
# Poissons Ratio (z) = 0.37434 0.25575
#
# Static dielectric constant tensor:
#      x y z
#    x 3.932730 -0.375090 0.042650 
#    y -0.375090 5.379860 -0.296670 
#    z 0.042650 -0.296670 3.682480 
# 
# 
# High freq. dielectric constant tensor:
#      x y z
#    x 1.857040 0.001450 -0.004230 
#    y 0.001450 1.867400 -0.004260 
#    z -0.004230 -0.004260 1.836430 
# 
# From -- ./inp_files/587189.got.cif
#   From: 2010.06.25/outbox.cif.g09.slc.cpg/sg2_294_cif.got.tgz:587189.got - 2010.06.27 13:26:56.
