data_PCOD8012127
_publ_section_title
;
Structure prediction by ZEFSAII (Michael W. Deem and Ramdas Pophale) SiO2 
 PCOD8012127
Probable space group: P -1
;
_chemical_formula_sum "Si O2"
_cell_formula_units_Z 16
_cell_length_a 14.577181
_cell_length_b 11.497528
_cell_length_c 18.482463
_cell_angle_alpha 48.193093
_cell_angle_beta 30.512700
_cell_angle_gamma 29.243513
_cell_volume 721.710166
_symmetry_space_group_name_H-M "P -1"
_symmetry_group_IT_number 2
_symmetry_cell_setting 'triclinic'
loop_
_space_group_symop_operation_xyz
x,y,z
-x,-y,-z
loop_
_atom_site_type_symbol
_atom_site_label
_atom_site_fract_x
_atom_site_fract_y
_atom_site_fract_z
Si Si1 0.086535 0.553692 0.636687
Si Si2 0.747238 0.797988 0.214782
Si Si3 0.193154 0.792403 0.251747
Si Si4 0.190373 0.478442 0.828213
Si Si5 0.233003 0.077936 0.176137
Si Si6 0.798394 0.253159 0.077778
Si Si7 0.309068 0.715619 0.703656
Si Si8 0.886641 0.696772 0.553449
O O1 0.098918 0.389501 0.743983
O O2 0.416085 0.394919 0.477110
O O3 0.855881 0.829219 0.718250
O O4 0.969992 0.587548 0.622952
O O5 0.629881 0.762349 0.245318
O O6 0.459728 0.084556 0.315465
O O7 0.996867 0.742858 0.037982
O O8 0.502845 0.509270 0.129026
O O9 0.000918 0.792992 0.422082
O O10 0.289499 0.855341 0.220204
O O11 0.999183 0.004302 0.232755
O O12 0.360567 0.492456 0.753270
O O13 0.029013 0.698056 0.790183
O O14 0.000000 0.500000 0.000000
O O15 0.500000 0.000000 0.000000
O O16 0.685081 0.247148 0.230656
O O17 0.000000 0.000000 0.000000
O O18 0.000000 0.500000 0.500000
#
# Coordination Sequence:
#
# PCOD8012127 Si02
#       8
#     2   2   2   2   2   2   2   2
#     4  11  25  44  71 102 138 181 225 284 353 411
#     4  11  25  43  69 100 138 176 226 289 345 404
#     4  11  24  45  69 101 140 176 235 287 338 417
#     4  10  21  39  66  97 136 173 215 277 350 411
#     4  10  24  40  68 106 141 173 224 283 355 418
#     4  12  26  45  69  98 136 187 238 286 340 402
#     4  11  24  43  71 102 137 180 228 282 351 412
#     4  12  27  44  68  99 135 185 239 281 338 405
#
# _framework density 22.169566
#
# number of rings (size 3 to 8) (size 9 to 14) (size 15 to 20)
#    0.000    1.000    3.750    2.250    3.500    5.000 
#    0.000    0.000    0.000    0.000    0.000    0.000 
#    0.000    0.000    0.000    0.000    0.000    0.000 
#
# Total GULP energy -198310.708601 kJ/mol
# GULP energy per Si atom -12394.419288 kJ/mol
# Density = 2.211911 g / cm^3
# Si number density = 22.169566 Si / 1000 Ang^3
#
#
#
# Elastic Constant Matrix: (Units=GPa)
#
#
# Indices 1 2 3 4 5 6 
#
# 1 99.2334 38.7350 25.2846 -0.3704 22.8045 7.1974
# 2 38.7350 83.9759 28.7837 7.4371 7.3608 9.6310
# 3 25.2846 28.7837 114.7173 10.2130 3.1473 10.6847
# 4 -0.3704 7.4371 10.2130 37.3101 -2.9503 6.2584
# 5 22.8045 7.3608 3.1473 -2.9503 40.5591 7.5861
# 6 7.1974 9.6310 10.6847 6.2584 7.5861 20.2803
#
#
#
# Elastic Compliance Matrix: (Units=1/GPa)
#
#
# Indices 1 2 3 4 5 6 
#
# 1 0.014217 -0.005542 -0.001716 0.001041 -0.006921 0.000758
# 2 -0.005542 0.015770 -0.002213 -0.001802 0.001081 -0.004205
# 3 -0.001716 -0.002213 0.010100 -0.001651 0.001131 -0.003574
# 4 0.001041 -0.001802 -0.001651 0.029448 0.003718 -0.009122
# 5 -0.006921 0.001081 0.001131 0.003718 0.030639 -0.011262
# 6 0.000758 -0.004205 -0.003574 -0.009122 -0.011262 0.059948
#
#
# Mechanical properties :
#
#
# Convention : Reuss Voigt Hill
#
# Bulk Modulus (GPa) = 47.29503 53.72591 50.51047
# Shear Modulus (GPa) = 26.86540 33.30479 30.08510
#
# Velocity S-wave (km/s) = 3.48489 3.88012 3.68781
# Velocity P-wave (km/s) = 6.12962 6.66037 6.40050
#
# Compressibility (1/GPa) = 0.02114387
#
# Stress axis : x y z
#
# Youngs Moduli (GPa) = 70.33704 63.41114 99.01413
#
# Poissons Ratio (x) = 0.35143 0.16996
# Poissons Ratio (y) = 0.38981 0.21912
# Poissons Ratio (z) = 0.12073 0.14033
#
# Static dielectric constant tensor:
#      x y z
#    x 4.025690 0.129470 -0.008200 
#    y 0.129470 4.153470 0.069560 
#    z -0.008200 0.069560 4.053880 
# 
# 
# High freq. dielectric constant tensor:
#      x y z
#    x 1.867670 0.000160 0.000390 
#    y 0.000160 1.880660 0.002200 
#    z 0.000390 0.002200 1.879030 
# 
# From -- ./inp_files/273213.got.cif
#   From: 2010.06.25/outbox.cif.g09.slc.cpg/sg2_137_cif.got.tgz:273213.got - 2010.06.27 13:26:56.
