data_PCOD8012000
_publ_section_title
;
Structure prediction by ZEFSAII (Michael W. Deem and Ramdas Pophale) SiO2 
 PCOD8012000
Probable space group: P -1
;
_chemical_formula_sum "Si O2"
_cell_formula_units_Z 14
_cell_length_a 5.116389
_cell_length_b 16.304388
_cell_length_c 20.469008
_cell_angle_alpha 17.843227
_cell_angle_beta 68.495326
_cell_angle_gamma 71.178278
_cell_volume 484.705550
_symmetry_space_group_name_H-M "P -1"
_symmetry_group_IT_number 2
_symmetry_cell_setting 'triclinic'
loop_
_space_group_symop_operation_xyz
x,y,z
-x,-y,-z
loop_
_atom_site_type_symbol
_atom_site_label
_atom_site_fract_x
_atom_site_fract_y
_atom_site_fract_z
Si Si1 0.804366 0.628224 0.117456
Si Si2 0.826018 0.532939 0.926748
Si Si3 0.730262 0.976578 0.310651
Si Si4 0.581277 0.134957 0.706264
Si Si5 0.324914 0.928806 0.505748
Si Si6 0.862402 0.660166 0.332880
Si Si7 0.834857 0.423570 0.749458
O O1 0.815807 0.384541 0.247120
O O2 0.499588 0.582907 0.212975
O O3 0.039478 0.622590 0.155855
O O4 0.821163 0.938296 0.853726
O O5 0.899383 0.842130 0.659177
O O6 0.500000 0.500000 0.000000
O O7 0.000000 0.500000 0.000000
O O8 0.879817 0.288708 0.054759
O O9 0.504975 0.931840 0.308338
O O10 0.557283 0.969860 0.397796
O O11 0.941691 0.737203 0.478595
O O12 0.645814 0.452382 0.470046
O O13 0.296121 0.085928 0.816960
O O14 0.500000 0.000000 0.500000
O O15 0.000000 0.500000 0.500000
O O16 0.082195 0.764512 0.176142
#
# Coordination Sequence:
#
# PCOD8012000 Si02
#       7
#     2   2   2   2   2   2   2
#     4  11  26  44  68 103 140 178 224 283 351 398
#     4  10  21  39  65  95 127 172 223 268 321 395
#     4  10  21  43  67  96 135 185 229 272 337 409
#     4  11  25  44  69 101 137 183 232 282 339 417
#     4  10  21  42  66  98 137 175 223 284 339 397
#     4  11  24  44  71  99 135 180 237 278 339 413
#     4  11  24  45  69  99 141 179 222 286 339 401
#
# _framework density 28.883516
#
# number of rings (size 3 to 8) (size 9 to 14) (size 15 to 20)
#    0.000    1.429    1.429    3.429    4.000    2.286 
#    0.000   20.000    0.000    0.000    0.000    0.000 
#    0.000    0.000    0.000    0.000    0.000    0.000 
#
# Total GULP energy -173648.517501 kJ/mol
# GULP energy per Si atom -12403.465536 kJ/mol
# Density = 2.881778 g / cm^3
# Si number density = 28.883516 Si / 1000 Ang^3
#
#
#
# Elastic Constant Matrix: (Units=GPa)
#
#
# Indices 1 2 3 4 5 6 
#
# 1 101.5821 35.2356 37.3171 -5.2897 17.7714 15.9570
# 2 35.2356 159.3490 31.1623 -13.6392 9.0865 17.0861
# 3 37.3171 31.1623 163.8724 -2.8075 9.5039 5.3618
# 4 -5.2897 -13.6392 -2.8075 49.9423 -3.0346 16.6992
# 5 17.7714 9.0865 9.5039 -3.0346 62.7589 -7.4213
# 6 15.9570 17.0861 5.3618 16.6992 -7.4213 69.1082
#
#
#
# Elastic Compliance Matrix: (Units=1/GPa)
#
#
# Indices 1 2 3 4 5 6 
#
# 1 0.012331 -0.001667 -0.002182 0.001530 -0.003198 -0.002979
# 2 -0.001667 0.007262 -0.000863 0.002386 -0.000568 -0.001981
# 3 -0.002182 -0.000863 0.006769 -0.000171 -0.000266 0.000205
# 4 0.001530 0.002386 -0.000171 0.022985 -0.000413 -0.006528
# 5 -0.003198 -0.000568 -0.000266 -0.000413 0.017280 0.002855
# 6 -0.002979 -0.001981 0.000205 -0.006528 0.002855 0.017516
#
#
# Mechanical properties :
#
#
# Convention : Reuss Voigt Hill
#
# Bulk Modulus (GPa) = 59.03680 70.24816 64.64248
# Shear Modulus (GPa) = 50.39680 57.76776 54.08228
#
# Velocity S-wave (km/s) = 4.18165 4.47702 4.33185
# Velocity P-wave (km/s) = 6.61807 7.14835 6.88832
#
# Compressibility (1/GPa) = 0.01693859
#
# Stress axis : x y z
#
# Youngs Moduli (GPa) = 81.09478 137.70470 147.73143
#
# Poissons Ratio (x) = 0.22959 0.32233
# Poissons Ratio (y) = 0.13521 0.12744
# Poissons Ratio (z) = 0.17694 0.11879
#
# Static dielectric constant tensor:
#      x y z
#    x 5.330020 -0.977800 -0.165810 
#    y -0.977800 5.901080 -0.385960 
#    z -0.165810 -0.385960 7.245230 
# 
# 
# High freq. dielectric constant tensor:
#      x y z
#    x 2.200930 -0.057870 -0.011700 
#    y -0.057870 2.213870 -0.000900 
#    z -0.011700 -0.000900 2.219040 
# 
# From -- ./inp_files/100592.got.cif
#   From: 2010.06.25/outbox.cif.g09.slc.cpg/sg2_51_cif.got.tgz:100592.got - 2010.06.27 13:26:56.
