data_PCOD8012948
_publ_section_title
;
Structure prediction by ZEFSAII (Michael W. Deem and Ramdas Pophale) SiO2 
 PCOD8012948
Probable space group: P -1
;
_chemical_formula_sum "Si O2"
_cell_formula_units_Z 14
_cell_length_a 8.752230
_cell_length_b 23.697074
_cell_length_c 5.405090
_cell_angle_alpha 96.166369
_cell_angle_beta 98.536261
_cell_angle_gamma 31.873349
_cell_volume 585.020748
_symmetry_space_group_name_H-M "P -1"
_symmetry_group_IT_number 2
_symmetry_cell_setting 'triclinic'
loop_
_space_group_symop_operation_xyz
x,y,z
-x,-y,-z
loop_
_atom_site_type_symbol
_atom_site_label
_atom_site_fract_x
_atom_site_fract_y
_atom_site_fract_z
Si Si1 0.185507 0.586139 0.859197
Si Si2 0.695313 0.244718 0.611652
Si Si3 0.198457 0.695216 0.703519
Si Si4 0.267321 0.439314 0.884013
Si Si5 0.685715 0.124303 0.433984
Si Si6 0.787618 0.875764 0.047096
Si Si7 0.349421 0.201026 0.893691
O O1 0.141975 0.644365 0.646668
O O2 0.162400 0.527366 0.740502
O O3 0.942671 0.672965 0.054200
O O4 0.500000 0.500000 0.000000
O O5 0.729584 0.296854 0.528485
O O6 0.379340 0.350175 0.712803
O O7 0.701048 0.187627 0.412911
O O8 0.971951 0.154023 0.815646
O O9 0.465313 0.623351 0.916359
O O10 0.899093 0.815886 0.786687
O O11 0.000000 0.500000 0.000000
O O12 0.557440 0.138008 0.158449
O O13 0.497708 0.177278 0.666380
O O14 0.000000 0.000000 0.500000
O O15 0.728960 0.840508 0.198729
O O16 0.500000 0.000000 0.000000
#
# Coordination Sequence:
#
# PCOD8012948 Si02
#       7
#     2   2   2   2   2   2   2
#     4   9  20  44  66  96 140 179 229 289 350 413
#     4  11  25  41  69  99 135 177 233 291 339 419
#     4   9  22  39  60  97 132 168 230 282 342 407
#     4  10  21  40  64  93 133 177 227 278 347 410
#     4  12  28  47  72 102 147 187 230 294 359 415
#     4  10  23  42  69  94 133 178 232 288 343 412
#     4  11  26  47  71 106 138 187 239 283 352 430
#
# _framework density 23.930775000000001
#
# number of rings (size 3 to 8) (size 9 to 14) (size 15 to 20)
#    0.000    1.714    0.000    3.000   12.000    1.714 
#    5.143    0.000    0.000    0.000    0.000    0.000 
#    0.000    0.000    0.000    0.000    0.000    0.000 
#
# Total GULP energy -173437.969020 kJ/mol
# GULP energy per Si atom -12388.426359 kJ/mol
# Density = 2.387631 g / cm^3
# Si number density = 23.930775 Si / 1000 Ang^3
#
#
#
# Elastic Constant Matrix: (Units=GPa)
#
#
# Indices 1 2 3 4 5 6 
#
# 1 108.0125 46.0497 14.8671 14.3184 -11.8235 9.5946
# 2 46.0497 164.0450 12.4500 16.4452 -6.2773 -5.4856
# 3 14.8671 12.4500 64.7807 2.5017 -9.3988 -9.0565
# 4 14.3184 16.4452 2.5017 17.5697 2.6719 -1.4483
# 5 -11.8235 -6.2773 -9.3988 2.6719 35.4168 8.1174
# 6 9.5946 -5.4856 -9.0565 -1.4483 8.1174 40.7860
#
#
#
# Elastic Compliance Matrix: (Units=1/GPa)
#
#
# Indices 1 2 3 4 5 6 
#
# 1 0.012837 -0.002517 -0.002089 -0.009017 0.005150 -0.005167
# 2 -0.002517 0.007368 -0.000420 -0.004749 0.000429 0.001236
# 3 -0.002089 -0.000420 0.016944 -0.000467 0.002935 0.003597
# 4 -0.009017 -0.004749 -0.000467 0.070901 -0.010706 0.006027
# 5 0.005150 0.000429 0.002935 -0.010706 0.033340 -0.007518
# 6 -0.005167 0.001236 0.003597 0.006027 -0.007518 0.028409
#
#
# Mechanical properties :
#
#
# Convention : Reuss Voigt Hill
#
# Bulk Modulus (GPa) = 36.90535 53.73019 45.31777
# Shear Modulus (GPa) = 26.47141 36.31927 31.39534
#
# Velocity S-wave (km/s) = 3.32952 3.89997 3.62598
# Velocity P-wave (km/s) = 5.49874 6.54070 6.04222
#
# Compressibility (1/GPa) = 0.02709635
#
# Stress axis : x y z
#
# Youngs Moduli (GPa) = 77.90120 135.72074 59.01915
#
# Poissons Ratio (x) = 0.34156 0.12331
# Poissons Ratio (y) = 0.19605 0.02479
# Poissons Ratio (z) = 0.16277 0.05701
#
# Static dielectric constant tensor:
#      x y z
#    x 4.751660 0.121880 -0.074660 
#    y 0.121880 4.736690 0.042280 
#    z -0.074660 0.042280 3.988700 
# 
# 
# High freq. dielectric constant tensor:
#      x y z
#    x 1.967190 -0.003330 -0.003070 
#    y -0.003330 1.972080 0.002210 
#    z -0.003070 0.002210 1.912780 
# 
# From -- ./inp_files/26735.got.cif
#   From: 2010.06.25/outbox.cif.g09.slc.cpg/sg2_14_cif.got.tgz:26735.got - 2010.06.27 13:26:56.
