data_PCOD8012090
_publ_section_title
;
Structure prediction by ZEFSAII (Michael W. Deem and Ramdas Pophale) SiO2 
 PCOD8012090
Probable space group: P -1
;
_chemical_formula_sum "Si O2"
_cell_formula_units_Z 16
_cell_length_a 8.552763
_cell_length_b 25.063993
_cell_length_c 19.871386
_cell_angle_alpha 160.435403
_cell_angle_beta 145.757766
_cell_angle_gamma 43.203459
_cell_volume 773.873420
_symmetry_space_group_name_H-M "P -1"
_symmetry_group_IT_number 2
_symmetry_cell_setting 'triclinic'
loop_
_space_group_symop_operation_xyz
x,y,z
-x,-y,-z
loop_
_atom_site_type_symbol
_atom_site_label
_atom_site_fract_x
_atom_site_fract_y
_atom_site_fract_z
Si Si1 0.286107 0.442370 0.042595
Si Si2 0.200230 0.246397 0.408710
Si Si3 0.335210 0.993948 0.365728
Si Si4 0.376538 0.923671 0.064477
Si Si5 0.709751 0.649224 0.214869
Si Si6 0.836773 0.239103 0.398461
Si Si7 0.704698 0.904231 0.024350
Si Si8 0.699440 0.864079 0.233361
O O1 0.557099 0.592558 0.337365
O O2 0.333156 0.358377 0.888927
O O3 0.245193 0.307689 0.926909
O O4 0.000000 0.500000 0.000000
O O5 0.081063 0.290430 0.489521
O O6 0.347014 0.095652 0.289173
O O7 0.940559 0.199900 0.206792
O O8 0.338238 0.181244 0.571476
O O9 0.500000 0.000000 0.500000
O O10 0.481857 0.918761 0.270057
O O11 0.010516 0.872828 0.116015
O O12 0.555064 0.962714 0.105247
O O13 0.554028 0.839395 0.078764
O O14 0.038261 0.654416 0.363302
O O15 0.500000 0.500000 0.000000
O O16 0.779036 0.044263 0.160092
O O17 0.525359 0.257839 0.282921
O O18 0.000000 0.000000 0.500000
#
# Coordination Sequence:
#
# PCOD8012090 Si02
#       8
#     2   2   2   2   2   2   2   2
#     4  12  27  42  61  93 126 167 211 265 316 377
#     4  10  21  40  64  93 129 164 212 253 314 378
#     4  11  22  40  63  91 122 163 206 257 311 371
#     4  10  21  39  66  94 125 170 204 257 312 377
#     4  11  22  39  65  90 123 162 204 259 314 366
#     4   9  18  35  60  89 122 157 203 256 298 363
#     4   9  19  34  61  93 119 152 209 252 300 364
#     4  12  26  43  64  91 129 167 211 260 318 376
#
# _framework density 20.675217
#
# number of rings (size 3 to 8) (size 9 to 14) (size 15 to 20)
#    0.000    1.500    2.500    3.000    7.000    1.500 
#    0.000    0.000    0.000    2.250    0.000    0.000 
#    0.000    0.000    0.000    0.000    0.000    0.000 
#
# Total GULP energy -198308.617636 kJ/mol
# GULP energy per Si atom -12394.288602 kJ/mol
# Density = 2.062816 g / cm^3
# Si number density = 20.675217 Si / 1000 Ang^3
#
#
#
# Elastic Constant Matrix: (Units=GPa)
#
#
# Indices 1 2 3 4 5 6 
#
# 1 56.9434 27.8795 29.0481 -4.4716 19.3912 -0.0032
# 2 27.8795 118.7059 63.4724 -17.5368 15.0385 11.4073
# 3 29.0481 63.4724 148.5776 -23.5633 24.6989 5.0871
# 4 -4.4716 -17.5368 -23.5633 43.1874 -0.4321 1.2212
# 5 19.3912 15.0385 24.6989 -0.4321 36.1478 -5.2400
# 6 -0.0032 11.4073 5.0871 1.2212 -5.2400 38.5495
#
#
#
# Elastic Compliance Matrix: (Units=1/GPa)
#
#
# Indices 1 2 3 4 5 6 
#
# 1 0.023442 -0.003423 -0.001384 0.000186 -0.010233 -0.000199
# 2 -0.003423 0.012089 -0.003803 0.002563 -0.001042 -0.003299
# 3 -0.001384 -0.003803 0.010021 0.003761 -0.004615 -0.000944
# 4 0.000186 0.002563 0.003761 0.026302 -0.003799 -0.002604
# 5 -0.010233 -0.001042 -0.004615 -0.003799 0.037586 0.006146
# 6 -0.000199 -0.003299 -0.000944 -0.002604 0.006146 0.027959
#
#
# Mechanical properties :
#
#
# Convention : Reuss Voigt Hill
#
# Bulk Modulus (GPa) = 35.29287 62.78078 49.03682
# Shear Modulus (GPa) = 30.47615 37.16541 33.82078
#
# Velocity S-wave (km/s) = 3.84349 4.24439 4.04891
# Velocity P-wave (km/s) = 6.06661 7.37909 6.75480
#
# Compressibility (1/GPa) = 0.02833434
#
# Stress axis : x y z
#
# Youngs Moduli (GPa) = 42.65838 82.71999 99.78659
#
# Poissons Ratio (x) = 0.28315 0.13806
# Poissons Ratio (y) = 0.14602 0.37944
# Poissons Ratio (z) = 0.05902 0.31455
#
# Static dielectric constant tensor:
#      x y z
#    x 3.108650 -0.050910 -1.405890 
#    y -0.050910 3.924540 -0.809400 
#    z -1.405890 -0.809400 0.573090 
# 
# 
# High freq. dielectric constant tensor:
#      x y z
#    x 1.808470 0.010100 0.009490 
#    y 0.010100 1.794110 -0.037950 
#    z 0.009490 -0.037950 1.817770 
# 
# From -- ./inp_files/587760.got.cif
#   From: 2010.06.25/outbox.cif.g09.slc.cpg/sg2_294_cif.got.tgz:587760.got - 2010.06.27 13:26:56.
