data_PCOD8012565
_publ_section_title
;
Structure prediction by ZEFSAII (Michael W. Deem and Ramdas Pophale) SiO2 
 PCOD8012565
Probable space group: P -1
;
_chemical_formula_sum "Si O2"
_cell_formula_units_Z 16
_cell_length_a 6.496906
_cell_length_b 24.121696
_cell_length_c 9.014320
_cell_angle_alpha 135.846635
_cell_angle_beta 126.044997
_cell_angle_gamma 45.136252
_cell_volume 687.727319
_symmetry_space_group_name_H-M "P -1"
_symmetry_group_IT_number 2
_symmetry_cell_setting 'triclinic'
loop_
_space_group_symop_operation_xyz
x,y,z
-x,-y,-z
loop_
_atom_site_type_symbol
_atom_site_label
_atom_site_fract_x
_atom_site_fract_y
_atom_site_fract_z
Si Si1 0.172776 0.029635 0.305037
Si Si2 0.553143 0.264758 0.751770
Si Si3 0.015182 0.577589 0.025924
Si Si4 0.459729 0.931501 0.955753
Si Si5 0.237357 0.273248 0.357042
Si Si6 0.482624 0.133809 0.674209
Si Si7 0.775834 0.449742 0.631085
Si Si8 0.093784 0.288865 0.011755
O O1 0.200442 0.120251 0.509301
O O2 0.842616 0.068069 0.192879
O O3 0.238626 0.965158 0.353837
O O4 0.436126 0.964970 0.178190
O O5 0.501880 0.267985 0.558101
O O6 0.563235 0.171289 0.633625
O O7 0.863288 0.257231 0.902245
O O8 0.295838 0.353219 0.894982
O O9 0.275803 0.545219 0.200273
O O10 0.080810 0.624416 0.005388
O O11 0.990981 0.492488 0.784874
O O12 0.727489 0.828019 0.843170
O O13 0.500000 0.000000 0.000000
O O14 0.936232 0.342210 0.447816
O O15 0.212400 0.314599 0.260202
O O16 0.389704 0.209788 0.909323
O O17 0.500000 0.500000 0.500000
#
# Coordination Sequence:
#
# PCOD8012565 Si02
#       8
#     2   2   2   2   2   2   2   2
#     4  10  22  39  62  87 128 168 215 268 325 379
#     4  10  22  40  63  92 129 170 210 264 322 382
#     4   9  22  42  64  94 130 167 212 260 320 397
#     4  11  23  40  61  96 129 168 219 270 319 383
#     4  11  23  40  63  96 127 164 224 260 318 390
#     4  10  21  40  61  90 124 173 214 260 327 386
#     4  10  21  43  68  95 130 170 209 265 330 382
#     4  11  22  40  65  96 131 166 217 264 319 387
#
# _framework density 23.265032999999999
#
# number of rings (size 3 to 8) (size 9 to 14) (size 15 to 20)
#    0.000    1.750    1.250    2.250    1.750    1.500 
#    0.000   15.625    0.000    0.000    0.000    0.000 
#    0.000    0.000    0.000    0.000    0.000    0.000 
#
# Total GULP energy -198251.096723 kJ/mol
# GULP energy per Si atom -12390.693545 kJ/mol
# Density = 2.321208 g / cm^3
# Si number density = 23.265033 Si / 1000 Ang^3
#
#
#
# Elastic Constant Matrix: (Units=GPa)
#
#
# Indices 1 2 3 4 5 6 
#
# 1 66.4256 39.6678 26.9567 -7.9050 -1.9476 23.4634
# 2 39.6678 122.5380 45.9128 -9.5431 -3.3589 24.5220
# 3 26.9567 45.9128 115.1691 -17.4550 -14.6418 9.4253
# 4 -7.9050 -9.5431 -17.4550 51.3067 4.3894 -7.3655
# 5 -1.9476 -3.3589 -14.6418 4.3894 20.8590 3.9317
# 6 23.4634 24.5220 9.4253 -7.3655 3.9317 40.0137
#
#
#
# Elastic Compliance Matrix: (Units=1/GPa)
#
#
# Indices 1 2 3 4 5 6 
#
# 1 0.022143 -0.004195 -0.002474 0.000238 0.001478 -0.009933
# 2 -0.004195 0.011520 -0.003339 -0.000180 -0.000120 -0.003835
# 3 -0.002474 -0.003339 0.011808 0.002496 0.006901 0.000497
# 4 0.000238 -0.000180 0.002496 0.021151 -0.003386 0.003609
# 5 0.001478 -0.000120 0.006901 -0.003386 0.055212 -0.008467
# 6 -0.009933 -0.003835 0.000497 0.003609 -0.008467 0.034545
#
#
# Mechanical properties :
#
#
# Convention : Reuss Voigt Hill
#
# Bulk Modulus (GPa) = 39.28395 58.80080 49.04238
# Shear Modulus (GPa) = 27.04446 35.20889 31.12668
#
# Velocity S-wave (km/s) = 3.41317 3.89444 3.66172
# Velocity P-wave (km/s) = 5.69693 6.74918 6.24526
#
# Compressibility (1/GPa) = 0.02545569
#
# Stress axis : x y z
#
# Youngs Moduli (GPa) = 45.16005 86.80599 84.68724
#
# Poissons Ratio (x) = 0.36411 0.20952
# Poissons Ratio (y) = 0.18943 0.28280
# Poissons Ratio (z) = 0.11173 0.28988
#
# Static dielectric constant tensor:
#      x y z
#    x 3.756190 0.236330 -0.227140 
#    y 0.236330 4.385650 -0.029950 
#    z -0.227140 -0.029950 4.481240 
# 
# 
# High freq. dielectric constant tensor:
#      x y z
#    x 1.877580 0.012990 -0.012800 
#    y 0.012990 1.934540 -0.001900 
#    z -0.012800 -0.001900 1.933490 
# 
# From -- ./inp_files/142690.got.cif
#   From: 2010.06.25/outbox.cif.g09.slc.cpg/sg2_72_cif.got.tgz:142690.got - 2010.06.27 13:26:56.
