data_PCOD8012970
_publ_section_title
;
Structure prediction by ZEFSAII (Michael W. Deem and Ramdas Pophale) SiO2 
 PCOD8012970
Probable space group: P -1
;
_chemical_formula_sum "Si O2"
_cell_formula_units_Z 12
_cell_length_a 5.004498
_cell_length_b 12.239225
_cell_length_c 8.960254
_cell_angle_alpha 55.349016
_cell_angle_beta 65.640026
_cell_angle_gamma 72.431170
_cell_volume 409.623304
_symmetry_space_group_name_H-M "P -1"
_symmetry_group_IT_number 2
_symmetry_cell_setting 'triclinic'
loop_
_space_group_symop_operation_xyz
x,y,z
-x,-y,-z
loop_
_atom_site_type_symbol
_atom_site_label
_atom_site_fract_x
_atom_site_fract_y
_atom_site_fract_z
Si Si1 0.670719 0.147498 0.879134
Si Si2 0.270047 0.686316 0.970456
Si Si3 0.215067 0.889412 0.613628
Si Si4 0.523179 0.360754 0.514125
Si Si5 0.834339 0.604070 0.721818
Si Si6 0.679414 0.941129 0.272883
O O1 0.458956 0.232003 0.740741
O O2 0.982736 0.111216 0.756283
O O3 0.733871 0.245265 0.921805
O O4 0.565778 0.008392 0.087569
O O5 0.068067 0.768603 0.824966
O O6 0.601927 0.673462 0.838217
O O7 0.119576 0.551165 0.126909
O O8 0.459143 0.834239 0.472354
O O9 0.384387 0.945248 0.674879
O O10 0.000000 0.000000 0.500000
O O11 0.500000 0.500000 0.500000
O O12 0.264400 0.378034 0.440536
O O13 0.849631 0.336355 0.383167
#
# Coordination Sequence:
#
# PCOD8012970 Si02
#       6
#     2   2   2   2   2   2
#     4  10  21  43  67  96 130 175 223 281 333 395
#     4  10  23  43  66  97 133 177 224 280 333 403
#     4  10  21  40  64  95 128 172 220 273 337 396
#     4  12  25  45  71 100 138 177 226 278 338 397
#     4  11  26  47  68 101 138 181 224 274 338 404
#     4   9  21  42  64  92 131 170 224 272 335 396
#
# _framework density 29.295210000000001
#
# number of rings (size 3 to 8) (size 9 to 14) (size 15 to 20)
#    0.000    1.667    1.667    1.500    2.333    4.000 
#    6.000    4.167    0.000    0.000    0.000    0.000 
#    0.000    0.000    0.000    0.000    0.000    0.000 
#
# Total GULP energy -148753.091981 kJ/mol
# GULP energy per Si atom -12396.090998 kJ/mol
# Density = 2.922853 g / cm^3
# Si number density = 29.295210 Si / 1000 Ang^3
#
#
#
# Elastic Constant Matrix: (Units=GPa)
#
#
# Indices 1 2 3 4 5 6 
#
# 1 94.9220 -9.0980 65.0612 -11.3540 9.9551 -6.9200
# 2 -9.0980 91.7128 77.2435 -18.5587 8.1723 -6.3812
# 3 65.0612 77.2435 237.6430 -46.8881 19.6443 -0.4564
# 4 -11.3540 -18.5587 -46.8881 78.5720 -3.7618 2.6667
# 5 9.9551 8.1723 19.6443 -3.7618 61.2923 -3.7741
# 6 -6.9200 -6.3812 -0.4564 2.6667 -3.7741 34.7271
#
#
#
# Elastic Compliance Matrix: (Units=1/GPa)
#
#
# Indices 1 2 3 4 5 6 
#
# 1 0.016575 0.007979 -0.007049 -0.000140 -0.001225 0.004554
# 2 0.007979 0.019144 -0.008213 0.000566 -0.000882 0.004860
# 3 -0.007049 -0.008213 0.009404 0.002720 -0.000797 -0.003086
# 4 -0.000140 0.000566 0.002720 0.014494 -0.000097 -0.001012
# 5 -0.001225 -0.000882 -0.000797 -0.000097 0.016970 0.001435
# 6 0.004554 0.004860 -0.003086 -0.001012 0.001435 0.030790
#
#
# Mechanical properties :
#
#
# Convention : Reuss Voigt Hill
#
# Bulk Modulus (GPa) = 32.72642 76.74348 54.73495
# Shear Modulus (GPa) = 37.84261 54.32302 46.08282
#
# Velocity S-wave (km/s) = 3.59802 4.31087 3.97047
# Velocity P-wave (km/s) = 5.33446 7.14364 6.30429
#
# Compressibility (1/GPa) = 0.03055635
#
# Stress axis : x y z
#
# Youngs Moduli (GPa) = 60.33278 52.23698 106.33921
#
# Poissons Ratio (x) = -0.41678 0.74956
# Poissons Ratio (y) = -0.48137 0.87334
# Poissons Ratio (z) = 0.42527 0.42901
#
# Static dielectric constant tensor:
#      x y z
#    x 4.868910 0.311930 0.111570 
#    y 0.311930 6.216030 -0.255780 
#    z 0.111570 -0.255780 6.422030 
# 
# 
# High freq. dielectric constant tensor:
#      x y z
#    x 2.175740 0.032970 0.016430 
#    y 0.032970 2.236980 -0.001500 
#    z 0.016430 -0.001500 2.236360 
# 
# From -- ./inp_files/20467.got.cif
#   From: 2010.06.25/outbox.cif.g09.slc.cpg/sg2_11_cif.got.tgz:20467.got - 2010.06.27 13:26:56.
