data_PCOD8012924
_publ_section_title
;
Structure prediction by ZEFSAII (Michael W. Deem and Ramdas Pophale) SiO2 
 PCOD8012924
Probable space group: P -1
;
_chemical_formula_sum "Si O2"
_cell_formula_units_Z 16
_cell_length_a 14.371163
_cell_length_b 12.980559
_cell_length_c 9.365631
_cell_angle_alpha 145.549402
_cell_angle_beta 49.512273
_cell_angle_gamma 117.023674
_cell_volume 738.215909
_symmetry_space_group_name_H-M "P -1"
_symmetry_group_IT_number 2
_symmetry_cell_setting 'triclinic'
loop_
_space_group_symop_operation_xyz
x,y,z
-x,-y,-z
loop_
_atom_site_type_symbol
_atom_site_label
_atom_site_fract_x
_atom_site_fract_y
_atom_site_fract_z
Si Si1 0.731612 0.756325 0.529750
Si Si2 0.616640 0.429929 0.205662
Si Si3 0.588495 0.907302 0.115644
Si Si4 0.890736 0.102453 0.324585
Si Si5 0.241760 0.804626 0.704452
Si Si6 0.053375 0.073813 0.387192
Si Si7 0.557165 0.531687 0.830781
Si Si8 0.317252 0.990134 0.402365
O O1 0.726433 0.541114 0.261732
O O2 0.865166 0.771914 0.480162
O O3 0.711989 0.858643 0.516793
O O4 0.622370 0.846958 0.849869
O O5 0.500000 0.500000 0.500000
O O6 0.561113 0.478730 0.160975
O O7 0.672867 0.212403 0.912594
O O8 0.444451 0.009746 0.378152
O O9 0.672489 0.045740 0.249660
O O10 0.604914 0.725356 0.990735
O O11 0.812378 0.250896 0.459790
O O12 0.796070 0.973808 0.329684
O O13 0.948991 0.176188 0.494781
O O14 0.000000 0.000000 0.000000
O O15 0.321946 0.627879 0.501697
O O16 0.134169 0.893655 0.023543
O O17 0.000000 0.000000 0.500000
O O18 0.500000 0.500000 0.000000
#
# Coordination Sequence:
#
# PCOD8012924 Si02
#       8
#     2   2   2   2   2   2   2   2
#     4  11  21  37  66  93 128 162 201 256 321 365
#     4  11  23  37  62 100 134 155 200 253 316 390
#     4  10  22  36  60 101 126 152 205 250 315 391
#     4  10  22  42  63  88 122 170 217 258 296 360
#     4  10  22  39  69  84 126 170 195 256 324 357
#     4  10  21  40  64  92 119 163 222 257 293 361
#     4  11  23  39  58  93 135 158 196 248 311 385
#     4  11  21  36  66  91 132 160 200 257 316 368
#
# _framework density 21.673876
#
# number of rings (size 3 to 8) (size 9 to 14) (size 15 to 20)
#    0.000    1.500    3.750    2.625    3.500    3.000 
#    0.000    0.625    5.500    8.250    0.000    0.000 
#    0.000    0.000    0.000    0.000    0.000    0.000 
#
# Total GULP energy -198270.871379 kJ/mol
# GULP energy per Si atom -12391.929461 kJ/mol
# Density = 2.162455 g / cm^3
# Si number density = 21.673876 Si / 1000 Ang^3
#
#
#
# Elastic Constant Matrix: (Units=GPa)
#
#
# Indices 1 2 3 4 5 6 
#
# 1 111.2130 29.9783 16.9394 5.8170 8.2885 19.1860
# 2 29.9783 105.2664 25.2326 -23.1415 4.7808 7.6786
# 3 16.9394 25.2326 53.0686 -17.1971 -1.5565 11.0540
# 4 5.8170 -23.1415 -17.1971 41.0346 6.2845 -1.8716
# 5 8.2885 4.7808 -1.5565 6.2845 22.1957 -8.8884
# 6 19.1860 7.6786 11.0540 -1.8716 -8.8884 25.9286
#
#
#
# Elastic Compliance Matrix: (Units=1/GPa)
#
#
# Indices 1 2 3 4 5 6 
#
# 1 0.012572 -0.002799 -0.001840 -0.003471 -0.007439 -0.010490
# 2 -0.002799 0.012839 -0.002691 0.007137 -0.004587 -0.001641
# 3 -0.001840 -0.002691 0.025638 0.009579 -0.003342 -0.009226
# 4 -0.003471 0.007137 0.009579 0.034406 -0.011324 -0.005027
# 5 -0.007439 -0.004587 -0.003342 -0.011324 0.063500 0.029238
# 6 -0.010490 -0.001641 -0.009226 -0.005027 0.029238 0.060409
#
#
# Mechanical properties :
#
#
# Convention : Reuss Voigt Hill
#
# Bulk Modulus (GPa) = 27.48107 45.98320 36.73213
# Shear Modulus (GPa) = 21.17253 30.99163 26.08208
#
# Velocity S-wave (km/s) = 3.12888 3.78551 3.47275
# Velocity P-wave (km/s) = 5.07544 6.35365 5.75017
#
# Compressibility (1/GPa) = 0.03638869
#
# Stress axis : x y z
#
# Youngs Moduli (GPa) = 79.53992 77.88778 39.00437
#
# Poissons Ratio (x) = 0.21804 0.07177
# Poissons Ratio (y) = 0.22267 0.10496
# Poissons Ratio (z) = 0.14635 0.20959
#
# Static dielectric constant tensor:
#      x y z
#    x 4.286000 -0.046330 -0.143020 
#    y -0.046330 4.041210 -0.141170 
#    z -0.143020 -0.141170 4.030120 
# 
# 
# High freq. dielectric constant tensor:
#      x y z
#    x 1.865390 -0.006890 -0.002920 
#    y -0.006890 1.853730 -0.029200 
#    z -0.002920 -0.029200 1.831020 
# 
# From -- ./inp_files/308676.got.cif
#   From: 2010.06.25/outbox.cif.g09.slc.cpg/sg2_155_cif.got.tgz:308676.got - 2010.06.27 13:26:56.
