data_PCOD8012944
_publ_section_title
;
Structure prediction by ZEFSAII (Michael W. Deem and Ramdas Pophale) SiO2 
 PCOD8012944
Probable space group: P -1
;
_chemical_formula_sum "Si O2"
_cell_formula_units_Z 16
_cell_length_a 13.791958
_cell_length_b 9.413616
_cell_length_c 8.112045
_cell_angle_alpha 70.651529
_cell_angle_beta 132.068300
_cell_angle_gamma 110.717262
_cell_volume 724.512836
_symmetry_space_group_name_H-M "P -1"
_symmetry_group_IT_number 2
_symmetry_cell_setting 'triclinic'
loop_
_space_group_symop_operation_xyz
x,y,z
-x,-y,-z
loop_
_atom_site_type_symbol
_atom_site_label
_atom_site_fract_x
_atom_site_fract_y
_atom_site_fract_z
Si Si1 0.331573 0.220328 0.126037
Si Si2 0.367010 0.907013 0.302322
Si Si3 0.630601 0.623367 0.552707
Si Si4 0.810067 0.390957 0.752455
Si Si5 0.419894 0.633447 0.821496
Si Si6 0.474011 0.831457 0.113001
Si Si7 0.826283 0.588552 0.319586
Si Si8 0.055477 0.555399 0.789481
O O1 0.304961 0.293499 0.241191
O O2 0.492626 0.257538 0.256682
O O3 0.277541 0.037746 0.135322
O O4 0.253618 0.277994 0.863086
O O5 0.288056 0.761859 0.371897
O O6 0.389313 0.834624 0.179360
O O7 0.500000 0.000000 0.500000
O O8 0.500000 0.500000 0.500000
O O9 0.738512 0.539049 0.623223
O O10 0.600348 0.754890 0.340808
O O11 0.947281 0.418519 0.798096
O O12 0.851502 0.350319 0.002786
O O13 0.270034 0.547315 0.628912
O O14 0.500000 0.500000 0.000000
O O15 0.395730 0.722528 0.926221
O O16 0.500000 0.000000 0.000000
O O17 0.853472 0.515081 0.205402
O O18 0.962336 0.656079 0.545647
#
# Coordination Sequence:
#
# PCOD8012944 Si02
#       8
#     2   2   2   2   2   2   2   2
#     4  11  22  39  63  98 134 164 207 275 340 388
#     4  12  24  41  62  98 137 168 207 271 342 391
#     4  12  22  39  66  94 128 171 216 271 326 389
#     4  11  24  42  67  93 127 170 233 262 314 393
#     4  10  22  36  64  99 130 163 207 272 331 385
#     4  12  24  37  57  98 142 163 200 259 345 400
#     4  10  21  40  64  93 125 168 227 265 323 377
#     4  10  23  41  65  91 123 176 226 273 300 376
#
# _framework density 22.083805000000002
#
# number of rings (size 3 to 8) (size 9 to 14) (size 15 to 20)
#    0.000    1.000    5.000    2.250    7.000    0.000 
#    0.000    1.250    0.000    0.000    0.000    0.000 
#    0.000    0.000    0.000    0.000    0.000    0.000 
#
# Total GULP energy -198258.372511 kJ/mol
# GULP energy per Si atom -12391.148282 kJ/mol
# Density = 2.203354 g / cm^3
# Si number density = 22.083805 Si / 1000 Ang^3
#
#
#
# Elastic Constant Matrix: (Units=GPa)
#
#
# Indices 1 2 3 4 5 6 
#
# 1 90.7251 37.7376 1.1025 -1.3845 -5.3946 -4.0347
# 2 37.7376 130.3859 32.8234 -16.9248 5.1464 -7.1153
# 3 1.1025 32.8234 95.1569 -6.2119 10.6653 -0.5760
# 4 -1.3845 -16.9248 -6.2119 42.3062 -4.6710 -9.6132
# 5 -5.3946 5.1464 10.6653 -4.6710 35.4628 5.0792
# 6 -4.0347 -7.1153 -0.5760 -9.6132 5.0792 30.2462
#
#
#
# Elastic Compliance Matrix: (Units=1/GPa)
#
#
# Indices 1 2 3 4 5 6 
#
# 1 0.012859 -0.004156 0.000992 -0.000830 0.002132 0.000135
# 2 -0.004156 0.010437 -0.003129 0.004221 -0.001133 0.003373
# 3 0.000992 -0.003129 0.011928 0.000249 -0.002979 0.000203
# 4 -0.000830 0.004221 0.000249 0.027640 0.001477 0.009424
# 5 0.002132 -0.001133 -0.002979 0.001477 0.030448 -0.004683
# 6 0.000135 0.003373 0.000203 0.009424 -0.004683 0.037659
#
#
# Mechanical properties :
#
#
# Convention : Reuss Voigt Hill
#
# Bulk Modulus (GPa) = 44.17279 51.06610 47.61945
# Shear Modulus (GPa) = 33.08999 37.91000 35.49999
#
# Velocity S-wave (km/s) = 3.87509 4.14773 4.01373
# Velocity P-wave (km/s) = 6.32990 6.79060 6.56429
#
# Compressibility (1/GPa) = 0.02263837
#
# Stress axis : x y z
#
# Youngs Moduli (GPa) = 77.76564 95.81380 83.83553
#
# Poissons Ratio (x) = 0.39822 -0.08319
# Poissons Ratio (y) = 0.32321 0.26232
# Poissons Ratio (z) = -0.07717 0.29980
#
# Static dielectric constant tensor:
#      x y z
#    x 3.843020 0.146910 -0.026480 
#    y 0.146910 4.453450 -0.183100 
#    z -0.026480 -0.183100 4.388540 
# 
# 
# High freq. dielectric constant tensor:
#      x y z
#    x 1.866210 -0.010680 -0.018500 
#    y -0.010680 1.845640 -0.006300 
#    z -0.018500 -0.006300 1.894780 
# 
# From -- ./inp_files/298013.got.cif
#   From: 2010.06.25/outbox.cif.g09.slc.cpg/sg2_150_cif.got.tgz:298013.got - 2010.06.27 13:26:56.
