data_PCOD8012066
_publ_section_title
;
Structure prediction by ZEFSAII (Michael W. Deem and Ramdas Pophale) SiO2 
 PCOD8012066
Probable space group: P -1
;
_chemical_formula_sum "Si O2"
_cell_formula_units_Z 14
_cell_length_a 8.733550
_cell_length_b 8.726732
_cell_length_c 21.098252
_cell_angle_alpha 121.447171
_cell_angle_beta 149.840798
_cell_angle_gamma 67.920495
_cell_volume 678.522850
_symmetry_space_group_name_H-M "P -1"
_symmetry_group_IT_number 2
_symmetry_cell_setting 'triclinic'
loop_
_space_group_symop_operation_xyz
x,y,z
-x,-y,-z
loop_
_atom_site_type_symbol
_atom_site_label
_atom_site_fract_x
_atom_site_fract_y
_atom_site_fract_z
Si Si1 0.256204 0.167863 0.925466
Si Si2 0.690833 0.318102 0.698246
Si Si3 0.459654 0.302752 0.472743
Si Si4 0.299813 0.275916 0.167687
Si Si5 0.268562 0.803665 0.800606
Si Si6 0.330161 0.028631 0.592220
Si Si7 0.154969 0.947069 0.133428
O O1 0.032295 0.287475 0.836728
O O2 0.075859 0.038899 0.888073
O O3 0.356925 0.025450 0.880892
O O4 0.561577 0.279235 0.095609
O O5 0.660821 0.303209 0.608793
O O6 0.664611 0.517612 0.754460
O O7 0.401870 0.172265 0.591009
O O8 0.500000 0.500000 0.500000
O O9 0.097190 0.249013 0.343926
O O10 0.583863 0.164501 0.439479
O O11 0.605808 0.260250 0.234153
O O12 0.266391 0.148679 0.189598
O O13 0.991136 0.207996 0.001673
O O14 0.546041 0.120765 0.746410
O O15 0.000000 0.000000 0.500000
#
# Coordination Sequence:
#
# PCOD8012066 Si02
#       7
#     2   2   2   2   2   2   2
#     4   9  20  41  67  87 124 167 212 264 313 364
#     4  11  24  42  65  95 128 168 209 267 313 374
#     4  12  26  44  64  90 133 171 210 259 320 383
#     4  10  22  37  68  94 124 165 214 257 311 373
#     4  10  21  39  66  90 123 169 211 251 318 374
#     4  11  25  42  65  92 128 164 213 265 319 372
#     4   9  19  41  62  92 127 163 206 263 308 376
#
# _framework density 20.633054999999999
#
# number of rings (size 3 to 8) (size 9 to 14) (size 15 to 20)
#    0.000    1.714    2.857    1.286    4.000    5.714 
#    0.000    0.714    0.000    0.000    0.000    0.000 
#    0.000    0.000    0.000    0.000    0.000    0.000 
#
# Total GULP energy -173468.867250 kJ/mol
# GULP energy per Si atom -12390.633375 kJ/mol
# Density = 2.058609 g / cm^3
# Si number density = 20.633055 Si / 1000 Ang^3
#
#
#
# Elastic Constant Matrix: (Units=GPa)
#
#
# Indices 1 2 3 4 5 6 
#
# 1 71.8391 39.0910 42.2234 -11.6650 -3.1917 -7.1557
# 2 39.0910 59.0133 46.7362 4.9889 3.9349 4.8664
# 3 42.2234 46.7362 83.3074 -14.2885 -3.3719 -11.5740
# 4 -11.6650 4.9889 -14.2885 40.6041 0.1902 -0.1159
# 5 -3.1917 3.9349 -3.3719 0.1902 29.5621 -8.7488
# 6 -7.1557 4.8664 -11.5740 -0.1159 -8.7488 35.1808
#
#
#
# Elastic Compliance Matrix: (Units=1/GPa)
#
#
# Indices 1 2 3 4 5 6 
#
# 1 0.029510 -0.025749 0.004079 0.013064 0.011048 0.013697
# 2 -0.025749 0.070571 -0.037319 -0.029174 -0.026277 -0.033907
# 3 0.004079 -0.037319 0.037946 0.019098 0.016299 0.022592
# 4 0.013064 -0.029174 0.019098 0.038676 0.011983 0.016083
# 5 0.011048 -0.026277 0.016299 0.011983 0.047106 0.022998
# 6 0.013697 -0.033907 0.022592 0.016083 0.022998 0.049105
#
#
# Mechanical properties :
#
#
# Convention : Reuss Voigt Hill
#
# Bulk Modulus (GPa) = 49.87265 52.25121 51.06193
# Shear Modulus (GPa) = 12.57625 26.81002 19.69313
#
# Velocity S-wave (km/s) = 2.47152 3.60859 3.09276
# Velocity P-wave (km/s) = 5.68931 6.53770 6.12821
#
# Compressibility (1/GPa) = 0.02005107
#
# Stress axis : x y z
#
# Youngs Moduli (GPa) = 33.88672 14.17011 26.35308
#
# Poissons Ratio (x) = 0.36487 -0.10751
# Poissons Ratio (y) = 0.87255 0.98346
# Poissons Ratio (z) = -0.13824 0.52881
#
# Static dielectric constant tensor:
#      x y z
#    x 3.774660 0.058710 -0.078260 
#    y 0.058710 3.572630 -0.288310 
#    z -0.078260 -0.288310 4.132070 
# 
# 
# High freq. dielectric constant tensor:
#      x y z
#    x 1.804160 -0.005720 -0.008220 
#    y -0.005720 1.793540 -0.010790 
#    z -0.008220 -0.010790 1.823960 
# 
# From -- ./inp_files/175526.got.cif
#   From: 2010.06.25/outbox.cif.g09.slc.cpg/sg2_88_cif.got.tgz:175526.got - 2010.06.27 13:26:56.
