data_PCOD8012976
_publ_section_title
;
Structure prediction by ZEFSAII (Michael W. Deem and Ramdas Pophale) SiO2 
 PCOD8012976
Probable space group: P -1
;
_chemical_formula_sum "Si O2"
_cell_formula_units_Z 16
_cell_length_a 9.547601
_cell_length_b 7.611929
_cell_length_c 12.526825
_cell_angle_alpha 58.880713
_cell_angle_beta 83.154278
_cell_angle_gamma 89.390592
_cell_volume 772.434340
_symmetry_space_group_name_H-M "P -1"
_symmetry_group_IT_number 2
_symmetry_cell_setting 'triclinic'
loop_
_space_group_symop_operation_xyz
x,y,z
-x,-y,-z
loop_
_atom_site_type_symbol
_atom_site_label
_atom_site_fract_x
_atom_site_fract_y
_atom_site_fract_z
Si Si1 0.992503 0.044209 0.264700
Si Si2 0.222274 0.812120 0.405060
Si Si3 0.764341 0.294086 0.328551
Si Si4 0.201744 0.238701 0.754317
Si Si5 0.354183 0.409608 0.492331
Si Si6 0.590675 0.813193 0.074719
Si Si7 0.710437 0.802364 0.840022
Si Si8 0.465080 0.389450 0.267255
O O1 0.874392 0.174858 0.287433
O O2 0.119002 0.209961 0.166337
O O3 0.937665 0.909069 0.209587
O O4 0.059042 0.876526 0.391063
O O5 0.267442 0.825944 0.520360
O O6 0.242595 0.584902 0.430344
O O7 0.321839 0.970290 0.273883
O O8 0.824553 0.528548 0.276949
O O9 0.617800 0.291346 0.276451
O O10 0.286882 0.240966 0.633083
O O11 0.284651 0.121087 0.874930
O O12 0.500000 0.500000 0.500000
O O13 0.382781 0.308521 0.406802
O O14 0.493926 0.634342 0.196031
O O15 0.653223 0.740567 0.980283
O O16 0.500000 0.000000 0.000000
O O17 0.633932 0.644123 0.815080
#
# Coordination Sequence:
#
# PCOD8012976 Si02
#       8
#     2   2   2   2   2   2   2   2
#     4  10  24  41  62  97 131 173 210 257 322 391
#     4   9  21  38  59  93 128 165 211 248 319 383
#     4  10  21  40  64  95 134 163 210 265 323 381
#     4  10  24  40  67  93 128 173 212 266 322 377
#     4  11  19  39  64  98 128 161 214 267 323 376
#     4  11  23  43  66  89 124 166 220 268 317 374
#     4  10  25  40  60  94 127 164 219 254 315 385
#     4  11  23  39  67  97 125 164 211 277 321 370
#
# _framework density 20.713736000000001
#
# number of rings (size 3 to 8) (size 9 to 14) (size 15 to 20)
#    0.750    1.000    3.750    1.500    3.500    4.000 
#    0.000    2.500    0.000    0.000    0.000    0.000 
#    0.000    0.000    0.000    0.000    0.000    0.000 
#
# Total GULP energy -198269.778329 kJ/mol
# GULP energy per Si atom -12391.861146 kJ/mol
# Density = 2.066659 g / cm^3
# Si number density = 20.713736 Si / 1000 Ang^3
#
#
#
# Elastic Constant Matrix: (Units=GPa)
#
#
# Indices 1 2 3 4 5 6 
#
# 1 101.8693 58.1313 24.3176 9.4161 18.7881 1.5620
# 2 58.1313 75.2043 26.0540 11.7505 13.4026 -6.2861
# 3 24.3176 26.0540 94.2613 11.9987 14.2946 -1.4970
# 4 9.4161 11.7505 11.9987 32.1616 -8.6768 9.0961
# 5 18.7881 13.4026 14.2946 -8.6768 30.7874 6.1395
# 6 1.5620 -6.2861 -1.4970 9.0961 6.1395 43.5110
#
#
#
# Elastic Compliance Matrix: (Units=1/GPa)
#
#
# Indices 1 2 3 4 5 6 
#
# 1 0.018597 -0.013145 -0.000074 -0.001798 -0.005826 -0.001371
# 2 -0.013145 0.027495 -0.001755 -0.009619 -0.007325 0.007428
# 3 -0.000074 -0.001755 0.013290 -0.007252 -0.007973 0.002847
# 4 -0.001798 -0.009619 -0.007252 0.049108 0.025573 -0.015449
# 5 -0.005826 -0.007325 -0.007973 0.025573 0.052913 -0.013936
# 6 -0.001371 0.007428 0.002847 -0.015449 -0.013936 0.029399
#
#
# Mechanical properties :
#
#
# Convention : Reuss Voigt Hill
#
# Bulk Modulus (GPa) = 33.97343 54.26007 44.11675
# Shear Modulus (GPa) = 21.68614 32.14748 26.91681
#
# Velocity S-wave (km/s) = 3.23916 3.94380 3.60872
# Velocity P-wave (km/s) = 5.51603 6.85494 6.22161
#
# Compressibility (1/GPa) = 0.02943476
#
# Stress axis : x y z
#
# Youngs Moduli (GPa) = 53.77269 36.36992 75.24207
#
# Poissons Ratio (x) = 0.47807 0.00555
# Poissons Ratio (y) = 0.70683 0.13207
# Poissons Ratio (z) = 0.00397 0.06384
#
# Static dielectric constant tensor:
#      x y z
#    x 3.804070 -0.038860 -0.007460 
#    y -0.038860 3.569860 0.068560 
#    z -0.007460 0.068560 4.043720 
# 
# 
# High freq. dielectric constant tensor:
#      x y z
#    x 1.802110 -0.000140 0.010300 
#    y -0.000140 1.794900 0.004120 
#    z 0.010300 0.004120 1.811270 
# 
# From -- ./inp_files/378025.got.cif
#   From: 2010.06.25/outbox.cif.g09.slc.cpg/sg2_190_cif.got.tgz:378025.got - 2010.06.27 13:26:56.
