data_PCOD8012327
_publ_section_title
;
Structure prediction by ZEFSAII (Michael W. Deem and Ramdas Pophale) SiO2 
 PCOD8012327
Probable space group: P -1
;
_chemical_formula_sum "Si O2"
_cell_formula_units_Z 12
_cell_length_a 5.308961
_cell_length_b 9.970646
_cell_length_c 11.944540
_cell_angle_alpha 67.441310
_cell_angle_beta 72.412614
_cell_angle_gamma 64.820334
_cell_volume 521.056522
_symmetry_space_group_name_H-M "P -1"
_symmetry_group_IT_number 2
_symmetry_cell_setting 'triclinic'
loop_
_space_group_symop_operation_xyz
x,y,z
-x,-y,-z
loop_
_atom_site_type_symbol
_atom_site_label
_atom_site_fract_x
_atom_site_fract_y
_atom_site_fract_z
Si Si1 0.195047 0.114859 0.034375
Si Si2 0.388931 0.431602 0.754700
Si Si3 0.810902 0.655825 0.415212
Si Si4 0.101252 0.815804 0.166601
Si Si5 0.501024 0.725680 0.647335
Si Si6 0.074050 0.276665 0.225247
O O1 0.195019 0.225636 0.101998
O O2 0.023471 0.000842 0.126545
O O3 0.046009 0.221194 0.913695
O O4 0.500000 0.000000 0.000000
O O5 0.369506 0.385285 0.644110
O O6 0.555817 0.277289 0.854971
O O7 0.586649 0.537691 0.699195
O O8 0.079081 0.534658 0.812044
O O9 0.596366 0.767446 0.499829
O O10 0.000000 0.500000 0.500000
O O11 0.989545 0.755803 0.310659
O O12 0.665231 0.779262 0.706060
O O13 0.160244 0.801116 0.684929
#
# Coordination Sequence:
#
# PCOD8012327 Si02
#       6
#     2   2   2   2   2   2
#     4  11  27  49  68  90 143 188 243 281 338 420
#     4  10  21  39  69 108 137 173 228 280 349 407
#     4  12  19  40  70 107 143 174 223 283 358 413
#     4  11  25  42  71 101 131 195 227 286 345 412
#     4  10  22  38  71 104 143 171 221 287 344 415
#     4  10  23  43  70 102 137 183 230 289 345 403
#
# _framework density 23.030128999999999
#
# number of rings (size 3 to 8) (size 9 to 14) (size 15 to 20)
#    1.000    0.333    3.333    1.500    7.000    0.667 
#    0.000    5.833    0.000    0.000    0.000    0.000 
#    0.000    0.000    0.000    0.000    0.000    0.000 
#
# Total GULP energy -148728.734758 kJ/mol
# GULP energy per Si atom -12394.061230 kJ/mol
# Density = 2.297771 g / cm^3
# Si number density = 23.030129 Si / 1000 Ang^3
#
#
#
# Elastic Constant Matrix: (Units=GPa)
#
#
# Indices 1 2 3 4 5 6 
#
# 1 130.7687 21.3050 31.0295 12.6978 39.9112 -7.9410
# 2 21.3050 54.0682 41.9900 20.4286 19.6068 -3.2390
# 3 31.0295 41.9900 111.8229 11.1167 26.7468 -2.9423
# 4 12.6978 20.4286 11.1167 44.0926 10.5665 3.3116
# 5 39.9112 19.6068 26.7468 10.5665 45.1399 6.8719
# 6 -7.9410 -3.2390 -2.9423 3.3116 6.8719 27.4622
#
#
#
# Elastic Compliance Matrix: (Units=1/GPa)
#
#
# Indices 1 2 3 4 5 6 
#
# 1 0.011444 0.000717 -0.000586 -0.001380 -0.010699 0.006175
# 2 0.000717 0.033230 -0.009500 -0.011860 -0.007645 0.006452
# 3 -0.000586 -0.009500 0.013431 0.002059 -0.003931 0.000885
# 4 -0.001380 -0.011860 0.002059 0.028609 -0.000812 -0.004824
# 5 -0.010699 -0.007645 -0.003931 -0.000812 0.039620 -0.014233
# 6 0.006175 0.006452 0.000885 -0.004824 -0.014233 0.043198
#
#
# Mechanical properties :
#
#
# Convention : Reuss Voigt Hill
#
# Bulk Modulus (GPa) = 25.40165 53.92321 39.66243
# Shear Modulus (GPa) = 24.82725 36.82798 30.82762
#
# Velocity S-wave (km/s) = 3.28690 4.00324 3.66263
# Velocity P-wave (km/s) = 5.04566 6.69574 5.92839
#
# Compressibility (1/GPa) = 0.03936753
#
# Stress axis : x y z
#
# Youngs Moduli (GPa) = 87.38382 30.09348 74.45351
#
# Poissons Ratio (x) = -0.02157 0.04362
# Poissons Ratio (y) = -0.06264 0.70728
# Poissons Ratio (z) = 0.05119 0.28588
#
# Static dielectric constant tensor:
#      x y z
#    x 4.211560 0.136250 -0.045420 
#    y 0.136250 3.976190 0.050420 
#    z -0.045420 0.050420 4.216840 
# 
# 
# High freq. dielectric constant tensor:
#      x y z
#    x 1.925350 0.002450 -0.000030 
#    y 0.002450 1.881880 0.007580 
#    z -0.000030 0.007580 1.901140 
# 
# From -- ./inp_files/38858.got.cif
#   From: 2010.06.25/outbox.cif.g09.slc.cpg/sg2_20_cif.got.tgz:38858.got - 2010.06.27 13:26:56.
