data_PCOD8012055
_publ_section_title
;
Structure prediction by ZEFSAII (Michael W. Deem and Ramdas Pophale) SiO2 
 PCOD8012055
Probable space group: P -1
;
_chemical_formula_sum "Si O2"
_cell_formula_units_Z 14
_cell_length_a 11.317968
_cell_length_b 10.080075
_cell_length_c 6.885062
_cell_angle_alpha 88.619328
_cell_angle_beta 78.029106
_cell_angle_gamma 123.388898
_cell_volume 632.329332
_symmetry_space_group_name_H-M "P -1"
_symmetry_group_IT_number 2
_symmetry_cell_setting 'triclinic'
loop_
_space_group_symop_operation_xyz
x,y,z
-x,-y,-z
loop_
_atom_site_type_symbol
_atom_site_label
_atom_site_fract_x
_atom_site_fract_y
_atom_site_fract_z
Si Si1 0.448587 0.327558 0.956357
Si Si2 0.199645 0.849585 0.760678
Si Si3 0.597403 0.789670 0.429060
Si Si4 0.970181 0.209597 0.541919
Si Si5 0.954426 0.614880 0.096495
Si Si6 0.350283 0.677697 0.820287
Si Si7 0.189613 0.156781 0.315542
O O1 0.459053 0.338157 0.720544
O O2 0.500000 0.500000 0.000000
O O3 0.553754 0.281357 0.019042
O O4 0.281324 0.205567 0.085156
O O5 0.275150 0.773557 0.843529
O O6 0.151196 0.795759 0.554430
O O7 0.318273 0.039775 0.717888
O O8 0.049352 0.783789 0.938126
O O9 0.453425 0.743944 0.594340
O O10 0.707078 0.781916 0.532461
O O11 0.011145 0.342237 0.687743
O O12 0.106338 0.246224 0.359407
O O13 0.914342 0.036247 0.657599
O O14 0.777433 0.515594 0.137750
O O15 0.000000 0.500000 0.000000
#
# Coordination Sequence:
#
# PCOD8012055 Si02
#       7
#     2   2   2   2   2   2   2
#     4  11  25  38  60  87 123 161 199 243 303 354
#     4  10  22  41  64  89 117 159 203 245 301 352
#     4  10  22  41  64  86 120 160 199 250 296 352
#     4  10  21  39  66  86 124 155 198 253 297 357
#     4  10  23  38  59  91 125 155 198 245 298 360
#     4  10  24  39  58  93 120 155 203 243 299 359
#     4   9  22  40  60  95 114 158 206 243 298 356
#
# _framework density 22.140363000000001
#
# number of rings (size 3 to 8) (size 9 to 14) (size 15 to 20)
#    0.000    2.000    0.000    1.286    6.000    6.286 
#    0.000    4.286    0.000    0.000    0.000    0.000 
#    0.000    0.000    0.000    0.000    0.000    0.000 
#
# Total GULP energy -173504.610665 kJ/mol
# GULP energy per Si atom -12393.186476 kJ/mol
# Density = 2.208997 g / cm^3
# Si number density = 22.140363 Si / 1000 Ang^3
#
#
#
# Elastic Constant Matrix: (Units=GPa)
#
#
# Indices 1 2 3 4 5 6 
#
# 1 74.9949 11.5608 11.2113 1.7335 -8.2415 4.1468
# 2 11.5608 69.6951 14.7846 -2.9120 -16.1732 16.9408
# 3 11.2113 14.7846 76.4484 7.4020 -6.2177 11.0139
# 4 1.7335 -2.9120 7.4020 52.8955 10.7439 -7.3146
# 5 -8.2415 -16.1732 -6.2177 10.7439 21.6557 -10.0489
# 6 4.1468 16.9408 11.0139 -7.3146 -10.0489 31.6005
#
#
#
# Elastic Compliance Matrix: (Units=1/GPa)
#
#
# Indices 1 2 3 4 5 6 
#
# 1 0.014273 -0.001059 -0.001422 -0.001295 0.005115 0.000517
# 2 -0.001059 0.018922 -0.001491 -0.001885 0.011299 -0.006329
# 3 -0.001422 -0.001491 0.014651 -0.003099 0.002164 -0.004150
# 4 -0.001295 -0.001885 -0.003099 0.022241 -0.012185 0.003534
# 5 0.005115 0.011299 0.002164 -0.012185 0.068566 0.011501
# 6 0.000517 -0.006329 -0.004150 0.003534 0.011501 0.040892
#
#
# Mechanical properties :
#
#
# Convention : Reuss Voigt Hill
#
# Bulk Modulus (GPa) = 25.05997 32.91685 28.98841
# Shear Modulus (GPa) = 24.90182 33.46912 29.18547
#
# Velocity S-wave (km/s) = 3.35733 3.89225 3.63464
# Velocity P-wave (km/s) = 5.13538 5.92445 5.54397
#
# Compressibility (1/GPa) = 0.03990428
#
# Stress axis : x y z
#
# Youngs Moduli (GPa) = 70.06011 52.84973 68.25251
#
# Poissons Ratio (x) = 0.05596 0.09702
# Poissons Ratio (y) = 0.07418 0.10175
# Poissons Ratio (z) = 0.09959 0.07879
#
# Static dielectric constant tensor:
#      x y z
#    x 4.265140 0.746470 -0.417370 
#    y 0.746470 4.565950 -0.799140 
#    z -0.417370 -0.799140 4.625970 
# 
# 
# High freq. dielectric constant tensor:
#      x y z
#    x 1.863910 0.022340 -0.001660 
#    y 0.022340 1.871870 -0.014470 
#    z -0.001660 -0.014470 1.874630 
# 
# From -- ./inp_files/63595.got.cif
#   From: 2010.06.25/outbox.cif.g09.slc.cpg/sg2_32_cif.got.tgz:63595.got - 2010.06.27 13:26:56.
