data_PCOD8012030
_publ_section_title
;
Structure prediction by ZEFSAII (Michael W. Deem and Ramdas Pophale) SiO2 
 PCOD8012030
Probable space group: P -1
;
_chemical_formula_sum "Si O2"
_cell_formula_units_Z 16
_cell_length_a 4.863636
_cell_length_b 21.462089
_cell_length_c 8.971138
_cell_angle_alpha 61.383342
_cell_angle_beta 118.209257
_cell_angle_gamma 102.107788
_cell_volume 724.244363
_symmetry_space_group_name_H-M "P -1"
_symmetry_group_IT_number 2
_symmetry_cell_setting 'triclinic'
loop_
_space_group_symop_operation_xyz
x,y,z
-x,-y,-z
loop_
_atom_site_type_symbol
_atom_site_label
_atom_site_fract_x
_atom_site_fract_y
_atom_site_fract_z
Si Si1 0.649380 0.628122 0.708071
Si Si2 0.463113 0.584708 0.394011
Si Si3 0.359143 0.047210 0.133797
Si Si4 0.274061 0.850241 0.672757
Si Si5 0.213989 0.245556 0.211493
Si Si6 0.205545 0.364036 0.837052
Si Si7 0.864641 0.949739 0.243536
Si Si8 0.694791 0.434148 0.062603
O O1 0.479792 0.620337 0.518667
O O2 0.788823 0.704427 0.698228
O O3 0.371772 0.624260 0.761528
O O4 0.927388 0.565446 0.865029
O O5 0.500000 0.500000 0.500000
O O6 0.738557 0.630007 0.332691
O O7 0.111914 0.598817 0.230124
O O8 0.528080 0.101202 0.223070
O O9 0.569586 0.977771 0.230200
O O10 0.244293 0.083427 0.906079
O O11 0.068572 0.018872 0.185279
O O12 0.491791 0.807781 0.660275
O O13 0.097925 0.798607 0.800113
O O14 0.035301 0.892518 0.456906
O O15 0.212720 0.287422 0.004452
O O16 0.513516 0.410774 0.896108
O O17 0.500000 0.500000 0.000000
#
# Coordination Sequence:
#
# PCOD8012030 Si02
#       8
#     2   2   2   2   2   2   2   2
#     4  11  23  40  59  86 125 158 201 264 319 372
#     4  12  23  40  65  95 119 154 212 272 339 391
#     4  10  21  39  65  99 132 165 208 278 321 366
#     4  12  22  41  66  93 127 180 224 251 311 393
#     4  11  25  43  60  85 129 173 219 248 304 403
#     4  11  23  41  60  86 125 161 200 265 321 376
#     4  10  21  39  65  98 134 161 213 273 327 357
#     4  11  20  37  63  86 112 154 202 253 318 384
#
# _framework density 22.091991
#
# number of rings (size 3 to 8) (size 9 to 14) (size 15 to 20)
#    0.000    1.000    0.000    9.000    0.000    0.000 
#    6.750    0.000    0.000    0.000    0.000    0.000 
#    0.000    0.000    0.000    0.000    0.000    0.000 
#
# Total GULP energy -198238.776631 kJ/mol
# GULP energy per Si atom -12389.923539 kJ/mol
# Density = 2.204171 g / cm^3
# Si number density = 22.091991 Si / 1000 Ang^3
#
#
#
# Elastic Constant Matrix: (Units=GPa)
#
#
# Indices 1 2 3 4 5 6 
#
# 1 89.2927 -1.3717 13.6979 6.1049 -2.7618 -10.8215
# 2 -1.3717 68.2028 44.3575 6.7613 1.4080 -14.6806
# 3 13.6979 44.3575 91.7418 10.3086 5.8417 -0.6441
# 4 6.1049 6.7613 10.3086 18.3751 4.3349 0.9258
# 5 -2.7618 1.4080 5.8417 4.3349 23.1752 -4.0157
# 6 -10.8215 -14.6806 -0.6441 0.9258 -4.0157 23.7913
#
#
#
# Elastic Compliance Matrix: (Units=1/GPa)
#
#
# Indices 1 2 3 4 5 6 
#
# 1 0.013979 0.006261 -0.004694 -0.006200 0.005583 0.011278
# 2 0.006261 0.029937 -0.014889 -0.007779 0.008048 0.022578
# 3 -0.004694 -0.014889 0.019309 -0.001728 -0.006241 -0.011786
# 4 -0.006200 -0.007779 -0.001728 0.064252 -0.014021 -0.012533
# 5 0.005583 0.008048 -0.006241 -0.014021 0.050360 0.016382
# 6 0.011278 0.022578 -0.011786 -0.012533 0.016382 0.064028
#
#
# Mechanical properties :
#
#
# Convention : Reuss Voigt Hill
#
# Bulk Modulus (GPa) = 27.33750 40.28939 33.81345
# Shear Modulus (GPa) = 17.81248 25.90522 21.85885
#
# Velocity S-wave (km/s) = 2.84260 3.42805 3.14896
# Velocity P-wave (km/s) = 4.81405 5.82627 5.34418
#
# Compressibility (1/GPa) = 0.03657979
#
# Stress axis : x y z
#
# Youngs Moduli (GPa) = 71.53725 33.40396 51.78983
#
# Poissons Ratio (x) = -0.20914 0.24310
# Poissons Ratio (y) = -0.44789 0.77111
# Poissons Ratio (z) = 0.33580 0.49736
#
# Static dielectric constant tensor:
#      x y z
#    x 4.104650 -0.037660 -0.009300 
#    y -0.037660 3.859990 0.097090 
#    z -0.009300 0.097090 4.007730 
# 
# 
# High freq. dielectric constant tensor:
#      x y z
#    x 1.899920 -0.002090 -0.004440 
#    y -0.002090 1.850590 0.009820 
#    z -0.004440 0.009820 1.868330 
# 
# From -- ./inp_files/141288.got.cif
#   From: 2010.06.25/outbox.cif.g09.slc.cpg/sg2_71_cif.got.tgz:141288.got - 2010.06.27 13:26:56.
