data_PCOD8012366
_publ_section_title
;
Structure prediction by ZEFSAII (Michael W. Deem and Ramdas Pophale) SiO2 
 PCOD8012366
Probable space group: P -1
;
_chemical_formula_sum "Si O2"
_cell_formula_units_Z 16
_cell_length_a 21.963575
_cell_length_b 13.181725
_cell_length_c 8.629559
_cell_angle_alpha 44.134930
_cell_angle_beta 150.956555
_cell_angle_gamma 141.892243
_cell_volume 744.827580
_symmetry_space_group_name_H-M "P -1"
_symmetry_group_IT_number 2
_symmetry_cell_setting 'triclinic'
loop_
_space_group_symop_operation_xyz
x,y,z
-x,-y,-z
loop_
_atom_site_type_symbol
_atom_site_label
_atom_site_fract_x
_atom_site_fract_y
_atom_site_fract_z
Si Si1 0.582010 0.396926 0.755688
Si Si2 0.609862 0.222303 0.295921
Si Si3 0.918910 0.100224 0.368395
Si Si4 0.064494 0.905332 0.952579
Si Si5 0.862910 0.373360 0.920620
Si Si6 0.382201 0.085749 0.456816
Si Si7 0.214994 0.409939 0.275135
Si Si8 0.641079 0.784413 0.060925
O O1 0.500000 0.500000 0.500000
O O2 0.475159 0.216100 0.649512
O O3 0.713576 0.508329 0.817055
O O4 0.648066 0.356552 0.097963
O O5 0.750090 0.262447 0.661304
O O6 0.549218 0.032267 0.310316
O O7 0.500192 0.243677 0.138365
O O8 0.953973 0.135921 0.225238
O O9 0.768104 0.946345 0.236886
O O10 0.911758 0.257126 0.254083
O O11 0.038026 0.063534 0.752577
O O12 0.942098 0.742071 0.942644
O O13 0.223503 0.960591 0.306562
O O14 0.795455 0.450476 0.801567
O O15 0.000000 0.500000 0.000000
O O16 0.372885 0.195586 0.174933
O O17 0.321124 0.363476 0.659630
#
# Coordination Sequence:
#
# PCOD8012366 Si02
#       8
#     2   2   2   2   2   2   2   2
#     4  12  28  45  61  92 138 180 216 261 321 390
#     4  12  24  43  63  94 136 172 215 263 322 394
#     4   9  18  35  62  97 127 154 204 271 324 375
#     4   9  18  40  66  92 130 165 208 263 327 387
#     4  12  23  38  68 104 128 160 217 278 327 372
#     4  11  23  42  69  95 124 175 220 267 322 385
#     4  11  23  42  67  99 133 168 215 270 329 377
#     4  10  21  39  70  94 125 164 221 270 323 378
#
# _framework density 21.481480999999999
#
# number of rings (size 3 to 8) (size 9 to 14) (size 15 to 20)
#    0.000    1.250    5.000    2.250    3.500    1.000 
#    0.000    3.125    0.000    0.000    0.000    0.000 
#    0.000    0.000    0.000    0.000    0.000    0.000 
#
# Total GULP energy -198366.163326 kJ/mol
# GULP energy per Si atom -12397.885208 kJ/mol
# Density = 2.143259 g / cm^3
# Si number density = 21.481481 Si / 1000 Ang^3
#
#
#
# Elastic Constant Matrix: (Units=GPa)
#
#
# Indices 1 2 3 4 5 6 
#
# 1 93.4974 44.8701 32.1935 0.5279 18.1137 8.6492
# 2 44.8701 110.4219 29.7649 -17.5177 17.6345 -12.3445
# 3 32.1935 29.7649 61.2590 -13.3215 17.9118 -2.3085
# 4 0.5279 -17.5177 -13.3215 43.8492 2.1242 13.1129
# 5 18.1137 17.6345 17.9118 2.1242 27.4601 -8.0742
# 6 8.6492 -12.3445 -2.3085 13.1129 -8.0742 39.6828
#
#
#
# Elastic Compliance Matrix: (Units=1/GPa)
#
#
# Indices 1 2 3 4 5 6 
#
# 1 0.016828 -0.005507 -0.005031 -0.001751 -0.006004 -0.006317
# 2 -0.005507 0.013240 -0.001604 0.004055 -0.003185 0.003238
# 3 -0.005031 -0.001604 0.025748 0.009071 -0.014267 -0.003805
# 4 -0.001751 0.004055 0.009071 0.031031 -0.012915 -0.010711
# 5 -0.006004 -0.003185 -0.014267 -0.012915 0.057257 0.015405
# 6 -0.006317 0.003238 -0.003805 -0.010711 0.015405 0.034036
#
#
# Mechanical properties :
#
#
# Convention : Reuss Voigt Hill
#
# Bulk Modulus (GPa) = 31.71382 53.20392 42.45887
# Shear Modulus (GPa) = 23.48116 32.75509 28.11812
#
# Velocity S-wave (km/s) = 3.30978 3.90911 3.62186
# Velocity P-wave (km/s) = 5.42232 6.72280 6.10727
#
# Compressibility (1/GPa) = 0.03153199
#
# Stress axis : x y z
#
# Youngs Moduli (GPa) = 59.42428 75.52714 38.83736
#
# Poissons Ratio (x) = 0.41594 0.19540
# Poissons Ratio (y) = 0.32726 0.06230
# Poissons Ratio (z) = 0.29898 0.12115
#
# Static dielectric constant tensor:
#      x y z
#    x 3.597140 0.290130 0.135700 
#    y 0.290130 3.803380 -0.155810 
#    z 0.135700 -0.155810 4.047960 
# 
# 
# High freq. dielectric constant tensor:
#      x y z
#    x 1.826340 0.008040 0.033040 
#    y 0.008040 1.854320 -0.018510 
#    z 0.033040 -0.018510 1.838240 
# 
# From -- ./inp_files/277767.got.cif
#   From: 2010.06.25/outbox.cif.g09.slc.cpg/sg2_139_cif.got.tgz:277767.got - 2010.06.27 13:26:56.
