data_PCOD8012185
_publ_section_title
;
Structure prediction by ZEFSAII (Michael W. Deem and Ramdas Pophale) SiO2 
 PCOD8012185
Probable space group: P -1
;
_chemical_formula_sum "Si O2"
_cell_formula_units_Z 16
_cell_length_a 5.312744
_cell_length_b 12.018399
_cell_length_c 13.565992
_cell_angle_alpha 64.356308
_cell_angle_beta 109.002112
_cell_angle_gamma 108.224437
_cell_volume 723.169542
_symmetry_space_group_name_H-M "P -1"
_symmetry_group_IT_number 2
_symmetry_cell_setting 'triclinic'
loop_
_space_group_symop_operation_xyz
x,y,z
-x,-y,-z
loop_
_atom_site_type_symbol
_atom_site_label
_atom_site_fract_x
_atom_site_fract_y
_atom_site_fract_z
Si Si1 0.684517 0.337449 0.063042
Si Si2 0.696466 0.614320 0.619889
Si Si3 0.315119 0.414614 0.147965
Si Si4 0.797185 0.415782 0.577917
Si Si5 0.039059 0.885145 0.116576
Si Si6 0.281787 0.860980 0.345253
Si Si7 0.901976 0.878039 0.470373
Si Si8 0.457133 0.849657 0.047304
O O1 0.482827 0.335473 0.131067
O O2 0.993826 0.358728 0.130639
O O3 0.633755 0.441995 0.937715
O O4 0.618651 0.202909 0.051993
O O5 0.577633 0.594818 0.722808
O O6 0.819714 0.491520 0.655655
O O7 0.486487 0.614794 0.504357
O O8 0.898651 0.750990 0.582921
O O9 0.863147 0.279291 0.657613
O O10 0.000000 0.500000 0.500000
O O11 0.201855 0.943683 0.213182
O O12 0.212250 0.796964 0.112693
O O13 0.735628 0.807058 0.132891
O O14 0.000000 0.000000 0.000000
O O15 0.605712 0.883706 0.387700
O O16 0.136464 0.889017 0.414981
O O17 0.000000 0.000000 0.500000
O O18 0.500000 0.000000 0.000000
#
# Coordination Sequence:
#
# PCOD8012185 Si02
#       8
#     2   2   2   2   2   2   2   2
#     4  10  22  42  60  92 127 166 212 253 310 388
#     4  10  23  41  63  97 126 167 215 265 325 376
#     4  10  23  40  64  89 127 168 207 257 313 378
#     4  10  21  39  67  94 129 158 215 272 316 381
#     4  10  22  40  62  93 127 161 207 264 313 381
#     4  11  23  42  68  96 128 166 216 266 333 371
#     4  11  24  45  64  94 131 172 216 263 316 395
#     4  10  21  40  62  87 128 160 210 259 308 369
#
# _framework density 22.124825000000001
#
# number of rings (size 3 to 8) (size 9 to 14) (size 15 to 20)
#    0.000    1.750    1.250    1.875    3.500    1.000 
#   13.500    0.000    0.000    0.000    0.000    0.000 
#    0.000    0.000    0.000    0.000    0.000    0.000 
#
# Total GULP energy -198260.053409 kJ/mol
# GULP energy per Si atom -12391.253338 kJ/mol
# Density = 2.207447 g / cm^3
# Si number density = 22.124825 Si / 1000 Ang^3
#
#
#
# Elastic Constant Matrix: (Units=GPa)
#
#
# Indices 1 2 3 4 5 6 
#
# 1 149.6417 22.0048 18.3750 14.9167 -8.1736 -16.0901
# 2 22.0048 140.8677 32.0812 21.6899 -8.6025 -16.0237
# 3 18.3750 32.0812 104.9861 13.9553 -13.8281 -12.9405
# 4 14.9167 21.6899 13.9553 24.9610 -8.0819 -8.8620
# 5 -8.1736 -8.6025 -13.8281 -8.0819 34.3243 13.8243
# 6 -16.0901 -16.0237 -12.9405 -8.8620 13.8243 30.3149
#
#
#
# Elastic Compliance Matrix: (Units=1/GPa)
#
#
# Indices 1 2 3 4 5 6 
#
# 1 0.007369 -0.000274 -0.000506 -0.002992 -0.000367 0.002843
# 2 -0.000274 0.008636 -0.001633 -0.005863 -0.000917 0.002426
# 3 -0.000506 -0.001633 0.011049 -0.003084 0.002590 0.001502
# 4 -0.002992 -0.005863 -0.003084 0.053087 0.006423 0.006587
# 5 -0.000367 -0.000917 0.002590 0.006423 0.037294 -0.014703
# 6 0.002843 0.002426 0.001502 0.006587 -0.014703 0.045050
#
#
# Mechanical properties :
#
#
# Convention : Reuss Voigt Hill
#
# Bulk Modulus (GPa) = 44.99067 60.04637 52.51852
# Shear Modulus (GPa) = 28.61675 39.45567 34.03621
#
# Velocity S-wave (km/s) = 3.60032 4.22752 3.92646
# Velocity P-wave (km/s) = 6.13695 7.14339 6.65921
#
# Compressibility (1/GPa) = 0.02222683
#
# Stress axis : x y z
#
# Youngs Moduli (GPa) = 135.70385 115.78848 90.50605
#
# Poissons Ratio (x) = 0.03174 0.04581
# Poissons Ratio (y) = 0.03720 0.14784
# Poissons Ratio (z) = 0.06869 0.18913
#
# Static dielectric constant tensor:
#      x y z
#    x 3.848610 1.434590 0.216730 
#    y 1.434590 -7.522410 -4.292380 
#    z 0.216730 -4.292380 2.232230 
# 
# 
# High freq. dielectric constant tensor:
#      x y z
#    x 1.889560 -0.005970 -0.007070 
#    y -0.005970 1.863020 0.008970 
#    z -0.007070 0.008970 1.860590 
# 
# From -- ./inp_files/364140.got.cif
#   From: 2010.06.25/outbox.cif.g09.slc.cpg/sg2_183_cif.got.tgz:364140.got - 2010.06.27 13:26:56.
