data_PCOD8012879
_publ_section_title
;
Structure prediction by ZEFSAII (Michael W. Deem and Ramdas Pophale) SiO2 
 PCOD8012879
Probable space group: P -1
;
_chemical_formula_sum "Si O2"
_cell_formula_units_Z 12
_cell_length_a 12.449234
_cell_length_b 7.099081
_cell_length_c 13.192538
_cell_angle_alpha 134.862044
_cell_angle_beta 133.861207
_cell_angle_gamma 64.653179
_cell_volume 591.650462
_symmetry_space_group_name_H-M "P -1"
_symmetry_group_IT_number 2
_symmetry_cell_setting 'triclinic'
loop_
_space_group_symop_operation_xyz
x,y,z
-x,-y,-z
loop_
_atom_site_type_symbol
_atom_site_label
_atom_site_fract_x
_atom_site_fract_y
_atom_site_fract_z
Si Si1 0.357324 0.291054 0.341208
Si Si2 0.445770 0.075244 0.763219
Si Si3 0.953414 0.709269 0.966764
Si Si4 0.660077 0.402185 0.165954
Si Si5 0.248181 0.594651 0.548681
Si Si6 0.053394 0.693465 0.804430
O O1 0.500000 0.500000 0.500000
O O2 0.222240 0.352335 0.201479
O O3 0.303638 0.320498 0.434213
O O4 0.414214 0.008265 0.243547
O O5 0.370559 0.291073 0.731117
O O6 0.315370 0.836196 0.611336
O O7 0.512274 0.209587 0.962245
O O8 0.057409 0.690164 0.928354
O O9 0.000000 0.500000 0.000000
O O10 0.980759 0.011763 0.143501
O O11 0.701225 0.322273 0.274766
O O12 0.789307 0.373674 0.159017
O O13 0.068088 0.542361 0.407768
#
# Coordination Sequence:
#
# PCOD8012879 Si02
#       6
#     2   2   2   2   2   2
#     4   9  19  40  61  88 119 153 205 250 285 360
#     4  10  22  40  59  87 126 160 201 243 298 363
#     4  10  21  40  64  89 120 162 200 249 309 355
#     4  11  22  39  61  89 123 162 197 244 305 360
#     4  10  22  38  62  87 123 160 198 251 301 349
#     4  10  22  39  60  91 122 151 206 253 290 364
#
# _framework density 20.282247000000002
#
# number of rings (size 3 to 8) (size 9 to 14) (size 15 to 20)
#    0.000    2.000    1.667    1.000    0.000    6.667 
#   12.000    0.000    0.000    0.000    0.000    0.000 
#    0.000    0.000    0.000    0.000    0.000    0.000 
#
# Total GULP energy -148718.951812 kJ/mol
# GULP energy per Si atom -12393.245984 kJ/mol
# Density = 2.023608 g / cm^3
# Si number density = 20.282247 Si / 1000 Ang^3
#
#
#
# Elastic Constant Matrix: (Units=GPa)
#
#
# Indices 1 2 3 4 5 6 
#
# 1 85.9487 41.6968 17.8847 2.7873 2.7078 -11.3630
# 2 41.6968 89.7443 13.2977 13.5523 -4.3198 -11.3470
# 3 17.8847 13.2977 86.3884 10.6921 11.7571 0.9850
# 4 2.7873 13.5523 10.6921 22.8350 -0.3282 -2.3486
# 5 2.7078 -4.3198 11.7571 -0.3282 36.9725 2.5315
# 6 -11.3630 -11.3470 0.9850 -2.3486 2.5315 24.8169
#
#
#
# Elastic Compliance Matrix: (Units=1/GPa)
#
#
# Indices 1 2 3 4 5 6 
#
# 1 0.016228 -0.007229 -0.002591 0.003991 -0.001500 0.004759
# 2 -0.007229 0.016308 -0.000330 -0.008285 0.002251 0.003146
# 3 -0.002591 -0.000330 0.013489 -0.006071 -0.004053 -0.002034
# 4 0.003991 -0.008285 -0.006071 0.051392 0.000918 0.003050
# 5 -0.001500 0.002251 -0.004053 0.000918 0.028878 -0.002355
# 6 0.004759 0.003146 -0.002034 0.003050 -0.002355 0.044522
#
#
# Mechanical properties :
#
#
# Convention : Reuss Voigt Hill
#
# Bulk Modulus (GPa) = 38.87408 45.31553 42.09480
# Shear Modulus (GPa) = 25.03850 29.53836 27.28843
#
# Velocity S-wave (km/s) = 3.51736 3.82038 3.67200
# Velocity P-wave (km/s) = 5.97528 6.46926 6.22717
#
# Compressibility (1/GPa) = 0.02572408
#
# Stress axis : x y z
#
# Youngs Moduli (GPa) = 61.62186 61.32058 74.13412
#
# Poissons Ratio (x) = 0.44329 0.19208
# Poissons Ratio (y) = 0.44547 0.02449
# Poissons Ratio (z) = 0.15966 0.02026
#
# Static dielectric constant tensor:
#      x y z
#    x 4.152110 -0.305760 -0.060690 
#    y -0.305760 3.379090 0.247620 
#    z -0.060690 0.247620 3.931160 
# 
# 
# High freq. dielectric constant tensor:
#      x y z
#    x 1.801630 -0.012170 0.004070 
#    y -0.012170 1.754190 0.013320 
#    z 0.004070 0.013320 1.814020 
# 
# From -- ./inp_files/34118.got.cif
#   From: 2010.06.25/outbox.cif.g09.slc.cpg/sg2_18_cif.got.tgz:34118.got - 2010.06.27 13:26:56.
