data_PCOD8012630
_publ_section_title
;
Structure prediction by ZEFSAII (Michael W. Deem and Ramdas Pophale) SiO2 
 PCOD8012630
Probable space group: P -1
;
_chemical_formula_sum "Si O2"
_cell_formula_units_Z 16
_cell_length_a 14.011797
_cell_length_b 17.233265
_cell_length_c 9.604451
_cell_angle_alpha 116.066103
_cell_angle_beta 86.608830
_cell_angle_gamma 147.641698
_cell_volume 848.279405
_symmetry_space_group_name_H-M "P -1"
_symmetry_group_IT_number 2
_symmetry_cell_setting 'triclinic'
loop_
_space_group_symop_operation_xyz
x,y,z
-x,-y,-z
loop_
_atom_site_type_symbol
_atom_site_label
_atom_site_fract_x
_atom_site_fract_y
_atom_site_fract_z
Si Si1 0.578665 0.599281 0.925371
Si Si2 0.568744 0.943104 0.098422
Si Si3 0.052549 0.569224 0.894159
Si Si4 0.384930 0.869368 0.548624
Si Si5 0.791114 0.948758 0.125818
Si Si6 0.715620 0.696007 0.534290
Si Si7 0.255798 0.915331 0.118954
Si Si8 0.905957 0.030575 0.866241
O O1 0.362481 0.399819 0.685840
O O2 0.500000 0.500000 0.000000
O O3 0.629167 0.742884 0.049074
O O4 0.814920 0.747441 0.970481
O O5 0.663863 0.934001 0.151311
O O6 0.671024 0.101778 0.313496
O O7 0.289127 0.716624 0.944122
O O8 0.647616 0.018500 0.992436
O O9 0.855903 0.376437 0.654013
O O10 0.063317 0.682002 0.974190
O O11 0.000000 0.500000 0.000000
O O12 0.500000 0.000000 0.500000
O O13 0.548907 0.934256 0.660323
O O14 0.055427 0.170173 0.336897
O O15 0.796700 0.930299 0.948452
O O16 0.500000 0.500000 0.500000
O O17 0.786762 0.856157 0.648409
O O18 0.147703 0.920521 0.156368
#
# Coordination Sequence:
#
# PCOD8012630 Si02
#       8
#     2   2   2   2   2   2   2   2
#     4  11  23  39  57  93 123 157 195 247 300 348
#     4  10  23  40  60  91 120 153 204 252 289 350
#     4  11  21  39  62  81 120 161 189 244 309 347
#     4  11  21  41  62  87 120 157 197 242 303 363
#     4  10  21  40  62  88 122 156 202 247 290 357
#     4  11  19  39  69  84 117 165 201 234 299 357
#     4  10  23  40  60  91 120 153 204 252 289 350
#     4  10  21  40  62  88 122 156 202 247 290 357
#
# _framework density 18.861711
#
# number of rings (size 3 to 8) (size 9 to 14) (size 15 to 20)
#    0.000    1.500    5.000    2.250    0.000    7.000 
#    4.500    0.000    0.000    0.000    0.000    0.000 
#    0.000    0.000    0.000    0.000    0.000    0.000 
#
# Total GULP energy -198399.628401 kJ/mol
# GULP energy per Si atom -12399.976775 kJ/mol
# Density = 1.881878 g / cm^3
# Si number density = 18.861711 Si / 1000 Ang^3
#
#
#
# Elastic Constant Matrix: (Units=GPa)
#
#
# Indices 1 2 3 4 5 6 
#
# 1 145.4816 24.9334 46.1605 19.0902 6.1845 -20.9814
# 2 24.9334 68.2082 25.7490 9.8016 0.2919 -27.1515
# 3 46.1605 25.7490 148.2076 24.7611 16.7488 -10.2565
# 4 19.0902 9.8016 24.7611 37.5956 -3.3409 3.3616
# 5 6.1845 0.2919 16.7488 -3.3409 17.0069 -4.9284
# 6 -20.9814 -27.1515 -10.2565 3.3616 -4.9284 23.9458
#
#
#
# Elastic Compliance Matrix: (Units=1/GPa)
#
#
# Indices 1 2 3 4 5 6 
#
# 1 0.009224 0.002269 -0.001728 -0.005057 0.000419 0.010711
# 2 0.002269 0.033354 -0.003165 -0.010492 0.011940 0.042382
# 3 -0.001728 -0.003165 0.009805 -0.005500 -0.010732 -0.002340
# 4 -0.005057 -0.010492 -0.005500 0.038274 0.008489 -0.022309
# 5 0.000419 0.011940 -0.010732 0.008489 0.077664 0.024102
# 6 0.010711 0.042382 -0.002340 -0.022309 0.024102 0.106292
#
#
# Mechanical properties :
#
#
# Convention : Reuss Voigt Hill
#
# Bulk Modulus (GPa) = 21.21564 61.73146 41.47355
# Shear Modulus (GPa) = 16.91638 33.37996 25.14817
#
# Velocity S-wave (km/s) = 2.99802 4.21137 3.65539
# Velocity P-wave (km/s) = 4.82250 7.51312 6.31283
#
# Compressibility (1/GPa) = 0.04713504
#
# Stress axis : x y z
#
# Youngs Moduli (GPa) = 108.41610 29.98157 101.98711
#
# Poissons Ratio (x) = -0.06804 0.17626
# Poissons Ratio (y) = -0.24605 0.32279
# Poissons Ratio (z) = 0.18737 0.09489
#
# Static dielectric constant tensor:
#      x y z
#    x 3.631110 -0.147620 0.015500 
#    y -0.147620 3.312360 -0.155900 
#    z 0.015500 -0.155900 3.273110 
# 
# 
# High freq. dielectric constant tensor:
#      x y z
#    x 1.736340 -0.009180 0.004720 
#    y -0.009180 1.734530 0.003200 
#    z 0.004720 0.003200 1.740550 
# 
# From -- ./inp_files/217987.got.cif
#   From: 2010.06.25/outbox.cif.g09.slc.cpg/sg2_109_cif.got.tgz:217987.got - 2010.06.27 13:26:56.
