data_PCOD8012179
_publ_section_title
;
Structure prediction by ZEFSAII (Michael W. Deem and Ramdas Pophale) SiO2 
 PCOD8012179
Probable space group: P -1
;
_chemical_formula_sum "Si O2"
_cell_formula_units_Z 16
_cell_length_a 11.190880
_cell_length_b 14.302665
_cell_length_c 5.547999
_cell_angle_alpha 84.884097
_cell_angle_beta 116.793769
_cell_angle_gamma 113.170118
_cell_volume 724.511433
_symmetry_space_group_name_H-M "P -1"
_symmetry_group_IT_number 2
_symmetry_cell_setting 'triclinic'
loop_
_space_group_symop_operation_xyz
x,y,z
-x,-y,-z
loop_
_atom_site_type_symbol
_atom_site_label
_atom_site_fract_x
_atom_site_fract_y
_atom_site_fract_z
Si Si1 0.085165 0.718874 0.767237
Si Si2 0.182524 0.403121 0.739046
Si Si3 0.832583 0.443029 0.937871
Si Si4 0.590207 0.666436 0.144164
Si Si5 0.102382 0.907711 0.502601
Si Si6 0.800047 0.869673 0.462237
Si Si7 0.449013 0.587011 0.516260
Si Si8 0.094269 0.218596 0.035038
O O1 0.169424 0.827336 0.680388
O O2 0.976770 0.631559 0.512219
O O3 0.197467 0.673985 0.987037
O O4 0.978256 0.726393 0.870117
O O5 0.323198 0.410595 0.703083
O O6 0.187780 0.307998 0.920715
O O7 0.213760 0.504967 0.892138
O O8 0.727985 0.445493 0.620500
O O9 0.000000 0.500000 0.000000
O O10 0.696777 0.788211 0.197090
O O11 0.493839 0.660350 0.298724
O O12 0.506724 0.636208 0.818846
O O13 0.036468 0.876905 0.183655
O O14 0.971069 0.898624 0.561651
O O15 0.224891 0.024234 0.583845
O O16 0.786712 0.817622 0.725431
O O17 0.500000 0.500000 0.500000
#
# Coordination Sequence:
#
# PCOD8012179 Si02
#       8
#     2   2   2   2   2   2   2   2
#     4  10  21  36  57  92 129 160 218 268 325 381
#     4  11  21  36  64  93 132 171 212 266 332 391
#     4  12  26  42  68  93 126 178 222 271 327 389
#     4  12  24  44  67  94 140 177 212 269 337 394
#     4   9  19  32  55  97 123 165 213 275 322 376
#     4  10  19  32  60  89 132 164 214 263 333 382
#     4  12  29  45  67  96 136 175 225 266 330 400
#     4  10  16  33  53  94 130 163 207 275 322 383
#
# _framework density 22.083846000000001
#
# number of rings (size 3 to 8) (size 9 to 14) (size 15 to 20)
#    0.000    1.250    6.250    1.875    1.750    1.000 
#    0.000    0.000    0.000    1.500    0.000    0.000 
#    0.000    0.000    0.000    0.000    0.000    0.000 
#
# Total GULP energy -198215.921143 kJ/mol
# GULP energy per Si atom -12388.495071 kJ/mol
# Density = 2.203358 g / cm^3
# Si number density = 22.083846 Si / 1000 Ang^3
#
#
#
# Elastic Constant Matrix: (Units=GPa)
#
#
# Indices 1 2 3 4 5 6 
#
# 1 50.4752 18.9785 18.4465 -7.5492 12.6018 0.1155
# 2 18.9785 107.6170 48.2580 8.6228 17.4303 -26.8546
# 3 18.4465 48.2580 123.2245 -6.2238 10.6016 -12.2814
# 4 -7.5492 8.6228 -6.2238 26.0362 -5.2536 1.0402
# 5 12.6018 17.4303 10.6016 -5.2536 35.9340 -6.6845
# 6 0.1155 -26.8546 -12.2814 1.0402 -6.6845 17.2495
#
#
#
# Elastic Compliance Matrix: (Units=1/GPa)
#
#
# Indices 1 2 3 4 5 6 
#
# 1 0.026355 -0.007691 -0.001525 0.009111 -0.006783 -0.016414
# 2 -0.007691 0.021726 -0.004740 -0.012294 -0.002617 0.030228
# 3 -0.001525 -0.004740 0.010349 0.003666 0.000297 -0.000107
# 4 0.009111 -0.012294 0.003666 0.047790 0.005444 -0.017364
# 5 -0.006783 -0.002617 0.000297 0.005444 0.033855 0.008973
# 6 -0.016414 0.030228 -0.000107 -0.017364 0.008973 0.109590
#
#
# Mechanical properties :
#
#
# Convention : Reuss Voigt Hill
#
# Bulk Modulus (GPa) = 32.76935 50.29807 41.53371
# Shear Modulus (GPa) = 17.37619 28.88619 23.13119
#
# Velocity S-wave (km/s) = 2.80809 3.62058 3.23991
# Velocity P-wave (km/s) = 5.03832 6.34851 5.73098
#
# Compressibility (1/GPa) = 0.03051632
#
# Stress axis : x y z
#
# Youngs Moduli (GPa) = 37.94386 46.02734 96.62808
#
# Poissons Ratio (x) = 0.35400 0.14740
# Poissons Ratio (y) = 0.29183 0.45805
# Poissons Ratio (z) = 0.05788 0.21818
#
# Static dielectric constant tensor:
#      x y z
#    x 3.917840 0.138030 -0.346940 
#    y 0.138030 4.478000 -0.437780 
#    z -0.346940 -0.437780 4.560150 
# 
# 
# High freq. dielectric constant tensor:
#      x y z
#    x 1.830660 0.002840 -0.027010 
#    y 0.002840 1.869650 -0.008150 
#    z -0.027010 -0.008150 1.873380 
# 
# From -- ./inp_files/76216.got.cif
#   From: 2010.06.25/outbox.cif.g09.slc.cpg/sg2_39_cif.got.tgz:76216.got - 2010.06.27 13:26:56.
