data_PCOD8012878
_publ_section_title
;
Structure prediction by ZEFSAII (Michael W. Deem and Ramdas Pophale) SiO2 
 PCOD8012878
Probable space group: P -1
;
_chemical_formula_sum "Si O2"
_cell_formula_units_Z 16
_cell_length_a 22.841938
_cell_length_b 15.791775
_cell_length_c 8.946272
_cell_angle_alpha 86.689331
_cell_angle_beta 78.224806
_cell_angle_gamma 17.267636
_cell_volume 826.772812
_symmetry_space_group_name_H-M "P -1"
_symmetry_group_IT_number 2
_symmetry_cell_setting 'triclinic'
loop_
_space_group_symop_operation_xyz
x,y,z
-x,-y,-z
loop_
_atom_site_type_symbol
_atom_site_label
_atom_site_fract_x
_atom_site_fract_y
_atom_site_fract_z
Si Si1 0.076706 0.150584 0.134594
Si Si2 0.273046 0.232169 0.226631
Si Si3 0.849602 0.291193 0.720708
Si Si4 0.437031 0.757459 0.822161
Si Si5 0.894294 0.668605 0.196854
Si Si6 0.265319 0.273133 0.569741
Si Si7 0.219302 0.474370 0.041599
Si Si8 0.118058 0.935784 0.333448
O O1 0.939551 0.386889 0.308396
O O2 0.935559 0.336752 0.036865
O O3 0.135821 0.977620 0.185545
O O4 0.306067 0.889641 0.011412
O O5 0.220937 0.310906 0.419112
O O6 0.099681 0.401033 0.232226
O O7 0.528371 0.847413 0.112573
O O8 0.236322 0.372935 0.155362
O O9 0.574727 0.652585 0.819513
O O10 0.970603 0.032398 0.697212
O O11 0.897861 0.286043 0.836082
O O12 0.947738 0.199720 0.526273
O O13 0.626909 0.431172 0.692588
O O14 0.256897 0.038276 0.764962
O O15 0.732253 0.815047 0.322864
O O16 0.000000 0.500000 0.000000
O O17 0.500000 0.000000 0.500000
#
# Coordination Sequence:
#
# PCOD8012878 Si02
#       8
#     2   2   2   2   2   2   2   2
#     4  12  22  41  64  93 124 165 211 257 314 369
#     4  11  24  41  59  97 131 165 209 256 316 376
#     4   9  21  40  65  87 119 167 204 256 313 365
#     4  10  21  40  64  89 119 167 205 251 313 370
#     4  12  23  42  66  92 131 165 209 255 323 376
#     4  12  26  40  64  98 127 168 208 264 312 377
#     4  11  22  38  65  93 128 163 208 260 314 373
#     4   9  22  41  66  88 121 164 212 256 308 374
#
# _framework density 19.352357000000001
#
# number of rings (size 3 to 8) (size 9 to 14) (size 15 to 20)
#    0.750    0.500    3.750    2.250    5.250    0.500 
#    0.000    0.625    2.750    0.000    0.000    0.000 
#    0.000    0.000    0.000    0.000    0.000    0.000 
#
# Total GULP energy -198325.897995 kJ/mol
# GULP energy per Si atom -12395.368625 kJ/mol
# Density = 1.930831 g / cm^3
# Si number density = 19.352357 Si / 1000 Ang^3
#
#
#
# Elastic Constant Matrix: (Units=GPa)
#
#
# Indices 1 2 3 4 5 6 
#
# 1 84.1161 31.8086 62.3106 1.0513 -11.0770 -2.1254
# 2 31.8086 77.5197 49.9334 -1.3244 -8.2716 1.8639
# 3 62.3106 49.9334 144.5526 -1.8645 -1.4434 -6.0016
# 4 1.0513 -1.3244 -1.8645 32.4507 -2.7410 -3.9080
# 5 -11.0770 -8.2716 -1.4434 -2.7410 45.6339 -0.4124
# 6 -2.1254 1.8639 -6.0016 -3.9080 -0.4124 37.9737
#
#
#
# Elastic Compliance Matrix: (Units=1/GPa)
#
#
# Indices 1 2 3 4 5 6 
#
# 1 0.018666 -0.002709 -0.007082 -0.000802 0.003768 0.000017
# 2 -0.002709 0.017477 -0.004910 0.000514 0.002370 -0.001707
# 3 -0.007082 -0.004910 0.011727 0.000730 -0.002179 0.001749
# 4 -0.000802 0.000514 0.000730 0.031458 0.001841 0.003303
# 5 0.003768 0.002370 -0.002179 0.001841 0.023301 0.000193
# 6 0.000017 -0.001707 0.001749 0.003303 0.000193 0.027037
#
#
# Mechanical properties :
#
#
# Convention : Reuss Voigt Hill
#
# Bulk Modulus (GPa) = 54.15016 66.03263 60.09139
# Shear Modulus (GPa) = 30.26186 34.02072 32.14129
#
# Velocity S-wave (km/s) = 3.95869 4.19735 4.07977
# Velocity P-wave (km/s) = 6.99549 7.59511 7.30146
#
# Compressibility (1/GPa) = 0.01846717
#
# Stress axis : x y z
#
# Youngs Moduli (GPa) = 53.57424 57.21799 85.27286
#
# Poissons Ratio (x) = 0.15502 0.60392
# Poissons Ratio (y) = 0.14515 0.41868
# Poissons Ratio (z) = 0.37942 0.28093
#
# Static dielectric constant tensor:
#      x y z
#    x 3.578170 -0.005520 -0.183840 
#    y -0.005520 3.442840 0.096020 
#    z -0.183840 0.096020 3.503220 
# 
# 
# High freq. dielectric constant tensor:
#      x y z
#    x 1.756780 0.004600 -0.017070 
#    y 0.004600 1.738660 0.012520 
#    z -0.017070 0.012520 1.757590 
# 
# From -- ./inp_files/347596.got.cif
#   From: 2010.06.25/outbox.cif.g09.slc.cpg/sg2_174_cif.got.tgz:347596.got - 2010.06.27 13:26:56.
