data_PCOD8012799
_publ_section_title
;
Structure prediction by ZEFSAII (Michael W. Deem and Ramdas Pophale) SiO2 
 PCOD8012799
Probable space group: P -1
;
_chemical_formula_sum "Si O2"
_cell_formula_units_Z 14
_cell_length_a 8.814138
_cell_length_b 17.583143
_cell_length_c 19.929731
_cell_angle_alpha 21.583496
_cell_angle_beta 138.226172
_cell_angle_gamma 125.192753
_cell_volume 664.825159
_symmetry_space_group_name_H-M "P -1"
_symmetry_group_IT_number 2
_symmetry_cell_setting 'triclinic'
loop_
_space_group_symop_operation_xyz
x,y,z
-x,-y,-z
loop_
_atom_site_type_symbol
_atom_site_label
_atom_site_fract_x
_atom_site_fract_y
_atom_site_fract_z
Si Si1 0.162934 0.394927 0.732954
Si Si2 0.770411 0.875455 0.154240
Si Si3 0.022450 0.329738 0.207574
Si Si4 0.208459 0.666183 0.246494
Si Si5 0.469481 0.457285 0.894102
Si Si6 0.537015 0.065927 0.532114
Si Si7 0.078796 0.420399 0.891438
O O1 0.280802 0.249081 0.824275
O O2 0.402225 0.332797 0.913031
O O3 0.001294 0.676296 0.437524
O O4 0.972341 0.307711 0.772083
O O5 0.500000 0.000000 0.000000
O O6 0.854811 0.069704 0.006073
O O7 0.294770 0.098261 0.472915
O O8 0.040857 0.428613 0.205127
O O9 0.000000 0.500000 0.000000
O O10 0.769014 0.291955 0.151200
O O11 0.500000 0.500000 0.500000
O O12 0.149621 0.539115 0.268658
O O13 0.424623 0.706366 0.646943
O O14 0.281367 0.494110 0.864859
O O15 0.500000 0.000000 0.500000
O O16 0.786764 0.854747 0.820639
#
# Coordination Sequence:
#
# PCOD8012799 Si02
#       7
#     2   2   2   2   2   2   2
#     4  10  23  43  62  93 128 167 208 265 311 374
#     4  11  22  41  66  90 124 168 214 259 320 364
#     4  10  21  40  63  93 125 158 206 253 306 377
#     4  11  23  44  65  93 129 166 214 264 312 374
#     4  10  22  42  62  92 130 158 211 254 306 380
#     4  11  22  41  63  90 127 168 201 254 314 366
#     4  11  23  43  64  90 127 168 203 259 315 363
#
# _framework density 21.058167999999998
#
# number of rings (size 3 to 8) (size 9 to 14) (size 15 to 20)
#    0.000    1.429    4.286    1.714    0.000    2.857 
#   10.286    0.000    0.000    0.000    0.000    0.000 
#    0.000    0.000    0.000    0.000    0.000    0.000 
#
# Total GULP energy -173596.243058 kJ/mol
# GULP energy per Si atom -12399.731647 kJ/mol
# Density = 2.101024 g / cm^3
# Si number density = 21.058168 Si / 1000 Ang^3
#
#
#
# Elastic Constant Matrix: (Units=GPa)
#
#
# Indices 1 2 3 4 5 6 
#
# 1 128.5117 54.3509 49.2183 -6.1509 9.8732 -9.5497
# 2 54.3509 104.0280 30.8889 11.1795 15.9760 -4.3091
# 3 49.2183 30.8889 71.6842 -2.1499 6.5437 4.7658
# 4 -6.1509 11.1795 -2.1499 31.0912 2.7323 -6.8858
# 5 9.8732 15.9760 6.5437 2.7323 38.9568 -10.0374
# 6 -9.5497 -4.3091 4.7658 -6.8858 -10.0374 42.0536
#
#
#
# Elastic Compliance Matrix: (Units=1/GPa)
#
#
# Indices 1 2 3 4 5 6 
#
# 1 0.013175 -0.005277 -0.006973 0.004891 0.000740 0.004219
# 2 -0.005277 0.014280 -0.002248 -0.006305 -0.004082 -0.001487
# 3 -0.006973 -0.002248 0.020179 -0.000019 -0.001872 -0.004551
# 4 0.004891 -0.006305 -0.000019 0.036819 0.000469 0.006608
# 5 0.000740 -0.004082 -0.001872 0.000469 0.029246 0.007019
# 6 0.004219 -0.001487 -0.004551 0.006608 0.007019 0.027858
#
#
# Mechanical properties :
#
#
# Convention : Reuss Voigt Hill
#
# Bulk Modulus (GPa) = 53.65372 63.68221 58.66796
# Shear Modulus (GPa) = 28.28615 33.73806 31.01210
#
# Velocity S-wave (km/s) = 3.66900 4.00701 3.84172
# Velocity P-wave (km/s) = 6.59415 7.19131 6.89920
#
# Compressibility (1/GPa) = 0.01863804
#
# Stress axis : x y z
#
# Youngs Moduli (GPa) = 75.90353 70.02676 49.55632
#
# Poissons Ratio (x) = 0.36956 0.34556
# Poissons Ratio (y) = 0.40057 0.11138
# Poissons Ratio (z) = 0.52928 0.15739
#
# Static dielectric constant tensor:
#      x y z
#    x 4.053330 -0.024310 0.231110 
#    y -0.024310 3.759220 0.272260 
#    z 0.231110 0.272260 3.652210 
# 
# 
# High freq. dielectric constant tensor:
#      x y z
#    x 1.840120 -0.001130 -0.008270 
#    y -0.001130 1.828740 0.006340 
#    z -0.008270 0.006340 1.819090 
# 
# From -- ./inp_files/141674.got.cif
#   From: 2010.06.25/outbox.cif.g09.slc.cpg/sg2_71_cif.got.tgz:141674.got - 2010.06.27 13:26:56.
