data_PCOD8012684
_publ_section_title
;
Structure prediction by ZEFSAII (Michael W. Deem and Ramdas Pophale) SiO2 
 PCOD8012684
Probable space group: P -1
;
_chemical_formula_sum "Si O2"
_cell_formula_units_Z 14
_cell_length_a 17.529414
_cell_length_b 9.039373
_cell_length_c 5.794109
_cell_angle_alpha 124.753422
_cell_angle_beta 111.651507
_cell_angle_gamma 50.577226
_cell_volume 582.668351
_symmetry_space_group_name_H-M "P -1"
_symmetry_group_IT_number 2
_symmetry_cell_setting 'triclinic'
loop_
_space_group_symop_operation_xyz
x,y,z
-x,-y,-z
loop_
_atom_site_type_symbol
_atom_site_label
_atom_site_fract_x
_atom_site_fract_y
_atom_site_fract_z
Si Si1 0.314630 0.279426 0.218659
Si Si2 0.616473 0.152438 0.814704
Si Si3 0.940717 0.179491 0.908202
Si Si4 0.938943 0.833469 0.347410
Si Si5 0.561230 0.525830 0.393359
Si Si6 0.762781 0.864797 0.376207
Si Si7 0.134635 0.506890 0.526996
O O1 0.379100 0.380137 0.348296
O O2 0.208557 0.474078 0.375520
O O3 0.366538 0.066989 0.252531
O O4 0.300209 0.214733 0.889495
O O5 0.505350 0.306122 0.733773
O O6 0.687375 0.096378 0.619620
O O7 0.633900 0.287594 0.145772
O O8 0.013496 0.235879 0.915907
O O9 0.906282 0.079195 0.586700
O O10 0.852375 0.383913 0.129768
O O11 0.000000 0.000000 0.000000
O O12 0.835865 0.853124 0.251344
O O13 0.020706 0.649669 0.448584
O O14 0.500000 0.500000 0.500000
O O15 0.831737 0.726490 0.547343
#
# Coordination Sequence:
#
# PCOD8012684 Si02
#       7
#     2   2   2   2   2   2   2
#     4  11  25  44  68 104 140 173 227 284 342 405
#     4  10  25  47  69 104 131 183 219 281 348 416
#     4   9  20  38  59  90 126 180 227 276 319 385
#     4  10  21  40  62  93 136 180 228 271 327 387
#     4  11  25  48  75 100 133 176 225 283 350 416
#     4  11  24  41  67 101 135 174 225 280 330 401
#     4  10  22  40  62  95 133 184 222 275 331 393
#
# _framework density 24.02739
#
# number of rings (size 3 to 8) (size 9 to 14) (size 15 to 20)
#    0.000    1.714    0.000    2.571    2.000   13.714 
#   15.429    0.000    0.000    0.000    0.000    0.000 
#    0.000    0.000    0.000    0.000    0.000    0.000 
#
# Total GULP energy -173493.819408 kJ/mol
# GULP energy per Si atom -12392.415672 kJ/mol
# Density = 2.397270 g / cm^3
# Si number density = 24.027390 Si / 1000 Ang^3
#
#
#
# Elastic Constant Matrix: (Units=GPa)
#
#
# Indices 1 2 3 4 5 6 
#
# 1 140.6576 32.8174 67.7043 11.3894 3.7558 4.7174
# 2 32.8174 62.2188 31.9450 13.5223 -1.6068 -3.9048
# 3 67.7043 31.9450 153.1591 22.8550 -15.1965 -6.3866
# 4 11.3894 13.5223 22.8550 38.8049 -2.2271 -10.2260
# 5 3.7558 -1.6068 -15.1965 -2.2271 42.5868 2.5303
# 6 4.7174 -3.9048 -6.3866 -10.2260 2.5303 27.4473
#
#
#
# Elastic Compliance Matrix: (Units=1/GPa)
#
#
# Indices 1 2 3 4 5 6 
#
# 1 0.010034 -0.003403 -0.004032 -0.000321 -0.002287 -0.003056
# 2 -0.003403 0.019907 -0.001922 -0.004459 0.000055 0.001303
# 3 -0.004032 -0.001922 0.009597 -0.003310 0.003469 0.001100
# 4 -0.000321 -0.004459 -0.003310 0.032160 -0.000272 0.010658
# 5 -0.002287 0.000055 0.003469 -0.000272 0.024980 -0.001196
# 6 -0.003056 0.001303 0.001100 0.010658 -0.001196 0.041481
#
#
# Mechanical properties :
#
#
# Convention : Reuss Voigt Hill
#
# Bulk Modulus (GPa) = 48.02758 68.99656 58.51207
# Shear Modulus (GPa) = 30.52239 36.67241 33.59740
#
# Velocity S-wave (km/s) = 3.56802 3.91100 3.74344
# Velocity P-wave (km/s) = 6.08329 7.01232 6.56426
#
# Compressibility (1/GPa) = 0.02082137
#
# Stress axis : x y z
#
# Youngs Moduli (GPa) = 99.66253 50.23429 104.20454
#
# Poissons Ratio (x) = 0.17096 0.42017
# Poissons Ratio (y) = 0.33918 0.20032
# Poissons Ratio (z) = 0.40186 0.09657
#
# Static dielectric constant tensor:
#      x y z
#    x 4.416730 -0.903260 -1.329440 
#    y -0.903260 6.501800 2.932570 
#    z -1.329440 2.932570 7.895820 
# 
# 
# High freq. dielectric constant tensor:
#      x y z
#    x 1.923930 0.001400 -0.022890 
#    y 0.001400 1.963030 0.007490 
#    z -0.022890 0.007490 1.964590 
# 
# From -- ./inp_files/107647.got.cif
#   From: 2010.06.25/outbox.cif.g09.slc.cpg/sg2_54_cif.got.tgz:107647.got - 2010.06.27 13:26:56.
