data_PCOD8012249
_publ_section_title
;
Structure prediction by ZEFSAII (Michael W. Deem and Ramdas Pophale) SiO2 
 PCOD8012249
Probable space group: P -1
;
_chemical_formula_sum "Si O2"
_cell_formula_units_Z 14
_cell_length_a 8.498239
_cell_length_b 9.972504
_cell_length_c 17.249530
_cell_angle_alpha 135.612635
_cell_angle_beta 32.376043
_cell_angle_gamma 128.491069
_cell_volume 546.876242
_symmetry_space_group_name_H-M "P -1"
_symmetry_group_IT_number 2
_symmetry_cell_setting 'triclinic'
loop_
_space_group_symop_operation_xyz
x,y,z
-x,-y,-z
loop_
_atom_site_type_symbol
_atom_site_label
_atom_site_fract_x
_atom_site_fract_y
_atom_site_fract_z
Si Si1 0.684662 0.952428 0.146864
Si Si2 0.363794 0.650262 0.062466
Si Si3 0.690521 0.241172 0.385956
Si Si4 0.782084 0.908989 0.808390
Si Si5 0.508613 0.352228 0.770743
Si Si6 0.209497 0.232972 0.695632
Si Si7 0.126948 0.384828 0.470652
O O1 0.477047 0.868203 0.128646
O O2 0.671221 0.797035 0.159030
O O3 0.597504 0.157421 0.305006
O O4 0.000000 0.000000 0.000000
O O5 0.008018 0.634885 0.208691
O O6 0.500000 0.500000 0.000000
O O7 0.475365 0.576587 0.902120
O O8 0.451873 0.138494 0.501436
O O9 0.027471 0.196917 0.249054
O O10 0.664992 0.472627 0.502564
O O11 0.696326 0.781343 0.714232
O O12 0.997287 0.078778 0.760443
O O13 0.500000 0.000000 0.000000
O O14 0.378763 0.358186 0.741594
O O15 0.852532 0.301228 0.602959
O O16 0.000000 0.500000 0.500000
#
# Coordination Sequence:
#
# PCOD8012249 Si02
#       7
#     2   2   2   2   2   2   2
#     4  11  24  44  70  97 148 200 232 290 354 437
#     4  10  26  44  66 105 149 187 239 293 370 428
#     4  11  23  45  70 105 149 187 243 291 364 428
#     4  11  24  38  67 112 145 180 231 306 358 413
#     4  11  21  43  73 105 143 186 244 296 355 422
#     4  12  23  41  77 105 138 190 245 302 363 416
#     4  10  21  39  68 106 151 175 229 305 363 407
#
# _framework density 25.599943
#
# number of rings (size 3 to 8) (size 9 to 14) (size 15 to 20)
#    0.000    1.143    4.286    2.571    6.000    1.714 
#    0.000    0.000    0.000    7.714    0.000    0.000 
#    0.000    0.000    0.000    0.000    0.000    0.000 
#
# Total GULP energy -173440.232801 kJ/mol
# GULP energy per Si atom -12388.588057 kJ/mol
# Density = 2.554168 g / cm^3
# Si number density = 25.599943 Si / 1000 Ang^3
#
#
#
# Elastic Constant Matrix: (Units=GPa)
#
#
# Indices 1 2 3 4 5 6 
#
# 1 55.2948 18.5816 47.6228 13.4835 25.0722 37.3922
# 2 18.5816 106.4036 66.5970 1.6767 22.2616 33.7091
# 3 47.6228 66.5970 210.9230 6.8953 34.7568 41.3485
# 4 13.4835 1.6767 6.8953 58.2413 12.2583 12.6789
# 5 25.0722 22.2616 34.7568 12.2583 51.0096 18.6019
# 6 37.3922 33.7091 41.3485 12.6789 18.6019 47.7719
#
#
#
# Elastic Compliance Matrix: (Units=1/GPa)
#
#
# Indices 1 2 3 4 5 6 
#
# 1 0.048104 0.007809 -0.004709 -0.000966 -0.011015 -0.034542
# 2 0.007809 0.014971 -0.003431 0.001733 -0.003828 -0.012676
# 3 -0.004709 -0.003431 0.006996 0.000534 -0.001224 0.000386
# 4 -0.000966 0.001733 0.000534 0.019027 -0.003540 -0.004600
# 5 -0.011015 -0.003828 -0.001224 -0.003540 0.027408 0.002650
# 6 -0.034542 -0.012676 0.000386 -0.004600 0.002650 0.056769
#
#
# Mechanical properties :
#
#
# Convention : Reuss Voigt Hill
#
# Bulk Modulus (GPa) = 14.40698 70.91378 42.66038
# Shear Modulus (GPa) = 25.37130 47.39258 36.38194
#
# Velocity S-wave (km/s) = 3.15154 4.30731 3.77393
# Velocity P-wave (km/s) = 4.34544 7.24556 5.97416
#
# Compressibility (1/GPa) = 0.06941080
#
# Stress axis : x y z
#
# Youngs Moduli (GPa) = 20.78813 66.79411 142.93599
#
# Poissons Ratio (x) = -0.52162 0.67304
# Poissons Ratio (y) = -0.16234 0.49043
# Poissons Ratio (z) = 0.09789 0.22918
#
# Static dielectric constant tensor:
#      x y z
#    x 5.439220 0.801270 -0.689080 
#    y 0.801270 5.117720 0.035150 
#    z -0.689080 0.035150 10.434970 
# 
# 
# High freq. dielectric constant tensor:
#      x y z
#    x 2.001650 0.025160 0.025780 
#    y 0.025160 2.027360 0.002390 
#    z 0.025780 0.002390 2.035770 
# 
# From -- ./inp_files/559982.got.cif
#   From: 2010.06.25/outbox.cif.g09.slc.cpg/sg2_280_cif.got.tgz:559982.got - 2010.06.27 13:26:56.
