data_PCOD8012118
_publ_section_title
;
Structure prediction by ZEFSAII (Michael W. Deem and Ramdas Pophale) SiO2 
 PCOD8012118
Probable space group: P -1
;
_chemical_formula_sum "Si O2"
_cell_formula_units_Z 14
_cell_length_a 9.496667
_cell_length_b 8.753116
_cell_length_c 19.559486
_cell_angle_alpha 147.209001
_cell_angle_beta 130.596088
_cell_angle_gamma 61.886948
_cell_volume 657.148539
_symmetry_space_group_name_H-M "P -1"
_symmetry_group_IT_number 2
_symmetry_cell_setting 'triclinic'
loop_
_space_group_symop_operation_xyz
x,y,z
-x,-y,-z
loop_
_atom_site_type_symbol
_atom_site_label
_atom_site_fract_x
_atom_site_fract_y
_atom_site_fract_z
Si Si1 0.121262 0.812888 0.667626
Si Si2 0.587226 0.234404 0.360471
Si Si3 0.539894 0.605426 0.128380
Si Si4 0.318499 0.126891 0.970842
Si Si5 0.778244 0.558400 0.660812
Si Si6 0.057924 0.353015 0.773804
Si Si7 0.003369 0.133711 0.976522
O O1 0.330970 0.816491 0.706787
O O2 0.000000 0.500000 0.500000
O O3 0.163181 0.908682 0.795393
O O4 0.024289 0.038812 0.678953
O O5 0.762242 0.385789 0.519879
O O6 0.433966 0.436849 0.378619
O O7 0.499373 0.924456 0.247774
O O8 0.763888 0.595351 0.202985
O O9 0.500000 0.500000 0.000000
O O10 0.399565 0.416054 0.064753
O O11 0.211041 0.203972 0.034241
O O12 0.500000 0.000000 0.000000
O O13 0.877962 0.393509 0.687308
O O14 0.876047 0.886292 0.798537
O O15 0.081765 0.576273 0.930138
O O16 0.000000 0.000000 0.000000
#
# Coordination Sequence:
#
# PCOD8012118 Si02
#       7
#     2   2   2   2   2   2   2
#     4  11  25  43  63  94 136 174 221 278 330 396
#     4  10  22  40  66  92 135 173 213 273 332 398
#     4  11  21  43  66  95 130 172 218 271 330 391
#     4  12  25  40  69 101 129 177 228 269 334 393
#     4  10  21  39  66  97 125 178 217 262 341 393
#     4  10  22  41  69  92 132 176 217 273 333 387
#     4  10  22  40  67  95 132 166 219 275 319 391
#
# _framework density 21.304162000000002
#
# number of rings (size 3 to 8) (size 9 to 14) (size 15 to 20)
#    0.000    1.429    2.857    3.429    4.000    4.000 
#    5.143    0.714    0.000    0.000    0.000    0.000 
#    0.000    0.000    0.000    0.000    0.000    0.000 
#
# Total GULP energy -173515.598134 kJ/mol
# GULP energy per Si atom -12393.971295 kJ/mol
# Density = 2.125567 g / cm^3
# Si number density = 21.304162 Si / 1000 Ang^3
#
#
#
# Elastic Constant Matrix: (Units=GPa)
#
#
# Indices 1 2 3 4 5 6 
#
# 1 118.7500 40.5648 23.4118 11.7974 0.2119 9.2767
# 2 40.5648 108.1487 43.6048 -0.3190 6.4232 -10.2634
# 3 23.4118 43.6048 127.5294 13.4013 8.9027 5.3722
# 4 11.7974 -0.3190 13.4013 36.8627 1.6841 2.1390
# 5 0.2119 6.4232 8.9027 1.6841 29.5314 5.8887
# 6 9.2767 -10.2634 5.3722 2.1390 5.8887 30.6166
#
#
#
# Elastic Compliance Matrix: (Units=1/GPa)
#
#
# Indices 1 2 3 4 5 6 
#
# 1 0.010711 -0.004635 0.000027 -0.003285 0.002103 -0.004979
# 2 -0.004635 0.013531 -0.004147 0.002845 -0.003236 0.007092
# 3 0.000027 -0.004147 0.009816 -0.003399 -0.001340 -0.002625
# 4 -0.003285 0.002845 -0.003399 0.029459 -0.001401 0.000757
# 5 0.002103 -0.003236 -0.001340 -0.001401 0.036720 -0.008452
# 6 -0.004979 0.007092 -0.002625 0.000757 -0.008452 0.038581
#
#
# Mechanical properties :
#
#
# Convention : Reuss Voigt Hill
#
# Bulk Modulus (GPa) = 60.43883 63.28789 61.86336
# Shear Modulus (GPa) = 30.89370 35.85860 33.37615
#
# Velocity S-wave (km/s) = 3.81218 4.10710 3.96239
# Velocity P-wave (km/s) = 6.91434 7.22927 7.07356
#
# Compressibility (1/GPa) = 0.01654566
#
# Stress axis : x y z
#
# Youngs Moduli (GPa) = 93.36436 73.90499 101.87635
#
# Poissons Ratio (x) = 0.34257 -0.00272
# Poissons Ratio (y) = 0.43277 0.42251
# Poissons Ratio (z) = -0.00249 0.30651
#
# Static dielectric constant tensor:
#      x y z
#    x 3.752630 -0.348470 -0.439030 
#    y -0.348470 3.712000 0.062500 
#    z -0.439030 0.062500 4.093110 
# 
# 
# High freq. dielectric constant tensor:
#      x y z
#    x 1.835890 -0.015360 -0.006630 
#    y -0.015360 1.825380 0.005850 
#    z -0.006630 0.005850 1.844080 
# 
# From -- ./inp_files/284652.got.cif
#   From: 2010.06.25/outbox.cif.g09.slc.cpg/sg2_143_cif.got.tgz:284652.got - 2010.06.27 13:26:56.
