data_PCOD8012451
_publ_section_title
;
Structure prediction by ZEFSAII (Michael W. Deem and Ramdas Pophale) SiO2 
 PCOD8012451
Probable space group: P -1
;
_chemical_formula_sum "Si O2"
_cell_formula_units_Z 16
_cell_length_a 13.835764
_cell_length_b 11.109888
_cell_length_c 8.060267
_cell_angle_alpha 111.668128
_cell_angle_beta 66.655294
_cell_angle_gamma 136.957876
_cell_volume 770.125324
_symmetry_space_group_name_H-M "P -1"
_symmetry_group_IT_number 2
_symmetry_cell_setting 'triclinic'
loop_
_space_group_symop_operation_xyz
x,y,z
-x,-y,-z
loop_
_atom_site_type_symbol
_atom_site_label
_atom_site_fract_x
_atom_site_fract_y
_atom_site_fract_z
Si Si1 0.511691 0.200221 0.486663
Si Si2 0.393730 0.151905 0.056792
Si Si3 0.595866 0.157719 0.730537
Si Si4 0.231472 0.021768 0.757647
Si Si5 0.889699 0.295792 0.522151
Si Si6 0.869420 0.842955 0.295934
Si Si7 0.421799 0.539873 0.680726
Si Si8 0.122645 0.932780 0.335338
O O1 0.592196 0.264324 0.642163
O O2 0.353837 0.132473 0.585591
O O3 0.599266 0.351473 0.365097
O O4 0.503623 0.046656 0.352766
O O5 0.478705 0.348923 0.168448
O O6 0.275381 0.006788 0.199447
O O7 0.519631 0.151479 0.943612
O O8 0.303127 0.102695 0.927488
O O9 0.761479 0.257959 0.691347
O O10 0.120007 0.045479 0.807825
O O11 0.158590 0.818302 0.674392
O O12 0.948343 0.234493 0.578076
O O13 0.000000 0.500000 0.500000
O O14 0.735533 0.636323 0.243700
O O15 0.011559 0.871705 0.229106
O O16 0.847989 0.905897 0.511858
O O17 0.500000 0.500000 0.500000
#
# Coordination Sequence:
#
# PCOD8012451 Si02
#       8
#     2   2   2   2   2   2   2   2
#     4   9  18  36  62  84 116 156 199 244 299 363
#     4  11  22  39  63  93 121 159 202 252 305 358
#     4   9  20  38  61  88 117 158 198 248 306 350
#     4   9  19  39  61  87 122 159 198 244 306 360
#     4  10  21  40  64  89 121 160 205 246 294 368
#     4  10  21  40  59  86 122 163 203 243 301 365
#     4  12  21  36  62  91 120 159 207 255 291 357
#     4  10  22  40  63  86 119 166 200 242 310 360
#
# _framework density 20.775839999999999
#
# number of rings (size 3 to 8) (size 9 to 14) (size 15 to 20)
#    0.000    2.000    2.500    2.250    1.750    3.000 
#    2.250    0.625    0.000    0.000    0.000    0.000 
#    0.000    0.000    0.000    0.000    0.000    0.000 
#
# Total GULP energy -198262.997565 kJ/mol
# GULP energy per Si atom -12391.437348 kJ/mol
# Density = 2.072855 g / cm^3
# Si number density = 20.775840 Si / 1000 Ang^3
#
#
#
# Elastic Constant Matrix: (Units=GPa)
#
#
# Indices 1 2 3 4 5 6 
#
# 1 99.6180 41.7874 29.6131 9.8448 -0.0835 -1.0441
# 2 41.7874 131.6314 37.5039 10.4847 1.9977 -0.2170
# 3 29.6131 37.5039 93.9300 11.0366 -1.0735 4.7862
# 4 9.8448 10.4847 11.0366 23.8550 8.9488 2.6971
# 5 -0.0835 1.9977 -1.0735 8.9488 30.8576 -2.2791
# 6 -1.0441 -0.2170 4.7862 2.6971 -2.2791 27.9722
#
#
#
# Elastic Compliance Matrix: (Units=1/GPa)
#
#
# Indices 1 2 3 4 5 6 
#
# 1 0.012334 -0.003000 -0.002357 -0.003268 0.001186 0.001252
# 2 -0.003000 0.009444 -0.002659 -0.001677 -0.000184 0.000563
# 3 -0.002357 -0.002659 0.013075 -0.004364 0.001755 -0.001782
# 4 -0.003268 -0.001677 -0.004364 0.052571 -0.015722 -0.005738
# 5 0.001186 -0.000184 0.001755 -0.015722 0.037360 0.004303
# 6 0.001252 0.000563 -0.001782 -0.005738 0.004303 0.037010
#
#
# Mechanical properties :
#
#
# Convention : Reuss Voigt Hill
#
# Bulk Modulus (GPa) = 53.13009 60.33204 56.73106
# Shear Modulus (GPa) = 27.15918 30.95531 29.05725
#
# Velocity S-wave (km/s) = 3.61951 3.86420 3.74385
# Velocity P-wave (km/s) = 6.56478 7.00085 6.78632
#
# Compressibility (1/GPa) = 0.01882173
#
# Stress axis : x y z
#
# Youngs Moduli (GPa) = 81.07390 105.88616 76.48392
#
# Poissons Ratio (x) = 0.31763 0.18029
# Poissons Ratio (y) = 0.24320 0.20335
# Poissons Ratio (z) = 0.19111 0.28153
#
# Static dielectric constant tensor:
#      x y z
#    x 3.995890 -0.044350 0.012180 
#    y -0.044350 3.769260 0.080070 
#    z 0.012180 0.080070 3.707130 
# 
# 
# High freq. dielectric constant tensor:
#      x y z
#    x 1.821150 -0.002670 0.000630 
#    y -0.002670 1.789680 0.006420 
#    z 0.000630 0.006420 1.797520 
# 
# From -- ./inp_files/308288.got.cif
#   From: 2010.06.25/outbox.cif.g09.slc.cpg/sg2_155_cif.got.tgz:308288.got - 2010.06.27 13:26:56.
