data_PCOD8012350
_publ_section_title
;
Structure prediction by ZEFSAII (Michael W. Deem and Ramdas Pophale) SiO2 
 PCOD8012350
Probable space group: P -1
;
_chemical_formula_sum "Si O2"
_cell_formula_units_Z 14
_cell_length_a 8.864736
_cell_length_b 13.204702
_cell_length_c 10.684118
_cell_angle_alpha 65.333989
_cell_angle_beta 114.813628
_cell_angle_gamma 149.152890
_cell_volume 577.676405
_symmetry_space_group_name_H-M "P -1"
_symmetry_group_IT_number 2
_symmetry_cell_setting 'triclinic'
loop_
_space_group_symop_operation_xyz
x,y,z
-x,-y,-z
loop_
_atom_site_type_symbol
_atom_site_label
_atom_site_fract_x
_atom_site_fract_y
_atom_site_fract_z
Si Si1 0.534604 0.246202 0.379987
Si Si2 0.052696 0.380949 0.517529
Si Si3 0.368911 0.550236 0.920621
Si Si4 0.219978 0.823299 0.211589
Si Si5 0.715035 0.903309 0.004447
Si Si6 0.270226 0.065044 0.716425
Si Si7 0.920089 0.822382 0.493378
O O1 0.780566 0.291491 0.398896
O O2 0.478083 0.300782 0.219482
O O3 0.232855 0.019040 0.430480
O O4 0.676608 0.385444 0.479519
O O5 0.943355 0.263284 0.668346
O O6 0.184259 0.359389 0.483155
O O7 0.442482 0.665311 0.010681
O O8 0.014748 0.343021 0.891435
O O9 0.500000 0.500000 0.000000
O O10 0.472518 0.871032 0.277737
O O11 0.351133 0.018708 0.132041
O O12 0.765623 0.965971 0.132562
O O13 0.000000 0.000000 0.000000
O O14 0.967135 0.861744 0.640141
O O15 0.323887 0.224772 0.617034
#
# Coordination Sequence:
#
# PCOD8012350 Si02
#       7
#     2   2   2   2   2   2   2
#     4  10  21  39  69  99 125 167 229 264 316 393
#     4  10  21  40  72  95 127 174 219 266 324 390
#     4  11  24  40  69 102 124 173 226 262 319 393
#     4  11  23  44  65 101 136 164 221 274 316 391
#     4  12  24  45  71  92 128 179 219 267 331 389
#     4  11  26  42  64  99 135 169 221 271 328 389
#     4  11  23  44  66  96 134 175 213 270 330 384
#
# _framework density 24.235022000000001
#
# number of rings (size 3 to 8) (size 9 to 14) (size 15 to 20)
#    0.000    1.143    2.857    3.429    4.000    0.571 
#    0.000    5.714    0.000    0.000    0.000    0.000 
#    0.000    0.000    0.000    0.000    0.000    0.000 
#
# Total GULP energy -173596.002259 kJ/mol
# GULP energy per Si atom -12399.714447 kJ/mol
# Density = 2.417986 g / cm^3
# Si number density = 24.235022 Si / 1000 Ang^3
#
#
#
# Elastic Constant Matrix: (Units=GPa)
#
#
# Indices 1 2 3 4 5 6 
#
# 1 97.7041 25.6514 25.7130 -5.4707 23.0832 -37.6150
# 2 25.6514 71.4701 12.3405 -5.0874 16.2211 -29.5963
# 3 25.7130 12.3405 109.9635 -5.3369 18.1070 -13.3741
# 4 -5.4707 -5.0874 -5.3369 26.1735 -4.3884 3.0962
# 5 23.0832 16.2211 18.1070 -4.3884 52.3076 -2.0231
# 6 -37.6150 -29.5963 -13.3741 3.0962 -2.0231 44.1249
#
#
#
# Elastic Compliance Matrix: (Units=1/GPa)
#
#
# Indices 1 2 3 4 5 6 
#
# 1 0.017955 0.002132 -0.001227 0.000775 -0.007477 0.015967
# 2 0.002132 0.021427 0.000241 0.001627 -0.006920 0.015831
# 3 -0.001227 0.000241 0.010121 0.001140 -0.002865 0.001972
# 4 0.000775 0.001627 0.001140 0.039326 0.002036 -0.000569
# 5 -0.007477 -0.006920 -0.002865 0.002036 0.025306 -0.010867
# 6 0.015967 0.015831 0.001972 -0.000569 -0.010867 0.047032
#
#
# Mechanical properties :
#
#
# Convention : Reuss Voigt Hill
#
# Bulk Modulus (GPa) = 19.30705 45.17197 32.23951
# Shear Modulus (GPa) = 28.38640 38.88338 33.63489
#
# Velocity S-wave (km/s) = 3.42613 4.00988 3.72944
# Velocity P-wave (km/s) = 4.86159 6.33391 5.64595
#
# Compressibility (1/GPa) = 0.05179454
#
# Stress axis : x y z
#
# Youngs Moduli (GPa) = 55.69381 46.66945 98.80764
#
# Poissons Ratio (x) = -0.09949 0.12123
# Poissons Ratio (y) = -0.11873 -0.02378
# Poissons Ratio (z) = 0.06833 -0.01123
#
# Static dielectric constant tensor:
#      x y z
#    x 4.324100 -0.272370 0.210810 
#    y -0.272370 4.573850 0.336090 
#    z 0.210810 0.336090 4.631510 
# 
# 
# High freq. dielectric constant tensor:
#      x y z
#    x 1.961300 -0.017740 0.020140 
#    y -0.017740 1.958110 0.007970 
#    z 0.020140 0.007970 1.967590 
# 
# From -- ./inp_files/389827.got.cif
#   From: 2010.06.25/outbox.cif.g09.slc.cpg/sg2_195_cif.got.tgz:389827.got - 2010.06.27 13:26:56.
