data_PCOD8012143
_publ_section_title
;
Structure prediction by ZEFSAII (Michael W. Deem and Ramdas Pophale) SiO2 
 PCOD8012143
Probable space group: P -1
;
_chemical_formula_sum "Si O2"
_cell_formula_units_Z 12
_cell_length_a 9.474199
_cell_length_b 9.710718
_cell_length_c 13.419359
_cell_angle_alpha 135.544300
_cell_angle_beta 41.799461
_cell_angle_gamma 109.433474
_cell_volume 521.089242
_symmetry_space_group_name_H-M "P -1"
_symmetry_group_IT_number 2
_symmetry_cell_setting 'triclinic'
loop_
_space_group_symop_operation_xyz
x,y,z
-x,-y,-z
loop_
_atom_site_type_symbol
_atom_site_label
_atom_site_fract_x
_atom_site_fract_y
_atom_site_fract_z
Si Si1 0.670014 0.879268 0.656886
Si Si2 0.650964 0.137154 0.612839
Si Si3 0.308055 0.480781 0.660236
Si Si4 0.141385 0.951128 0.000407
Si Si5 0.240806 0.285399 0.771781
Si Si6 0.001688 0.273450 0.416308
O O1 0.814090 0.640925 0.406212
O O2 0.400850 0.928162 0.835487
O O3 0.776905 0.871248 0.705538
O O4 0.685114 0.066141 0.674493
O O5 0.372754 0.252727 0.791726
O O6 0.769186 0.303784 0.616789
O O7 0.782177 0.931131 0.363134
O O8 0.500000 0.500000 0.500000
O O9 0.137426 0.720821 0.915939
O O10 0.413611 0.325116 0.620161
O O11 0.009882 0.139602 0.244483
O O12 0.000000 0.000000 0.000000
O O13 0.000000 0.500000 0.000000
O O14 0.000000 0.500000 0.500000
#
# Coordination Sequence:
#
# PCOD8012143 Si02
#       6
#     2   2   2   2   2   2
#     4  10  23  45  65  98 137 175 219 279 346 395
#     4  10  24  42  68  95 137 179 224 276 338 400
#     4   9  20  37  67  93 129 165 224 272 324 385
#     4  11  24  39  70  99 132 174 230 273 330 403
#     4  10  21  39  67 101 131 169 229 282 330 392
#     4  12  26  44  67  96 140 179 220 276 344 400
#
# _framework density 23.028684999999999
#
# number of rings (size 3 to 8) (size 9 to 14) (size 15 to 20)
#    0.000    1.667    0.000    3.000   16.333    0.000 
#    3.000    0.833    0.000    0.000    0.000    0.000 
#    0.000    0.000    0.000    0.000    0.000    0.000 
#
# Total GULP energy -148670.347158 kJ/mol
# GULP energy per Si atom -12389.195597 kJ/mol
# Density = 2.297627 g / cm^3
# Si number density = 23.028685 Si / 1000 Ang^3
#
#
#
# Elastic Constant Matrix: (Units=GPa)
#
#
# Indices 1 2 3 4 5 6 
#
# 1 140.6308 45.0299 20.4283 -3.0242 -8.5220 -27.5191
# 2 45.0299 164.7965 16.2559 7.6044 3.1177 -5.7633
# 3 20.4283 16.2559 68.6783 15.6408 -0.8087 -4.5924
# 4 -3.0242 7.6044 15.6408 26.9329 -0.2682 0.2621
# 5 -8.5220 3.1177 -0.8087 -0.2682 38.2456 -2.5694
# 6 -27.5191 -5.7633 -4.5924 0.2621 -2.5694 38.8494
#
#
#
# Elastic Compliance Matrix: (Units=1/GPa)
#
#
# Indices 1 2 3 4 5 6 
#
# 1 0.009743 -0.002383 -0.002614 0.003250 0.002763 0.006400
# 2 -0.002383 0.006855 -0.000551 -0.001887 -0.001168 -0.000801
# 3 -0.002614 -0.000551 0.017879 -0.010525 -0.000217 0.000237
# 4 0.003250 -0.001887 -0.010525 0.044144 0.001002 0.000546
# 5 0.002763 -0.001168 -0.000217 0.001002 0.027098 0.003543
# 6 0.006400 -0.000801 0.000237 0.000546 0.003543 0.030414
#
#
# Mechanical properties :
#
#
# Convention : Reuss Voigt Hill
#
# Bulk Modulus (GPa) = 42.77003 59.72597 51.24800
# Shear Modulus (GPa) = 32.25349 40.29833 36.27591
#
# Velocity S-wave (km/s) = 3.74649 4.18774 3.97325
# Velocity P-wave (km/s) = 6.10964 7.02671 6.58416
#
# Compressibility (1/GPa) = 0.02338086
#
# Stress axis : x y z
#
# Youngs Moduli (GPa) = 102.63625 145.88440 55.93199
#
# Poissons Ratio (x) = 0.34762 0.14619
# Poissons Ratio (y) = 0.24457 0.03084
# Poissons Ratio (z) = 0.26826 0.08043
#
# Static dielectric constant tensor:
#      x y z
#    x 4.049340 -0.079240 0.049470 
#    y -0.079240 4.787260 -0.157770 
#    z 0.049470 -0.157770 3.381370 
# 
# 
# High freq. dielectric constant tensor:
#      x y z
#    x 1.896760 -0.006110 0.003980 
#    y -0.006110 1.944890 -0.004330 
#    z 0.003980 -0.004330 1.887930 
# 
# From -- ./inp_files/152443.got.cif
#   From: 2010.06.25/outbox.cif.g09.slc.cpg/sg2_77_cif.got.tgz:152443.got - 2010.06.27 13:26:56.
