data_PCOD8012496
_publ_section_title
;
Structure prediction by ZEFSAII (Michael W. Deem and Ramdas Pophale) SiO2 
 PCOD8012496
Probable space group: P -1
;
_chemical_formula_sum "Si O2"
_cell_formula_units_Z 8
_cell_length_a 7.512457
_cell_length_b 9.499237
_cell_length_c 9.404589
_cell_angle_alpha 48.436665
_cell_angle_beta 109.525035
_cell_angle_gamma 81.674051
_cell_volume 404.328162
_symmetry_space_group_name_H-M "P -1"
_symmetry_group_IT_number 2
_symmetry_cell_setting 'triclinic'
loop_
_space_group_symop_operation_xyz
x,y,z
-x,-y,-z
loop_
_atom_site_type_symbol
_atom_site_label
_atom_site_fract_x
_atom_site_fract_y
_atom_site_fract_z
Si Si1 0.237333 0.255959 0.364997
Si Si2 0.128664 0.482545 0.688903
Si Si3 0.563184 0.378100 0.450082
Si Si4 0.693080 0.910503 0.800996
O O1 0.337304 0.417271 0.290842
O O2 0.166786 0.241787 0.194283
O O3 0.030259 0.339851 0.356945
O O4 0.430879 0.010882 0.632641
O O5 0.325787 0.525806 0.685406
O O6 0.000000 0.500000 0.500000
O O7 0.233087 0.235217 0.940258
O O8 0.500000 0.500000 0.500000
O O9 0.732170 0.114445 0.696479
#
# Coordination Sequence:
#
# PCOD8012496 Si02
#       4
#     2   2   2   2
#     4   9  21  44  57  87 122 146 199 243 279 351
#     4  12  22  37  64  88 116 157 193 235 297 343
#     4  10  21  40  60  88 117 152 197 237 290 344
#     4   9  22  43  58  86 123 148 193 249 280 342
#
# _framework density 19.785909
#
# number of rings (size 3 to 8) (size 9 to 14) (size 15 to 20)
#    1.500    0.500    2.500    0.750    0.000    7.000 
#    4.500    0.000    0.000    0.000    0.000    0.000 
#    0.000    0.000    0.000    0.000    0.000    0.000 
#
# Total GULP energy -99153.421701 kJ/mol
# GULP energy per Si atom -12394.177713 kJ/mol
# Density = 1.974088 g / cm^3
# Si number density = 19.785909 Si / 1000 Ang^3
#
#
#
# Elastic Constant Matrix: (Units=GPa)
#
#
# Indices 1 2 3 4 5 6 
#
# 1 101.2693 46.5995 13.9074 6.1658 -18.2356 -19.8531
# 2 46.5995 152.3103 31.5570 3.1347 -19.9606 -7.4199
# 3 13.9074 31.5570 108.2466 11.1199 -24.7878 3.6448
# 4 6.1658 3.1347 11.1199 24.8435 2.3989 0.4738
# 5 -18.2356 -19.9606 -24.7878 2.3989 22.4853 1.0428
# 6 -19.8531 -7.4199 3.6448 0.4738 1.0428 30.2510
#
#
#
# Elastic Compliance Matrix: (Units=1/GPa)
#
#
# Indices 1 2 3 4 5 6 
#
# 1 0.015162 -0.002927 0.001944 -0.005591 0.012035 0.008671
# 2 -0.002927 0.008185 -0.001174 -0.000131 0.003607 0.000106
# 3 0.001944 -0.001174 0.014123 -0.008279 0.017040 -0.001172
# 4 -0.005591 -0.000131 -0.008279 0.047219 -0.018685 -0.002800
# 5 0.012035 0.003607 0.017040 -0.018685 0.078014 0.004334
# 6 0.008671 0.000106 -0.001172 -0.002800 0.004334 0.038809
#
#
# Mechanical properties :
#
#
# Convention : Reuss Voigt Hill
#
# Bulk Modulus (GPa) = 30.16142 60.66157 45.41149
# Shear Modulus (GPa) = 23.05438 33.50011 28.27725
#
# Velocity S-wave (km/s) = 3.41719 4.11923 3.78453
# Velocity P-wave (km/s) = 5.55397 7.30408 6.48831
#
# Compressibility (1/GPa) = 0.03315494
#
# Stress axis : x y z
#
# Youngs Moduli (GPa) = 65.95409 122.17727 70.80731
#
# Poissons Ratio (x) = 0.35759 -0.13763
# Poissons Ratio (y) = 0.19303 0.08315
# Poissons Ratio (z) = -0.12819 0.14347
#
# Static dielectric constant tensor:
#      x y z
#    x 3.522050 -0.106830 -0.060380 
#    y -0.106830 3.619740 -0.042860 
#    z -0.060380 -0.042860 3.441810 
# 
# 
# High freq. dielectric constant tensor:
#      x y z
#    x 1.754220 -0.014970 0.000150 
#    y -0.014970 1.784050 -0.000580 
#    z 0.000150 -0.000580 1.756320 
# 
# From -- ./inp_files/1931.got.cif
#   From: 2010.06.25/outbox.cif.g09.slc.cpg/sg2_1_cif.got.tgz:1931.got - 2010.06.27 13:26:56.
