data_PCOD8012800
_publ_section_title
;
Structure prediction by ZEFSAII (Michael W. Deem and Ramdas Pophale) SiO2 
 PCOD8012800
Probable space group: P -1
;
_chemical_formula_sum "Si O2"
_cell_formula_units_Z 16
_cell_length_a 11.419940
_cell_length_b 11.450648
_cell_length_c 6.765600
_cell_angle_alpha 85.606570
_cell_angle_beta 96.270242
_cell_angle_gamma 56.308095
_cell_volume 721.565814
_symmetry_space_group_name_H-M "P -1"
_symmetry_group_IT_number 2
_symmetry_cell_setting 'triclinic'
loop_
_space_group_symop_operation_xyz
x,y,z
-x,-y,-z
loop_
_atom_site_type_symbol
_atom_site_label
_atom_site_fract_x
_atom_site_fract_y
_atom_site_fract_z
Si Si1 0.185341 0.319446 0.406058
Si Si2 0.944756 0.364626 0.620578
Si Si3 0.486247 0.430530 0.200769
Si Si4 0.396479 0.115201 0.756827
Si Si5 0.850762 0.775701 0.985908
Si Si6 0.161678 0.953375 0.079655
Si Si7 0.431000 0.849636 0.915758
Si Si8 0.280893 0.686825 0.405250
O O1 0.162792 0.466217 0.442574
O O2 0.343069 0.194836 0.527289
O O3 0.167523 0.311946 0.172101
O O4 0.072232 0.300562 0.497206
O O5 0.865318 0.290645 0.555331
O O6 0.999083 0.326798 0.861302
O O7 0.466521 0.308217 0.137354
O O8 0.351491 0.556326 0.279022
O O9 0.624005 0.351284 0.378305
O O10 0.500000 0.500000 0.000000
O O11 0.446900 0.952073 0.757890
O O12 0.273762 0.178442 0.889696
O O13 0.517364 0.135382 0.858743
O O14 0.847308 0.906705 0.870384
O O15 0.240420 0.833121 0.278920
O O16 0.267462 0.893119 0.912588
O O17 0.000000 0.000000 0.000000
#
# Coordination Sequence:
#
# PCOD8012800 Si02
#       8
#     2   2   2   2   2   2   2   2
#     4  10  22  38  63  92 123 166 211 260 318 369
#     4  10  22  40  59  91 132 158 210 266 307 385
#     4  11  25  43  65  92 127 171 215 262 316 374
#     4   9  22  41  62  94 123 162 213 266 308 374
#     4  10  21  40  63  93 125 166 210 255 325 370
#     4  11  22  42  66  94 133 167 209 266 312 388
#     4  10  22  44  64  89 133 164 209 266 316 368
#     4  11  25  42  64  97 127 168 218 259 316 386
#
# _framework density 22.174001000000001
#
# number of rings (size 3 to 8) (size 9 to 14) (size 15 to 20)
#    0.000    1.750    2.500    0.375    5.250    2.000 
#    0.000    3.125    0.000    0.000    0.000    0.000 
#    0.000    0.000    0.000    0.000    0.000    0.000 
#
# Total GULP energy -198339.010061 kJ/mol
# GULP energy per Si atom -12396.188129 kJ/mol
# Density = 2.212353 g / cm^3
# Si number density = 22.174001 Si / 1000 Ang^3
#
#
#
# Elastic Constant Matrix: (Units=GPa)
#
#
# Indices 1 2 3 4 5 6 
#
# 1 80.5784 13.0835 13.8029 -6.2366 8.3727 8.5412
# 2 13.0835 98.2455 29.0767 -15.1343 1.0643 7.9011
# 3 13.8029 29.0767 94.8832 -21.3405 8.4354 1.4863
# 4 -6.2366 -15.1343 -21.3405 40.1680 -5.8019 7.3324
# 5 8.3727 1.0643 8.4354 -5.8019 23.0439 -5.8414
# 6 8.5412 7.9011 1.4863 7.3324 -5.8414 21.3008
#
#
#
# Elastic Compliance Matrix: (Units=1/GPa)
#
#
# Indices 1 2 3 4 5 6 
#
# 1 0.014306 -0.000663 -0.000710 0.002118 -0.006382 -0.007920
# 2 -0.000663 0.012104 -0.002640 0.004079 0.000317 -0.005357
# 3 -0.000710 -0.002640 0.013127 0.005829 -0.003630 -0.002654
# 4 0.002118 0.004079 0.005829 0.032569 0.001681 -0.013519
# 5 -0.006382 0.000317 -0.003630 0.001681 0.051573 0.016259
# 6 -0.007920 -0.005357 -0.002654 -0.013519 0.016259 0.061407
#
#
# Mechanical properties :
#
#
# Convention : Reuss Voigt Hill
#
# Bulk Modulus (GPa) = 31.73405 42.84815 37.29110
# Shear Modulus (GPa) = 24.55612 31.41880 27.98746
#
# Velocity S-wave (km/s) = 3.33142 3.76828 3.55656
# Velocity P-wave (km/s) = 5.39817 6.18861 5.80685
#
# Compressibility (1/GPa) = 0.03151189
#
# Stress axis : x y z
#
# Youngs Moduli (GPa) = 69.90003 82.61901 76.17915
#
# Poissons Ratio (x) = 0.05474 0.05411
# Poissons Ratio (y) = 0.04631 0.20109
# Poissons Ratio (z) = 0.04965 0.21809
#
# Static dielectric constant tensor:
#      x y z
#    x 4.020760 -0.043460 0.087310 
#    y -0.043460 4.213960 -0.292030 
#    z 0.087310 -0.292030 3.891570 
# 
# 
# High freq. dielectric constant tensor:
#      x y z
#    x 1.874230 0.002450 0.002170 
#    y 0.002450 1.882540 -0.018060 
#    z 0.002170 -0.018060 1.858290 
# 
# From -- ./inp_files/69927.got.cif
#   From: 2010.06.25/outbox.cif.g09.slc.cpg/sg2_35_cif.got.tgz:69927.got - 2010.06.27 13:26:56.
