data_PCOD8012190
_publ_section_title
;
Structure prediction by ZEFSAII (Michael W. Deem and Ramdas Pophale) SiO2 
 PCOD8012190
Probable space group: P -1
;
_chemical_formula_sum "Si O2"
_cell_formula_units_Z 16
_cell_length_a 11.707144
_cell_length_b 8.840340
_cell_length_c 11.997712
_cell_angle_alpha 94.838025
_cell_angle_beta 67.006464
_cell_angle_gamma 48.802905
_cell_volume 748.199965
_symmetry_space_group_name_H-M "P -1"
_symmetry_group_IT_number 2
_symmetry_cell_setting 'triclinic'
loop_
_space_group_symop_operation_xyz
x,y,z
-x,-y,-z
loop_
_atom_site_type_symbol
_atom_site_label
_atom_site_fract_x
_atom_site_fract_y
_atom_site_fract_z
Si Si1 0.278611 0.361655 0.766374
Si Si2 0.888523 0.520651 0.402040
Si Si3 0.999882 0.835889 0.264667
Si Si4 0.330859 0.084757 0.922841
Si Si5 0.293541 0.014728 0.439671
Si Si6 0.039720 0.081048 0.391155
Si Si7 0.256545 0.335555 0.189362
Si Si8 0.017287 0.159367 0.983782
O O1 0.159706 0.433516 0.706974
O O2 0.286850 0.206464 0.830712
O O3 0.486880 0.221314 0.641812
O O4 0.179104 0.587251 0.886130
O O5 0.748281 0.765377 0.534321
O O6 0.879386 0.360265 0.450667
O O7 0.103718 0.381853 0.321797
O O8 0.182705 0.574997 0.219509
O O9 0.816789 0.959482 0.414022
O O10 0.949862 0.841234 0.158715
O O11 0.051501 0.967975 0.267909
O O12 0.194388 0.064350 0.979047
O O13 0.549019 0.834850 0.827059
O O14 0.285966 0.236974 0.050877
O O15 0.231994 0.992653 0.344628
O O16 0.000000 0.000000 0.500000
O O17 0.000000 0.000000 0.000000
#
# Coordination Sequence:
#
# PCOD8012190 Si02
#       8
#     2   2   2   2   2   2   2   2
#     4  12  23  41  67 100 131 166 216 272 319 386
#     4  11  21  40  66  95 126 170 217 266 324 381
#     4  10  22  44  65  93 131 175 213 262 327 386
#     4  11  22  40  64  96 129 166 215 267 315 376
#     4  10  23  41  66  97 125 169 221 271 320 376
#     4  10  22  41  63  90 131 172 216 266 317 383
#     4  10  21  39  67  95 124 167 217 266 315 376
#     4  12  25  43  64  96 136 176 208 261 329 389
#
# _framework density 21.384658000000002
#
# number of rings (size 3 to 8) (size 9 to 14) (size 15 to 20)
#    0.000    1.250    2.500    4.125    0.000    3.000 
#    0.000    8.125    0.000    0.000    0.000    0.000 
#    0.000    0.000    0.000    0.000    0.000    0.000 
#
# Total GULP energy -198376.773688 kJ/mol
# GULP energy per Si atom -12398.548356 kJ/mol
# Density = 2.133599 g / cm^3
# Si number density = 21.384658 Si / 1000 Ang^3
#
#
#
# Elastic Constant Matrix: (Units=GPa)
#
#
# Indices 1 2 3 4 5 6 
#
# 1 124.5818 78.9536 47.9624 21.7227 4.8406 9.7364
# 2 78.9536 130.3166 37.1529 5.3127 -12.4915 5.8927
# 3 47.9624 37.1529 81.0460 23.0060 -4.0042 -4.6841
# 4 21.7227 5.3127 23.0060 38.2092 -6.3957 -0.5796
# 5 4.8406 -12.4915 -4.0042 -6.3957 30.4242 4.4528
# 6 9.7364 5.8927 -4.6841 -0.5796 4.4528 36.5011
#
#
#
# Elastic Compliance Matrix: (Units=1/GPa)
#
#
# Indices 1 2 3 4 5 6 
#
# 1 0.018005 -0.010033 -0.004478 -0.007655 -0.008772 -0.002809
# 2 -0.010033 0.015101 -0.002471 0.006584 0.009012 -0.001073
# 3 -0.004478 -0.002471 0.018706 -0.008341 -0.000162 0.003881
# 4 -0.007655 0.006584 -0.008341 0.036392 0.010592 -0.000806
# 5 -0.008772 0.009012 -0.000162 0.010592 0.040746 -0.003938
# 6 -0.002809 -0.001073 0.003881 -0.000806 -0.003938 0.029285
#
#
# Mechanical properties :
#
#
# Convention : Reuss Voigt Hill
#
# Bulk Modulus (GPa) = 56.03268 73.78694 64.90981
# Shear Modulus (GPa) = 25.23378 32.48526 28.85952
#
# Velocity S-wave (km/s) = 3.43883 3.90178 3.67760
# Velocity P-wave (km/s) = 6.48279 7.40797 6.96077
#
# Compressibility (1/GPa) = 0.01784673
#
# Stress axis : x y z
#
# Youngs Moduli (GPa) = 55.54095 66.22172 53.45980
#
# Poissons Ratio (x) = 0.66442 0.23941
# Poissons Ratio (y) = 0.55726 0.13208
# Poissons Ratio (z) = 0.24873 0.16361
#
# Static dielectric constant tensor:
#      x y z
#    x 4.303550 0.138980 0.184900 
#    y 0.138980 4.267160 -0.050520 
#    z 0.184900 -0.050520 3.998240 
# 
# 
# High freq. dielectric constant tensor:
#      x y z
#    x 1.844000 -0.001180 0.018620 
#    y -0.001180 1.843920 -0.003430 
#    z 0.018620 -0.003430 1.834580 
# 
# From -- ./inp_files/188578.got.cif
#   From: 2010.06.25/outbox.cif.g09.slc.cpg/sg2_95_cif.got.tgz:188578.got - 2010.06.27 13:26:56.
