data_PCOD8012181
_publ_section_title
;
Structure prediction by ZEFSAII (Michael W. Deem and Ramdas Pophale) SiO2 
 PCOD8012181
Probable space group: P -1
;
_chemical_formula_sum "Si O2"
_cell_formula_units_Z 16
_cell_length_a 16.075668
_cell_length_b 7.592418
_cell_length_c 24.102340
_cell_angle_alpha 45.326634
_cell_angle_beta 21.195372
_cell_angle_gamma 43.688019
_cell_volume 729.732316
_symmetry_space_group_name_H-M "P -1"
_symmetry_group_IT_number 2
_symmetry_cell_setting 'triclinic'
loop_
_space_group_symop_operation_xyz
x,y,z
-x,-y,-z
loop_
_atom_site_type_symbol
_atom_site_label
_atom_site_fract_x
_atom_site_fract_y
_atom_site_fract_z
Si Si1 0.824667 0.396086 0.874464
Si Si2 0.677914 0.250027 0.882605
Si Si3 0.969096 0.290631 0.965269
Si Si4 0.197265 0.714938 0.587688
Si Si5 0.580613 0.766024 0.101309
Si Si6 0.959983 0.838278 0.929275
Si Si7 0.082604 0.755051 0.381113
Si Si8 0.699433 0.395944 0.329704
O O1 0.830250 0.311953 0.825342
O O2 0.971526 0.601338 0.748054
O O3 0.933139 0.133975 0.899848
O O4 0.554886 0.519057 0.033551
O O5 0.841593 0.235316 0.731288
O O6 0.605894 0.981922 0.993822
O O7 0.192898 0.360515 0.782267
O O8 0.726270 0.484044 0.050104
O O9 0.970363 0.341054 0.020149
O O10 0.000000 0.000000 0.000000
O O11 0.419648 0.511242 0.465544
O O12 0.258535 0.762306 0.603577
O O13 0.135266 0.987691 0.532878
O O14 0.304677 0.766004 0.280824
O O15 0.701112 0.822610 0.071158
O O16 0.163570 0.771663 0.769554
O O17 0.000000 0.500000 0.500000
#
# Coordination Sequence:
#
# PCOD8012181 Si02
#       8
#     2   2   2   2   2   2   2   2
#     4  10  21  39  67  94 115 166 218 259 305 375
#     4  10  22  41  66  91 125 162 218 257 307 384
#     4  11  23  39  66  95 123 165 214 261 311 375
#     4  11  23  42  64  91 129 167 212 255 320 375
#     4  10  21  41  66  90 123 172 210 258 310 371
#     4  10  22  40  66  96 125 159 215 262 313 372
#     4  12  26  41  62  96 132 166 204 267 324 374
#     4  10  23  41  63  91 128 169 206 260 310 379
#
# _framework density 21.925847000000001
#
# number of rings (size 3 to 8) (size 9 to 14) (size 15 to 20)
#    0.000    1.500    1.250    4.875    7.000    0.500 
#    4.500    1.875    0.000    0.000    0.000    0.000 
#    0.000    0.000    0.000    0.000    0.000    0.000 
#
# Total GULP energy -198356.917265 kJ/mol
# GULP energy per Si atom -12397.307329 kJ/mol
# Density = 2.187594 g / cm^3
# Si number density = 21.925847 Si / 1000 Ang^3
#
#
#
# Elastic Constant Matrix: (Units=GPa)
#
#
# Indices 1 2 3 4 5 6 
#
# 1 61.5993 19.6030 21.6389 5.3259 -3.1461 -17.9211
# 2 19.6030 129.4036 32.8157 -5.1200 -6.0474 -11.0243
# 3 21.6389 32.8157 79.9110 -0.5572 -8.8269 -14.8572
# 4 5.3259 -5.1200 -0.5572 40.4477 0.2136 -2.2191
# 5 -3.1461 -6.0474 -8.8269 0.2136 24.2058 -1.1111
# 6 -17.9211 -11.0243 -14.8572 -2.2191 -1.1111 29.9941
#
#
#
# Elastic Compliance Matrix: (Units=1/GPa)
#
#
# Indices 1 2 3 4 5 6 
#
# 1 0.021117 -0.001574 -0.002947 -0.002456 0.001779 0.010463
# 2 -0.001574 0.008892 -0.002917 0.001343 0.000988 0.001019
# 3 -0.002947 -0.002917 0.016057 0.000507 0.004984 0.005343
# 4 -0.002456 0.001343 0.000507 0.025287 0.000031 0.001149
# 5 0.001779 0.000988 0.004984 0.000031 0.043861 0.005522
# 6 0.010463 0.001019 0.005343 0.001149 0.005522 0.042902
#
#
# Mechanical properties :
#
#
# Convention : Reuss Voigt Hill
#
# Bulk Modulus (GPa) = 32.06230 46.55881 39.31056
# Shear Modulus (GPa) = 27.26411 32.05326 29.65868
#
# Velocity S-wave (km/s) = 3.53011 3.82762 3.68187
# Velocity P-wave (km/s) = 5.59199 6.38866 6.00356
#
# Compressibility (1/GPa) = 0.03118928
#
# Stress axis : x y z
#
# Youngs Moduli (GPa) = 47.35422 112.45839 62.27623
#
# Poissons Ratio (x) = 0.17704 0.18354
# Poissons Ratio (y) = 0.07455 0.18169
# Poissons Ratio (z) = 0.13956 0.32809
#
# Static dielectric constant tensor:
#      x y z
#    x 4.154730 -0.205040 -0.074820 
#    y -0.205040 4.322750 0.010090 
#    z -0.074820 0.010090 3.764920 
# 
# 
# High freq. dielectric constant tensor:
#      x y z
#    x 1.864280 -0.010630 -0.007190 
#    y -0.010630 1.889530 0.002890 
#    z -0.007190 0.002890 1.831550 
# 
# From -- ./inp_files/620239.got.cif
#   From: 2010.06.25/outbox.cif.g09.slc.cpg/sg2_311_cif.got.tgz:620239.got - 2010.06.27 13:26:56.
