data_PCOD8012883
_publ_section_title
;
Structure prediction by ZEFSAII (Michael W. Deem and Ramdas Pophale) SiO2 
 PCOD8012883
Probable space group: P -1
;
_chemical_formula_sum "Si O2"
_cell_formula_units_Z 16
_cell_length_a 9.725541
_cell_length_b 18.232919
_cell_length_c 7.803437
_cell_angle_alpha 66.376311
_cell_angle_beta 75.797523
_cell_angle_gamma 29.594674
_cell_volume 609.638274
_symmetry_space_group_name_H-M "P -1"
_symmetry_group_IT_number 2
_symmetry_cell_setting 'triclinic'
loop_
_space_group_symop_operation_xyz
x,y,z
-x,-y,-z
loop_
_atom_site_type_symbol
_atom_site_label
_atom_site_fract_x
_atom_site_fract_y
_atom_site_fract_z
Si Si1 0.323818 0.365893 0.533906
Si Si2 0.009878 0.352021 0.098022
Si Si3 0.539739 0.113042 0.345731
Si Si4 0.374386 0.177935 0.821826
Si Si5 0.543950 0.293298 0.171067
Si Si6 0.003135 0.826640 0.698186
Si Si7 0.172310 0.118914 0.826776
Si Si8 0.356172 0.655446 0.404090
O O1 0.479444 0.204870 0.662993
O O2 0.403181 0.366982 0.331218
O O3 0.413106 0.385638 0.636627
O O4 0.000000 0.500000 0.500000
O O5 0.190079 0.280094 0.287500
O O6 0.971972 0.276230 0.149915
O O7 0.199515 0.292413 0.937121
O O8 0.699441 0.547491 0.026671
O O9 0.626835 0.161364 0.222746
O O10 0.637538 0.002062 0.277246
O O11 0.675604 0.017843 0.577143
O O12 0.171323 0.216755 0.739392
O O13 0.678317 0.984587 0.946739
O O14 0.838972 0.198946 0.178340
O O15 0.160089 0.761760 0.530278
O O16 0.852822 0.239199 0.796504
O O17 0.500000 0.500000 0.500000
#
# Coordination Sequence:
#
# PCOD8012883 Si02
#       8
#     2   2   2   2   2   2   2   2
#     4  11  22  39  63  88 122 162 207 250 309 364
#     4  11  22  40  65  93 124 160 210 254 309 369
#     4  10  22  41  62  93 125 162 207 255 311 371
#     4  10  21  40  64  89 124 164 204 250 308 371
#     4  11  23  40  65  91 126 160 209 258 311 367
#     4  10  23  42  63  91 123 167 205 251 316 370
#     4   9  21  41  61  90 126 160 206 254 305 368
#     4  10  22  40  64  91 122 160 207 256 305 366
#
# _framework density 26.245069000000001
#
# number of rings (size 3 to 8) (size 9 to 14) (size 15 to 20)
#    0.000    1.750    1.250    2.250    1.750    6.500 
#    4.500    0.000    0.000    0.000    0.000    0.000 
#    0.000    0.000    0.000    0.000    0.000    0.000 
#
# Total GULP energy -198318.027819 kJ/mol
# GULP energy per Si atom -12394.876739 kJ/mol
# Density = 2.618533 g / cm^3
# Si number density = 26.245069 Si / 1000 Ang^3
#
#
#
# Elastic Constant Matrix: (Units=GPa)
#
#
# Indices 1 2 3 4 5 6 
#
# 1 213.6189 25.5475 51.1605 -33.5828 15.4062 0.4093
# 2 25.5475 48.2021 17.0582 -27.4350 15.1961 0.7938
# 3 51.1605 17.0582 112.2099 -46.4031 12.9913 -4.1730
# 4 -33.5828 -27.4350 -46.4031 34.8263 -1.2640 2.0730
# 5 15.4062 15.1961 12.9913 -1.2640 48.1185 -15.7416
# 6 0.4093 0.7938 -4.1730 2.0730 -15.7416 43.6163
#
#
#
# Elastic Compliance Matrix: (Units=1/GPa)
#
#
# Indices 1 2 3 4 5 6 
#
# 1 0.005782 0.003024 0.001154 0.009472 -0.003420 -0.001683
# 2 0.003024 0.104306 0.050802 0.152275 -0.051061 -0.022732
# 3 0.001154 0.050802 0.045775 0.101762 -0.030109 -0.012259
# 4 0.009472 0.152275 0.101762 0.292583 -0.083011 -0.036989
# 5 -0.003420 -0.051061 -0.030109 -0.083011 0.050586 0.020283
# 6 -0.001683 -0.022732 -0.012259 -0.036989 0.020283 0.031262
#
#
# Mechanical properties :
#
#
# Convention : Reuss Voigt Hill
#
# Bulk Modulus (GPa) = 3.76188 62.39591 33.07890
# Shear Modulus (GPa) = 9.82430 43.99654 26.91042
#
# Velocity S-wave (km/s) = 1.93686 4.09880 3.20558
# Velocity P-wave (km/s) = 2.53739 6.79898 5.13150
#
# Compressibility (1/GPa) = 0.26582457
#
# Stress axis : x y z
#
# Youngs Moduli (GPa) = 172.94909 9.58715 21.84593
#
# Poissons Ratio (x) = -0.02899 -0.02522
# Poissons Ratio (y) = -0.52296 -1.10983
# Poissons Ratio (z) = -0.19964 -0.48705
#
# Static dielectric constant tensor:
#      x y z
#    x 11.086970 1.709040 -3.877670 
#    y 1.709040 5.114730 -1.916630 
#    z -3.877670 -1.916630 8.213970 
# 
# 
# High freq. dielectric constant tensor:
#      x y z
#    x 2.066320 0.002700 0.014110 
#    y 0.002700 2.042280 -0.015110 
#    z 0.014110 -0.015110 2.050720 
# 
# From -- ./inp_files/217011.got.cif
#   From: 2010.06.25/outbox.cif.g09.slc.cpg/sg2_109_cif.got.tgz:217011.got - 2010.06.27 13:26:56.
