data_PCOD8012813
_publ_section_title
;
Structure prediction by ZEFSAII (Michael W. Deem and Ramdas Pophale) SiO2 
 PCOD8012813
Probable space group: P -1
;
_chemical_formula_sum "Si O2"
_cell_formula_units_Z 16
_cell_length_a 9.455943
_cell_length_b 9.040995
_cell_length_c 23.668959
_cell_angle_alpha 115.905013
_cell_angle_beta 45.146614
_cell_angle_gamma 79.822862
_cell_volume 838.187836
_symmetry_space_group_name_H-M "P -1"
_symmetry_group_IT_number 2
_symmetry_cell_setting 'triclinic'
loop_
_space_group_symop_operation_xyz
x,y,z
-x,-y,-z
loop_
_atom_site_type_symbol
_atom_site_label
_atom_site_fract_x
_atom_site_fract_y
_atom_site_fract_z
Si Si1 0.854498 0.271659 0.582952
Si Si2 0.379345 0.197079 0.452620
Si Si3 0.253978 0.416768 0.640869
Si Si4 0.366994 0.261861 0.088257
Si Si5 0.157333 0.353930 0.775073
Si Si6 0.952397 0.050647 0.931139
Si Si7 0.503890 0.393253 0.367494
Si Si8 0.788842 0.366219 0.127577
O O1 0.748338 0.378735 0.566857
O O2 0.564469 0.468606 0.739572
O O3 0.095654 0.254629 0.532716
O O4 0.000000 0.000000 0.500000
O O5 0.425556 0.214577 0.508467
O O6 0.327502 0.393815 0.463413
O O7 0.697027 0.912862 0.295160
O O8 0.358844 0.296722 0.654851
O O9 0.320840 0.569247 0.643398
O O10 0.891323 0.598945 0.766666
O O11 0.199912 0.432403 0.106506
O O12 0.627767 0.231228 0.021843
O O13 0.500000 0.000000 0.000000
O O14 0.188785 0.453564 0.836891
O O15 0.921181 0.238221 0.007285
O O16 0.240628 0.883318 0.780271
O O17 0.998819 0.860180 0.924699
#
# Coordination Sequence:
#
# PCOD8012813 Si02
#       8
#     2   2   2   2   2   2   2   2
#     4  11  20  38  61  81 111 143 188 234 269 323
#     4  12  23  36  56  83 117 149 180 223 289 333
#     4  10  20  37  59  80 110 148 188 227 268 325
#     4  10  16  33  59  79 107 135 192 235 261 307
#     4  10  20  36  56  85 108 142 190 235 266 317
#     4  10  18  34  57  82 107 140 186 235 269 325
#     4  11  22  39  55  83 118 147 175 230 284 335
#     4  10  18  33  59  82 102 142 188 232 274 306
#
# _framework density 19.088799999999999
#
# number of rings (size 3 to 8) (size 9 to 14) (size 15 to 20)
#    0.750    0.750    6.250    1.875    0.000    0.000 
#    0.000    1.250    0.000    0.000    0.000    0.000 
#    0.000    0.000    0.000    0.000    0.000    0.000 
#
# Total GULP energy -198293.522217 kJ/mol
# GULP energy per Si atom -12393.345139 kJ/mol
# Density = 1.904535 g / cm^3
# Si number density = 19.088800 Si / 1000 Ang^3
#
#
#
# Elastic Constant Matrix: (Units=GPa)
#
#
# Indices 1 2 3 4 5 6 
#
# 1 106.5851 25.1929 41.1406 4.2586 5.5671 4.3238
# 2 25.1929 64.7810 17.0848 8.5708 0.3290 5.3601
# 3 41.1406 17.0848 73.3745 19.8511 3.5793 1.5801
# 4 4.2586 8.5708 19.8511 23.5775 -0.0330 -3.7711
# 5 5.5671 0.3290 3.5793 -0.0330 40.3054 6.5335
# 6 4.3238 5.3601 1.5801 -3.7711 6.5335 15.7714
#
#
#
# Elastic Compliance Matrix: (Units=1/GPa)
#
#
# Indices 1 2 3 4 5 6 
#
# 1 0.013198 -0.003804 -0.008042 0.005823 -0.001128 0.000340
# 2 -0.003804 0.018524 -0.000169 -0.007119 0.001617 -0.007608
# 3 -0.008042 -0.000169 0.023402 -0.018909 -0.000252 -0.004499
# 4 0.005823 -0.007119 -0.018909 0.062840 -0.002028 0.018583
# 5 -0.001128 0.001617 -0.000252 -0.002028 0.026893 -0.011841
# 6 0.000340 -0.007608 -0.004499 0.018583 -0.011841 0.075698
#
#
# Mechanical properties :
#
#
# Convention : Reuss Voigt Hill
#
# Bulk Modulus (GPa) = 32.16140 45.73077 38.94608
# Shear Modulus (GPa) = 19.61173 26.68568 23.14870
#
# Velocity S-wave (km/s) = 3.20878 3.74301 3.48614
# Velocity P-wave (km/s) = 5.53292 6.53368 6.05402
#
# Compressibility (1/GPa) = 0.03109318
#
# Stress axis : x y z
#
# Youngs Moduli (GPa) = 75.76964 53.98440 42.73132
#
# Poissons Ratio (x) = 0.20538 0.34363
# Poissons Ratio (y) = 0.28827 0.00723
# Poissons Ratio (z) = 0.60932 0.00913
#
# Static dielectric constant tensor:
#      x y z
#    x 3.591030 -0.014750 -0.061610 
#    y -0.014750 3.131290 0.162410 
#    z -0.061610 0.162410 3.583910 
# 
# 
# High freq. dielectric constant tensor:
#      x y z
#    x 1.747150 0.005170 0.001320 
#    y 0.005170 1.705110 0.019250 
#    z 0.001320 0.019250 1.740120 
# 
# From -- ./inp_files/606749.got.cif
#   From: 2010.06.25/outbox.cif.g09.slc.cpg/sg2_304_cif.got.tgz:606749.got - 2010.06.27 13:26:56.
