data_PCOD8012038
_publ_section_title
;
Structure prediction by ZEFSAII (Michael W. Deem and Ramdas Pophale) SiO2 
 PCOD8012038
Probable space group: P -1
;
_chemical_formula_sum "Si O2"
_cell_formula_units_Z 12
_cell_length_a 8.880352
_cell_length_b 12.577577
_cell_length_c 5.319478
_cell_angle_alpha 73.594311
_cell_angle_beta 93.533317
_cell_angle_gamma 128.118676
_cell_volume 443.377351
_symmetry_space_group_name_H-M "P -1"
_symmetry_group_IT_number 2
_symmetry_cell_setting 'triclinic'
loop_
_space_group_symop_operation_xyz
x,y,z
-x,-y,-z
loop_
_atom_site_type_symbol
_atom_site_label
_atom_site_fract_x
_atom_site_fract_y
_atom_site_fract_z
Si Si1 0.740688 0.337619 0.711278
Si Si2 0.081950 0.793300 0.061935
Si Si3 0.809239 0.471810 0.132317
Si Si4 0.384279 0.334373 0.640528
Si Si5 0.355828 0.243919 0.197801
Si Si6 0.886082 0.056253 0.538539
O O1 0.736489 0.203184 0.844856
O O2 0.850760 0.411073 0.413787
O O3 0.528950 0.294943 0.718511
O O4 0.873260 0.446612 0.887156
O O5 0.032095 0.844084 0.270769
O O6 0.893783 0.631229 0.094654
O O7 0.142688 0.883456 0.753160
O O8 0.578159 0.380836 0.148505
O O9 0.500000 0.500000 0.500000
O O10 0.254153 0.252309 0.433089
O O11 0.261106 0.266166 0.933071
O O12 0.319696 0.094716 0.291845
O O13 0.000000 0.000000 0.500000
#
# Coordination Sequence:
#
# PCOD8012038 Si02
#       6
#     2   2   2   2   2   2
#     4  10  21  39  66 101 132 165 215 271 324 384
#     4  12  24  44  68  95 130 176 218 269 327 388
#     4  10  21  41  68  99 129 165 218 273 321 386
#     4  10  21  39  66 100 130 165 211 269 324 382
#     4  10  23  43  63  94 130 168 218 270 322 386
#     4  12  28  46  64  93 134 177 220 270 330 390
#
# _framework density 27.064982000000001
#
# number of rings (size 3 to 8) (size 9 to 14) (size 15 to 20)
#    0.000    1.333    0.000    5.000    0.000    8.000 
#    0.000   20.000    0.000    0.000    0.000    0.000 
#    0.000    0.000    0.000    0.000    0.000    0.000 
#
# Total GULP energy -148687.988678 kJ/mol
# GULP energy per Si atom -12390.665723 kJ/mol
# Density = 2.700338 g / cm^3
# Si number density = 27.064982 Si / 1000 Ang^3
#
#
#
# Elastic Constant Matrix: (Units=GPa)
#
#
# Indices 1 2 3 4 5 6 
#
# 1 67.2180 24.9884 32.3952 2.0553 11.9437 -22.1545
# 2 24.9884 179.7162 94.3498 2.5195 -16.5925 -30.4067
# 3 32.3952 94.3498 304.4313 10.0833 -11.9705 -26.5027
# 4 2.0553 2.5195 10.0833 71.1106 -12.4005 -7.3144
# 5 11.9437 -16.5925 -11.9705 -12.4005 40.9392 -6.3159
# 6 -22.1545 -30.4067 -26.5027 -7.3144 -6.3159 33.3320
#
#
#
# Elastic Compliance Matrix: (Units=1/GPa)
#
#
# Indices 1 2 3 4 5 6 
#
# 1 0.020168 -0.000839 -0.001138 -0.000146 -0.004940 0.010766
# 2 -0.000839 0.008097 -0.001714 0.001445 0.004486 0.006633
# 3 -0.001138 -0.001714 0.004072 -0.000215 0.000924 0.001045
# 4 -0.000146 0.001445 -0.000215 0.015711 0.006199 0.005672
# 5 -0.004940 0.004486 0.000924 0.006199 0.031194 0.008815
# 6 0.010766 0.006633 0.001045 0.005672 0.008815 0.046954
#
#
# Mechanical properties :
#
#
# Convention : Reuss Voigt Hill
#
# Bulk Modulus (GPa) = 40.07386 94.98137 67.52761
# Shear Modulus (GPa) = 35.23697 55.71850 45.47774
#
# Velocity S-wave (km/s) = 3.61215 4.54221 4.10361
# Velocity P-wave (km/s) = 5.67764 7.91700 6.88892
#
# Compressibility (1/GPa) = 0.02495392
#
# Stress axis : x y z
#
# Youngs Moduli (GPa) = 49.58287 123.50025 245.60225
#
# Poissons Ratio (x) = 0.10364 0.27954
# Poissons Ratio (y) = 0.04161 0.42101
# Poissons Ratio (z) = 0.05643 0.21170
#
# Static dielectric constant tensor:
#      x y z
#    x 5.693540 0.330160 -1.390070 
#    y 0.330160 6.048290 0.110760 
#    z -1.390070 0.110760 8.101330 
# 
# 
# High freq. dielectric constant tensor:
#      x y z
#    x 2.101030 0.003320 -0.010260 
#    y 0.003320 2.092920 0.019980 
#    z -0.010260 0.019980 2.129140 
# 
# From -- ./inp_files/65711.got.cif
#   From: 2010.06.25/outbox.cif.g09.slc.cpg/sg2_33_cif.got.tgz:65711.got - 2010.06.27 13:26:56.
