data_PCOD8012072
_publ_section_title
;
Structure prediction by ZEFSAII (Michael W. Deem and Ramdas Pophale) SiO2 
 PCOD8012072
Probable space group: P -1
;
_chemical_formula_sum "Si O2"
_cell_formula_units_Z 16
_cell_length_a 17.407062
_cell_length_b 8.679816
_cell_length_c 8.774433
_cell_angle_alpha 112.965609
_cell_angle_beta 100.805230
_cell_angle_gamma 129.720078
_cell_volume 739.038265
_symmetry_space_group_name_H-M "P -1"
_symmetry_group_IT_number 2
_symmetry_cell_setting 'triclinic'
loop_
_space_group_symop_operation_xyz
x,y,z
-x,-y,-z
loop_
_atom_site_type_symbol
_atom_site_label
_atom_site_fract_x
_atom_site_fract_y
_atom_site_fract_z
Si Si1 0.271938 0.009485 0.770356
Si Si2 0.972907 0.971242 0.732615
Si Si3 0.534293 0.295033 0.488380
Si Si4 0.375453 0.913064 0.554557
Si Si5 0.109978 0.987589 0.556783
Si Si6 0.928527 0.390529 0.225622
Si Si7 0.894944 0.597834 0.814628
Si Si8 0.332187 0.154124 0.174453
O O1 0.344161 0.975627 0.711382
O O2 0.241544 0.106262 0.674703
O O3 0.128978 0.723297 0.667846
O O4 0.358049 0.211966 0.023642
O O5 0.872780 0.859211 0.521500
O O6 0.081697 0.038949 0.722811
O O7 0.040779 0.244297 0.941740
O O8 0.896192 0.748463 0.749540
O O9 0.584447 0.201516 0.410080
O O10 0.424627 0.173120 0.288408
O O11 0.645193 0.622971 0.660400
O O12 0.484044 0.182536 0.598335
O O13 0.251435 0.688285 0.315235
O O14 0.985411 0.670972 0.339914
O O15 0.041786 0.455385 0.258909
O O16 0.812905 0.154443 0.972329
#
# Coordination Sequence:
#
# PCOD8012072 Si02
#       8
#     2   2   2   2   2   2   2   2
#     4  10  21  39  66  91 124 167 196 256 318 364
#     4  10  24  34  59  92 135 160 197 247 308 378
#     4  10  24  47  60  92 123 162 224 253 297 360
#     4  11  24  40  68  88 125 166 209 260 301 367
#     4  11  20  40  57  97 132 159 197 250 311 386
#     4  10  21  39  66  91 129 158 201 247 321 374
#     4  11  22  40  62  97 127 165 199 249 326 368
#     4   9  23  43  69  86 125 166 201 267 307 356
#
# _framework density 21.649760000000001
#
# number of rings (size 3 to 8) (size 9 to 14) (size 15 to 20)
#    0.750    1.000    2.500    1.125    7.000    2.500 
#    2.250    0.000    0.000    0.000    0.000    0.000 
#    0.000    0.000    0.000    0.000    0.000    0.000 
#
# Total GULP energy -198331.362739 kJ/mol
# GULP energy per Si atom -12395.710171 kJ/mol
# Density = 2.160048 g / cm^3
# Si number density = 21.649760 Si / 1000 Ang^3
#
#
#
# Elastic Constant Matrix: (Units=GPa)
#
#
# Indices 1 2 3 4 5 6 
#
# 1 146.2868 23.4881 30.3001 -10.1437 -3.3697 -17.0421
# 2 23.4881 27.0660 17.4058 -10.2565 -1.8128 -1.0672
# 3 30.3001 17.4058 68.5425 -10.3691 -1.0067 -15.7304
# 4 -10.1437 -10.2565 -10.3691 24.1714 -3.6839 8.3135
# 5 -3.3697 -1.8128 -1.0067 -3.6839 34.1196 -3.7717
# 6 -17.0421 -1.0672 -15.7304 8.3135 -3.7717 23.3687
#
#
#
# Elastic Compliance Matrix: (Units=1/GPa)
#
#
# Indices 1 2 3 4 5 6 
#
# 1 0.008853 -0.007575 -0.000793 -0.001897 0.000952 0.006405
# 2 -0.007575 0.060206 -0.012746 0.023983 0.002510 -0.019482
# 3 -0.000793 -0.012746 0.021162 -0.001187 0.001256 0.013710
# 4 -0.001897 0.023983 -0.001187 0.058227 0.005018 -0.020992
# 5 0.000952 0.002510 0.001256 0.005018 0.030647 0.004816
# 6 0.006405 -0.019482 0.013710 -0.020992 0.004816 0.064047
#
#
# Mechanical properties :
#
#
# Convention : Reuss Voigt Hill
#
# Bulk Modulus (GPa) = 20.83685 42.69814 31.76750
# Shear Modulus (GPa) = 16.59101 27.71205 22.15153
#
# Velocity S-wave (km/s) = 2.77128 3.58161 3.20218
# Velocity P-wave (km/s) = 4.45931 6.07198 5.32703
#
# Compressibility (1/GPa) = 0.04799191
#
# Stress axis : x y z
#
# Youngs Moduli (GPa) = 112.95607 16.60976 47.25453
#
# Poissons Ratio (x) = 0.12583 0.03747
# Poissons Ratio (y) = 0.85569 0.60230
# Poissons Ratio (z) = 0.08957 0.21171
#
# Static dielectric constant tensor:
#      x y z
#    x 3.818340 -0.142730 -0.058840 
#    y -0.142730 3.654030 0.040500 
#    z -0.058840 0.040500 3.842970 
# 
# 
# High freq. dielectric constant tensor:
#      x y z
#    x 1.852410 -0.015060 -0.005750 
#    y -0.015060 1.827670 -0.004660 
#    z -0.005750 -0.004660 1.849650 
# 
# From -- ./inp_files/329319.got.cif
#   From: 2010.06.25/outbox.cif.g09.slc.cpg/sg2_165_cif.got.tgz:329319.got - 2010.06.27 13:26:56.
