data_PCOD8012591
_publ_section_title
;
Structure prediction by ZEFSAII (Michael W. Deem and Ramdas Pophale) SiO2 
 PCOD8012591
Probable space group: P -1
;
_chemical_formula_sum "Si O2"
_cell_formula_units_Z 16
_cell_length_a 15.064578
_cell_length_b 8.377302
_cell_length_c 11.920863
_cell_angle_alpha 66.744334
_cell_angle_beta 135.721956
_cell_angle_gamma 80.118764
_cell_volume 681.214691
_symmetry_space_group_name_H-M "P -1"
_symmetry_group_IT_number 2
_symmetry_cell_setting 'triclinic'
loop_
_space_group_symop_operation_xyz
x,y,z
-x,-y,-z
loop_
_atom_site_type_symbol
_atom_site_label
_atom_site_fract_x
_atom_site_fract_y
_atom_site_fract_z
Si Si1 0.955484 0.841517 0.988930
Si Si2 0.023056 0.473201 0.749281
Si Si3 0.514088 0.304086 0.712792
Si Si4 0.440671 0.771001 0.471794
Si Si5 0.667091 0.723850 0.264766
Si Si6 0.159927 0.567695 0.034904
Si Si7 0.821744 0.131028 0.179350
Si Si8 0.817803 0.402853 0.282805
O O1 0.103799 0.619427 0.100062
O O2 0.961673 0.746406 0.145487
O O3 0.000000 0.000000 0.000000
O O4 0.753268 0.993711 0.714118
O O5 0.176012 0.415845 0.826345
O O6 0.838455 0.681872 0.454863
O O7 0.036776 0.549945 0.862656
O O8 0.449152 0.557337 0.552813
O O9 0.573168 0.157531 0.690880
O O10 0.356611 0.348718 0.617134
O O11 0.671662 0.148217 0.990919
O O12 0.622913 0.681622 0.712591
O O13 0.702371 0.543478 0.251023
O O14 0.500000 0.000000 0.000000
O O15 0.113012 0.803014 0.878340
O O16 0.737052 0.330599 0.149015
O O17 0.980479 0.853264 0.438296
#
# Coordination Sequence:
#
# PCOD8012591 Si02
#       8
#     2   2   2   2   2   2   2   2
#     4  12  24  39  72 101 127 178 223 271 342 404
#     4  11  25  45  64  91 135 175 218 278 336 399
#     4  10  21  40  61  95 131 163 212 278 325 394
#     4  10  22  40  65  99 132 168 219 274 331 393
#     4  12  26  40  64  95 134 173 225 273 333 403
#     4  10  23  45  65  98 136 169 221 278 334 403
#     4   9  20  42  70  91 133 168 220 277 332 395
#     4  10  23  42  65  95 124 180 221 271 336 394
#
# _framework density 23.487455000000001
#
# number of rings (size 3 to 8) (size 9 to 14) (size 15 to 20)
#    0.000    1.500    0.000    5.250    7.000    1.000 
#    6.750    0.000    0.000    0.000    0.000    0.000 
#    0.000    0.000    0.000    0.000    0.000    0.000 
#
# Total GULP energy -198270.207559 kJ/mol
# GULP energy per Si atom -12391.887972 kJ/mol
# Density = 2.343400 g / cm^3
# Si number density = 23.487455 Si / 1000 Ang^3
#
#
#
# Elastic Constant Matrix: (Units=GPa)
#
#
# Indices 1 2 3 4 5 6 
#
# 1 95.8188 20.6531 6.5403 -4.6489 -9.9539 -5.9624
# 2 20.6531 76.1379 31.7618 10.4604 5.0056 -9.2412
# 3 6.5403 31.7618 93.9972 10.5586 5.0695 -3.5241
# 4 -4.6489 10.4604 10.5586 33.7664 -3.5815 0.8292
# 5 -9.9539 5.0056 5.0695 -3.5815 33.9831 -2.0190
# 6 -5.9624 -9.2412 -3.5241 0.8292 -2.0190 30.9229
#
#
#
# Elastic Compliance Matrix: (Units=1/GPa)
#
#
# Indices 1 2 3 4 5 6 
#
# 1 0.011974 -0.003783 -0.000118 0.003302 0.004511 0.001371
# 2 -0.003783 0.017513 -0.004784 -0.004891 -0.003259 0.003877
# 3 -0.000118 -0.004784 0.012640 -0.002644 -0.001496 -0.000039
# 4 0.003302 -0.004891 -0.002644 0.033032 0.005465 -0.001655
# 5 0.004511 -0.003259 -0.001496 0.005465 0.032127 0.001676
# 6 0.001371 0.003877 -0.000039 -0.001655 0.001676 0.033911
#
#
# Mechanical properties :
#
#
# Convention : Reuss Voigt Hill
#
# Bulk Modulus (GPa) = 40.39197 42.65159 41.52178
# Shear Modulus (GPa) = 29.97292 33.53438 31.75365
#
# Velocity S-wave (km/s) = 3.57616 3.78267 3.68086
# Velocity P-wave (km/s) = 5.85547 6.10547 5.98178
#
# Compressibility (1/GPa) = 0.02475740
#
# Stress axis : x y z
#
# Youngs Moduli (GPa) = 83.51470 57.10166 79.11667
#
# Poissons Ratio (x) = 0.21600 0.00932
# Poissons Ratio (y) = 0.31592 0.37848
# Poissons Ratio (z) = 0.00984 0.27316
#
# Static dielectric constant tensor:
#      x y z
#    x 4.490420 0.004130 -0.046530 
#    y 0.004130 4.069400 0.219200 
#    z -0.046530 0.219200 4.273650 
# 
# 
# High freq. dielectric constant tensor:
#      x y z
#    x 1.939170 0.006330 -0.012080 
#    y 0.006330 1.904540 0.014910 
#    z -0.012080 0.014910 1.934160 
# 
# From -- ./inp_files/447213.got.cif
#   From: 2010.06.25/outbox.cif.g09.slc.cpg/sg2_224_cif.got.tgz:447213.got - 2010.06.27 13:26:56.
