data_PCOD8012969
_publ_section_title
;
Structure prediction by ZEFSAII (Michael W. Deem and Ramdas Pophale) SiO2 
 PCOD8012969
Probable space group: P -1
;
_chemical_formula_sum "Si O2"
_cell_formula_units_Z 16
_cell_length_a 12.696355
_cell_length_b 15.293133
_cell_length_c 9.826203
_cell_angle_alpha 113.927430
_cell_angle_beta 47.127878
_cell_angle_gamma 142.928818
_cell_volume 801.161333
_symmetry_space_group_name_H-M "P -1"
_symmetry_group_IT_number 2
_symmetry_cell_setting 'triclinic'
loop_
_space_group_symop_operation_xyz
x,y,z
-x,-y,-z
loop_
_atom_site_type_symbol
_atom_site_label
_atom_site_fract_x
_atom_site_fract_y
_atom_site_fract_z
Si Si1 0.164751 0.072610 0.277770
Si Si2 0.539866 0.936555 0.317614
Si Si3 0.505289 0.610113 0.386621
Si Si4 0.991545 0.914649 0.060964
Si Si5 0.115522 0.541009 0.065002
Si Si6 0.505331 0.614433 0.700930
Si Si7 0.466061 0.889375 0.049054
Si Si8 0.803683 0.398064 0.490898
O O1 0.332137 0.249136 0.247682
O O2 0.299688 0.043380 0.145163
O O3 0.000000 0.000000 0.500000
O O4 0.021615 0.994998 0.218275
O O5 0.433496 0.906095 0.244685
O O6 0.414221 0.776734 0.382347
O O7 0.500000 0.000000 0.500000
O O8 0.810412 0.059039 0.132975
O O9 0.745629 0.735566 0.173626
O O10 0.533807 0.666372 0.551494
O O11 0.433288 0.463782 0.382611
O O12 0.307250 0.558315 0.436118
O O13 0.000000 0.000000 0.000000
O O14 0.255310 0.709997 0.085760
O O15 0.926278 0.416448 0.264474
O O16 0.255295 0.515170 0.909569
O O17 0.000000 0.500000 0.000000
O O18 0.500000 0.000000 0.000000
O O19 0.000000 0.500000 0.500000
#
# Coordination Sequence:
#
# PCOD8012969 Si02
#       8
#     2   2   2   2   2   2   2   2
#     4  10  21  40  64  95 128 167 211 270 323 388
#     4  11  26  44  66  97 131 176 222 274 333 397
#     4  11  23  42  68  97 134 172 219 277 328 395
#     4  11  23  43  66  93 133 171 215 268 332 393
#     4  11  23  40  68  96 131 179 218 271 331 397
#     4  10  23  41  65 103 128 167 228 270 330 388
#     4  10  24  41  63  95 131 166 221 272 321 392
#     4  12  25  47  65  93 140 178 220 273 337 398
#
# _framework density 19.971008000000001
#
# number of rings (size 3 to 8) (size 9 to 14) (size 15 to 20)
#    0.000    1.250    5.000    0.000    3.500    3.000 
#    2.250    1.250    0.000    0.000    0.000    0.000 
#    0.000    0.000    0.000    0.000    0.000    0.000 
#
# Total GULP energy -198245.258383 kJ/mol
# GULP energy per Si atom -12390.328649 kJ/mol
# Density = 1.992555 g / cm^3
# Si number density = 19.971008 Si / 1000 Ang^3
#
#
#
# Elastic Constant Matrix: (Units=GPa)
#
#
# Indices 1 2 3 4 5 6 
#
# 1 129.2451 45.9899 48.8629 5.6110 11.7428 2.0067
# 2 45.9899 55.2183 30.0906 11.5115 -0.7472 -0.4191
# 3 48.8629 30.0906 151.7489 1.2365 5.7050 5.8883
# 4 5.6110 11.5115 1.2365 41.2373 3.3989 3.5881
# 5 11.7428 -0.7472 5.7050 3.3989 33.6713 -3.1524
# 6 2.0067 -0.4191 5.8883 3.5881 -3.1524 34.1730
#
#
#
# Elastic Compliance Matrix: (Units=1/GPa)
#
#
# Indices 1 2 3 4 5 6 
#
# 1 0.012169 -0.009517 -0.001836 0.001513 -0.004398 -0.001079
# 2 -0.009517 0.029330 -0.003003 -0.007493 0.005491 0.002729
# 3 -0.001836 -0.003003 0.007863 0.001065 -0.001005 -0.001488
# 4 0.001513 -0.007493 0.001065 0.026733 -0.003903 -0.003531
# 5 -0.004398 0.005491 -0.001005 -0.003903 0.032283 0.003887
# 6 -0.001079 0.002729 -0.001488 -0.003531 0.003887 0.030345
#
#
# Mechanical properties :
#
#
# Convention : Reuss Voigt Hill
#
# Bulk Modulus (GPa) = 48.42694 65.12215 56.77454
# Shear Modulus (GPa) = 28.68315 35.90091 32.29203
#
# Velocity S-wave (km/s) = 3.79389 4.24447 4.02549
# Velocity P-wave (km/s) = 6.59490 7.52993 7.07787
#
# Compressibility (1/GPa) = 0.02064966
#
# Stress axis : x y z
#
# Youngs Moduli (GPa) = 82.17796 34.09484 127.17231
#
# Poissons Ratio (x) = 0.32449 0.23351
# Poissons Ratio (y) = 0.78212 0.38184
# Poissons Ratio (z) = 0.15089 0.10237
#
# Static dielectric constant tensor:
#      x y z
#    x 3.550780 0.467170 0.311540 
#    y 0.467170 -2.856700 -4.021870 
#    z 0.311540 -4.021870 1.303120 
# 
# 
# High freq. dielectric constant tensor:
#      x y z
#    x 1.782030 0.008850 0.003640 
#    y 0.008850 1.771730 -0.005510 
#    z 0.003640 -0.005510 1.800710 
# 
# From -- ./inp_files/186706.got.cif
#   From: 2010.06.25/outbox.cif.g09.slc.cpg/sg2_94_cif.got.tgz:186706.got - 2010.06.27 13:26:56.
