data_PCOD8012122
_publ_section_title
;
Structure prediction by ZEFSAII (Michael W. Deem and Ramdas Pophale) SiO2 
 PCOD8012122
Probable space group: P -1
;
_chemical_formula_sum "Si O2"
_cell_formula_units_Z 16
_cell_length_a 8.774116
_cell_length_b 13.254869
_cell_length_c 15.999932
_cell_angle_alpha 42.773169
_cell_angle_beta 103.309521
_cell_angle_gamma 69.679205
_cell_volume 767.687118
_symmetry_space_group_name_H-M "P -1"
_symmetry_group_IT_number 2
_symmetry_cell_setting 'triclinic'
loop_
_space_group_symop_operation_xyz
x,y,z
-x,-y,-z
loop_
_atom_site_type_symbol
_atom_site_label
_atom_site_fract_x
_atom_site_fract_y
_atom_site_fract_z
Si Si1 0.054879 0.386149 0.284386
Si Si2 0.637757 0.557686 0.736888
Si Si3 0.682200 0.762612 0.876951
Si Si4 0.158367 0.279266 0.544110
Si Si5 0.248758 0.513884 0.506956
Si Si6 0.755817 0.266695 0.776172
Si Si7 0.103062 0.037809 0.424049
Si Si8 0.894842 0.343209 0.060946
O O1 0.268012 0.343616 0.311204
O O2 0.999365 0.434463 0.346749
O O3 0.156658 0.152541 0.407757
O O4 0.795720 0.622824 0.063913
O O5 0.698887 0.436354 0.731627
O O6 0.342865 0.779338 0.574302
O O7 0.768906 0.370684 0.944206
O O8 0.825790 0.801941 0.836050
O O9 0.392496 0.008856 0.706972
O O10 0.710793 0.612503 0.903063
O O11 0.259780 0.351356 0.557633
O O12 0.978008 0.318641 0.557364
O O13 0.517453 0.333258 0.696719
O O14 0.191896 0.694678 0.329591
O O15 0.000000 0.000000 0.000000
O O16 0.915628 0.203355 0.220836
O O17 0.000000 0.000000 0.500000
#
# Coordination Sequence:
#
# PCOD8012122 Si02
#       8
#     2   2   2   2   2   2   2   2
#     4  10  21  39  66  97 127 169 217 248 320 396
#     4  11  22  41  68  89 122 179 215 259 318 381
#     4   9  19  36  66  97 128 164 213 264 308 380
#     4  11  21  41  69  95 130 166 212 280 319 375
#     4  10  26  43  65  97 126 168 226 269 327 377
#     4  11  26  47  65  93 130 173 222 271 321 381
#     4  11  24  39  62  98 139 163 201 267 324 389
#     4   9  20  38  62  98 127 167 216 248 313 398
#
# _framework density 20.841823999999999
#
# number of rings (size 3 to 8) (size 9 to 14) (size 15 to 20)
#    0.000    1.750    1.250    2.625    5.250    2.500 
#    2.250    2.500    0.000    0.000    0.000    0.000 
#    0.000    0.000    0.000    0.000    0.000    0.000 
#
# Total GULP energy -198422.745270 kJ/mol
# GULP energy per Si atom -12401.421579 kJ/mol
# Density = 2.079439 g / cm^3
# Si number density = 20.841824 Si / 1000 Ang^3
#
#
#
# Elastic Constant Matrix: (Units=GPa)
#
#
# Indices 1 2 3 4 5 6 
#
# 1 91.8429 39.3569 50.2237 -6.2671 -6.3285 -11.5162
# 2 39.3569 95.5087 38.3611 9.8449 1.0725 -16.1248
# 3 50.2237 38.3611 104.2617 6.9105 -5.9597 -13.3828
# 4 -6.2671 9.8449 6.9105 39.2524 -8.1004 4.1285
# 5 -6.3285 1.0725 -5.9597 -8.1004 27.9061 4.9103
# 6 -11.5162 -16.1248 -13.3828 4.1285 4.9103 31.5276
#
#
#
# Elastic Compliance Matrix: (Units=1/GPa)
#
#
# Indices 1 2 3 4 5 6 
#
# 1 0.017528 -0.005364 -0.006721 0.006385 0.004734 -0.000767
# 2 -0.005364 0.015323 -0.002100 -0.006093 -0.005182 0.006591
# 3 -0.006721 -0.002100 0.014203 -0.003331 0.000109 0.002919
# 4 0.006385 -0.006093 -0.003331 0.031879 0.011665 -0.008189
# 5 0.004734 -0.005182 0.000109 0.011665 0.042093 -0.008958
# 6 -0.000767 0.006591 0.002919 -0.008189 -0.008958 0.038516
#
#
# Mechanical properties :
#
#
# Convention : Reuss Voigt Hill
#
# Bulk Modulus (GPa) = 53.52237 60.83295 57.17766
# Shear Modulus (GPa) = 25.75466 30.64865 28.20166
#
# Velocity S-wave (km/s) = 3.51909 3.83892 3.68248
# Velocity P-wave (km/s) = 6.49985 6.99292 6.75089
#
# Compressibility (1/GPa) = 0.01868377
#
# Stress axis : x y z
#
# Youngs Moduli (GPa) = 57.05259 65.26007 70.40709
#
# Poissons Ratio (x) = 0.35007 0.47318
# Poissons Ratio (y) = 0.30604 0.14788
# Poissons Ratio (z) = 0.38343 0.13707
#
# Static dielectric constant tensor:
#      x y z
#    x 3.667910 -0.089400 -0.126820 
#    y -0.089400 3.872680 0.288180 
#    z -0.126820 0.288180 3.568890 
# 
# 
# High freq. dielectric constant tensor:
#      x y z
#    x 1.802270 -0.008050 -0.003650 
#    y -0.008050 1.825200 0.017340 
#    z -0.003650 0.017340 1.819370 
# 
# From -- ./inp_files/313923.got.cif
#   From: 2010.06.25/outbox.cif.g09.slc.cpg/sg2_157_cif.got.tgz:313923.got - 2010.06.27 13:26:56.
