data_PCOD8012106
_publ_section_title
;
Structure prediction by ZEFSAII (Michael W. Deem and Ramdas Pophale) SiO2 
 PCOD8012106
Probable space group: P -1
;
_chemical_formula_sum "Si O2"
_cell_formula_units_Z 16
_cell_length_a 19.384526
_cell_length_b 12.733867
_cell_length_c 8.477841
_cell_angle_alpha 124.412716
_cell_angle_beta 130.830449
_cell_angle_gamma 28.297750
_cell_volume 750.299128
_symmetry_space_group_name_H-M "P -1"
_symmetry_group_IT_number 2
_symmetry_cell_setting 'triclinic'
loop_
_space_group_symop_operation_xyz
x,y,z
-x,-y,-z
loop_
_atom_site_type_symbol
_atom_site_label
_atom_site_fract_x
_atom_site_fract_y
_atom_site_fract_z
Si Si1 0.302879 0.424977 0.741957
Si Si2 0.848731 0.841775 0.802087
Si Si3 0.669697 0.037744 0.000356
Si Si4 0.829736 0.607666 0.002870
Si Si5 0.016062 0.842431 0.836680
Si Si6 0.813137 0.688732 0.391750
Si Si7 0.850099 0.041544 0.434136
Si Si8 0.828013 0.353323 0.593929
O O1 0.484689 0.222814 0.890424
O O2 0.235114 0.359593 0.590221
O O3 0.279035 0.510695 0.606220
O O4 0.201993 0.613885 0.884239
O O5 0.960354 0.825595 0.889001
O O6 0.749874 0.890958 0.550358
O O7 0.720304 0.033974 0.900709
O O8 0.978899 0.597539 0.870353
O O9 0.762508 0.798976 0.959660
O O10 0.708452 0.104530 0.240246
O O11 0.786321 0.517764 0.789233
O O12 0.747025 0.723859 0.151273
O O13 0.913013 0.928114 0.602099
O O14 0.000000 0.000000 0.000000
O O15 0.000000 0.500000 0.500000
O O16 0.790062 0.257007 0.529085
O O17 0.985056 0.860658 0.350584
#
# Coordination Sequence:
#
# PCOD8012106 Si02
#       8
#     2   2   2   2   2   2   2   2
#     4  11  25  43  65  98 137 165 214 281 337 376
#     4  11  22  40  68  98 129 174 222 264 326 396
#     4  12  26  40  67 102 136 169 215 282 334 380
#     4  11  21  39  68  96 128 177 224 265 319 398
#     4  11  23  44  72  93 128 180 226 260 320 405
#     4  10  21  39  66  95 129 169 218 270 320 388
#     4  10  23  41  66  99 128 175 223 267 322 395
#     4  10  22  41  67  94 131 174 226 265 317 401
#
# _framework density 21.324828
#
# number of rings (size 3 to 8) (size 9 to 14) (size 15 to 20)
#    0.000    1.250    3.750    2.625    8.750    3.000 
#    0.000    1.875    0.000    0.000    0.000    0.000 
#    0.000    0.000    0.000    0.000    0.000    0.000 
#
# Total GULP energy -198270.264902 kJ/mol
# GULP energy per Si atom -12391.891556 kJ/mol
# Density = 2.127629 g / cm^3
# Si number density = 21.324828 Si / 1000 Ang^3
#
#
#
# Elastic Constant Matrix: (Units=GPa)
#
#
# Indices 1 2 3 4 5 6 
#
# 1 97.9375 63.2289 45.1237 -10.3940 -0.2503 -4.6048
# 2 63.2289 82.0371 61.3273 9.6267 15.3785 2.4988
# 3 45.1237 61.3273 110.8105 17.4583 17.2957 -5.7324
# 4 -10.3940 9.6267 17.4583 38.3706 -0.2709 3.3608
# 5 -0.2503 15.3785 17.2957 -0.2709 33.0285 5.1165
# 6 -4.6048 2.4988 -5.7324 3.3608 5.1165 28.6190
#
#
#
# Elastic Compliance Matrix: (Units=1/GPa)
#
#
# Indices 1 2 3 4 5 6 
#
# 1 0.029156 -0.025005 -0.002293 0.015100 0.012824 0.002349
# 2 -0.025005 0.043076 -0.009689 -0.012779 -0.014402 -0.005649
# 3 -0.002293 -0.009689 0.017563 -0.006729 -0.005657 0.005796
# 4 0.015100 -0.012779 -0.006729 0.036845 0.010512 -0.004009
# 5 0.012824 -0.014402 -0.005657 0.010512 0.041119 -0.006398
# 6 0.002349 -0.005649 0.005796 -0.004009 -0.006398 0.038589
#
#
# Mechanical properties :
#
#
# Convention : Reuss Voigt Hill
#
# Bulk Modulus (GPa) = 63.20259 70.01612 66.60935
# Shear Modulus (GPa) = 17.50723 28.07728 22.79226
#
# Velocity S-wave (km/s) = 2.86838 3.63250 3.27282
# Velocity P-wave (km/s) = 6.37750 7.10618 6.75168
#
# Compressibility (1/GPa) = 0.01582214
#
# Stress axis : x y z
#
# Youngs Moduli (GPa) = 34.29808 23.21471 56.93694
#
# Poissons Ratio (x) = 0.58048 0.13056
# Poissons Ratio (y) = 0.85762 0.55165
# Poissons Ratio (z) = 0.07865 0.22492
#
# Static dielectric constant tensor:
#      x y z
#    x 3.743550 0.053670 -0.093120 
#    y 0.053670 3.688350 0.365160 
#    z -0.093120 0.365160 3.894730 
# 
# 
# High freq. dielectric constant tensor:
#      x y z
#    x 1.836910 0.014870 -0.011020 
#    y 0.014870 1.806460 0.021480 
#    z -0.011020 0.021480 1.844380 
# 
# From -- ./inp_files/225529.got.cif
#   From: 2010.06.25/outbox.cif.g09.slc.cpg/sg2_113_cif.got.tgz:225529.got - 2010.06.27 13:26:56.
