data_PCOD8012871
_publ_section_title
;
Structure prediction by ZEFSAII (Michael W. Deem and Ramdas Pophale) SiO2 
 PCOD8012871
Probable space group: P -1
;
_chemical_formula_sum "Si O2"
_cell_formula_units_Z 16
_cell_length_a 8.079611
_cell_length_b 21.937490
_cell_length_c 16.232378
_cell_angle_alpha 21.109262
_cell_angle_beta 69.606649
_cell_angle_gamma 57.969858
_cell_volume 771.019071
_symmetry_space_group_name_H-M "P -1"
_symmetry_group_IT_number 2
_symmetry_cell_setting 'triclinic'
loop_
_space_group_symop_operation_xyz
x,y,z
-x,-y,-z
loop_
_atom_site_type_symbol
_atom_site_label
_atom_site_fract_x
_atom_site_fract_y
_atom_site_fract_z
Si Si1 0.637540 0.088297 0.886365
Si Si2 0.757081 0.176427 0.105041
Si Si3 0.297785 0.436581 0.078843
Si Si4 0.684416 0.430374 0.385559
Si Si5 0.706738 0.618382 0.312063
Si Si6 0.993111 0.266525 0.827559
Si Si7 0.002815 0.300031 0.348878
Si Si8 0.768779 0.211929 0.241870
O O1 0.614411 0.273027 0.601497
O O2 0.555930 0.183706 0.873552
O O3 0.500000 0.000000 0.000000
O O4 0.888428 0.878703 0.092519
O O5 0.790006 0.243844 0.102279
O O6 0.816547 0.946143 0.395376
O O7 0.507146 0.345775 0.904151
O O8 0.930761 0.150911 0.042944
O O9 0.142131 0.388278 0.207068
O O10 0.549846 0.221634 0.286559
O O11 0.297056 0.575380 0.974271
O O12 0.199476 0.576099 0.836761
O O13 0.735647 0.482448 0.400269
O O14 0.905452 0.325956 0.424255
O O15 0.858199 0.698260 0.183773
O O16 0.776467 0.484703 0.554168
O O17 0.000000 0.000000 0.500000
#
# Coordination Sequence:
#
# PCOD8012871 Si02
#       8
#     2   2   2   2   2   2   2   2
#     4  10  21  40  64  88 126 174 215 264 321 384
#     4  12  24  40  64  97 128 168 217 269 324 390
#     4  10  24  45  68  94 131 171 219 267 334 389
#     4  12  24  41  64  97 134 168 221 273 321 386
#     4  10  23  41  63  91 126 175 213 264 328 387
#     4  10  22  41  64  90 127 169 217 266 323 384
#     4  11  24  44  64  98 132 170 216 277 324 388
#     4  11  23  43  71  97 128 174 213 267 331 399
#
# _framework density 20.751756
#
# number of rings (size 3 to 8) (size 9 to 14) (size 15 to 20)
#    0.000    1.250    5.000    0.375    1.750    3.000 
#    0.000    1.250    0.000    0.000    0.000    0.000 
#    0.000    0.000    0.000    0.000    0.000    0.000 
#
# Total GULP energy -198216.025651 kJ/mol
# GULP energy per Si atom -12388.501603 kJ/mol
# Density = 2.070452 g / cm^3
# Si number density = 20.751756 Si / 1000 Ang^3
#
#
#
# Elastic Constant Matrix: (Units=GPa)
#
#
# Indices 1 2 3 4 5 6 
#
# 1 62.6031 32.9851 30.3118 -3.7965 12.6001 1.7705
# 2 32.9851 121.4698 14.9100 -5.2628 -5.4501 -1.2751
# 3 30.3118 14.9100 75.7646 -8.5725 -0.6475 -5.6728
# 4 -3.7965 -5.2628 -8.5725 31.6723 -3.7371 3.0493
# 5 12.6001 -5.4501 -0.6475 -3.7371 29.8566 -5.4283
# 6 1.7705 -1.2751 -5.6728 3.0493 -5.4283 27.9036
#
#
#
# Elastic Compliance Matrix: (Units=1/GPa)
#
#
# Indices 1 2 3 4 5 6 
#
# 1 0.027918 -0.007091 -0.010622 -0.001784 -0.014791 -0.006937
# 2 -0.007091 0.010351 0.001186 0.001641 0.005486 0.002052
# 3 -0.010622 0.001186 0.018127 0.004099 0.006558 0.005241
# 4 -0.001784 0.001641 0.004099 0.033495 0.005032 -0.001660
# 5 -0.014791 0.005486 0.006558 0.005032 0.043403 0.010416
# 6 -0.006937 0.002052 0.005241 -0.001660 0.010416 0.039645
#
#
# Mechanical properties :
#
#
# Convention : Reuss Voigt Hill
#
# Bulk Modulus (GPa) = 42.83905 46.25016 44.54461
# Shear Modulus (GPa) = 23.38926 29.99519 26.69222
#
# Velocity S-wave (km/s) = 3.36087 3.80600 3.59034
# Velocity P-wave (km/s) = 5.97905 6.45368 6.22089
#
# Compressibility (1/GPa) = 0.02334319
#
# Stress axis : x y z
#
# Youngs Moduli (GPa) = 35.81951 96.60645 55.16596
#
# Poissons Ratio (x) = 0.68504 0.58595
# Poissons Ratio (y) = 0.25400 -0.06543
# Poissons Ratio (z) = 0.38046 -0.11459
#
# Static dielectric constant tensor:
#      x y z
#    x 3.768440 -0.212770 -0.021010 
#    y -0.212770 4.052290 -0.179970 
#    z -0.021010 -0.179970 3.768530 
# 
# 
# High freq. dielectric constant tensor:
#      x y z
#    x 1.806910 -0.017240 -0.006840 
#    y -0.017240 1.830980 -0.016610 
#    z -0.006840 -0.016610 1.806280 
# 
# From -- ./inp_files/223513.got.cif
#   From: 2010.06.25/outbox.cif.g09.slc.cpg/sg2_112_cif.got.tgz:223513.got - 2010.06.27 13:26:56.
