data_PCOD8012761
_publ_section_title
;
Structure prediction by ZEFSAII (Michael W. Deem and Ramdas Pophale) SiO2 
 PCOD8012761
Probable space group: P -1
;
_chemical_formula_sum "Si O2"
_cell_formula_units_Z 16
_cell_length_a 10.997375
_cell_length_b 17.128427
_cell_length_c 5.213793
_cell_angle_alpha 57.465796
_cell_angle_beta 102.197493
_cell_angle_gamma 114.487585
_cell_volume 753.425044
_symmetry_space_group_name_H-M "P -1"
_symmetry_group_IT_number 2
_symmetry_cell_setting 'triclinic'
loop_
_space_group_symop_operation_xyz
x,y,z
-x,-y,-z
loop_
_atom_site_type_symbol
_atom_site_label
_atom_site_fract_x
_atom_site_fract_y
_atom_site_fract_z
Si Si1 0.356550 0.008223 0.444005
Si Si2 0.778705 0.578812 0.844729
Si Si3 0.627785 0.265022 0.639767
Si Si4 0.459310 0.232909 0.128467
Si Si5 0.112381 0.568305 0.617319
Si Si6 0.757362 0.105837 0.899091
Si Si7 0.713888 0.634963 0.217999
Si Si8 0.016604 0.277175 0.608853
O O1 0.290375 0.979862 0.184656
O O2 0.500000 0.000000 0.500000
O O3 0.366939 0.118218 0.332865
O O4 0.262896 0.937678 0.745774
O O5 0.686891 0.557760 0.582809
O O6 0.890801 0.692673 0.661341
O O7 0.852578 0.499655 0.034208
O O8 0.680694 0.572439 0.050593
O O9 0.538059 0.280225 0.340074
O O10 0.749281 0.367676 0.576648
O O11 0.674429 0.177709 0.712843
O O12 0.552533 0.233940 0.928452
O O13 0.367539 0.294012 0.905760
O O14 0.000000 0.500000 0.500000
O O15 0.063019 0.648390 0.581793
O O16 0.914055 0.165301 0.798818
O O17 0.874911 0.697514 0.156670
#
# Coordination Sequence:
#
# PCOD8012761 Si02
#       8
#     2   2   2   2   2   2   2   2
#     4  12  22  39  64  89 128 156 211 252 312 364
#     4  10  21  40  63  90 121 165 206 243 310 363
#     4  11  24  39  65  95 126 156 210 254 312 366
#     4  12  24  44  62  89 127 172 204 249 308 372
#     4  11  21  41  69  98 124 156 206 266 311 355
#     4  11  22  38  63  99 119 156 200 273 308 359
#     4  10  23  41  63  84 127 176 200 245 307 371
#     4   9  23  37  66  91 129 153 207 251 318 359
#
# _framework density 21.236352
#
# number of rings (size 3 to 8) (size 9 to 14) (size 15 to 20)
#    0.750    0.500    3.750    2.250    1.750    4.000 
#    0.000    5.000    0.000    0.000    0.000    0.000 
#    0.000    0.000    0.000    0.000    0.000    0.000 
#
# Total GULP energy -198217.783438 kJ/mol
# GULP energy per Si atom -12388.611465 kJ/mol
# Density = 2.118802 g / cm^3
# Si number density = 21.236352 Si / 1000 Ang^3
#
#
#
# Elastic Constant Matrix: (Units=GPa)
#
#
# Indices 1 2 3 4 5 6 
#
# 1 41.7224 12.5966 22.6471 -3.5481 7.0873 -3.4016
# 2 12.5966 78.7241 34.2748 3.9868 -6.8017 -1.0220
# 3 22.6471 34.2748 122.9497 10.0516 -4.3939 1.2321
# 4 -3.5481 3.9868 10.0516 33.1030 -5.2245 -8.5698
# 5 7.0873 -6.8017 -4.3939 -5.2245 36.8808 -1.4281
# 6 -3.4016 -1.0220 1.2321 -8.5698 -1.4281 14.3762
#
#
#
# Elastic Compliance Matrix: (Units=1/GPa)
#
#
# Indices 1 2 3 4 5 6 
#
# 1 0.030498 -0.003127 -0.005667 0.007415 -0.005623 0.011341
# 2 -0.003127 0.014997 -0.003469 -0.000463 0.002912 0.000637
# 3 -0.005667 -0.003469 0.010604 -0.004609 0.000860 -0.005158
# 4 0.007415 -0.000463 -0.004609 0.040036 0.004636 0.026443
# 5 -0.005623 0.002912 0.000860 0.004636 0.029666 0.004513
# 6 0.011341 0.000637 -0.005158 0.026443 0.004513 0.088941
#
#
# Mechanical properties :
#
#
# Convention : Reuss Voigt Hill
#
# Bulk Modulus (GPa) = 31.67278 42.49259 37.08268
# Shear Modulus (GPa) = 20.01667 28.46385 24.24026
#
# Velocity S-wave (km/s) = 3.07346 3.66503 3.38220
# Velocity P-wave (km/s) = 5.24801 6.16139 5.72295
#
# Compressibility (1/GPa) = 0.03157286
#
# Stress axis : x y z
#
# Youngs Moduli (GPa) = 32.78871 66.68160 94.30829
#
# Poissons Ratio (x) = 0.20851 0.53443
# Poissons Ratio (y) = 0.10253 0.32716
# Poissons Ratio (z) = 0.18581 0.23132
#
# Static dielectric constant tensor:
#      x y z
#    x 3.719860 0.135080 -0.040160 
#    y 0.135080 3.867630 -0.160770 
#    z -0.040160 -0.160770 3.989150 
# 
# 
# High freq. dielectric constant tensor:
#      x y z
#    x 1.818010 0.006600 -0.007130 
#    y 0.006600 1.815860 0.001620 
#    z -0.007130 0.001620 1.845190 
# 
# From -- ./inp_files/46687.got.cif
#   From: 2010.06.25/outbox.cif.g09.slc.cpg/sg2_24_cif.got.tgz:46687.got - 2010.06.27 13:26:56.
