data_PCOD8012049
_publ_section_title
;
Structure prediction by ZEFSAII (Michael W. Deem and Ramdas Pophale) SiO2 
 PCOD8012049
Probable space group: P -1
;
_chemical_formula_sum "Si O2"
_cell_formula_units_Z 16
_cell_length_a 8.668345
_cell_length_b 12.159022
_cell_length_c 18.305951
_cell_angle_alpha 35.427231
_cell_angle_beta 97.649719
_cell_angle_gamma 70.458965
_cell_volume 705.901406
_symmetry_space_group_name_H-M "P -1"
_symmetry_group_IT_number 2
_symmetry_cell_setting 'triclinic'
loop_
_space_group_symop_operation_xyz
x,y,z
-x,-y,-z
loop_
_atom_site_type_symbol
_atom_site_label
_atom_site_fract_x
_atom_site_fract_y
_atom_site_fract_z
Si Si1 0.197592 0.174680 0.223829
Si Si2 0.084049 0.378833 0.346901
Si Si3 0.619788 0.380342 0.495075
Si Si4 0.856557 0.408576 0.193469
Si Si5 0.509637 0.783147 0.832619
Si Si6 0.750590 0.353924 0.802565
Si Si7 0.985912 0.369087 0.503770
Si Si8 0.582924 0.302818 0.266379
O O1 0.454776 0.044567 0.300154
O O2 0.128993 0.186444 0.296906
O O3 0.198845 0.969310 0.296505
O O4 0.000000 0.500000 0.000000
O O5 0.197565 0.473137 0.284491
O O6 0.971949 0.492529 0.359417
O O7 0.852511 0.555394 0.182635
O O8 0.283438 0.024629 0.536876
O O9 0.500000 0.500000 0.500000
O O10 0.423073 0.532107 0.337332
O O11 0.756411 0.447554 0.452663
O O12 0.804331 0.245593 0.305745
O O13 0.665559 0.636835 0.994687
O O14 0.565932 0.568576 0.890709
O O15 0.231220 0.014594 0.713015
O O16 0.606664 0.449363 0.817752
O O17 0.000000 0.000000 0.000000
O O18 0.000000 0.500000 0.500000
#
# Coordination Sequence:
#
# PCOD8012049 Si02
#       8
#     2   2   2   2   2   2   2   2
#     4  10  21  39  66 101 133 169 217 270 326 387
#     4  11  23  43  68  95 129 173 220 274 330 393
#     4  12  25  45  69  96 133 178 222 273 332 397
#     4  11  22  38  67 102 132 167 217 274 328 389
#     4  10  22  39  65 100 135 172 216 270 326 391
#     4  12  28  46  66  98 135 177 224 278 337 395
#     4  11  24  44  67  95 131 176 221 269 331 396
#     4  11  22  42  66  95 133 176 220 270 328 396
#
# _framework density 22.666053999999999
#
# number of rings (size 3 to 8) (size 9 to 14) (size 15 to 20)
#    0.000    1.000    0.000    7.875    0.000    8.000 
#    0.000    1.875    0.000    0.000    0.000    0.000 
#    0.000    0.000    0.000    0.000    0.000    0.000 
#
# Total GULP energy -198251.401571 kJ/mol
# GULP energy per Si atom -12390.712598 kJ/mol
# Density = 2.261447 g / cm^3
# Si number density = 22.666054 Si / 1000 Ang^3
#
#
#
# Elastic Constant Matrix: (Units=GPa)
#
#
# Indices 1 2 3 4 5 6 
#
# 1 164.0898 55.9365 38.3245 3.7152 0.4367 11.8384
# 2 55.9365 194.6749 60.4376 24.4004 8.6188 4.9400
# 3 38.3245 60.4376 94.4660 7.8407 5.2618 7.0650
# 4 3.7152 24.4004 7.8407 40.8636 14.0385 9.9376
# 5 0.4367 8.6188 5.2618 14.0385 28.7761 3.9758
# 6 11.8384 4.9400 7.0650 9.9376 3.9758 47.7276
#
#
#
# Elastic Compliance Matrix: (Units=1/GPa)
#
#
# Indices 1 2 3 4 5 6 
#
# 1 0.007159 -0.001560 -0.001889 0.000847 0.000505 -0.001553
# 2 -0.001560 0.007179 -0.003734 -0.003747 0.000253 0.000956
# 3 -0.001889 -0.003734 0.013868 0.000541 -0.001488 -0.001186
# 4 0.000847 -0.003747 0.000541 0.032755 -0.014204 -0.005539
# 5 0.000505 0.000253 -0.001488 -0.014204 0.041934 -0.000467
# 6 -0.001553 0.000956 -0.001186 -0.005539 -0.000467 0.022606
#
#
# Mechanical properties :
#
#
# Convention : Reuss Voigt Hill
#
# Bulk Modulus (GPa) = 72.25655 84.73643 78.49649
# Shear Modulus (GPa) = 34.60703 43.37560 38.99132
#
# Velocity S-wave (km/s) = 3.91170 4.37931 4.15209
# Velocity P-wave (km/s) = 7.23531 7.93959 7.59562
#
# Compressibility (1/GPa) = 0.01383958
#
# Stress axis : x y z
#
# Youngs Moduli (GPa) = 139.69359 139.30402 72.10813
#
# Poissons Ratio (x) = 0.21727 0.13619
# Poissons Ratio (y) = 0.21787 0.26929
# Poissons Ratio (z) = 0.26383 0.52023
#
# Static dielectric constant tensor:
#      x y z
#    x 4.869870 -0.047670 0.196260 
#    y -0.047670 4.474260 0.236240 
#    z 0.196260 0.236240 3.904730 
# 
# 
# High freq. dielectric constant tensor:
#      x y z
#    x 1.921640 -0.000260 0.003830 
#    y -0.000260 1.909010 0.022160 
#    z 0.003830 0.022160 1.872320 
# 
# From -- ./inp_files/558962.got.cif
#   From: 2010.06.25/outbox.cif.g09.slc.cpg/sg2_280_cif.got.tgz:558962.got - 2010.06.27 13:26:56.
