data_PCOD8012706
_publ_section_title
;
Structure prediction by ZEFSAII (Michael W. Deem and Ramdas Pophale) SiO2 
 PCOD8012706
Probable space group: P -1
;
_chemical_formula_sum "Si O2"
_cell_formula_units_Z 14
_cell_length_a 7.145533
_cell_length_b 14.872721
_cell_length_c 12.123287
_cell_angle_alpha 48.508480
_cell_angle_beta 138.247503
_cell_angle_gamma 130.452117
_cell_volume 611.022510
_symmetry_space_group_name_H-M "P -1"
_symmetry_group_IT_number 2
_symmetry_cell_setting 'triclinic'
loop_
_space_group_symop_operation_xyz
x,y,z
-x,-y,-z
loop_
_atom_site_type_symbol
_atom_site_label
_atom_site_fract_x
_atom_site_fract_y
_atom_site_fract_z
Si Si1 0.814578 0.362976 0.493670
Si Si2 0.074111 0.810742 0.713631
Si Si3 0.302633 0.343585 0.134833
Si Si4 0.321269 0.016745 0.078388
Si Si5 0.620491 0.377075 0.032129
Si Si6 0.554595 0.790937 0.358900
Si Si7 0.680426 0.745029 0.221414
O O1 0.639745 0.370100 0.300406
O O2 0.584606 0.314933 0.528221
O O3 0.000000 0.500000 0.500000
O O4 0.990928 0.263360 0.634314
O O5 0.397065 0.915017 0.775688
O O6 0.925061 0.772484 0.802891
O O7 0.876673 0.862382 0.498167
O O8 0.123275 0.686407 0.781348
O O9 0.222742 0.472967 0.011363
O O10 0.335913 0.321697 0.035381
O O11 0.360393 0.883476 0.171275
O O12 0.325194 0.109981 0.902678
O O13 0.000000 0.000000 0.000000
O O14 0.511270 0.342083 0.887094
O O15 0.558270 0.706857 0.321054
#
# Coordination Sequence:
#
# PCOD8012706 Si02
#       7
#     2   2   2   2   2   2   2
#     4  11  22  41  64  98 133 173 220 267 332 391
#     4  10  23  42  66  96 131 168 227 267 335 388
#     4  10  21  40  64  91 136 178 218 269 322 393
#     4  11  23  46  70  95 132 173 227 276 329 395
#     4  10  21  40  62  96 133 177 220 266 325 393
#     4  11  24  44  68  97 135 175 216 279 328 395
#     4  11  23  41  67  98 132 173 224 268 332 390
#
# _framework density 22.912412
#
# number of rings (size 3 to 8) (size 9 to 14) (size 15 to 20)
#    0.000    1.429    2.857    2.143    0.000    2.857 
#    7.714    0.714    0.000    0.000    0.000    0.000 
#    0.000    0.000    0.000    0.000    0.000    0.000 
#
# Total GULP energy -173459.370840 kJ/mol
# GULP energy per Si atom -12389.955060 kJ/mol
# Density = 2.286026 g / cm^3
# Si number density = 22.912412 Si / 1000 Ang^3
#
#
#
# Elastic Constant Matrix: (Units=GPa)
#
#
# Indices 1 2 3 4 5 6 
#
# 1 118.8026 31.7089 33.4222 19.2871 -1.6218 -15.6355
# 2 31.7089 65.0128 18.5106 16.4606 -0.2102 4.2708
# 3 33.4222 18.5106 98.8480 2.2638 20.7208 -9.2693
# 4 19.2871 16.4606 2.2638 23.0361 3.9715 0.6377
# 5 -1.6218 -0.2102 20.7208 3.9715 36.8360 9.6953
# 6 -15.6355 4.2708 -9.2693 0.6377 9.6953 28.1676
#
#
#
# Elastic Compliance Matrix: (Units=1/GPa)
#
#
# Indices 1 2 3 4 5 6 
#
# 1 0.012323 -0.003513 -0.003084 -0.007934 0.001531 0.006011
# 2 -0.003513 0.022546 -0.004940 -0.013569 0.006571 -0.008949
# 3 -0.003084 -0.004940 0.015046 0.006377 -0.011356 0.007752
# 4 -0.007934 -0.013569 0.006377 0.060987 -0.011173 0.002217
# 5 0.001531 0.006571 -0.011356 -0.011173 0.039366 -0.017180
# 6 0.006011 -0.008949 0.007752 0.002217 -0.017180 0.048610
#
#
# Mechanical properties :
#
#
# Convention : Reuss Voigt Hill
#
# Bulk Modulus (GPa) = 37.25808 49.99410 43.62609
# Shear Modulus (GPa) = 21.65445 30.87602 26.26524
#
# Velocity S-wave (km/s) = 3.07758 3.67491 3.38943
# Velocity P-wave (km/s) = 5.37820 6.31455 5.86509
#
# Compressibility (1/GPa) = 0.02683981
#
# Stress axis : x y z
#
# Youngs Moduli (GPa) = 81.15121 44.35328 66.46372
#
# Poissons Ratio (x) = 0.15582 0.20499
# Poissons Ratio (y) = 0.28509 0.32834
# Poissons Ratio (z) = 0.25029 0.21911
#
# Static dielectric constant tensor:
#      x y z
#    x 4.546350 0.343520 0.705530 
#    y 0.343520 4.099650 0.433550 
#    z 0.705530 0.433550 5.471340 
# 
# 
# High freq. dielectric constant tensor:
#      x y z
#    x 1.911970 -0.000020 0.010770 
#    y -0.000020 1.874890 -0.006050 
#    z 0.010770 -0.006050 1.922340 
# 
# From -- ./inp_files/367559.got.cif
#   From: 2010.06.25/outbox.cif.g09.slc.cpg/sg2_184_cif.got.tgz:367559.got - 2010.06.27 13:26:56.
