data_PCOD8012895
_publ_section_title
;
Structure prediction by ZEFSAII (Michael W. Deem and Ramdas Pophale) SiO2 
 PCOD8012895
Probable space group: P -1
;
_chemical_formula_sum "Si O2"
_cell_formula_units_Z 16
_cell_length_a 10.850334
_cell_length_b 16.453477
_cell_length_c 23.953599
_cell_angle_alpha 20.978746
_cell_angle_beta 29.342194
_cell_angle_gamma 30.094087
_cell_volume 717.476763
_symmetry_space_group_name_H-M "P -1"
_symmetry_group_IT_number 2
_symmetry_cell_setting 'triclinic'
loop_
_space_group_symop_operation_xyz
x,y,z
-x,-y,-z
loop_
_atom_site_type_symbol
_atom_site_label
_atom_site_fract_x
_atom_site_fract_y
_atom_site_fract_z
Si Si1 0.390216 0.999759 0.982700
Si Si2 0.196171 0.512120 0.712898
Si Si3 0.872422 0.871652 0.284218
Si Si4 0.636030 0.502783 0.149111
Si Si5 0.913714 0.643718 0.851627
Si Si6 0.210426 0.490126 0.603983
Si Si7 0.518761 0.099433 0.665768
Si Si8 0.878953 0.632553 0.543680
O O1 0.559651 0.776600 0.023703
O O2 0.403812 0.249532 0.791888
O O3 0.086850 0.004240 0.101692
O O4 0.500000 0.000000 0.000000
O O5 0.041237 0.545092 0.693181
O O6 0.348741 0.708090 0.535583
O O7 0.009116 0.513101 0.838892
O O8 0.601697 0.007186 0.271196
O O9 0.828904 0.857307 0.377472
O O10 0.956020 0.602760 0.401830
O O11 0.395742 0.395091 0.308545
O O12 0.841605 0.342880 0.214991
O O13 0.755582 0.494924 0.044640
O O14 0.733235 0.905704 0.740208
O O15 0.500000 0.500000 0.500000
O O16 0.271988 0.223865 0.724616
O O17 0.046594 0.675573 0.503496
#
# Coordination Sequence:
#
# PCOD8012895 Si02
#       8
#     2   2   2   2   2   2   2   2
#     4  11  22  37  63  93 121 149 199 262 304 347
#     4  11  22  38  60  93 120 161 202 247 303 354
#     4   9  20  35  63  90 118 156 201 251 304 356
#     4  10  22  40  63  91 118 164 204 249 297 362
#     4  11  22  39  62  87 125 165 205 237 299 373
#     4   9  20  35  61  90 117 151 196 258 300 342
#     4  10  21  40  64  90 121 162 204 246 297 372
#     4   9  18  37  61  89 121 155 204 251 296 359
#
# _framework density 22.300374999999999
#
# number of rings (size 3 to 8) (size 9 to 14) (size 15 to 20)
#    0.000    2.000    1.250    1.875    7.000    1.000 
#    0.000    6.250    0.000    4.500    0.000    0.000 
#    0.000    0.000    0.000    0.000    0.000    0.000 
#
# Total GULP energy -198228.442676 kJ/mol
# GULP energy per Si atom -12389.277667 kJ/mol
# Density = 2.224962 g / cm^3
# Si number density = 22.300375 Si / 1000 Ang^3
#
#
#
# Elastic Constant Matrix: (Units=GPa)
#
#
# Indices 1 2 3 4 5 6 
#
# 1 180.4557 49.2136 59.6284 10.4010 33.1196 -18.6273
# 2 49.2136 71.8067 32.8083 16.6401 15.6470 -6.1330
# 3 59.6284 32.8083 77.8571 7.0194 23.7755 -11.0991
# 4 10.4010 16.6401 7.0194 35.9496 6.5431 13.2443
# 5 33.1196 15.6470 23.7755 6.5431 35.0822 6.6943
# 6 -18.6273 -6.1330 -11.0991 13.2443 6.6943 38.2654
#
#
#
# Elastic Compliance Matrix: (Units=1/GPa)
#
#
# Indices 1 2 3 4 5 6 
#
# 1 0.008907 -0.002745 -0.003213 -0.001274 -0.005606 0.004386
# 2 -0.002745 0.020940 -0.004373 -0.009143 -0.002924 0.004428
# 3 -0.003213 -0.004373 0.021375 -0.001658 -0.010401 0.006329
# 4 -0.001274 -0.009143 -0.001658 0.038292 0.002361 -0.016234
# 5 -0.005606 -0.002924 -0.010401 0.002361 0.044538 -0.014823
# 6 0.004386 0.004428 0.006329 -0.016234 -0.014823 0.039026
#
#
# Mechanical properties :
#
#
# Convention : Reuss Voigt Hill
#
# Bulk Modulus (GPa) = 32.72215 68.15779 50.43997
# Shear Modulus (GPa) = 24.51863 34.42405 29.47134
#
# Velocity S-wave (km/s) = 3.31943 3.93320 3.63927
# Velocity P-wave (km/s) = 5.42187 7.15937 6.35033
#
# Compressibility (1/GPa) = 0.03056034
#
# Stress axis : x y z
#
# Youngs Moduli (GPa) = 112.27391 47.75599 46.78292
#
# Poissons Ratio (x) = 0.13109 0.15029
# Poissons Ratio (y) = 0.30819 0.20459
# Poissons Ratio (z) = 0.36069 0.20885
#
# Static dielectric constant tensor:
#      x y z
#    x 4.676260 0.026480 0.714490 
#    y 0.026480 4.234840 0.078610 
#    z 0.714490 0.078610 4.659480 
# 
# 
# High freq. dielectric constant tensor:
#      x y z
#    x 1.893190 -0.003200 0.025400 
#    y -0.003200 1.852370 0.010170 
#    z 0.025400 0.010170 1.862410 
# 
# From -- ./inp_files/568627.got.cif
#   From: 2010.06.25/outbox.cif.g09.slc.cpg/sg2_285_cif.got.tgz:568627.got - 2010.06.27 13:26:56.
