data_PCOD8012319
_publ_section_title
;
Structure prediction by ZEFSAII (Michael W. Deem and Ramdas Pophale) SiO2 
 PCOD8012319
Probable space group: P -1
;
_chemical_formula_sum "Si O2"
_cell_formula_units_Z 12
_cell_length_a 8.659052
_cell_length_b 4.835769
_cell_length_c 16.375495
_cell_angle_alpha 116.835945
_cell_angle_beta 119.101163
_cell_angle_gamma 90.578442
_cell_volume 510.890264
_symmetry_space_group_name_H-M "P -1"
_symmetry_group_IT_number 2
_symmetry_cell_setting 'triclinic'
loop_
_space_group_symop_operation_xyz
x,y,z
-x,-y,-z
loop_
_atom_site_type_symbol
_atom_site_label
_atom_site_fract_x
_atom_site_fract_y
_atom_site_fract_z
Si Si1 0.238988 0.893267 0.572064
Si Si2 0.884382 0.962353 0.883176
Si Si3 0.115639 0.158043 0.428156
Si Si4 0.490379 0.056453 0.802850
Si Si5 0.978969 0.349224 0.800447
Si Si6 0.618639 0.313540 0.120396
O O1 0.168747 0.533406 0.469137
O O2 0.428433 0.967430 0.681323
O O3 0.091276 0.970077 0.606140
O O4 0.263129 0.121909 0.529582
O O5 0.693358 0.028781 0.863333
O O6 0.853046 0.592657 0.796393
O O7 0.993858 0.218921 0.878016
O O8 0.000000 0.000000 0.000000
O O9 0.123451 0.955670 0.322569
O O10 0.354820 0.797599 0.794830
O O11 0.491495 0.419892 0.873360
O O12 0.182877 0.543187 0.849707
O O13 0.500000 0.000000 0.000000
#
# Coordination Sequence:
#
# PCOD8012319 Si02
#       6
#     2   2   2   2   2   2
#     4  10  21  39  69 102 138 175 223 285 352 402
#     4  12  28  48  70  96 146 195 225 278 359 417
#     4  10  21  39  69 104 134 176 225 287 346 404
#     4  12  25  47  68 104 140 185 230 284 353 408
#     4  12  25  47  72 104 138 183 237 285 343 414
#     4  12  26  44  72 103 135 176 243 300 333 399
#
# _framework density 23.488410999999999
#
# number of rings (size 3 to 8) (size 9 to 14) (size 15 to 20)
#    0.000    0.667    1.667    6.000    4.667    2.667 
#    0.000    5.000    0.000    0.000    0.000    0.000 
#    0.000    0.000    0.000    0.000    0.000    0.000 
#
# Total GULP energy -148869.010688 kJ/mol
# GULP energy per Si atom -12405.750891 kJ/mol
# Density = 2.343495 g / cm^3
# Si number density = 23.488411 Si / 1000 Ang^3
#
#
#
# Elastic Constant Matrix: (Units=GPa)
#
#
# Indices 1 2 3 4 5 6 
#
# 1 77.1777 57.1339 58.9757 -0.3648 -12.3111 -11.4957
# 2 57.1339 156.5837 38.0838 -6.9413 -14.0432 -13.4457
# 3 58.9757 38.0838 98.5564 -11.2827 0.6156 -6.6630
# 4 -0.3648 -6.9413 -11.2827 49.2205 -9.9412 -11.3818
# 5 -12.3111 -14.0432 0.6156 -9.9412 28.2968 -1.9732
# 6 -11.4957 -13.4457 -6.6630 -11.3818 -1.9732 49.2070
#
#
#
# Elastic Compliance Matrix: (Units=1/GPa)
#
#
# Indices 1 2 3 4 5 6 
#
# 1 0.033802 -0.006771 -0.017606 -0.001559 0.011443 0.003761
# 2 -0.006771 0.009109 0.000896 0.002328 0.002489 0.001667
# 3 -0.017606 0.000896 0.020715 0.003291 -0.006549 -0.000565
# 4 -0.001559 0.002328 0.003291 0.024923 0.009640 0.006869
# 5 0.011443 0.002489 -0.006549 0.009640 0.045538 0.006522
# 6 0.003761 0.001667 -0.000565 0.006869 0.006522 0.023430
#
#
# Mechanical properties :
#
#
# Convention : Reuss Voigt Hill
#
# Bulk Modulus (GPa) = 60.01497 71.18940 65.60219
# Shear Modulus (GPa) = 23.80567 37.21980 30.51273
#
# Velocity S-wave (km/s) = 3.18702 3.98503 3.60815
# Velocity P-wave (km/s) = 6.25693 7.17969 6.73413
#
# Compressibility (1/GPa) = 0.01666251
#
# Stress axis : x y z
#
# Youngs Moduli (GPa) = 29.58426 109.78485 48.27378
#
# Poissons Ratio (x) = 0.74339 0.84991
# Poissons Ratio (y) = 0.20033 -0.04324
# Poissons Ratio (z) = 0.52086 -0.09834
#
# Static dielectric constant tensor:
#      x y z
#    x 4.134360 -0.214490 -0.272350 
#    y -0.214490 4.785240 -0.126350 
#    z -0.272350 -0.126350 4.229010 
# 
# 
# High freq. dielectric constant tensor:
#      x y z
#    x 1.905620 -0.011220 -0.014750 
#    y -0.011220 1.959350 -0.003430 
#    z -0.014750 -0.003430 1.935650 
# 
# From -- ./inp_files/488013.got.cif
#   From: 2010.06.25/outbox.cif.g09.slc.cpg/sg2_245_cif.got.tgz:488013.got - 2010.06.27 13:26:56.
