data_PCOD8012089
_publ_section_title
;
Structure prediction by ZEFSAII (Michael W. Deem and Ramdas Pophale) SiO2 
 PCOD8012089
Probable space group: P -1
;
_chemical_formula_sum "Si O2"
_cell_formula_units_Z 16
_cell_length_a 12.133863
_cell_length_b 9.044419
_cell_length_c 12.261027
_cell_angle_alpha 129.498345
_cell_angle_beta 134.356952
_cell_angle_gamma 66.817410
_cell_volume 739.201709
_symmetry_space_group_name_H-M "P -1"
_symmetry_group_IT_number 2
_symmetry_cell_setting 'triclinic'
loop_
_space_group_symop_operation_xyz
x,y,z
-x,-y,-z
loop_
_atom_site_type_symbol
_atom_site_label
_atom_site_fract_x
_atom_site_fract_y
_atom_site_fract_z
Si Si1 0.609317 0.494846 0.470642
Si Si2 0.577447 0.852395 0.908198
Si Si3 0.090328 0.695768 0.415894
Si Si4 0.160736 0.080680 0.729680
Si Si5 0.664864 0.120128 0.904201
Si Si6 0.872111 0.459575 0.298538
Si Si7 0.342788 0.087769 0.407169
Si Si8 0.674842 0.790119 0.319757
O O1 0.500000 0.500000 0.500000
O O2 0.528265 0.347378 0.257533
O O3 0.766776 0.409072 0.581301
O O4 0.638072 0.696323 0.525033
O O5 0.603715 0.930220 0.840504
O O6 0.741884 0.816643 0.057406
O O7 0.500000 0.000000 0.000000
O O8 0.005840 0.832434 0.337297
O O9 0.960156 0.529842 0.282830
O O10 0.142051 0.846687 0.621475
O O11 0.247050 0.112975 0.687701
O O12 0.512521 0.231387 0.827080
O O13 0.739675 0.049347 0.808841
O O14 0.799248 0.241615 0.123513
O O15 0.724855 0.576866 0.272726
O O16 0.000000 0.500000 0.500000
O O17 0.261108 0.090438 0.470830
O O18 0.500000 0.000000 0.500000
#
# Coordination Sequence:
#
# PCOD8012089 Si02
#       8
#     2   2   2   2   2   2   2   2
#     4  12  24  44  71  97 134 176 228 276 333 406
#     4  12  22  38  72  99 128 170 234 282 326 389
#     4  10  22  40  63  92 136 171 217 276 337 393
#     4  10  21  39  67 100 132 169 221 284 335 392
#     4  11  22  41  62  95 133 173 227 272 329 400
#     4  11  23  37  63  93 130 171 222 277 339 392
#     4  10  24  41  64  97 135 175 219 275 335 392
#     4  10  21  39  66  94 124 173 224 279 330 389
#
# _framework density 21.644971000000002
#
# number of rings (size 3 to 8) (size 9 to 14) (size 15 to 20)
#    0.000    1.250    3.750    1.875    3.500    4.000 
#    0.000    3.125    5.500    0.000    0.000    0.000 
#    0.000    0.000    0.000    0.000    0.000    0.000 
#
# Total GULP energy -198217.518196 kJ/mol
# GULP energy per Si atom -12388.594887 kJ/mol
# Density = 2.159571 g / cm^3
# Si number density = 21.644971 Si / 1000 Ang^3
#
#
#
# Elastic Constant Matrix: (Units=GPa)
#
#
# Indices 1 2 3 4 5 6 
#
# 1 78.2418 31.3250 27.3208 -8.2533 -5.6437 -19.1057
# 2 31.3250 104.8567 36.0432 -1.5700 3.8410 -23.2248
# 3 27.3208 36.0432 138.4217 -2.8944 -0.0270 -11.1577
# 4 -8.2533 -1.5700 -2.8944 33.2070 4.0600 2.8201
# 5 -5.6437 3.8410 -0.0270 4.0600 33.8771 -5.1047
# 6 -19.1057 -23.2248 -11.1577 2.8201 -5.1047 34.0754
#
#
#
# Elastic Compliance Matrix: (Units=1/GPa)
#
#
# Indices 1 2 3 4 5 6 
#
# 1 0.016972 -0.002893 -0.001952 0.002817 0.003910 0.007258
# 2 -0.002893 0.012542 -0.002216 -0.000730 -0.000895 0.006127
# 3 -0.001952 -0.002216 0.008194 0.000129 -0.000074 0.000056
# 4 0.002817 -0.000730 0.000129 0.031390 -0.003511 -0.002000
# 5 0.003910 -0.000895 -0.000074 -0.003511 0.031686 0.006595
# 6 0.007258 0.006127 0.000056 -0.002000 0.006595 0.038764
#
#
# Mechanical properties :
#
#
# Convention : Reuss Voigt Hill
#
# Bulk Modulus (GPa) = 42.39870 56.76647 49.58259
# Shear Modulus (GPa) = 30.95374 35.35397 33.15385
#
# Velocity S-wave (km/s) = 3.78572 4.04587 3.91795
# Velocity P-wave (km/s) = 6.22412 6.93603 6.58970
#
# Compressibility (1/GPa) = 0.02358563
#
# Stress axis : x y z
#
# Youngs Moduli (GPa) = 58.92029 79.73376 122.04258
#
# Poissons Ratio (x) = 0.23066 0.23821
# Poissons Ratio (y) = 0.17045 0.27049
# Poissons Ratio (z) = 0.11501 0.17672
#
# Static dielectric constant tensor:
#      x y z
#    x 3.969000 -0.081480 -0.093530 
#    y -0.081480 4.204380 0.008280 
#    z -0.093530 0.008280 4.466990 
# 
# 
# High freq. dielectric constant tensor:
#      x y z
#    x 1.833910 -0.006360 0.000890 
#    y -0.006360 1.858750 -0.003750 
#    z 0.000890 -0.003750 1.844030 
# 
# From -- ./inp_files/420142.got.cif
#   From: 2010.06.25/outbox.cif.g09.slc.cpg/sg2_211_cif.got.tgz:420142.got - 2010.06.27 13:26:56.
