data_PCOD8012495
_publ_section_title
;
Structure prediction by ZEFSAII (Michael W. Deem and Ramdas Pophale) SiO2 
 PCOD8012495
Probable space group: P -1
;
_chemical_formula_sum "Si O2"
_cell_formula_units_Z 12
_cell_length_a 20.554913
_cell_length_b 17.882968
_cell_length_c 8.322392
_cell_angle_alpha 36.210520
_cell_angle_beta 48.095574
_cell_angle_gamma 20.658185
_cell_volume 579.247713
_symmetry_space_group_name_H-M "P -1"
_symmetry_group_IT_number 2
_symmetry_cell_setting 'triclinic'
loop_
_space_group_symop_operation_xyz
x,y,z
-x,-y,-z
loop_
_atom_site_type_symbol
_atom_site_label
_atom_site_fract_x
_atom_site_fract_y
_atom_site_fract_z
Si Si1 0.208846 0.235417 0.812336
Si Si2 0.575213 0.820128 0.335203
Si Si3 0.250159 0.144581 0.532806
Si Si4 0.768409 0.273259 0.449766
Si Si5 0.580880 0.329112 0.883039
Si Si6 0.544395 0.650382 0.451982
O O1 0.239459 0.346133 0.601697
O O2 0.284817 0.103529 0.737563
O O3 0.971930 0.518607 0.734288
O O4 0.326884 0.993913 0.165121
O O5 0.633954 0.604743 0.540899
O O6 0.401591 0.040359 0.374094
O O7 0.500000 0.000000 0.000000
O O8 0.295390 0.939855 0.757277
O O9 0.726092 0.186899 0.741418
O O10 0.626466 0.467684 0.189313
O O11 0.697809 0.467554 0.364531
O O12 0.000000 0.000000 0.500000
O O13 0.524081 0.526871 0.741888
#
# Coordination Sequence:
#
# PCOD8012495 Si02
#       6
#     2   2   2   2   2   2
#     4  10  21  40  60  88 112 155 197 234 285 347
#     4  10  23  40  55  85 123 155 191 233 295 345
#     4  11  21  39  63  85 118 151 195 243 287 337
#     4   9  17  35  59  86 113 153 188 232 288 339
#     4   9  19  37  57  90 111 142 199 243 275 342
#     4   9  19  41  57  86 119 145 195 236 285 347
#
# _framework density 20.716526000000002
#
# number of rings (size 3 to 8) (size 9 to 14) (size 15 to 20)
#    1.000    1.333    1.667    0.500    0.000    4.667 
#   21.000    0.833    0.000    0.000    0.000    0.000 
#    0.000    0.000    0.000    0.000    0.000    0.000 
#
# Total GULP energy -148673.155892 kJ/mol
# GULP energy per Si atom -12389.429658 kJ/mol
# Density = 2.066937 g / cm^3
# Si number density = 20.716526 Si / 1000 Ang^3
#
#
#
# Elastic Constant Matrix: (Units=GPa)
#
#
# Indices 1 2 3 4 5 6 
#
# 1 102.3464 12.4895 0.8423 -12.0215 -23.4296 3.8896
# 2 12.4895 68.3201 3.5489 -4.6867 -1.6066 -15.8546
# 3 0.8423 3.5489 66.4732 -6.9543 -10.5803 0.0697
# 4 -12.0215 -4.6867 -6.9543 24.1996 2.1671 -4.0152
# 5 -23.4296 -1.6066 -10.5803 2.1671 18.4312 -7.0954
# 6 3.8896 -15.8546 0.0697 -4.0152 -7.0954 26.1996
#
#
#
# Elastic Compliance Matrix: (Units=1/GPa)
#
#
# Indices 1 2 3 4 5 6 
#
# 1 0.015995 -0.001009 0.004410 0.007660 0.023638 0.004579
# 2 -0.001009 0.018371 0.000344 0.004922 0.005096 0.013400
# 3 0.004410 0.000344 0.018463 0.006877 0.017461 0.005287
# 4 0.007660 0.004922 0.006877 0.049012 0.013336 0.012946
# 5 0.023638 0.005096 0.017461 0.013336 0.104728 0.029934
# 6 0.004579 0.013400 0.005287 0.012946 0.029934 0.055675
#
#
# Mechanical properties :
#
#
# Convention : Reuss Voigt Hill
#
# Bulk Modulus (GPa) = 16.57876 30.10011 23.33943
# Shear Modulus (GPa) = 18.19120 28.45001 23.32061
#
# Velocity S-wave (km/s) = 2.96649 3.70983 3.35879
# Velocity P-wave (km/s) = 4.44449 5.73685 5.13152
#
# Compressibility (1/GPa) = 0.06031815
#
# Stress axis : x y z
#
# Youngs Moduli (GPa) = 62.52076 54.43405 54.16375
#
# Poissons Ratio (x) = 0.05493 -0.23887
# Poissons Ratio (y) = 0.06309 -0.01863
# Poissons Ratio (z) = -0.27573 -0.01873
#
# Static dielectric constant tensor:
#      x y z
#    x 4.261630 0.090060 -0.269170 
#    y 0.090060 3.447520 0.004680 
#    z -0.269170 0.004680 3.491630 
# 
# 
# High freq. dielectric constant tensor:
#      x y z
#    x 1.814360 0.005840 -0.012670 
#    y 0.005840 1.789560 0.001160 
#    z -0.012670 0.001160 1.792050 
# 
# From -- ./inp_files/348234.got.cif
#   From: 2010.06.25/outbox.cif.g09.slc.cpg/sg2_175_cif.got.tgz:348234.got - 2010.06.27 13:26:56.
