data_PCOD8012677
_publ_section_title
;
Structure prediction by ZEFSAII (Michael W. Deem and Ramdas Pophale) SiO2 
 PCOD8012677
Probable space group: P -1
;
_chemical_formula_sum "Si O2"
_cell_formula_units_Z 14
_cell_length_a 19.274871
_cell_length_b 12.423203
_cell_length_c 8.803537
_cell_angle_alpha 108.421479
_cell_angle_beta 110.818015
_cell_angle_gamma 19.081580
_cell_volume 642.798224
_symmetry_space_group_name_H-M "P -1"
_symmetry_group_IT_number 2
_symmetry_cell_setting 'triclinic'
loop_
_space_group_symop_operation_xyz
x,y,z
-x,-y,-z
loop_
_atom_site_type_symbol
_atom_site_label
_atom_site_fract_x
_atom_site_fract_y
_atom_site_fract_z
Si Si1 0.027303 0.555940 0.918335
Si Si2 0.089411 0.852375 0.166219
Si Si3 0.135270 0.028833 0.429515
Si Si4 0.645543 0.737360 0.868998
Si Si5 0.342255 0.913159 0.354626
Si Si6 0.176561 0.825741 0.636821
Si Si7 0.245009 0.262451 0.637602
O O1 0.173927 0.318010 0.775573
O O2 0.132952 0.508448 0.074573
O O3 0.789130 0.926005 0.831046
O O4 0.000000 0.500000 0.000000
O O5 0.302233 0.469325 0.150709
O O6 0.149873 0.884844 0.300836
O O7 0.903315 0.048183 0.196927
O O8 0.000000 0.000000 0.000000
O O9 0.906640 0.417042 0.391680
O O10 0.325928 0.831867 0.422938
O O11 0.174300 0.951305 0.605602
O O12 0.491291 0.958139 0.698051
O O13 0.500000 0.000000 0.000000
O O14 0.593118 0.568229 0.359713
O O15 0.234778 0.177009 0.468170
O O16 0.000000 0.000000 0.500000
#
# Coordination Sequence:
#
# PCOD8012677 Si02
#       7
#     2   2   2   2   2   2   2
#     4  10  22  38  60  95 129 156 203 262 312 361
#     4  11  22  40  61  87 125 165 202 250 310 375
#     4  10  21  40  62  93 126 159 205 261 308 359
#     4  10  22  41  63  90 122 162 204 249 309 374
#     4  11  22  42  65  92 125 167 212 258 306 365
#     4  10  23  39  59  89 122 159 206 254 307 367
#     4  10  21  40  67  92 123 168 210 254 307 367
#
# _framework density 21.779772999999999
#
# number of rings (size 3 to 8) (size 9 to 14) (size 15 to 20)
#    0.000    1.714    0.000    6.429    0.000    6.857 
#    0.000    8.571    0.000    0.000    0.000    0.000 
#    0.000    0.000    0.000    0.000    0.000    0.000 
#
# Total GULP energy -173454.348486 kJ/mol
# GULP energy per Si atom -12389.596320 kJ/mol
# Density = 2.173020 g / cm^3
# Si number density = 21.779773 Si / 1000 Ang^3
#
#
#
# Elastic Constant Matrix: (Units=GPa)
#
#
# Indices 1 2 3 4 5 6 
#
# 1 114.6814 47.5282 51.2788 1.9009 -0.4833 13.1179
# 2 47.5282 153.0536 40.9716 -1.6871 5.9768 5.0123
# 3 51.2788 40.9716 79.9653 -2.5843 -10.6573 -0.6400
# 4 1.9009 -1.6871 -2.5843 36.1071 3.1037 14.6327
# 5 -0.4833 5.9768 -10.6573 3.1037 45.9582 -1.1680
# 6 13.1179 5.0123 -0.6400 14.6327 -1.1680 37.8190
#
#
#
# Elastic Compliance Matrix: (Units=1/GPa)
#
#
# Indices 1 2 3 4 5 6 
#
# 1 0.013621 -0.001846 -0.008024 0.000778 -0.001656 -0.004968
# 2 -0.001846 0.008068 -0.003183 0.000744 -0.001878 -0.000829
# 3 -0.008024 -0.003183 0.019980 -0.000275 0.005078 0.003807
# 4 0.000778 0.000744 -0.000275 0.033314 -0.002741 -0.013347
# 5 -0.001656 -0.001878 0.005078 -0.002741 0.023417 0.002693
# 6 -0.004968 -0.000829 0.003807 -0.013347 0.002693 0.033587
#
#
# Mechanical properties :
#
#
# Convention : Reuss Voigt Hill
#
# Bulk Modulus (GPa) = 64.25478 69.69529 66.97504
# Shear Modulus (GPa) = 30.62213 37.83829 34.23021
#
# Velocity S-wave (km/s) = 3.75372 4.17263 3.96871
# Velocity P-wave (km/s) = 6.95365 7.43532 7.19852
#
# Compressibility (1/GPa) = 0.01556304
#
# Stress axis : x y z
#
# Youngs Moduli (GPa) = 73.41477 123.95387 50.04922
#
# Poissons Ratio (x) = 0.22879 0.40162
# Poissons Ratio (y) = 0.13551 0.15930
# Poissons Ratio (z) = 0.58911 0.39452
#
# Static dielectric constant tensor:
#      x y z
#    x 4.812140 -0.199830 0.320520 
#    y -0.199830 4.192050 -0.404090 
#    z 0.320520 -0.404090 4.222310 
# 
# 
# High freq. dielectric constant tensor:
#      x y z
#    x 1.850100 0.000510 0.002550 
#    y 0.000510 1.864740 -0.012830 
#    z 0.002550 -0.012830 1.851150 
# 
# From -- ./inp_files/279715.got.cif
#   From: 2010.06.25/outbox.cif.g09.slc.cpg/sg2_140_cif.got.tgz:279715.got - 2010.06.27 13:26:56.
