data_PCOD8012624
_publ_section_title
;
Structure prediction by ZEFSAII (Michael W. Deem and Ramdas Pophale) SiO2 
 PCOD8012624
Probable space group: P -1
;
_chemical_formula_sum "Si O2"
_cell_formula_units_Z 16
_cell_length_a 17.802928
_cell_length_b 11.508739
_cell_length_c 9.177253
_cell_angle_alpha 49.075163
_cell_angle_beta 103.534629
_cell_angle_gamma 62.789829
_cell_volume 768.012417
_symmetry_space_group_name_H-M "P -1"
_symmetry_group_IT_number 2
_symmetry_cell_setting 'triclinic'
loop_
_space_group_symop_operation_xyz
x,y,z
-x,-y,-z
loop_
_atom_site_type_symbol
_atom_site_label
_atom_site_fract_x
_atom_site_fract_y
_atom_site_fract_z
Si Si1 0.715447 0.399103 0.249063
Si Si2 0.144119 0.327762 0.041574
Si Si3 0.022028 0.219107 0.169081
Si Si4 0.222452 0.381167 0.775205
Si Si5 0.879759 0.272514 0.813807
Si Si6 0.577850 0.202813 0.691063
Si Si7 0.674709 0.353635 0.591654
Si Si8 0.464752 0.710757 0.720752
O O1 0.767175 0.483289 0.236379
O O2 0.686254 0.358196 0.420503
O O3 0.835633 0.106233 0.456739
O O4 0.576033 0.648932 0.885084
O O5 0.060966 0.306195 0.023496
O O6 0.305865 0.033880 0.403947
O O7 0.129488 0.416233 0.797798
O O8 0.070225 0.578195 0.902607
O O9 0.929197 0.255196 0.003843
O O10 0.171412 0.498558 0.492754
O O11 0.370579 0.056414 0.085934
O O12 0.768966 0.318949 0.751407
O O13 0.000000 0.000000 0.000000
O O14 0.702699 0.125567 0.826702
O O15 0.482755 0.362270 0.659319
O O16 0.499885 0.374968 0.362838
O O17 0.500000 0.500000 0.000000
#
# Coordination Sequence:
#
# PCOD8012624 Si02
#       8
#     2   2   2   2   2   2   2   2
#     4  11  21  39  65  86 126 163 201 255 317 367
#     4  10  24  41  63  93 123 162 209 263 302 369
#     4  11  22  43  62  90 128 164 208 251 313 375
#     4  10  23  40  61  91 121 160 204 260 312 357
#     4  11  23  41  62  88 123 173 198 246 314 374
#     4  10  22  40  62  94 121 154 211 263 303 367
#     4  10  21  40  62  87 125 160 203 253 312 364
#     4  11  20  39  66  86 119 164 204 255 309 363
#
# _framework density 20.832998
#
# number of rings (size 3 to 8) (size 9 to 14) (size 15 to 20)
#    0.000    1.500    5.000    0.750    0.000    8.000 
#    2.250    0.000    0.000    0.000    0.000    0.000 
#    0.000    0.000    0.000    0.000    0.000    0.000 
#
# Total GULP energy -198245.819502 kJ/mol
# GULP energy per Si atom -12390.363719 kJ/mol
# Density = 2.078558 g / cm^3
# Si number density = 20.832998 Si / 1000 Ang^3
#
#
#
# Elastic Constant Matrix: (Units=GPa)
#
#
# Indices 1 2 3 4 5 6 
#
# 1 86.7604 16.9652 29.4136 -6.9232 8.0756 3.3566
# 2 16.9652 95.0331 26.4467 -23.1753 5.3007 2.7813
# 3 29.4136 26.4467 77.9145 -8.8187 1.4042 -0.6870
# 4 -6.9232 -23.1753 -8.8187 31.5150 10.7496 2.4768
# 5 8.0756 5.3007 1.4042 10.7496 32.9786 0.8281
# 6 3.3566 2.7813 -0.6870 2.4768 0.8281 33.1539
#
#
#
# Elastic Compliance Matrix: (Units=1/GPa)
#
#
# Indices 1 2 3 4 5 6 
#
# 1 0.013873 -0.000083 -0.004785 0.003203 -0.004183 -0.001631
# 2 -0.000083 0.014909 -0.003554 0.012213 -0.006153 -0.002075
# 3 -0.004785 -0.003554 0.015884 0.000384 0.000915 0.001060
# 4 0.003203 0.012213 0.000384 0.048130 -0.018339 -0.004478
# 5 -0.004183 -0.006153 0.000915 -0.018339 0.038240 0.001374
# 6 -0.001631 -0.002075 0.001060 -0.004478 0.001374 0.030824
#
#
# Mechanical properties :
#
#
# Convention : Reuss Voigt Hill
#
# Bulk Modulus (GPa) = 35.94523 45.03989 40.49256
# Shear Modulus (GPa) = 26.59882 31.98835 29.29358
#
# Velocity S-wave (km/s) = 3.57706 3.92275 3.75389
# Velocity P-wave (km/s) = 5.86105 6.49490 6.18610
#
# Compressibility (1/GPa) = 0.02782010
#
# Stress axis : x y z
#
# Youngs Moduli (GPa) = 72.08475 67.07473 62.95647
#
# Poissons Ratio (x) = 0.00555 0.30128
# Poissons Ratio (y) = 0.00596 0.22377
# Poissons Ratio (z) = 0.34496 0.23841
#
# Static dielectric constant tensor:
#      x y z
#    x 3.551440 -0.122890 -0.184960 
#    y -0.122890 3.415380 -0.472880 
#    z -0.184960 -0.472880 3.584640 
# 
# 
# High freq. dielectric constant tensor:
#      x y z
#    x 1.827300 0.007110 -0.007710 
#    y 0.007110 1.822030 -0.011840 
#    z -0.007710 -0.011840 1.793100 
# 
# From -- ./inp_files/270481.got.cif
#   From: 2010.06.25/outbox.cif.g09.slc.cpg/sg2_136_cif.got.tgz:270481.got - 2010.06.27 13:26:56.
