data_PCOD8012914
_publ_section_title
;
Structure prediction by ZEFSAII (Michael W. Deem and Ramdas Pophale) SiO2 
 PCOD8012914
Probable space group: P -1
;
_chemical_formula_sum "Si O2"
_cell_formula_units_Z 14
_cell_length_a 24.308929
_cell_length_b 11.328609
_cell_length_c 15.091378
_cell_angle_alpha 28.979385
_cell_angle_beta 159.040247
_cell_angle_gamma 150.834316
_cell_volume 681.199213
_symmetry_space_group_name_H-M "P -1"
_symmetry_group_IT_number 2
_symmetry_cell_setting 'triclinic'
loop_
_space_group_symop_operation_xyz
x,y,z
-x,-y,-z
loop_
_atom_site_type_symbol
_atom_site_label
_atom_site_fract_x
_atom_site_fract_y
_atom_site_fract_z
Si Si1 0.922164 0.927538 0.672018
Si Si2 0.136303 0.626958 0.245152
Si Si3 0.383661 0.098761 0.393520
Si Si4 0.437784 0.665828 0.869096
Si Si5 0.358611 0.408943 0.619626
Si Si6 0.934532 0.803858 0.108553
Si Si7 0.933018 0.579683 0.530614
O O1 0.965614 0.083445 0.726478
O O2 0.992187 0.114722 0.570811
O O3 0.725761 0.794438 0.451970
O O4 0.001819 0.699783 0.938670
O O5 0.201431 0.425318 0.425617
O O6 0.053328 0.504186 0.293232
O O7 0.290891 0.884753 0.323018
O O8 0.537481 0.313582 0.442964
O O9 0.450022 0.950070 0.666716
O O10 0.257895 0.239831 0.145628
O O11 0.254115 0.508532 0.722665
O O12 0.500000 0.500000 0.000000
O O13 0.538762 0.707916 0.083870
O O14 0.963476 0.539002 0.301615
O O15 0.000000 0.000000 0.000000
#
# Coordination Sequence:
#
# PCOD8012914 Si02
#       7
#     2   2   2   2   2   2   2
#     4  11  25  38  63  96 124 166 200 263 308 361
#     4  10  21  40  64  91 124 170 204 249 299 378
#     4  10  22  39  68  90 120 171 204 254 296 369
#     4  11  21  38  63  94 121 163 204 249 303 368
#     4  12  24  39  58 100 135 154 201 253 328 360
#     4  11  20  47  69  84 117 167 226 245 293 372
#     4  11  22  42  70  89 119 166 219 247 297 371
#
# _framework density 20.551991999999998
#
# number of rings (size 3 to 8) (size 9 to 14) (size 15 to 20)
#    0.000    1.143    7.143    3.000    2.000    1.714 
#    0.000    3.571    0.000    0.000    0.000    0.000 
#    0.000    0.000    0.000    0.000    0.000    0.000 
#
# Total GULP energy -173573.800705 kJ/mol
# GULP energy per Si atom -12398.128622 kJ/mol
# Density = 2.050521 g / cm^3
# Si number density = 20.551992 Si / 1000 Ang^3
#
#
#
# Elastic Constant Matrix: (Units=GPa)
#
#
# Indices 1 2 3 4 5 6 
#
# 1 68.2314 42.5410 39.5457 -4.6185 6.6836 7.3938
# 2 42.5410 85.2787 55.8962 6.2390 -30.6311 21.1556
# 3 39.5457 55.8962 146.2206 -3.4917 -12.3736 3.0259
# 4 -4.6185 6.2390 -3.4917 19.1243 -5.5080 3.9015
# 5 6.6836 -30.6311 -12.3736 -5.5080 38.6402 -8.4021
# 6 7.3938 21.1556 3.0259 3.9015 -8.4021 18.1980
#
#
#
# Elastic Compliance Matrix: (Units=1/GPa)
#
#
# Indices 1 2 3 4 5 6 
#
# 1 0.035995 -0.029024 -0.000815 0.009226 -0.027150 0.004739
# 2 -0.029024 0.053395 -0.009072 -0.009454 0.036606 -0.029844
# 3 -0.000815 -0.009072 0.010283 0.002554 -0.001689 0.007841
# 4 0.009226 -0.009454 0.002554 0.059015 -0.001255 -0.006415
# 5 -0.027150 0.036606 -0.001689 -0.001255 0.057958 -0.004215
# 6 0.004739 -0.029844 0.007841 -0.006415 -0.004215 0.085846
#
#
# Mechanical properties :
#
#
# Convention : Reuss Voigt Hill
#
# Bulk Modulus (GPa) = 45.76609 63.96627 54.86618
# Shear Modulus (GPa) = 12.89992 25.97569 19.43781
#
# Velocity S-wave (km/s) = 2.50806 3.55900 3.07870
# Velocity P-wave (km/s) = 5.54111 6.93400 6.27631
#
# Compressibility (1/GPa) = 0.02185024
#
# Stress axis : x y z
#
# Youngs Moduli (GPa) = 27.78175 18.72828 97.24515
#
# Poissons Ratio (x) = 0.54358 0.07924
# Poissons Ratio (y) = 0.80635 0.88224
# Poissons Ratio (z) = 0.02264 0.16991
#
# Static dielectric constant tensor:
#      x y z
#    x -13.544290 7.293670 -14.073130 
#    y 7.293670 0.522020 5.795760 
#    z -14.073130 5.795760 -7.431900 
# 
# 
# High freq. dielectric constant tensor:
#      x y z
#    x 1.794100 0.010890 -0.006880 
#    y 0.010890 1.788230 -0.009840 
#    z -0.006880 -0.009840 1.822000 
# 
# From -- ./inp_files/255660.got.cif
#   From: 2010.06.25/outbox.cif.g09.slc.cpg/sg2_128_cif.got.tgz:255660.got - 2010.06.27 13:26:56.
