data_PCOD8012188
_publ_section_title
;
Structure prediction by ZEFSAII (Michael W. Deem and Ramdas Pophale) SiO2 
 PCOD8012188
Probable space group: P -1
;
_chemical_formula_sum "Si O2"
_cell_formula_units_Z 16
_cell_length_a 10.938513
_cell_length_b 19.827781
_cell_length_c 16.390508
_cell_angle_alpha 149.682018
_cell_angle_beta 157.144555
_cell_angle_gamma 32.217589
_cell_volume 673.416920
_symmetry_space_group_name_H-M "P -1"
_symmetry_group_IT_number 2
_symmetry_cell_setting 'triclinic'
loop_
_space_group_symop_operation_xyz
x,y,z
-x,-y,-z
loop_
_atom_site_type_symbol
_atom_site_label
_atom_site_fract_x
_atom_site_fract_y
_atom_site_fract_z
Si Si1 0.559077 0.890415 0.801864
Si Si2 0.224450 0.907516 0.185385
Si Si3 0.068876 0.789246 0.662091
Si Si4 0.345901 0.188965 0.048895
Si Si5 0.543542 0.646625 0.209815
Si Si6 0.130907 0.719024 0.288826
Si Si7 0.518791 0.750966 0.053832
Si Si8 0.616235 0.525086 0.291024
O O1 0.297542 0.843272 0.536057
O O2 0.366118 0.032712 0.872439
O O3 0.706537 0.787510 0.861378
O O4 0.842293 0.913505 0.940040
O O5 0.307880 0.787466 0.179126
O O6 0.448234 0.871231 0.204351
O O7 0.219234 0.065362 0.375179
O O8 0.910945 0.659379 0.429984
O O9 0.317700 0.769475 0.719610
O O10 0.258461 0.796847 0.870295
O O11 0.054403 0.279034 0.909209
O O12 0.483183 0.644428 0.267045
O O13 0.500000 0.500000 0.000000
O O14 0.434940 0.580805 0.323680
O O15 0.888241 0.716798 0.212448
O O16 0.468525 0.618086 0.932692
O O17 0.000000 0.500000 0.500000
#
# Coordination Sequence:
#
# PCOD8012188 Si02
#       8
#     2   2   2   2   2   2   2   2
#     4  10  21  39  67  94 135 180 218 281 334 401
#     4  11  23  43  68 101 133 173 233 269 344 402
#     4  10  23  42  68  98 135 179 219 287 332 400
#     4   9  21  42  62  98 137 172 227 275 339 404
#     4  12  25  41  68  98 135 178 224 284 337 395
#     4  11  24  40  66  97 131 179 222 276 344 400
#     4  11  23  44  66  98 134 175 223 279 337 406
#     4  12  24  45  67  90 134 177 226 273 332 410
#
# _framework density 23.759426999999999
#
# number of rings (size 3 to 8) (size 9 to 14) (size 15 to 20)
#    0.000    1.250    2.500    3.000    1.750    0.000 
#    4.500    0.000    0.000    6.000    0.000    0.000 
#    0.000    0.000    0.000    0.000    0.000    0.000 
#
# Total GULP energy -198285.775025 kJ/mol
# GULP energy per Si atom -12392.860939 kJ/mol
# Density = 2.370535 g / cm^3
# Si number density = 23.759427 Si / 1000 Ang^3
#
#
#
# Elastic Constant Matrix: (Units=GPa)
#
#
# Indices 1 2 3 4 5 6 
#
# 1 113.4450 36.6247 32.0892 -4.2004 21.0344 -16.7196
# 2 36.6247 92.6847 32.6922 3.8679 9.6180 -0.8372
# 3 32.0892 32.6922 79.5938 20.4110 16.4081 -10.4565
# 4 -4.2004 3.8679 20.4110 36.9678 6.2305 5.1371
# 5 21.0344 9.6180 16.4081 6.2305 30.5532 -4.6238
# 6 -16.7196 -0.8372 -10.4565 5.1371 -4.6238 45.7197
#
#
#
# Elastic Compliance Matrix: (Units=1/GPa)
#
#
# Indices 1 2 3 4 5 6 
#
# 1 0.012488 -0.003345 -0.003066 0.004155 -0.006337 0.002697
# 2 -0.003345 0.013771 -0.004912 0.001196 0.000025 -0.002226
# 3 -0.003066 -0.004912 0.019991 -0.010728 -0.004265 0.004135
# 4 0.004155 0.001196 -0.010728 0.034984 -0.005426 -0.005392
# 5 -0.006337 0.000025 -0.004265 -0.005426 0.040699 0.001433
# 6 0.002697 -0.002226 0.004135 -0.005392 0.001433 0.024514
#
#
# Mechanical properties :
#
#
# Convention : Reuss Voigt Hill
#
# Bulk Modulus (GPa) = 42.36442 54.28173 48.32307
# Shear Modulus (GPa) = 28.25475 34.93597 31.59536
#
# Velocity S-wave (km/s) = 3.45222 3.83875 3.65060
# Velocity P-wave (km/s) = 5.81031 6.52257 6.17672
#
# Compressibility (1/GPa) = 0.02360471
#
# Stress axis : x y z
#
# Youngs Moduli (GPa) = 80.07568 72.61621 50.02272
#
# Poissons Ratio (x) = 0.24289 0.15335
# Poissons Ratio (y) = 0.26784 0.24572
# Poissons Ratio (z) = 0.24549 0.35671
#
# Static dielectric constant tensor:
#      x y z
#    x 4.450630 0.269170 0.231050 
#    y 0.269170 4.331590 -0.130850 
#    z 0.231050 -0.130850 4.295130 
# 
# 
# High freq. dielectric constant tensor:
#      x y z
#    x 1.942390 0.003970 0.019690 
#    y 0.003970 1.935340 -0.009970 
#    z 0.019690 -0.009970 1.945140 
# 
# From -- ./inp_files/180482.got.cif
#   From: 2010.06.25/outbox.cif.g09.slc.cpg/sg2_91_cif.got.tgz:180482.got - 2010.06.27 13:26:56.
