data_PCOD8012441
_publ_section_title
;
Structure prediction by ZEFSAII (Michael W. Deem and Ramdas Pophale) SiO2 
 PCOD8012441
Probable space group: P -1
;
_chemical_formula_sum "Si O2"
_cell_formula_units_Z 14
_cell_length_a 18.292363
_cell_length_b 9.576798
_cell_length_c 12.705270
_cell_angle_alpha 97.792196
_cell_angle_beta 157.486513
_cell_angle_gamma 70.783446
_cell_volume 712.049309
_symmetry_space_group_name_H-M "P -1"
_symmetry_group_IT_number 2
_symmetry_cell_setting 'triclinic'
loop_
_space_group_symop_operation_xyz
x,y,z
-x,-y,-z
loop_
_atom_site_type_symbol
_atom_site_label
_atom_site_fract_x
_atom_site_fract_y
_atom_site_fract_z
Si Si1 0.321300 0.447175 0.262909
Si Si2 0.158054 0.315868 0.636497
Si Si3 0.590423 0.629774 0.854469
Si Si4 0.511103 0.659133 0.308336
Si Si5 0.645016 0.052563 0.303193
Si Si6 0.829804 0.688529 0.581523
Si Si7 0.973155 0.098900 0.369977
O O1 0.500000 0.500000 0.500000
O O2 0.347733 0.347299 0.179900
O O3 0.375982 0.337405 0.430241
O O4 0.067647 0.609141 0.950792
O O5 0.114913 0.393496 0.470158
O O6 0.981567 0.262390 0.425226
O O7 0.184940 0.427127 0.775414
O O8 0.399523 0.134648 0.928751
O O9 0.519405 0.496643 0.753896
O O10 0.382541 0.808025 0.635458
O O11 0.670184 0.640777 0.422206
O O12 0.272021 0.833510 0.999555
O O13 0.713080 0.887439 0.442369
O O14 0.838113 0.022128 0.475189
O O15 0.000000 0.000000 0.500000
#
# Coordination Sequence:
#
# PCOD8012441 Si02
#       7
#     2   2   2   2   2   2   2
#     4  10  21  40  59  80 114 159 194 227 285 346
#     4   9  19  35  59  83 118 142 194 228 294 324
#     4   9  21  38  58  86 118 148 191 241 285 325
#     4  11  23  38  57  86 117 152 195 231 284 344
#     4   9  19  37  57  86 112 149 189 234 287 329
#     4  11  20  37  62  82 113 156 188 234 286 347
#     4  11  20  36  62  86 114 155 187 232 289 350
#
# _framework density 19.661560999999999
#
# number of rings (size 3 to 8) (size 9 to 14) (size 15 to 20)
#    0.857    1.143    0.000    7.286    0.000    2.857 
#    2.571    7.143    0.000    0.000    0.000    0.000 
#    0.000    0.000    0.000    0.000    0.000    0.000 
#
# Total GULP energy -173538.936638 kJ/mol
# GULP energy per Si atom -12395.638331 kJ/mol
# Density = 1.961681 g / cm^3
# Si number density = 19.661561 Si / 1000 Ang^3
#
#
#
# Elastic Constant Matrix: (Units=GPa)
#
#
# Indices 1 2 3 4 5 6 
#
# 1 149.2202 60.5062 53.5744 2.9853 -18.5296 16.1375
# 2 60.5062 61.8635 25.9138 -4.2994 -5.7192 0.0262
# 3 53.5744 25.9138 141.7150 -3.7408 -13.9293 7.4952
# 4 2.9853 -4.2994 -3.7408 25.3871 4.2859 0.6198
# 5 -18.5296 -5.7192 -13.9293 4.2859 35.4667 0.1307
# 6 16.1375 0.0262 7.4952 0.6198 0.1307 33.8248
#
#
#
# Elastic Compliance Matrix: (Units=1/GPa)
#
#
# Indices 1 2 3 4 5 6 
#
# 1 0.014023 -0.012619 -0.002308 -0.004820 0.004990 -0.006100
# 2 -0.012619 0.029099 -0.001005 0.006641 -0.003120 0.006111
# 3 -0.002308 -0.001005 0.008357 0.001049 0.001791 -0.000776
# 4 -0.004820 0.006641 0.001049 0.042241 -0.006144 0.001311
# 5 0.004990 -0.003120 0.001791 -0.006144 0.031755 -0.002785
# 6 -0.006100 0.006111 -0.000776 0.001311 -0.002785 0.032628
#
#
# Mechanical properties :
#
#
# Convention : Reuss Voigt Hill
#
# Bulk Modulus (GPa) = 50.98254 70.30973 60.64613
# Shear Modulus (GPa) = 25.44452 33.12269 29.28361
#
# Velocity S-wave (km/s) = 3.60130 4.10889 3.86344
# Velocity P-wave (km/s) = 6.57866 7.63860 7.12836
#
# Compressibility (1/GPa) = 0.01961456
#
# Stress axis : x y z
#
# Youngs Moduli (GPa) = 71.31271 34.36586 119.65502
#
# Poissons Ratio (x) = 0.43368 0.27614
# Poissons Ratio (y) = 0.89993 0.12024
# Poissons Ratio (z) = 0.16457 0.03453
#
# Static dielectric constant tensor:
#      x y z
#    x 4.092190 -0.094840 -0.256250 
#    y -0.094840 3.289560 -0.112310 
#    z -0.256250 -0.112310 4.034650 
# 
# 
# High freq. dielectric constant tensor:
#      x y z
#    x 1.772870 -0.004740 0.003340 
#    y -0.004740 1.739160 -0.012490 
#    z 0.003340 -0.012490 1.791150 
# 
# From -- ./inp_files/540255.got.cif
#   From: 2010.06.25/outbox.cif.g09.slc.cpg/sg2_271_cif.got.tgz:540255.got - 2010.06.27 13:26:56.
