data_PCOD8012733
_publ_section_title
;
Structure prediction by ZEFSAII (Michael W. Deem and Ramdas Pophale) SiO2 
 PCOD8012733
Probable space group: P -1
;
_chemical_formula_sum "Si O2"
_cell_formula_units_Z 10
_cell_length_a 11.596959
_cell_length_b 6.809016
_cell_length_c 8.992046
_cell_angle_alpha 107.303204
_cell_angle_beta 59.699480
_cell_angle_gamma 134.726436
_cell_volume 433.629103
_symmetry_space_group_name_H-M "P -1"
_symmetry_group_IT_number 2
_symmetry_cell_setting 'triclinic'
loop_
_space_group_symop_operation_xyz
x,y,z
-x,-y,-z
loop_
_atom_site_type_symbol
_atom_site_label
_atom_site_fract_x
_atom_site_fract_y
_atom_site_fract_z
Si Si1 0.299327 0.368502 0.134393
Si Si2 0.209543 0.495423 0.937928
Si Si3 0.498762 0.258869 0.415873
Si Si4 0.252072 0.655859 0.472882
Si Si5 0.941893 0.244222 0.790738
O O1 0.297278 0.571885 0.279117
O O2 0.192488 0.082300 0.230225
O O3 0.500000 0.500000 0.000000
O O4 0.194865 0.310212 0.035451
O O5 0.414187 0.698107 0.791100
O O6 0.073694 0.303282 0.849275
O O7 0.176401 0.688147 0.063808
O O8 0.500000 0.500000 0.500000
O O9 0.618589 0.279518 0.466825
O O10 0.299550 0.946583 0.475298
O O11 0.046411 0.417732 0.610199
#
# Coordination Sequence:
#
# PCOD8012733 Si02
#       5
#     2   2   2   2   2
#     4  12  24  39  64  95 126 160 203 256 308 358
#     4  10  23  41  64  89 122 164 208 248 302 367
#     4  10  21  40  63  87 122 164 202 248 306 365
#     4  10  23  39  60  92 123 158 206 251 302 365
#     4  10  23  43  63  89 127 165 203 250 303 366
#
# _framework density 23.061181999999999
#
# number of rings (size 3 to 8) (size 9 to 14) (size 15 to 20)
#    0.000    1.600    0.000    3.600    0.000   15.200 
#    0.000    0.000    0.000    0.000    0.000    0.000 
#    0.000    0.000    0.000    0.000    0.000    0.000 
#
# Total GULP energy -123989.419280 kJ/mol
# GULP energy per Si atom -12398.941928 kJ/mol
# Density = 2.300869 g / cm^3
# Si number density = 23.061182 Si / 1000 Ang^3
#
#
#
# Elastic Constant Matrix: (Units=GPa)
#
#
# Indices 1 2 3 4 5 6 
#
# 1 -230.9081 59.1566 38.5644 -17.0933 -54.8413 -72.3452
# 2 59.1566 208.7837 71.8667 -17.3223 -24.0469 -4.3699
# 3 38.5644 71.8667 161.1797 -11.2966 -20.6425 -2.5473
# 4 -17.0933 -17.3223 -11.2966 39.9529 -4.3514 -3.1799
# 5 -54.8413 -24.0469 -20.6425 -4.3514 24.5765 -8.7775
# 6 -72.3452 -4.3699 -2.5473 -3.1799 -8.7775 9.6794
#
#
#
# Elastic Compliance Matrix: (Units=1/GPa)
#
#
# Indices 1 2 3 4 5 6 
#
# 1 -0.000375 -0.000668 -0.000591 -0.001921 -0.005494 -0.008870
# 2 -0.000668 0.006420 -0.001906 0.002634 0.004491 0.002340
# 3 -0.000591 -0.001906 0.007850 0.001666 0.004073 0.001031
# 4 -0.001921 0.002634 0.001666 0.026263 0.004249 -0.000252
# 5 -0.005494 0.004491 0.004073 0.004249 0.035404 -0.004462
# 6 -0.008870 0.002340 0.001031 -0.000252 -0.004462 0.034215
#
#
# Mechanical properties :
#
#
# Convention : Reuss Voigt Hill
#
# Bulk Modulus (GPa) = 132.17911 53.13672 92.65792
# Shear Modulus (GPa) = 42.14782 12.80627 27.47704
#
# Velocity S-wave (km/s) = 4.27974 2.35907 3.45553
# Velocity P-wave (km/s) = 9.04780 5.52376 7.49582
#
# Compressibility (1/GPa) = 0.00756549
#
# Stress axis : x y z
#
# Youngs Moduli (GPa) = -2670.07079 155.76773 127.38654
#
# Poissons Ratio (x) = 0.10411 0.07527
# Poissons Ratio (y) = -1.78454 0.24277
# Poissons Ratio (z) = -1.57768 0.29685
#
# Static dielectric constant tensor:
#      x y z
#    x 4.068600 -0.076330 0.048180 
#    y -0.076330 4.332960 -0.421490 
#    z 0.048180 -0.421490 4.349110 
# 
# 
# High freq. dielectric constant tensor:
#      x y z
#    x 1.905620 -0.007660 0.003050 
#    y -0.007660 1.915590 -0.009420 
#    z 0.003050 -0.009420 1.920540 
# 
# From -- ./inp_files/15261.got.cif
#   From: 2010.06.25/outbox.cif.g09.slc.cpg/sg2_8_cif.got.tgz:15261.got - 2010.06.27 13:26:56.
