data_PCOD8012954
_publ_section_title
;
Structure prediction by ZEFSAII (Michael W. Deem and Ramdas Pophale) SiO2 
 PCOD8012954
Probable space group: P -1
;
_chemical_formula_sum "Si O2"
_cell_formula_units_Z 16
_cell_length_a 9.361388
_cell_length_b 17.159969
_cell_length_c 8.912531
_cell_angle_alpha 116.597525
_cell_angle_beta 48.422096
_cell_angle_gamma 85.343973
_cell_volume 789.791110
_symmetry_space_group_name_H-M "P -1"
_symmetry_group_IT_number 2
_symmetry_cell_setting 'triclinic'
loop_
_space_group_symop_operation_xyz
x,y,z
-x,-y,-z
loop_
_atom_site_type_symbol
_atom_site_label
_atom_site_fract_x
_atom_site_fract_y
_atom_site_fract_z
Si Si1 0.172513 0.805787 0.423560
Si Si2 0.901706 0.499383 0.912490
Si Si3 0.213204 0.402541 0.348127
Si Si4 0.381323 0.583492 0.024911
Si Si5 0.654554 0.726958 0.123107
Si Si6 0.044085 0.901901 0.293797
Si Si7 0.615790 0.910462 0.467491
Si Si8 0.838437 0.019293 0.989287
O O1 0.196579 0.695691 0.332527
O O2 0.375151 0.800587 0.373523
O O3 0.196787 0.807757 0.224775
O O4 0.934900 0.907738 0.740770
O O5 0.746612 0.454965 0.019674
O O6 0.126820 0.409846 0.583265
O O7 0.751865 0.616270 0.044677
O O8 0.000000 0.500000 0.000000
O O9 0.000000 0.500000 0.500000
O O10 0.434459 0.409689 0.195252
O O11 0.265883 0.299614 0.130318
O O12 0.500000 0.500000 0.000000
O O13 0.734416 0.795337 0.206408
O O14 0.169584 0.895580 0.044999
O O15 0.808486 0.912354 0.426760
O O16 0.000000 0.000000 0.500000
O O17 0.500000 0.000000 0.500000
O O18 0.423331 0.930434 0.737383
O O19 0.000000 0.000000 0.000000
#
# Coordination Sequence:
#
# PCOD8012954 Si02
#       8
#     2   2   2   2   2   2   2   2
#     4  10  21  40  64  94 126 170 212 260 317 375
#     4  11  24  42  65  95 130 161 211 269 308 376
#     4   9  19  40  63  90 119 165 210 247 315 374
#     4  11  20  40  67  90 126 170 212 255 313 380
#     4  10  21  41  64  90 129 166 212 255 313 382
#     4  10  23  42  62  89 133 162 213 268 305 378
#     4  12  23  40  66  96 126 166 213 260 314 375
#     4  11  21  42  65  94 128 168 207 259 321 370
#
# _framework density 20.258521999999999
#
# number of rings (size 3 to 8) (size 9 to 14) (size 15 to 20)
#    0.000    1.500    6.250    0.750    1.750    3.500 
#    4.500    2.500    0.000    0.000    0.000    0.000 
#    0.000    0.000    0.000    0.000    0.000    0.000 
#
# Total GULP energy -198222.378328 kJ/mol
# GULP energy per Si atom -12388.898646 kJ/mol
# Density = 2.021241 g / cm^3
# Si number density = 20.258522 Si / 1000 Ang^3
#
#
#
# Elastic Constant Matrix: (Units=GPa)
#
#
# Indices 1 2 3 4 5 6 
#
# 1 151.9885 48.5559 47.5269 -8.8301 9.5645 21.4475
# 2 48.5559 93.0053 47.6611 4.0334 7.3312 9.0338
# 3 47.5269 47.6611 125.4566 -8.1207 8.9756 13.5974
# 4 -8.8301 4.0334 -8.1207 40.0872 4.8990 5.7335
# 5 9.5645 7.3312 8.9756 4.8990 31.4477 -2.4889
# 6 21.4475 9.0338 13.5974 5.7335 -2.4889 40.9739
#
#
#
# Elastic Compliance Matrix: (Units=1/GPa)
#
#
# Indices 1 2 3 4 5 6 
#
# 1 0.009017 -0.003622 -0.001241 0.002965 -0.002328 -0.004066
# 2 -0.003622 0.015139 -0.004605 -0.003257 -0.000566 0.000508
# 3 -0.001241 -0.004605 0.010820 0.003020 -0.002305 -0.002489
# 4 0.002965 -0.003257 0.003020 0.028132 -0.005872 -0.006129
# 5 -0.002328 -0.000566 -0.002305 -0.005872 0.034610 0.005032
# 6 -0.004066 0.000508 -0.002489 -0.006129 0.005032 0.028411
#
#
# Mechanical properties :
#
#
# Convention : Reuss Voigt Hill
#
# Bulk Modulus (GPa) = 62.33715 73.10424 67.72069
# Shear Modulus (GPa) = 33.24200 37.61551 35.42875
#
# Velocity S-wave (km/s) = 4.05518 4.31371 4.18644
# Velocity P-wave (km/s) = 7.26386 7.80863 7.54117
#
# Compressibility (1/GPa) = 0.01604180
#
# Stress axis : x y z
#
# Youngs Moduli (GPa) = 110.90094 66.05343 92.41853
#
# Poissons Ratio (x) = 0.23924 0.11468
# Poissons Ratio (y) = 0.40167 0.42556
# Poissons Ratio (z) = 0.13761 0.30416
#
# Static dielectric constant tensor:
#      x y z
#    x 3.627990 -0.497090 0.261650 
#    y -0.497090 3.224790 0.534650 
#    z 0.261650 0.534650 3.912270 
# 
# 
# High freq. dielectric constant tensor:
#      x y z
#    x 1.797530 0.001400 0.006090 
#    y 0.001400 1.786460 0.009460 
#    z 0.006090 0.009460 1.785750 
# 
# From -- ./inp_files/215422.got.cif
#   From: 2010.06.25/outbox.cif.g09.slc.cpg/sg2_108_cif.got.tgz:215422.got - 2010.06.27 13:26:56.
