data_PCOD8012751
_publ_section_title
;
Structure prediction by ZEFSAII (Michael W. Deem and Ramdas Pophale) SiO2 
 PCOD8012751
Probable space group: P -1
;
_chemical_formula_sum "Si O2"
_cell_formula_units_Z 16
_cell_length_a 12.683480
_cell_length_b 15.360680
_cell_length_c 8.204068
_cell_angle_alpha 65.064966
_cell_angle_beta 111.627868
_cell_angle_gamma 56.580455
_cell_volume 735.781246
_symmetry_space_group_name_H-M "P -1"
_symmetry_group_IT_number 2
_symmetry_cell_setting 'triclinic'
loop_
_space_group_symop_operation_xyz
x,y,z
-x,-y,-z
loop_
_atom_site_type_symbol
_atom_site_label
_atom_site_fract_x
_atom_site_fract_y
_atom_site_fract_z
Si Si1 0.721832 0.831243 0.459860
Si Si2 0.347390 0.987163 0.292664
Si Si3 0.967774 0.359969 0.945783
Si Si4 0.769788 0.171665 0.171248
Si Si5 0.564553 0.138860 0.208120
Si Si6 0.226685 0.873370 0.171987
Si Si7 0.595852 0.483466 0.722798
Si Si8 0.810820 0.626274 0.409338
O O1 0.509674 0.937595 0.327518
O O2 0.925580 0.665913 0.815906
O O3 0.753610 0.769448 0.343815
O O4 0.705016 0.958497 0.341814
O O5 0.466749 0.865845 0.617294
O O6 0.263114 0.959342 0.159453
O O7 0.147184 0.192115 0.063149
O O8 0.806268 0.391599 0.875203
O O9 0.837388 0.534463 0.645486
O O10 0.658640 0.177286 0.223932
O O11 0.752255 0.154187 0.986973
O O12 0.667195 0.350216 0.996570
O O13 0.000000 0.000000 0.500000
O O14 0.354557 0.297673 0.867219
O O15 0.409304 0.684753 0.520845
O O16 0.000000 0.000000 0.000000
O O17 0.500000 0.500000 0.500000
O O18 0.000000 0.500000 0.500000
#
# Coordination Sequence:
#
# PCOD8012751 Si02
#       8
#     2   2   2   2   2   2   2   2
#     4  11  23  42  62  88 126 170 205 247 317 392
#     4  11  22  42  66  90 123 168 212 252 313 392
#     4  11  22  40  65  91 123 168 211 256 315 385
#     4  11  22  41  64  91 124 160 209 272 320 363
#     4  11  23  40  62  90 122 159 204 263 316 367
#     4  11  23  41  65  91 123 171 217 257 314 384
#     4  10  21  40  63  89 123 167 210 256 312 379
#     4  12  24  38  60  94 126 157 205 263 310 364
#
# _framework density 21.745594000000001
#
# number of rings (size 3 to 8) (size 9 to 14) (size 15 to 20)
#    0.000    1.000    0.000   10.500    0.000    2.000 
#    0.000    3.750    0.000    0.000    0.000    0.000 
#    0.000    0.000    0.000    0.000    0.000    0.000 
#
# Total GULP energy -198364.297464 kJ/mol
# GULP energy per Si atom -12397.768592 kJ/mol
# Density = 2.169610 g / cm^3
# Si number density = 21.745594 Si / 1000 Ang^3
#
#
#
# Elastic Constant Matrix: (Units=GPa)
#
#
# Indices 1 2 3 4 5 6 
#
# 1 93.6204 28.6994 27.0540 -3.6104 5.2923 5.6646
# 2 28.6994 65.7559 2.5515 -8.4243 15.6956 -2.0359
# 3 27.0540 2.5515 121.6867 -4.8373 11.7678 2.6971
# 4 -3.6104 -8.4243 -4.8373 28.6617 7.8639 5.9617
# 5 5.2923 15.6956 11.7678 7.8639 44.5129 -1.7896
# 6 5.6646 -2.0359 2.6971 5.9617 -1.7896 31.6641
#
#
#
# Elastic Compliance Matrix: (Units=1/GPa)
#
#
# Indices 1 2 3 4 5 6 
#
# 1 0.013502 -0.006247 -0.002972 -0.000518 0.001379 -0.002388
# 2 -0.006247 0.020943 0.002094 0.008022 -0.008601 0.000289
# 3 -0.002972 0.002094 0.009298 0.002922 -0.003394 -0.000868
# 4 -0.000518 0.008022 0.002922 0.042523 -0.011385 -0.008290
# 5 0.001379 -0.008601 -0.003394 -0.011385 0.028373 0.003237
# 6 -0.002388 0.000289 -0.000868 -0.008290 0.003237 0.033845
#
#
# Mechanical properties :
#
#
# Convention : Reuss Voigt Hill
#
# Bulk Modulus (GPa) = 33.90628 44.18585 39.04606
# Shear Modulus (GPa) = 28.97455 35.81828 32.39642
#
# Velocity S-wave (km/s) = 3.65421 4.06291 3.86397
# Velocity P-wave (km/s) = 5.78191 6.50947 6.15645
#
# Compressibility (1/GPa) = 0.02949306
#
# Stress axis : x y z
#
# Youngs Moduli (GPa) = 74.06401 47.74931 107.54691
#
# Poissons Ratio (x) = 0.29829 0.31961
# Poissons Ratio (y) = 0.46268 -0.22520
# Poissons Ratio (z) = 0.22010 -0.09999
#
# Static dielectric constant tensor:
#      x y z
#    x 4.028670 0.355570 -0.122580 
#    y 0.355570 4.061840 -0.106760 
#    z -0.122580 -0.106760 4.396130 
# 
# 
# High freq. dielectric constant tensor:
#      x y z
#    x 1.859910 0.017580 0.005020 
#    y 0.017580 1.846330 -0.000780 
#    z 0.005020 -0.000780 1.876680 
# 
# From -- ./inp_files/272191.got.cif
#   From: 2010.06.25/outbox.cif.g09.slc.cpg/sg2_137_cif.got.tgz:272191.got - 2010.06.27 13:26:56.
