data_PCOD8012346
_publ_section_title
;
Structure prediction by ZEFSAII (Michael W. Deem and Ramdas Pophale) SiO2 
 PCOD8012346
Probable space group: P -1
;
_chemical_formula_sum "Si O2"
_cell_formula_units_Z 16
_cell_length_a 16.827270
_cell_length_b 18.450071
_cell_length_c 7.806663
_cell_angle_alpha 144.261236
_cell_angle_beta 145.321797
_cell_angle_gamma 33.886328
_cell_volume 702.404669
_symmetry_space_group_name_H-M "P -1"
_symmetry_group_IT_number 2
_symmetry_cell_setting 'triclinic'
loop_
_space_group_symop_operation_xyz
x,y,z
-x,-y,-z
loop_
_atom_site_type_symbol
_atom_site_label
_atom_site_fract_x
_atom_site_fract_y
_atom_site_fract_z
Si Si1 0.942938 0.144917 0.273920
Si Si2 0.571406 0.269681 0.903775
Si Si3 0.422802 0.166222 0.153794
Si Si4 0.101148 0.075625 0.774501
Si Si5 0.611468 0.443034 0.750683
Si Si6 0.051816 0.613517 0.862899
Si Si7 0.573442 0.189345 0.134001
Si Si8 0.046912 0.347366 0.860101
O O1 0.067498 0.110222 0.582171
O O2 0.974407 0.262838 0.454703
O O3 0.761763 0.205855 0.130780
O O4 0.000000 0.000000 0.000000
O O5 0.525063 0.208027 0.541948
O O6 0.484858 0.440879 0.049127
O O7 0.512649 0.238223 0.924313
O O8 0.436871 0.198693 0.039695
O O9 0.237370 0.252933 0.042607
O O10 0.500000 0.000000 0.000000
O O11 0.287660 0.973168 0.941290
O O12 0.000000 0.000000 0.500000
O O13 0.055936 0.222124 0.078835
O O14 0.500000 0.500000 0.500000
O O15 0.642031 0.283962 0.531469
O O16 0.773675 0.445564 0.015982
O O17 0.000000 0.500000 0.500000
O O18 0.053687 0.618044 0.078102
O O19 0.000000 0.500000 0.000000
#
# Coordination Sequence:
#
# PCOD8012346 Si02
#       8
#     2   2   2   2   2   2   2   2
#     4  11  23  44  71  98 135 178 229 288 337 410
#     4  11  24  44  72 101 134 177 236 285 340 412
#     4  12  27  48  66 101 147 182 227 291 351 411
#     4  11  19  40  67 100 133 170 231 282 334 407
#     4  10  21  39  69  98 128 175 229 279 338 403
#     4  11  23  42  66  97 138 172 221 287 339 400
#     4  11  23  42  74  98 134 186 232 281 347 411
#     4  11  26  45  66  99 144 179 224 285 352 412
#
# _framework density 22.778891999999999
#
# number of rings (size 3 to 8) (size 9 to 14) (size 15 to 20)
#    0.000    1.000    2.500    6.000    5.250    2.000 
#    6.750    0.000    0.000    0.000    0.000    0.000 
#    0.000    0.000    0.000    0.000    0.000    0.000 
#
# Total GULP energy -198240.252070 kJ/mol
# GULP energy per Si atom -12390.015754 kJ/mol
# Density = 2.272705 g / cm^3
# Si number density = 22.778892 Si / 1000 Ang^3
#
#
#
# Elastic Constant Matrix: (Units=GPa)
#
#
# Indices 1 2 3 4 5 6 
#
# 1 82.5764 18.8889 15.6827 9.3311 7.8491 -1.0724
# 2 18.8889 138.8931 47.9763 36.0096 0.7441 -14.7776
# 3 15.6827 47.9763 124.5396 40.0839 9.3152 2.0136
# 4 9.3311 36.0096 40.0839 52.4240 3.5236 4.6170
# 5 7.8491 0.7441 9.3152 3.5236 31.8308 3.5294
# 6 -1.0724 -14.7776 2.0136 4.6170 3.5294 32.4596
#
#
#
# Elastic Compliance Matrix: (Units=1/GPa)
#
#
# Indices 1 2 3 4 5 6 
#
# 1 0.012895 -0.001282 -0.000685 -0.000722 -0.002903 0.000303
# 2 -0.001282 0.010131 -0.002051 -0.005688 0.000707 0.005429
# 3 -0.000685 -0.002051 0.011314 -0.006929 -0.002280 -0.000425
# 4 -0.000722 -0.005688 -0.006929 0.028974 -0.000172 -0.006286
# 5 -0.002903 0.000707 -0.002280 -0.000172 0.033158 -0.003213
# 6 0.000303 0.005429 -0.000425 -0.006286 -0.003213 0.034559
#
#
# Mechanical properties :
#
#
# Convention : Reuss Voigt Hill
#
# Bulk Modulus (GPa) = 38.01885 56.78944 47.40415
# Shear Modulus (GPa) = 33.82140 40.90695 37.36417
#
# Velocity S-wave (km/s) = 3.85745 4.24232 4.05445
# Velocity P-wave (km/s) = 6.04703 6.99866 6.54017
#
# Compressibility (1/GPa) = 0.02630274
#
# Stress axis : x y z
#
# Youngs Moduli (GPa) = 77.55032 98.70414 88.38937
#
# Poissons Ratio (x) = 0.12652 0.06057
# Poissons Ratio (y) = 0.09941 0.18132
# Poissons Ratio (z) = 0.05314 0.20248
#
# Static dielectric constant tensor:
#      x y z
#    x 4.187070 0.119020 0.052420 
#    y 0.119020 5.318170 1.010000 
#    z 0.052420 1.010000 3.916180 
# 
# 
# High freq. dielectric constant tensor:
#      x y z
#    x 1.891100 -0.011460 0.014360 
#    y -0.011460 1.917160 0.029350 
#    z 0.014360 0.029350 1.899840 
# 
# From -- ./inp_files/338242.got.cif
#   From: 2010.06.25/outbox.cif.g09.slc.cpg/sg2_170_cif.got.tgz:338242.got - 2010.06.27 13:26:56.
