data_PCOD8012965
_publ_section_title
;
Structure prediction by ZEFSAII (Michael W. Deem and Ramdas Pophale) SiO2 
 PCOD8012965
Probable space group: P -1
;
_chemical_formula_sum "Si O2"
_cell_formula_units_Z 12
_cell_length_a 17.574357
_cell_length_b 5.767775
_cell_length_c 5.011572
_cell_angle_alpha 78.695086
_cell_angle_beta 89.082543
_cell_angle_gamma 72.466512
_cell_volume 474.494712
_symmetry_space_group_name_H-M "P -1"
_symmetry_group_IT_number 2
_symmetry_cell_setting 'triclinic'
loop_
_space_group_symop_operation_xyz
x,y,z
-x,-y,-z
loop_
_atom_site_type_symbol
_atom_site_label
_atom_site_fract_x
_atom_site_fract_y
_atom_site_fract_z
Si Si1 0.931351 0.852813 0.345185
Si Si2 0.544662 0.211658 0.478955
Si Si3 0.226623 0.224654 0.749096
Si Si4 0.094978 0.822698 0.226120
Si Si5 0.643346 0.213059 0.953754
Si Si6 0.739499 0.546062 0.786809
O O1 0.917221 0.940587 0.632116
O O2 0.868273 0.709917 0.303219
O O3 0.914841 0.092837 0.099302
O O4 0.025037 0.692950 0.329315
O O5 0.500000 0.500000 0.500000
O O6 0.610560 0.098117 0.729096
O O7 0.500000 0.000000 0.500000
O O8 0.580956 0.244586 0.185942
O O9 0.274796 0.224327 0.469635
O O10 0.240778 0.417277 0.917694
O O11 0.267421 0.953272 0.932055
O O12 0.183049 0.643227 0.316330
O O13 0.658160 0.469872 0.806369
#
# Coordination Sequence:
#
# PCOD8012965 Si02
#       6
#     2   2   2   2   2   2
#     4  10  21  40  64  94 141 192 242 299 358 422
#     4  12  30  54  84 114 153 198 243 304 380 464
#     4  12  26  42  72 106 142 191 244 299 365 430
#     4  10  21  40  64  94 141 192 242 299 358 422
#     4  12  28  50  77 108 154 182 240 302 373 442
#     4  12  26  42  72 106 142 191 244 299 365 430
#
# _framework density 25.290063
#
# number of rings (size 3 to 8) (size 9 to 14) (size 15 to 20)
#    0.000    0.667    1.667    5.000    9.333    1.333 
#    0.000    0.000    0.000    0.000    0.000    0.000 
#    0.000    0.000    0.000    0.000    0.000    0.000 
#
# Total GULP energy -148724.674267 kJ/mol
# GULP energy per Si atom -12393.722856 kJ/mol
# Density = 2.523250 g / cm^3
# Si number density = 25.290063 Si / 1000 Ang^3
#
#
#
# Elastic Constant Matrix: (Units=GPa)
#
#
# Indices 1 2 3 4 5 6 
#
# 1 146.9411 43.9181 59.6223 7.9289 -7.8218 55.2003
# 2 43.9181 71.0201 14.9991 12.4274 -5.5902 18.7063
# 3 59.6223 14.9991 141.9971 10.5319 -3.4191 22.4747
# 4 7.9289 12.4274 10.5319 35.7705 5.7563 2.4771
# 5 -7.8218 -5.5902 -3.4191 5.7563 51.2003 -0.3564
# 6 55.2003 18.7063 22.4747 2.4771 -0.3564 48.3313
#
#
#
# Elastic Compliance Matrix: (Units=1/GPa)
#
#
# Indices 1 2 3 4 5 6 
#
# 1 0.014756 -0.004772 -0.003555 0.000135 0.001388 -0.013349
# 2 -0.004772 0.018500 0.000809 -0.005804 0.001985 -0.001774
# 3 -0.003555 0.000809 0.008638 -0.002082 0.000355 -0.000160
# 4 0.000135 -0.005804 -0.002082 0.031139 -0.004243 0.001433
# 5 0.001388 0.001985 0.000355 -0.004243 0.020446 -0.002150
# 6 -0.013349 -0.001774 -0.000160 0.001433 -0.002150 0.036609
#
#
# Mechanical properties :
#
#
# Convention : Reuss Voigt Hill
#
# Bulk Modulus (GPa) = 37.23578 66.33748 51.78663
# Shear Modulus (GPa) = 32.45131 43.15501 37.80316
#
# Velocity S-wave (km/s) = 3.58601 4.13534 3.87044
# Velocity P-wave (km/s) = 5.64814 7.00636 6.36359
#
# Compressibility (1/GPa) = 0.02685589
#
# Stress axis : x y z
#
# Youngs Moduli (GPa) = 67.76987 54.05430 115.76616
#
# Poissons Ratio (x) = 0.25796 0.41159
# Poissons Ratio (y) = 0.32342 -0.09362
# Poissons Ratio (z) = 0.24095 -0.04371
#
# Static dielectric constant tensor:
#      x y z
#    x 4.765250 -0.044610 0.060380 
#    y -0.044610 4.245270 -0.061840 
#    z 0.060380 -0.061840 4.759190 
# 
# 
# High freq. dielectric constant tensor:
#      x y z
#    x 2.024390 0.000650 -0.000480 
#    y 0.000650 1.984830 -0.000610 
#    z -0.000480 -0.000610 2.035000 
# 
# From -- ./inp_files/85954.got.cif
#   From: 2010.06.25/outbox.cif.g09.slc.cpg/sg2_43_cif.got.tgz:85954.got - 2010.06.27 13:26:56.
