data_PCOD8012841
_publ_section_title
;
Structure prediction by ZEFSAII (Michael W. Deem and Ramdas Pophale) SiO2 
 PCOD8012841
Probable space group: P -1
;
_chemical_formula_sum "Si O2"
_cell_formula_units_Z 16
_cell_length_a 23.252401
_cell_length_b 8.575767
_cell_length_c 9.796663
_cell_angle_alpha 115.806116
_cell_angle_beta 139.137775
_cell_angle_gamma 37.351562
_cell_volume 704.471147
_symmetry_space_group_name_H-M "P -1"
_symmetry_group_IT_number 2
_symmetry_cell_setting 'triclinic'
loop_
_space_group_symop_operation_xyz
x,y,z
-x,-y,-z
loop_
_atom_site_type_symbol
_atom_site_label
_atom_site_fract_x
_atom_site_fract_y
_atom_site_fract_z
Si Si1 0.605324 0.445989 0.462962
Si Si2 0.648633 0.180790 0.181941
Si Si3 0.279512 0.578524 0.083972
Si Si4 0.917779 0.542559 0.995307
Si Si5 0.522653 0.014598 0.894224
Si Si6 0.255579 0.510004 0.441126
Si Si7 0.998560 0.874278 0.823875
Si Si8 0.724774 0.125475 0.010243
O O1 0.688639 0.182823 0.408260
O O2 0.325398 0.663771 0.302886
O O3 0.641958 0.584786 0.534333
O O4 0.436712 0.676415 0.245905
O O5 0.500000 0.500000 0.000000
O O6 0.635952 0.994285 0.081700
O O7 0.754310 0.074207 0.207478
O O8 0.244246 0.729873 0.935763
O O9 0.415298 0.239897 0.180628
O O10 0.142115 0.678557 0.918609
O O11 0.813677 0.561957 0.752472
O O12 0.833346 0.826157 0.022442
O O13 0.011450 0.303335 0.194133
O O14 0.000000 0.500000 0.000000
O O15 0.361260 0.318414 0.682819
O O16 0.500000 0.000000 0.000000
O O17 0.141895 0.841632 0.404071
O O18 0.000000 0.000000 0.000000
#
# Coordination Sequence:
#
# PCOD8012841 Si02
#       8
#     2   2   2   2   2   2   2   2
#     4  11  22  39  70 102 135 176 226 278 346 396
#     4  10  21  40  63  97 141 176 212 284 345 399
#     4  12  24  41  73 102 137 181 235 277 340 413
#     4  11  23  40  69 100 138 180 236 283 339 406
#     4  12  25  44  69 103 140 182 229 283 348 408
#     4  11  23  42  70  96 141 178 227 281 346 401
#     4  10  21  42  64  98 135 182 221 282 342 405
#     4  11  22  38  66 102 139 176 226 287 339 399
#
# _framework density 22.712070000000001
#
# number of rings (size 3 to 8) (size 9 to 14) (size 15 to 20)
#    0.000    1.000    5.000    4.875    0.000    2.000 
#    0.000    0.625    2.750    1.500    0.000    0.000 
#    0.000    0.000    0.000    0.000    0.000    0.000 
#
# Total GULP energy -198220.449973 kJ/mol
# GULP energy per Si atom -12388.778123 kJ/mol
# Density = 2.266038 g / cm^3
# Si number density = 22.712070 Si / 1000 Ang^3
#
#
#
# Elastic Constant Matrix: (Units=GPa)
#
#
# Indices 1 2 3 4 5 6 
#
# 1 168.3134 66.2388 38.0496 -12.8530 0.9507 0.2067
# 2 66.2388 138.2228 43.9206 -7.9742 -5.3358 -5.1780
# 3 38.0496 43.9206 69.3045 -18.5406 -8.5421 -3.0158
# 4 -12.8530 -7.9742 -18.5406 43.3875 0.3937 1.7343
# 5 0.9507 -5.3358 -8.5421 0.3937 34.4232 1.1999
# 6 0.2067 -5.1780 -3.0158 1.7343 1.1999 44.0236
#
#
#
# Elastic Compliance Matrix: (Units=1/GPa)
#
#
# Indices 1 2 3 4 5 6 
#
# 1 0.007704 -0.002982 -0.002307 0.000781 -0.001237 -0.000542
# 2 -0.002982 0.010265 -0.005107 -0.001219 0.000388 0.000909
# 3 -0.002307 -0.005107 0.021518 0.007514 0.004510 0.000465
# 4 0.000781 -0.001219 0.007514 0.026282 0.001378 -0.000705
# 5 -0.001237 0.000388 0.004510 0.001378 0.030266 -0.000519
# 6 -0.000542 0.000909 0.000465 -0.000705 -0.000519 0.022898
#
#
# Mechanical properties :
#
#
# Convention : Reuss Voigt Hill
#
# Bulk Modulus (GPa) = 53.48807 74.69542 64.09174
# Shear Modulus (GPa) = 34.25684 39.54230 36.89957
#
# Velocity S-wave (km/s) = 3.88791 4.17709 4.03509
# Velocity P-wave (km/s) = 6.61484 7.49823 7.07034
#
# Compressibility (1/GPa) = 0.01869576
#
# Stress axis : x y z
#
# Youngs Moduli (GPa) = 129.81061 97.41824 46.47205
#
# Poissons Ratio (x) = 0.29047 0.10721
# Poissons Ratio (y) = 0.38705 0.23733
# Poissons Ratio (z) = 0.29947 0.49751
#
# Static dielectric constant tensor:
#      x y z
#    x 4.764730 -0.059770 -0.004330 
#    y -0.059770 4.156940 0.035230 
#    z -0.004330 0.035230 3.369440 
# 
# 
# High freq. dielectric constant tensor:
#      x y z
#    x 1.915980 0.000980 0.003170 
#    y 0.000980 1.891870 -0.003230 
#    z 0.003170 -0.003230 1.875710 
# 
# From -- ./inp_files/469447.got.cif
#   From: 2010.06.25/outbox.cif.g09.slc.cpg/sg2_235_cif.got.tgz:469447.got - 2010.06.27 13:26:56.
