data_PCOD8012600
_publ_section_title
;
Structure prediction by ZEFSAII (Michael W. Deem and Ramdas Pophale) SiO2 
 PCOD8012600
Probable space group: P -1
;
_chemical_formula_sum "Si O2"
_cell_formula_units_Z 14
_cell_length_a 7.060138
_cell_length_b 18.746922
_cell_length_c 8.815712
_cell_angle_alpha 55.710019
_cell_angle_beta 56.375092
_cell_angle_gamma 97.067134
_cell_volume 621.873502
_symmetry_space_group_name_H-M "P -1"
_symmetry_group_IT_number 2
_symmetry_cell_setting 'triclinic'
loop_
_space_group_symop_operation_xyz
x,y,z
-x,-y,-z
loop_
_atom_site_type_symbol
_atom_site_label
_atom_site_fract_x
_atom_site_fract_y
_atom_site_fract_z
Si Si1 0.677704 0.320372 0.110729
Si Si2 0.880415 0.917274 0.357399
Si Si3 0.751460 0.057072 0.103661
Si Si4 0.922459 0.141708 0.401264
Si Si5 0.530842 0.420150 0.271374
Si Si6 0.933349 0.731936 0.107720
Si Si7 0.742858 0.648096 0.832674
O O1 0.442593 0.191080 0.421103
O O2 0.747961 0.396946 0.137129
O O3 0.961833 0.339605 0.898458
O O4 0.524407 0.346867 0.021397
O O5 0.730654 0.625772 0.683354
O O6 0.940310 0.910143 0.516296
O O7 0.904733 0.024945 0.188316
O O8 0.830589 0.170394 0.996901
O O9 0.406896 0.959208 0.375722
O O10 0.876756 0.075759 0.857022
O O11 0.101975 0.213523 0.086126
O O12 0.955011 0.231991 0.394541
O O13 0.704109 0.551336 0.062562
O O14 0.385528 0.354330 0.571183
#
# Coordination Sequence:
#
# PCOD8012600 Si02
#       7
#     2   2   2   2   2   2   2
#     4   9  18  38  61  86 118 153 200 248 294 360
#     4  10  21  40  62  82 128 163 198 250 305 346
#     4  11  22  40  61  89 122 168 200 245 303 368
#     4  11  22  36  62  94 120 157 208 251 294 371
#     4   9  19  41  66  83 121 166 196 250 313 354
#     4  12  22  35  63  91 123 160 200 248 310 357
#     4   8  19  42  63  83 123 160 198 256 300 350
#
# _framework density 22.512616999999999
#
# number of rings (size 3 to 8) (size 9 to 14) (size 15 to 20)
#    0.857    1.143    2.857    0.857    0.000    1.714 
#    2.571    0.714    6.286    0.000    0.000    0.000 
#    0.000    0.000    0.000    0.000    0.000    0.000 
#
# Total GULP energy -173461.125661 kJ/mol
# GULP energy per Si atom -12390.080404 kJ/mol
# Density = 2.246138 g / cm^3
# Si number density = 22.512617 Si / 1000 Ang^3
#
#
#
# Elastic Constant Matrix: (Units=GPa)
#
#
# Indices 1 2 3 4 5 6 
#
# 1 57.3423 18.2709 13.4714 3.3551 19.3296 -0.0093
# 2 18.2709 100.3736 25.1175 -5.4003 5.2010 -20.9575
# 3 13.4714 25.1175 67.1027 -4.9257 21.0448 0.5497
# 4 3.3551 -5.4003 -4.9257 33.7482 5.9365 0.2353
# 5 19.3296 5.2010 21.0448 5.9365 23.8367 -0.3771
# 6 -0.0093 -20.9575 0.5497 0.2353 -0.3771 19.2624
#
#
#
# Elastic Compliance Matrix: (Units=1/GPa)
#
#
# Indices 1 2 3 4 5 6 
#
# 1 0.026677 -0.006308 0.005113 0.001585 -0.025284 -0.007511
# 2 -0.006308 0.016422 -0.007634 0.000531 0.008429 0.018240
# 3 0.005113 -0.007634 0.025835 0.006885 -0.027158 -0.009657
# 4 0.001585 0.000531 0.006885 0.033343 -0.015789 -0.000335
# 5 -0.025284 0.008429 -0.027158 -0.015789 0.088713 0.011863
# 6 -0.007511 0.018240 -0.009657 -0.000335 0.011863 0.072268
#
#
# Mechanical properties :
#
#
# Convention : Reuss Voigt Hill
#
# Bulk Modulus (GPa) = 19.50264 37.61538 28.55901
# Shear Modulus (GPa) = 16.77793 26.56670 21.67232
#
# Velocity S-wave (km/s) = 2.73292 3.43896 3.10607
# Velocity P-wave (km/s) = 4.31744 5.70205 5.05736
#
# Compressibility (1/GPa) = 0.05127510
#
# Stress axis : x y z
#
# Youngs Moduli (GPa) = 37.48530 60.89459 38.70651
#
# Poissons Ratio (x) = 0.38415 -0.19792
# Poissons Ratio (y) = 0.23647 0.29550
# Poissons Ratio (z) = -0.19167 0.46490
#
# Static dielectric constant tensor:
#      x y z
#    x 3.735100 0.094010 0.262150 
#    y 0.094010 4.084850 -0.220070 
#    z 0.262150 -0.220070 3.910370 
# 
# 
# High freq. dielectric constant tensor:
#      x y z
#    x 1.860150 0.009160 0.018720 
#    y 0.009160 1.880590 -0.025190 
#    z 0.018720 -0.025190 1.876010 
# 
# From -- ./inp_files/404682.got.cif
#   From: 2010.06.25/outbox.cif.g09.slc.cpg/sg2_203_cif.got.tgz:404682.got - 2010.06.27 13:26:56.
