data_PCOD8012853
_publ_section_title
;
Structure prediction by ZEFSAII (Michael W. Deem and Ramdas Pophale) SiO2 
 PCOD8012853
Probable space group: P -1
;
_chemical_formula_sum "Si O2"
_cell_formula_units_Z 12
_cell_length_a 22.063017
_cell_length_b 8.704623
_cell_length_c 11.198964
_cell_angle_alpha 37.279223
_cell_angle_beta 150.190948
_cell_angle_gamma 142.691619
_cell_volume 606.965592
_symmetry_space_group_name_H-M "P -1"
_symmetry_group_IT_number 2
_symmetry_cell_setting 'triclinic'
loop_
_space_group_symop_operation_xyz
x,y,z
-x,-y,-z
loop_
_atom_site_type_symbol
_atom_site_label
_atom_site_fract_x
_atom_site_fract_y
_atom_site_fract_z
Si Si1 0.026700 0.270078 0.527993
Si Si2 0.417621 0.919988 0.069296
Si Si3 0.381865 0.839742 0.312496
Si Si4 0.089710 0.738858 0.920030
Si Si5 0.181650 0.775211 0.608857
Si Si6 0.398973 0.276076 0.620397
O O1 0.145183 0.548029 0.584183
O O2 0.953221 0.321715 0.253406
O O3 0.939755 0.206082 0.537202
O O4 0.079980 0.026181 0.757554
O O5 0.396583 0.014512 0.108518
O O6 0.520423 0.761709 0.334282
O O7 0.280464 0.715925 0.908772
O O8 0.466257 0.194945 0.903010
O O9 0.399249 0.572748 0.454709
O O10 0.500000 0.000000 0.500000
O O11 0.241175 0.770000 0.176811
O O12 0.000000 0.500000 0.000000
O O13 0.250470 0.067280 0.482827
#
# Coordination Sequence:
#
# PCOD8012853 Si02
#       6
#     2   2   2   2   2   2
#     4  10  21  40  64  83 118 156 197 243 291 349
#     4   9  20  40  60  81 119 152 194 245 287 341
#     4  12  25  38  59  90 124 158 191 240 301 351
#     4  11  24  41  58  89 125 156 194 239 294 358
#     4   9  18  40  64  84 109 154 199 246 289 329
#     4   9  20  39  61  85 117 149 200 244 286 349
#
# _framework density 19.770479999999999
#
# number of rings (size 3 to 8) (size 9 to 14) (size 15 to 20)
#    1.000    1.000    1.667    1.500    2.333    2.000 
#    3.000    2.500    0.000    0.000    0.000    0.000 
#    0.000    0.000    0.000    0.000    0.000    0.000 
#
# Total GULP energy -148682.024420 kJ/mol
# GULP energy per Si atom -12390.168702 kJ/mol
# Density = 1.972548 g / cm^3
# Si number density = 19.770480 Si / 1000 Ang^3
#
#
#
# Elastic Constant Matrix: (Units=GPa)
#
#
# Indices 1 2 3 4 5 6 
#
# 1 97.8816 39.8807 30.4666 12.5035 11.9308 -0.5737
# 2 39.8807 109.8468 28.3066 22.9265 -0.6727 -10.5774
# 3 30.4666 28.3066 65.8833 14.9991 7.1013 -1.6027
# 4 12.5035 22.9265 14.9991 35.9343 -2.1712 -1.2915
# 5 11.9308 -0.6727 7.1013 -2.1712 29.6633 6.9826
# 6 -0.5737 -10.5774 -1.6027 -1.2915 6.9826 26.4111
#
#
#
# Elastic Compliance Matrix: (Units=1/GPa)
#
#
# Indices 1 2 3 4 5 6 
#
# 1 0.013692 -0.003798 -0.003986 -0.000968 -0.004643 -0.000285
# 2 -0.003798 0.012689 -0.002433 -0.005544 0.000974 0.004323
# 3 -0.003986 -0.002433 0.019749 -0.005501 -0.003787 0.000870
# 4 -0.000968 -0.005544 -0.005501 0.034200 0.004582 -0.002114
# 5 -0.004643 0.000974 -0.003787 0.004582 0.039217 -0.010085
# 6 -0.000285 0.004323 0.000870 -0.002114 -0.010085 0.042204
#
#
# Mechanical properties :
#
#
# Convention : Reuss Voigt Hill
#
# Bulk Modulus (GPa) = 38.91668 52.32440 45.62054
# Shear Modulus (GPa) = 26.21229 30.06559 28.13894
#
# Velocity S-wave (km/s) = 3.64514 3.90389 3.77673
# Velocity P-wave (km/s) = 6.11907 6.84425 6.49180
#
# Compressibility (1/GPa) = 0.02569592
#
# Stress axis : x y z
#
# Youngs Moduli (GPa) = 73.03294 78.80974 50.63564
#
# Poissons Ratio (x) = 0.29930 0.20185
# Poissons Ratio (y) = 0.27736 0.12320
# Poissons Ratio (z) = 0.29113 0.19175
#
# Static dielectric constant tensor:
#      x y z
#    x 3.642420 0.049640 0.005780 
#    y 0.049640 3.516650 0.066690 
#    z 0.005780 0.066690 3.459180 
# 
# 
# High freq. dielectric constant tensor:
#      x y z
#    x 1.784900 0.003780 0.008420 
#    y 0.003780 1.760260 0.000630 
#    z 0.008420 0.000630 1.757420 
# 
# From -- ./inp_files/473789.got.cif
#   From: 2010.06.25/outbox.cif.g09.slc.cpg/sg2_237_cif.got.tgz:473789.got - 2010.06.27 13:26:56.
