data_PCOD8012616
_publ_section_title
;
Structure prediction by ZEFSAII (Michael W. Deem and Ramdas Pophale) SiO2 
 PCOD8012616
Probable space group: P -1
;
_chemical_formula_sum "Si O2"
_cell_formula_units_Z 16
_cell_length_a 14.457149
_cell_length_b 14.455983
_cell_length_c 13.204683
_cell_angle_alpha 40.205668
_cell_angle_beta 32.792213
_cell_angle_gamma 29.288723
_cell_volume 726.308152
_symmetry_space_group_name_H-M "P -1"
_symmetry_group_IT_number 2
_symmetry_cell_setting 'triclinic'
loop_
_space_group_symop_operation_xyz
x,y,z
-x,-y,-z
loop_
_atom_site_type_symbol
_atom_site_label
_atom_site_fract_x
_atom_site_fract_y
_atom_site_fract_z
Si Si1 0.687934 0.182915 0.662059
Si Si2 0.230180 0.290952 0.956571
Si Si3 0.041551 0.188817 0.373877
Si Si4 0.421022 0.129643 0.329704
Si Si5 0.066050 0.668185 0.426115
Si Si6 0.011904 0.993383 0.874060
Si Si7 0.719760 0.989285 0.998138
Si Si8 0.509481 0.773111 0.617275
O O1 0.423533 0.305018 0.779955
O O2 0.779878 0.298106 0.484966
O O3 0.831102 0.034578 0.561472
O O4 0.742215 0.086666 0.803599
O O5 0.216520 0.186428 0.148275
O O6 0.255461 0.188631 0.914550
O O7 0.000000 0.500000 0.000000
O O8 0.030204 0.263311 0.430319
O O9 0.518735 0.196010 0.260650
O O10 0.150897 0.277999 0.477507
O O11 0.548979 0.908587 0.420453
O O12 0.477677 0.139255 0.153163
O O13 0.283999 0.446962 0.412816
O O14 0.120547 0.791766 0.223607
O O15 0.277275 0.841177 0.726489
O O16 0.903902 0.917970 0.977591
O O17 0.000000 0.000000 0.000000
#
# Coordination Sequence:
#
# PCOD8012616 Si02
#       8
#     2   2   2   2   2   2   2   2
#     4  10  21  42  67  90 125 172 215 258 329 398
#     4  11  25  40  62 102 129 162 220 273 323 395
#     4  10  21  40  65  91 126 167 215 262 322 395
#     4  10  21  40  62  86 128 168 210 266 324 380
#     4  11  22  40  65  92 125 170 216 263 327 386
#     4  11  23  43  63  91 133 168 217 266 323 386
#     4  11  21  43  65  85 127 174 206 266 335 379
#     4  10  23  39  61  93 123 167 218 264 315 388
#
# _framework density 22.029216999999999
#
# number of rings (size 3 to 8) (size 9 to 14) (size 15 to 20)
#    0.000    1.500    2.500    3.375    1.750    2.000 
#    0.000    0.000    0.000    0.000    0.000    0.000 
#    0.000    0.000    0.000    0.000    0.000    0.000 
#
# Total GULP energy -198233.048315 kJ/mol
# GULP energy per Si atom -12389.565520 kJ/mol
# Density = 2.197908 g / cm^3
# Si number density = 22.029217 Si / 1000 Ang^3
#
#
#
# Elastic Constant Matrix: (Units=GPa)
#
#
# Indices 1 2 3 4 5 6 
#
# 1 106.8357 18.4485 18.7918 13.8423 -0.8577 4.9859
# 2 18.4485 91.7880 12.5262 17.3581 7.4456 -14.9906
# 3 18.7918 12.5262 78.5538 18.5678 -9.3802 -0.9941
# 4 13.8423 17.3581 18.5678 24.1874 -1.7926 -0.1290
# 5 -0.8577 7.4456 -9.3802 -1.7926 44.9603 18.3200
# 6 4.9859 -14.9906 -0.9941 -0.1290 18.3200 21.4111
#
#
#
# Elastic Compliance Matrix: (Units=1/GPa)
#
#
# Indices 1 2 3 4 5 6 
#
# 1 0.010845 -0.003000 -0.001087 -0.003001 0.003485 -0.007676
# 2 -0.003000 0.019729 -0.000881 -0.012744 -0.015171 0.027374
# 3 -0.001087 -0.000881 0.016192 -0.010859 0.004512 -0.003538
# 4 -0.003001 -0.012744 -0.010859 0.061100 0.008643 -0.015755
# 5 0.003485 -0.015171 0.004512 0.008643 0.047069 -0.051445
# 6 -0.007676 0.027374 -0.003538 -0.015755 -0.051445 0.111416
#
#
# Mechanical properties :
#
#
# Convention : Reuss Voigt Hill
#
# Bulk Modulus (GPa) = 27.15335 41.85670 34.50503
# Shear Modulus (GPa) = 17.32721 33.27248 25.29985
#
# Velocity S-wave (km/s) = 2.80760 3.89058 3.39258
# Velocity P-wave (km/s) = 4.78153 6.26290 5.57167
#
# Compressibility (1/GPa) = 0.03682787
#
# Stress axis : x y z
#
# Youngs Moduli (GPa) = 92.21219 50.68645 61.76011
#
# Poissons Ratio (x) = 0.15206 0.06716
# Poissons Ratio (y) = 0.27664 0.05443
# Poissons Ratio (z) = 0.10028 0.04467
#
# Static dielectric constant tensor:
#      x y z
#    x 4.183000 -0.017060 -0.184550 
#    y -0.017060 3.555560 0.320470 
#    z -0.184550 0.320470 3.951050 
# 
# 
# High freq. dielectric constant tensor:
#      x y z
#    x 1.879410 0.007910 -0.011620 
#    y 0.007910 1.830420 0.022060 
#    z -0.011620 0.022060 1.878430 
# 
# From -- ./inp_files/349392.got.cif
#   From: 2010.06.25/outbox.cif.g09.slc.cpg/sg2_175_cif.got.tgz:349392.got - 2010.06.27 13:26:56.
