data_PCOD8012379
_publ_section_title
;
Structure prediction by ZEFSAII (Michael W. Deem and Ramdas Pophale) SiO2 
 PCOD8012379
Probable space group: P -1
;
_chemical_formula_sum "Si O2"
_cell_formula_units_Z 16
_cell_length_a 11.516835
_cell_length_b 15.427887
_cell_length_c 18.161779
_cell_angle_alpha 151.219575
_cell_angle_beta 28.506291
_cell_angle_gamma 133.978643
_cell_volume 699.954937
_symmetry_space_group_name_H-M "P -1"
_symmetry_group_IT_number 2
_symmetry_cell_setting 'triclinic'
loop_
_space_group_symop_operation_xyz
x,y,z
-x,-y,-z
loop_
_atom_site_type_symbol
_atom_site_label
_atom_site_fract_x
_atom_site_fract_y
_atom_site_fract_z
Si Si1 0.999362 0.620688 0.192804
Si Si2 0.934320 0.770091 0.184353
Si Si3 0.540781 0.299129 0.940541
Si Si4 0.560256 0.918365 0.726426
Si Si5 0.007709 0.007177 0.911750
Si Si6 0.784655 0.942062 0.770417
Si Si7 0.467619 0.130406 0.710457
Si Si8 0.224457 0.716726 0.455413
O O1 0.172175 0.696646 0.207489
O O2 0.068729 0.662657 0.102826
O O3 0.700032 0.738236 0.462443
O O4 0.064580 0.393134 0.997016
O O5 0.648716 0.915062 0.468272
O O6 0.112152 0.884757 0.140043
O O7 0.504502 0.282667 0.861443
O O8 0.499447 0.118802 0.868331
O O9 0.339604 0.489557 0.228948
O O10 0.282869 0.902449 0.890771
O O11 0.763832 0.901659 0.666022
O O12 0.171015 0.137291 0.886333
O O13 0.000000 0.000000 0.000000
O O14 0.134581 0.798636 0.648302
O O15 0.980799 0.761248 0.568603
O O16 0.500000 0.000000 0.000000
O O17 0.442231 0.807557 0.372094
#
# Coordination Sequence:
#
# PCOD8012379 Si02
#       8
#     2   2   2   2   2   2   2   2
#     4  11  21  39  68 101 130 174 234 287 331 400
#     4  10  21  39  70  98 130 177 232 278 338 405
#     4  12  23  43  73 106 135 182 241 290 338 415
#     4  12  24  44  69 101 142 183 230 288 349 406
#     4  12  24  45  67 101 143 183 229 288 350 413
#     4  11  23  48  68  97 141 181 219 282 356 414
#     4  11  23  45  69  99 141 183 229 293 349 406
#     4  11  26  44  74 102 138 184 234 285 352 416
#
# _framework density 22.858615
#
# number of rings (size 3 to 8) (size 9 to 14) (size 15 to 20)
#    0.000    0.750    5.000    3.375    0.000    2.500 
#    2.250    0.625    0.000    0.000    0.000    0.000 
#    0.000    0.000    0.000    0.000    0.000    0.000 
#
# Total GULP energy -198375.959353 kJ/mol
# GULP energy per Si atom -12398.497460 kJ/mol
# Density = 2.280659 g / cm^3
# Si number density = 22.858615 Si / 1000 Ang^3
#
#
#
# Elastic Constant Matrix: (Units=GPa)
#
#
# Indices 1 2 3 4 5 6 
#
# 1 83.9003 27.3742 35.6044 -1.8875 10.4690 6.4851
# 2 27.3742 110.0166 53.1720 -23.7196 -1.2118 28.1925
# 3 35.6044 53.1720 168.6261 -2.8546 11.0384 5.4962
# 4 -1.8875 -23.7196 -2.8546 36.0724 1.8496 -0.0915
# 5 10.4690 -1.2118 11.0384 1.8496 36.1250 -6.4978
# 6 6.4851 28.1925 5.4962 -0.0915 -6.4978 37.1038
#
#
#
# Elastic Compliance Matrix: (Units=1/GPa)
#
#
# Indices 1 2 3 4 5 6 
#
# 1 0.014081 -0.002617 -0.001895 -0.000947 -0.003692 -0.000841
# 2 -0.002617 0.017218 -0.004300 0.010817 -0.000057 -0.011972
# 3 -0.001895 -0.004300 0.007670 -0.002241 -0.001427 0.002207
# 4 -0.000947 0.010817 -0.002241 0.034685 -0.001887 -0.007967
# 5 -0.003692 -0.000057 -0.001427 -0.001887 0.030401 0.006220
# 6 -0.000841 -0.011972 0.002207 -0.007967 0.006220 0.036938
#
#
# Mechanical properties :
#
#
# Convention : Reuss Voigt Hill
#
# Bulk Modulus (GPa) = 46.84754 66.09381 56.47067
# Shear Modulus (GPa) = 30.16922 38.28641 34.22781
#
# Velocity S-wave (km/s) = 3.63687 4.09702 3.87379
# Velocity P-wave (km/s) = 6.17857 7.16643 6.69076
#
# Compressibility (1/GPa) = 0.02134584
#
# Stress axis : x y z
#
# Youngs Moduli (GPa) = 71.01591 58.07764 130.38305
#
# Poissons Ratio (x) = 0.15201 0.24705
# Poissons Ratio (y) = 0.18587 0.56060
# Poissons Ratio (z) = 0.13456 0.24971
#
# Static dielectric constant tensor:
#      x y z
#    x 4.600200 0.275000 0.100620 
#    y 0.275000 3.990470 -0.046800 
#    z 0.100620 -0.046800 4.202550 
# 
# 
# High freq. dielectric constant tensor:
#      x y z
#    x 1.913510 0.014440 0.008050 
#    y 0.014440 1.888280 -0.011150 
#    z 0.008050 -0.011150 1.904530 
# 
# From -- ./inp_files/596021.got.cif
#   From: 2010.06.25/outbox.cif.g09.slc.cpg/sg2_299_cif.got.tgz:596021.got - 2010.06.27 13:26:56.
