data_PCOD8012018
_publ_section_title
;
Structure prediction by ZEFSAII (Michael W. Deem and Ramdas Pophale) SiO2 
 PCOD8012018
Probable space group: P -1
;
_chemical_formula_sum "Si O2"
_cell_formula_units_Z 14
_cell_length_a 9.541926
_cell_length_b 9.038143
_cell_length_c 12.246434
_cell_angle_alpha 63.487494
_cell_angle_beta 103.618272
_cell_angle_gamma 132.771907
_cell_volume 690.055693
_symmetry_space_group_name_H-M "P -1"
_symmetry_group_IT_number 2
_symmetry_cell_setting 'triclinic'
loop_
_space_group_symop_operation_xyz
x,y,z
-x,-y,-z
loop_
_atom_site_type_symbol
_atom_site_label
_atom_site_fract_x
_atom_site_fract_y
_atom_site_fract_z
Si Si1 0.969626 0.288471 0.808911
Si Si2 0.698370 0.061197 0.041121
Si Si3 0.759178 0.220329 0.230794
Si Si4 0.507194 0.730044 0.579005
Si Si5 0.243307 0.255382 0.767604
Si Si6 0.652607 0.103858 0.637022
Si Si7 0.170822 0.075666 0.580492
O O1 0.844139 0.255066 0.694489
O O2 0.142817 0.544544 0.779402
O O3 0.067447 0.185887 0.833465
O O4 0.839140 0.175087 0.927925
O O5 0.794802 0.230783 0.104161
O O6 0.663907 0.842296 0.136136
O O7 0.500000 0.000000 0.000000
O O8 0.531537 0.048656 0.267333
O O9 0.854752 0.138336 0.335411
O O10 0.407177 0.518695 0.706355
O O11 0.352109 0.735013 0.492044
O O12 0.629091 0.731936 0.506615
O O13 0.653596 0.945759 0.610120
O O14 0.162293 0.168883 0.660307
O O15 0.000000 0.000000 0.500000
#
# Coordination Sequence:
#
# PCOD8012018 Si02
#       7
#     2   2   2   2   2   2   2
#     4  12  23  41  71  92 127 170 218 261 327 366
#     4  11  24  45  66  91 130 171 217 269 317 378
#     4  10  22  42  63  95 126 167 216 262 314 384
#     4  10  21  40  61  94 136 163 214 258 315 386
#     4  11  24  40  65  97 128 167 217 267 314 379
#     4  10  21  39  65  97 128 166 207 265 314 381
#     4  10  22  38  60  93 135 167 210 258 317 388
#
# _framework density 20.288218000000001
#
# number of rings (size 3 to 8) (size 9 to 14) (size 15 to 20)
#    0.000    1.429    2.857    2.143    2.000    1.714 
#    0.000    4.286    0.000    0.000    0.000    0.000 
#    0.000    0.000    0.000    0.000    0.000    0.000 
#
# Total GULP energy -173625.647386 kJ/mol
# GULP energy per Si atom -12401.831956 kJ/mol
# Density = 2.024204 g / cm^3
# Si number density = 20.288218 Si / 1000 Ang^3
#
#
#
# Elastic Constant Matrix: (Units=GPa)
#
#
# Indices 1 2 3 4 5 6 
#
# 1 132.1120 44.6448 46.9518 10.2935 1.6083 -8.6665
# 2 44.6448 87.3544 33.6541 3.3243 15.5886 -5.9097
# 3 46.9518 33.6541 91.0998 9.9592 5.9290 0.6255
# 4 10.2935 3.3243 9.9592 29.5422 0.9466 -1.2339
# 5 1.6083 15.5886 5.9290 0.9466 40.8935 7.2847
# 6 -8.6665 -5.9097 0.6255 -1.2339 7.2847 25.0739
#
#
#
# Elastic Compliance Matrix: (Units=1/GPa)
#
#
# Indices 1 2 3 4 5 6 
#
# 1 0.010553 -0.003883 -0.003898 -0.001867 0.001251 0.002374
# 2 -0.003883 0.016267 -0.003756 0.001179 -0.006330 0.004483
# 3 -0.003898 -0.003756 0.014753 -0.003309 0.000016 -0.002768
# 4 -0.001867 0.001179 -0.003309 0.035590 -0.001035 0.001767
# 5 0.001251 -0.006330 0.000016 -0.001035 0.028513 -0.009395
# 6 0.002374 0.004483 -0.002768 0.001767 -0.009395 0.044645
#
#
# Mechanical properties :
#
#
# Convention : Reuss Voigt Hill
#
# Bulk Modulus (GPa) = 54.05583 62.34084 58.19834
# Shear Modulus (GPa) = 27.84576 31.45630 29.65103
#
# Velocity S-wave (km/s) = 3.70876 3.94187 3.82709
# Velocity P-wave (km/s) = 6.71131 7.17720 6.94816
#
# Compressibility (1/GPa) = 0.01849939
#
# Stress axis : x y z
#
# Youngs Moduli (GPa) = 94.76129 61.47400 67.78241
#
# Poissons Ratio (x) = 0.23871 0.26421
# Poissons Ratio (y) = 0.36797 0.25458
# Poissons Ratio (z) = 0.36937 0.23088
#
# Static dielectric constant tensor:
#      x y z
#    x 4.065990 -0.102170 -0.227310 
#    y -0.102170 3.643540 0.021460 
#    z -0.227310 0.021460 3.803730 
# 
# 
# High freq. dielectric constant tensor:
#      x y z
#    x 1.806080 -0.014190 -0.012290 
#    y -0.014190 1.782000 0.007930 
#    z -0.012290 0.007930 1.796690 
# 
# From -- ./inp_files/48233.got.cif
#   From: 2010.06.25/outbox.cif.g09.slc.cpg/sg2_25_cif.got.tgz:48233.got - 2010.06.27 13:26:56.
