data_PCOD8012365
_publ_section_title
;
Structure prediction by ZEFSAII (Michael W. Deem and Ramdas Pophale) SiO2 
 PCOD8012365
Probable space group: P -1
;
_chemical_formula_sum "Si O2"
_cell_formula_units_Z 14
_cell_length_a 6.502643
_cell_length_b 23.785147
_cell_length_c 14.597921
_cell_angle_alpha 160.344782
_cell_angle_beta 56.049356
_cell_angle_gamma 121.421133
_cell_volume 629.879032
_symmetry_space_group_name_H-M "P -1"
_symmetry_group_IT_number 2
_symmetry_cell_setting 'triclinic'
loop_
_space_group_symop_operation_xyz
x,y,z
-x,-y,-z
loop_
_atom_site_type_symbol
_atom_site_label
_atom_site_fract_x
_atom_site_fract_y
_atom_site_fract_z
Si Si1 0.909646 0.443744 0.340230
Si Si2 0.451027 0.261213 0.163887
Si Si3 0.622992 0.063967 0.660185
Si Si4 0.728964 0.469430 0.758294
Si Si5 0.820366 0.659283 0.305357
Si Si6 0.874356 0.787058 0.298434
Si Si7 0.906581 0.819224 0.725126
O O1 0.750030 0.274976 0.125534
O O2 0.710356 0.569966 0.539111
O O3 0.000000 0.500000 0.500000
O O4 0.161030 0.419897 0.183051
O O5 0.355337 0.173834 0.145461
O O6 0.418863 0.164233 0.926069
O O7 0.843265 0.188300 0.767009
O O8 0.500000 0.000000 0.500000
O O9 0.704776 0.912530 0.474179
O O10 0.447567 0.422015 0.741756
O O11 0.889401 0.301814 0.466402
O O12 0.773755 0.596304 0.025199
O O13 0.846419 0.801915 0.438420
O O14 0.877305 0.766026 0.545620
O O15 0.000000 0.500000 0.000000
O O16 0.000000 0.000000 0.000000
#
# Coordination Sequence:
#
# PCOD8012365 Si02
#       7
#     2   2   2   2   2   2   2
#     4  10  21  39  70  93 131 176 224 287 346 408
#     4  10  23  43  65  99 136 173 233 280 342 425
#     4  11  27  44  72 101 143 188 228 299 351 418
#     4  11  24  45  68 104 138 181 245 290 352 434
#     4  12  27  45  77 101 141 194 237 298 357 423
#     4  11  26  45  69 107 136 182 249 282 357 426
#     4  11  27  46  68 106 145 187 235 293 360 425
#
# _framework density 22.226488
#
# number of rings (size 3 to 8) (size 9 to 14) (size 15 to 20)
#    0.000    1.143    2.857    1.286    8.000    0.571 
#    2.571    0.000    0.000    0.000    0.000    0.000 
#    0.000    0.000    0.000    0.000    0.000    0.000 
#
# Total GULP energy -173457.876857 kJ/mol
# GULP energy per Si atom -12389.848347 kJ/mol
# Density = 2.217590 g / cm^3
# Si number density = 22.226488 Si / 1000 Ang^3
#
#
#
# Elastic Constant Matrix: (Units=GPa)
#
#
# Indices 1 2 3 4 5 6 
#
# 1 111.9081 73.2919 38.5287 -3.1222 20.9782 7.0436
# 2 73.2919 177.4939 53.4418 -13.3529 12.1068 4.8422
# 3 38.5287 53.4418 108.5241 -5.6146 26.5952 9.2172
# 4 -3.1222 -13.3529 -5.6146 43.2553 -4.3172 6.3398
# 5 20.9782 12.1068 26.5952 -4.3172 36.9378 -8.4691
# 6 7.0436 4.8422 9.2172 6.3398 -8.4691 41.2340
#
#
#
# Elastic Compliance Matrix: (Units=1/GPa)
#
#
# Indices 1 2 3 4 5 6 
#
# 1 0.013848 -0.005074 -0.000630 -0.000883 -0.006499 -0.002828
# 2 -0.005074 0.008597 -0.003047 0.002046 0.002675 0.000773
# 3 -0.000630 -0.003047 0.013686 0.000520 -0.009496 -0.004624
# 4 -0.000883 0.002046 0.000520 0.024437 0.001473 -0.003660
# 5 -0.006499 0.002675 -0.009496 0.001473 0.039368 0.010778
# 6 -0.002828 0.000773 -0.004624 -0.003660 0.010778 0.028454
#
#
# Mechanical properties :
#
#
# Convention : Reuss Voigt Hill
#
# Bulk Modulus (GPa) = 53.68558 80.93901 67.31229
# Shear Modulus (GPa) = 32.87225 39.79632 36.33428
#
# Velocity S-wave (km/s) = 3.84991 4.23601 4.04756
# Velocity P-wave (km/s) = 6.63089 7.77301 7.22455
#
# Compressibility (1/GPa) = 0.01862698
#
# Stress axis : x y z
#
# Youngs Moduli (GPa) = 72.21275 116.31621 73.06806
#
# Poissons Ratio (x) = 0.59023 0.04606
# Poissons Ratio (y) = 0.36643 0.22267
# Poissons Ratio (z) = 0.04552 0.35446
#
# Static dielectric constant tensor:
#      x y z
#    x 3.938150 0.114430 0.106010 
#    y 0.114430 4.645640 -0.079570 
#    z 0.106010 -0.079570 3.874740 
# 
# 
# High freq. dielectric constant tensor:
#      x y z
#    x 1.867830 0.004110 0.012620 
#    y 0.004110 1.898710 -0.009570 
#    z 0.012620 -0.009570 1.874000 
# 
# From -- ./inp_files/72238.got.cif
#   From: 2010.06.25/outbox.cif.g09.slc.cpg/sg2_37_cif.got.tgz:72238.got - 2010.06.27 13:26:56.
