data_PCOD8012668
_publ_section_title
;
Structure prediction by ZEFSAII (Michael W. Deem and Ramdas Pophale) SiO2 
 PCOD8012668
Probable space group: P -1
;
_chemical_formula_sum "Si O2"
_cell_formula_units_Z 14
_cell_length_a 15.423452
_cell_length_b 9.346410
_cell_length_c 8.858927
_cell_angle_alpha 121.939195
_cell_angle_beta 130.490233
_cell_angle_gamma 89.679001
_cell_volume 702.193503
_symmetry_space_group_name_H-M "P -1"
_symmetry_group_IT_number 2
_symmetry_cell_setting 'triclinic'
loop_
_space_group_symop_operation_xyz
x,y,z
-x,-y,-z
loop_
_atom_site_type_symbol
_atom_site_label
_atom_site_fract_x
_atom_site_fract_y
_atom_site_fract_z
Si Si1 0.524402 0.348222 0.857021
Si Si2 0.748160 0.014061 0.587808
Si Si3 0.523374 0.694359 0.558610
Si Si4 0.935131 0.858328 0.709549
Si Si5 0.806433 0.083700 0.038201
Si Si6 0.770635 0.403822 0.328989
Si Si7 0.628558 0.176727 0.329760
O O1 0.407744 0.130756 0.642646
O O2 0.532824 0.388530 0.714103
O O3 0.500000 0.500000 0.000000
O O4 0.659186 0.361840 0.059233
O O5 0.820772 0.899147 0.542872
O O6 0.806333 0.120256 0.875904
O O7 0.741966 0.142372 0.514165
O O8 0.500000 0.500000 0.500000
O O9 0.428873 0.756797 0.563739
O O10 0.677304 0.877433 0.831005
O O11 0.879555 0.635305 0.577281
O O12 0.059131 0.919400 0.769764
O O13 0.000000 0.000000 0.000000
O O14 0.826067 0.267594 0.260236
O O15 0.711614 0.351640 0.401848
O O16 0.500000 0.000000 0.000000
#
# Coordination Sequence:
#
# PCOD8012668 Si02
#       7
#     2   2   2   2   2   2   2
#     4  11  20  35  64  94 121 161 206 254 311 369
#     4  10  21  40  62  92 127 160 204 255 312 367
#     4  11  24  38  64  97 130 157 204 265 317 363
#     4  10  23  41  65  85 122 172 212 248 300 379
#     4  10  22  42  63  90 123 169 210 250 305 375
#     4  12  22  39  67  91 125 163 210 256 311 368
#     4  12  23  38  63  99 131 154 200 267 318 361
#
# _framework density 19.937522999999999
#
# number of rings (size 3 to 8) (size 9 to 14) (size 15 to 20)
#    0.000    1.143    4.286    2.143    4.000    2.286 
#    0.000    3.571    3.143    0.000    0.000    0.000 
#    0.000    0.000    0.000    0.000    0.000    0.000 
#
# Total GULP energy -173471.663921 kJ/mol
# GULP energy per Si atom -12390.833137 kJ/mol
# Density = 1.989214 g / cm^3
# Si number density = 19.937523 Si / 1000 Ang^3
#
#
#
# Elastic Constant Matrix: (Units=GPa)
#
#
# Indices 1 2 3 4 5 6 
#
# 1 145.8477 54.0574 48.3881 8.4302 -0.8361 -11.0895
# 2 54.0574 122.0559 47.1536 8.6765 5.7788 1.2888
# 3 48.3881 47.1536 85.6663 9.5911 -1.0549 1.7327
# 4 8.4302 8.6765 9.5911 20.7372 -2.5644 -4.8083
# 5 -0.8361 5.7788 -1.0549 -2.5644 38.0117 0.5880
# 6 -11.0895 1.2888 1.7327 -4.8083 0.5880 32.7945
#
#
#
# Elastic Compliance Matrix: (Units=1/GPa)
#
#
# Indices 1 2 3 4 5 6 
#
# 1 0.009426 -0.002731 -0.003883 -0.000028 0.000459 0.003488
# 2 -0.002731 0.011402 -0.004487 -0.002166 -0.002042 -0.001416
# 3 -0.003883 -0.004487 0.016954 -0.004931 0.000777 -0.002769
# 4 -0.000028 -0.002166 -0.004931 0.053768 0.003693 0.008153
# 5 0.000459 -0.002042 0.000777 0.003693 0.026895 0.000254
# 6 0.003488 -0.001416 -0.002769 0.008153 0.000254 0.033065
#
#
# Mechanical properties :
#
#
# Convention : Reuss Voigt Hill
#
# Bulk Modulus (GPa) = 64.18697 72.52981 68.35839
# Shear Modulus (GPa) = 27.94758 31.90673 29.92716
#
# Velocity S-wave (km/s) = 3.74807 4.00476 3.87854
# Velocity P-wave (km/s) = 7.14105 7.60537 7.37687
#
# Compressibility (1/GPa) = 0.01557948
#
# Stress axis : x y z
#
# Youngs Moduli (GPa) = 106.08399 87.70556 58.98332
#
# Poissons Ratio (x) = 0.23956 0.22902
# Poissons Ratio (y) = 0.28976 0.26467
# Poissons Ratio (z) = 0.41190 0.39355
#
# Static dielectric constant tensor:
#      x y z
#    x 4.473340 -0.280220 -0.186970 
#    y -0.280220 3.660090 0.216880 
#    z -0.186970 0.216880 3.639480 
# 
# 
# High freq. dielectric constant tensor:
#      x y z
#    x 1.791970 -0.013650 0.000820 
#    y -0.013650 1.771900 0.003860 
#    z 0.000820 0.003860 1.775210 
# 
# From -- ./inp_files/171643.got.cif
#   From: 2010.06.25/outbox.cif.g09.slc.cpg/sg2_86_cif.got.tgz:171643.got - 2010.06.27 13:26:56.
