data_PCOD8012547
_publ_section_title
;
Structure prediction by ZEFSAII (Michael W. Deem and Ramdas Pophale) SiO2 
 PCOD8012547
Probable space group: P -1
;
_chemical_formula_sum "Si O2"
_cell_formula_units_Z 16
_cell_length_a 9.844766
_cell_length_b 9.362765
_cell_length_c 11.492914
_cell_angle_alpha 85.787833
_cell_angle_beta 95.263450
_cell_angle_gamma 134.894504
_cell_volume 747.230677
_symmetry_space_group_name_H-M "P -1"
_symmetry_group_IT_number 2
_symmetry_cell_setting 'triclinic'
loop_
_space_group_symop_operation_xyz
x,y,z
-x,-y,-z
loop_
_atom_site_type_symbol
_atom_site_label
_atom_site_fract_x
_atom_site_fract_y
_atom_site_fract_z
Si Si1 0.887990 0.262132 0.746093
Si Si2 0.552717 0.123696 0.278727
Si Si3 0.168510 0.444817 0.314227
Si Si4 0.840136 0.486425 0.440998
Si Si5 0.470830 0.669648 0.913795
Si Si6 0.885281 0.061843 0.966046
Si Si7 0.793871 0.052548 0.211901
Si Si8 0.494905 0.386747 0.829960
O O1 0.876559 0.427800 0.744932
O O2 0.965991 0.241317 0.871087
O O3 0.049964 0.338466 0.658835
O O4 0.675915 0.048653 0.706456
O O5 0.657072 0.261939 0.393254
O O6 0.628971 0.276335 0.167349
O O7 0.620980 0.018328 0.252628
O O8 0.228443 0.477220 0.452983
O O9 0.340244 0.492405 0.259511
O O10 0.979855 0.207733 0.297270
O O11 0.000000 0.500000 0.500000
O O12 0.421525 0.487257 0.855414
O O13 0.695356 0.860860 0.905800
O O14 0.415425 0.627676 0.048339
O O15 0.852145 0.126880 0.078136
O O16 0.000000 0.000000 0.000000
O O17 0.701961 0.826740 0.221359
#
# Coordination Sequence:
#
# PCOD8012547 Si02
#       8
#     2   2   2   2   2   2   2   2
#     4  10  22  37  62  89 121 161 194 249 310 341
#     4  11  21  39  62  89 120 156 203 256 296 364
#     4  11  22  38  59  93 121 156 210 251 289 361
#     4  10  22  39  57  91 122 157 209 249 299 350
#     4   9  22  39  61  89 124 160 197 242 315 370
#     4  10  22  39  61  92 125 158 199 247 305 375
#     4  11  22  35  61  92 118 156 202 246 300 364
#     4  10  21  40  61  87 125 160 190 253 308 356
#
# _framework density 21.412396000000001
#
# number of rings (size 3 to 8) (size 9 to 14) (size 15 to 20)
#    0.000    1.750    3.750    0.750    1.750    9.000 
#    0.000    0.625    0.000    9.000    0.000    0.000 
#    0.000    0.000    0.000    0.000    0.000    0.000 
#
# Total GULP energy -198242.682985 kJ/mol
# GULP energy per Si atom -12390.167687 kJ/mol
# Density = 2.136366 g / cm^3
# Si number density = 21.412396 Si / 1000 Ang^3
#
#
#
# Elastic Constant Matrix: (Units=GPa)
#
#
# Indices 1 2 3 4 5 6 
#
# 1 37.9527 21.6314 28.5531 4.1806 -14.0569 9.0569
# 2 21.6314 89.7272 32.3025 21.7194 -13.3551 -5.5290
# 3 28.5531 32.3025 89.0530 13.9218 -21.3158 0.3950
# 4 4.1806 21.7194 13.9218 41.2194 3.5085 -6.7770
# 5 -14.0569 -13.3551 -21.3158 3.5085 31.6906 -1.9275
# 6 9.0569 -5.5290 0.3950 -6.7770 -1.9275 14.8540
#
#
#
# Elastic Compliance Matrix: (Units=1/GPa)
#
#
# Indices 1 2 3 4 5 6 
#
# 1 0.051380 -0.008293 -0.010080 -0.004047 0.010860 -0.034584
# 2 -0.008293 0.016181 -0.001515 -0.006008 0.003323 0.008810
# 3 -0.010080 -0.001515 0.017347 -0.003956 0.007255 0.004258
# 4 -0.004047 -0.006008 -0.003956 0.032268 -0.009721 0.013797
# 5 0.010860 0.003323 0.007255 -0.009721 0.043463 -0.004373
# 6 -0.034584 0.008810 0.004258 0.013797 -0.004373 0.097302
#
#
# Mechanical properties :
#
#
# Convention : Reuss Voigt Hill
#
# Bulk Modulus (GPa) = 22.15728 42.41186 32.28457
# Shear Modulus (GPa) = 15.98661 26.50252 21.24457
#
# Velocity S-wave (km/s) = 2.73537 3.52194 3.15328
# Velocity P-wave (km/s) = 4.51073 6.03232 5.32614
#
# Compressibility (1/GPa) = 0.04513190
#
# Stress axis : x y z
#
# Youngs Moduli (GPa) = 19.46287 61.80008 57.64671
#
# Poissons Ratio (x) = 0.51248 0.58110
# Poissons Ratio (y) = 0.16140 0.08734
# Poissons Ratio (z) = 0.19619 0.09364
#
# Static dielectric constant tensor:
#      x y z
#    x 3.697790 0.052720 -0.120110 
#    y 0.052720 4.118570 -0.334600 
#    z -0.120110 -0.334600 5.354220 
# 
# 
# High freq. dielectric constant tensor:
#      x y z
#    x 1.816560 0.013260 -0.010180 
#    y 0.013260 1.852230 0.007480 
#    z -0.010180 0.007480 1.837740 
# 
# From -- ./inp_files/382394.got.cif
#   From: 2010.06.25/outbox.cif.g09.slc.cpg/sg2_192_cif.got.tgz:382394.got - 2010.06.27 13:26:56.
