data_PCOD8012028
_publ_section_title
;
Structure prediction by ZEFSAII (Michael W. Deem and Ramdas Pophale) SiO2 
 PCOD8012028
Probable space group: P -1
;
_chemical_formula_sum "Si O2"
_cell_formula_units_Z 16
_cell_length_a 7.905676
_cell_length_b 27.190751
_cell_length_c 27.434817
_cell_angle_alpha 10.575804
_cell_angle_beta 44.758864
_cell_angle_gamma 45.120237
_cell_volume 760.816522
_symmetry_space_group_name_H-M "P -1"
_symmetry_group_IT_number 2
_symmetry_cell_setting 'triclinic'
loop_
_space_group_symop_operation_xyz
x,y,z
-x,-y,-z
loop_
_atom_site_type_symbol
_atom_site_label
_atom_site_fract_x
_atom_site_fract_y
_atom_site_fract_z
Si Si1 0.623261 0.812632 0.839981
Si Si2 0.502882 0.880203 0.224212
Si Si3 0.894636 0.334344 0.552268
Si Si4 0.190205 0.752470 0.794740
Si Si5 0.570839 0.795439 0.753783
Si Si6 0.092671 0.137786 0.916918
Si Si7 0.417894 0.370423 0.374268
Si Si8 0.430941 0.604587 0.244254
O O1 0.492490 0.547723 0.140643
O O2 0.555771 0.855781 0.755282
O O3 0.903723 0.778625 0.828836
O O4 0.521023 0.067058 0.643443
O O5 0.294124 0.813974 0.295661
O O6 0.744122 0.937866 0.089187
O O7 0.557635 0.643007 0.481033
O O8 0.412946 0.153831 0.004146
O O9 0.783109 0.630234 0.302790
O O10 0.130456 0.371419 0.435594
O O11 0.955096 0.137688 0.777091
O O12 0.305169 0.777095 0.801634
O O13 0.288303 0.972855 0.525009
O O14 0.266900 0.472104 0.027773
O O15 0.841677 0.279440 0.814743
O O16 0.527578 0.501599 0.272463
#
# Coordination Sequence:
#
# PCOD8012028 Si02
#       8
#     2   2   2   2   2   2   2   2
#     4  12  22  41  66  90 123 178 210 237 309 369
#     4  12  22  38  64  94 111 155 211 263 329 374
#     4  11  23  41  60  86 125 161 200 264 316 366
#     4  10  21  39  65  99 129 156 196 265 304 356
#     4  10  21  39  65  98 131 152 203 256 312 351
#     4  11  21  39  64  87 120 153 203 262 328 389
#     4  11  25  43  58  82 127 169 209 242 294 375
#     4  11  23  40  59  86 125 158 201 265 314 366
#
# _framework density 21.030037
#
# number of rings (size 3 to 8) (size 9 to 14) (size 15 to 20)
#    0.000    1.000    0.000    9.000    0.000    0.000 
#    6.750    0.000    0.000    0.000    0.000    0.000 
#    0.000    0.000    0.000    0.000    0.000    0.000 
#
# Total GULP energy -198432.012687 kJ/mol
# GULP energy per Si atom -12402.000793 kJ/mol
# Density = 2.098217 g / cm^3
# Si number density = 21.030037 Si / 1000 Ang^3
#
#
#
# Elastic Constant Matrix: (Units=GPa)
#
#
# Indices 1 2 3 4 5 6 
#
# 1 26.5072 41.9838 18.4840 -2.3423 16.8385 35.2481
# 2 41.9838 79.1342 1.7050 1.9050 -8.8064 4.9338
# 3 18.4840 1.7050 99.8533 -6.2860 -4.3339 -11.3009
# 4 -2.3423 1.9050 -6.2860 35.5424 6.7769 -2.1237
# 5 16.8385 -8.8064 -4.3339 6.7769 32.4985 -15.5972
# 6 35.2481 4.9338 -11.3009 -2.1237 -15.5972 11.2027
#
#
#
# Elastic Compliance Matrix: (Units=1/GPa)
#
#
# Indices 1 2 3 4 5 6 
#
# 1 -0.000896 0.000344 0.003067 -0.000421 0.011398 0.021553
# 2 0.000344 0.013018 -0.002006 -0.001243 -0.003059 -0.013334
# 3 0.003067 -0.002006 0.009141 0.002292 -0.002912 -0.003167
# 4 -0.000421 -0.001243 0.002292 0.029580 -0.003866 0.004408
# 5 0.011398 -0.003059 -0.002912 -0.003866 0.018465 -0.012479
# 6 0.021553 -0.013334 -0.003167 0.004408 -0.012479 0.007590
#
#
# Mechanical properties :
#
#
# Convention : Reuss Voigt Hill
#
# Bulk Modulus (GPa) = 41.53899 36.64893 39.09396
# Shear Modulus (GPa) = 60.89342 25.40350 43.14846
#
# Velocity S-wave (km/s) = 5.38686 3.47935 4.53454
# Velocity P-wave (km/s) = 7.64763 5.79706 6.78572
#
# Compressibility (1/GPa) = 0.02407377
#
# Stress axis : x y z
#
# Youngs Moduli (GPa) = -1115.71118 76.81520 109.40209
#
# Poissons Ratio (x) = -0.02645 -0.33559
# Poissons Ratio (y) = 0.38411 0.21948
# Poissons Ratio (z) = 3.42243 0.15410
#
# Static dielectric constant tensor:
#      x y z
#    x 3.940160 0.235420 -0.330420 
#    y 0.235420 3.777320 -0.215620 
#    z -0.330420 -0.215620 4.089380 
# 
# 
# High freq. dielectric constant tensor:
#      x y z
#    x 1.829530 0.010940 -0.005260 
#    y 0.010940 1.812200 -0.007140 
#    z -0.005260 -0.007140 1.854480 
# 
# From -- ./inp_files/617668.got.cif
#   From: 2010.06.25/outbox.cif.g09.slc.cpg/sg2_309_cif.got.tgz:617668.got - 2010.06.27 13:26:56.
