data_PCOD8012753
_publ_section_title
;
Structure prediction by ZEFSAII (Michael W. Deem and Ramdas Pophale) SiO2 
 PCOD8012753
Probable space group: P -1
;
_chemical_formula_sum "Si O2"
_cell_formula_units_Z 16
_cell_length_a 8.849063
_cell_length_b 17.724198
_cell_length_c 8.149122
_cell_angle_alpha 67.356032
_cell_angle_beta 78.547801
_cell_angle_gamma 33.910993
_cell_volume 639.687228
_symmetry_space_group_name_H-M "P -1"
_symmetry_group_IT_number 2
_symmetry_cell_setting 'triclinic'
loop_
_space_group_symop_operation_xyz
x,y,z
-x,-y,-z
loop_
_atom_site_type_symbol
_atom_site_label
_atom_site_fract_x
_atom_site_fract_y
_atom_site_fract_z
Si Si1 0.632464 0.655525 0.078036
Si Si2 0.347846 0.897929 0.351328
Si Si3 0.391218 0.608192 0.065984
Si Si4 0.929314 0.594564 0.580414
Si Si5 0.843107 0.168289 0.709377
Si Si6 0.816988 0.357928 0.409964
Si Si7 0.140639 0.158292 0.199803
Si Si8 0.570081 0.089413 0.041947
O O1 0.528868 0.636941 0.978612
O O2 0.437538 0.725178 0.220485
O O3 0.952884 0.495914 0.197965
O O4 0.591303 0.767449 0.941918
O O5 0.598570 0.753005 0.530653
O O6 0.133017 0.917056 0.355104
O O7 0.197406 0.041034 0.353538
O O8 0.469939 0.880160 0.168688
O O9 0.498635 0.526423 0.288551
O O10 0.500000 0.500000 0.000000
O O11 0.057440 0.760214 0.988804
O O12 0.000000 0.500000 0.500000
O O13 0.064762 0.625807 0.503858
O O14 0.815272 0.268354 0.552172
O O15 0.103942 0.051933 0.871576
O O16 0.006468 0.272496 0.275726
O O17 0.432713 0.066458 0.152845
#
# Coordination Sequence:
#
# PCOD8012753 Si02
#       8
#     2   2   2   2   2   2   2   2
#     4  10  21  40  63  89 125 157 203 260 301 359
#     4  11  23  39  65  94 122 161 208 251 307 364
#     4   9  20  41  64  89 123 162 203 249 307 370
#     4  11  21  42  64  91 126 159 208 257 303 363
#     4  11  22  39  61  94 122 163 205 250 308 358
#     4  10  25  41  63  91 126 165 203 248 312 364
#     4  11  23  42  63  92 127 162 202 254 304 368
#     4  11  22  37  64  91 124 162 204 252 306 356
#
# _framework density 25.012222000000001
#
# number of rings (size 3 to 8) (size 9 to 14) (size 15 to 20)
#    0.000    1.500    2.500    4.125    0.000    7.500 
#    0.000    8.125    0.000    0.000    0.000    0.000 
#    0.000    0.000    0.000    0.000    0.000    0.000 
#
# Total GULP energy -198300.875821 kJ/mol
# GULP energy per Si atom -12393.804739 kJ/mol
# Density = 2.495529 g / cm^3
# Si number density = 25.012222 Si / 1000 Ang^3
#
#
#
# Elastic Constant Matrix: (Units=GPa)
#
#
# Indices 1 2 3 4 5 6 
#
# 1 159.9827 36.1131 36.3422 -11.4796 6.8981 30.6369
# 2 36.1131 58.9824 17.1622 -24.9160 6.2423 19.4837
# 3 36.3422 17.1622 66.7949 -32.8400 8.3255 -2.2775
# 4 -11.4796 -24.9160 -32.8400 37.3057 -0.5844 4.1220
# 5 6.8981 6.2423 8.3255 -0.5844 45.2665 -12.8172
# 6 30.6369 19.4837 -2.2775 4.1220 -12.8172 54.7887
#
#
#
# Elastic Compliance Matrix: (Units=1/GPa)
#
#
# Indices 1 2 3 4 5 6 
#
# 1 0.009135 -0.005178 -0.006781 -0.006272 -0.000410 -0.003173
# 2 -0.005178 0.037646 0.010973 0.034711 -0.010231 -0.015041
# 3 -0.006781 0.010973 0.034054 0.035443 -0.007144 -0.003033
# 4 -0.006272 0.034711 0.035443 0.080888 -0.014044 -0.016734
# 5 -0.000410 -0.010231 -0.007144 -0.014044 0.027853 0.011143
# 6 -0.003173 -0.015041 -0.003033 -0.016734 0.011143 0.029114
#
#
# Mechanical properties :
#
#
# Convention : Reuss Voigt Hill
#
# Bulk Modulus (GPa) = 12.68023 51.66611 32.17317
# Shear Modulus (GPa) = 20.24704 40.54834 30.39769
#
# Velocity S-wave (km/s) = 2.84823 4.03071 3.48992
# Velocity P-wave (km/s) = 3.98713 6.50871 5.39725
#
# Compressibility (1/GPa) = 0.07886290
#
# Stress axis : x y z
#
# Youngs Moduli (GPa) = 109.46813 26.56308 29.36532
#
# Poissons Ratio (x) = 0.13755 0.19912
# Poissons Ratio (y) = 0.56687 -0.32223
# Poissons Ratio (z) = 0.74227 -0.29148
#
# Static dielectric constant tensor:
#      x y z
#    x 5.233560 0.481430 0.280040 
#    y 0.481430 4.723980 -0.616460 
#    z 0.280040 -0.616460 4.750250 
# 
# 
# High freq. dielectric constant tensor:
#      x y z
#    x 2.013390 0.029190 0.011410 
#    y 0.029190 2.000480 -0.033160 
#    z 0.011410 -0.033160 1.972830 
# 
# From -- ./inp_files/217026.got.cif
#   From: 2010.06.25/outbox.cif.g09.slc.cpg/sg2_109_cif.got.tgz:217026.got - 2010.06.27 13:26:56.
