data_PCOD8012603
_publ_section_title
;
Structure prediction by ZEFSAII (Michael W. Deem and Ramdas Pophale) SiO2 
 PCOD8012603
Probable space group: P -1
;
_chemical_formula_sum "Si O2"
_cell_formula_units_Z 14
_cell_length_a 9.091750
_cell_length_b 18.226498
_cell_length_c 5.120978
_cell_angle_alpha 104.008689
_cell_angle_beta 108.093898
_cell_angle_gamma 50.577977
_cell_volume 621.955347
_symmetry_space_group_name_H-M "P -1"
_symmetry_group_IT_number 2
_symmetry_cell_setting 'triclinic'
loop_
_space_group_symop_operation_xyz
x,y,z
-x,-y,-z
loop_
_atom_site_type_symbol
_atom_site_label
_atom_site_fract_x
_atom_site_fract_y
_atom_site_fract_z
Si Si1 0.709482 0.076881 0.281878
Si Si2 0.144722 0.217020 0.491614
Si Si3 0.706800 0.381339 0.237706
Si Si4 0.569170 0.743048 0.432301
Si Si5 0.173623 0.887377 0.132343
Si Si6 0.474797 0.409839 0.636477
Si Si7 0.183223 0.110939 0.944312
O O1 0.511571 0.185038 0.296973
O O2 0.836425 0.045959 0.588851
O O3 0.663017 0.002083 0.135843
O O4 0.853202 0.063596 0.118382
O O5 0.249877 0.267124 0.606097
O O6 0.159292 0.174986 0.745640
O O7 0.925219 0.292789 0.342462
O O8 0.254421 0.133492 0.262013
O O9 0.565498 0.387681 0.380409
O O10 0.689556 0.477671 0.315218
O O11 0.646281 0.368774 0.908974
O O12 0.392244 0.787592 0.165886
O O13 0.632823 0.639402 0.452840
O O14 0.025622 0.863880 0.084183
#
# Coordination Sequence:
#
# PCOD8012603 Si02
#       7
#     2   2   2   2   2   2   2
#     4  10  23  39  64  88 120 162 219 245 301 352
#     4  12  26  38  61  93 129 162 201 247 311 360
#     4  10  22  43  65  97 115 157 204 251 306 364
#     4  10  26  38  63  91 128 163 201 248 309 363
#     4  10  21  40  62  85 118 160 212 260 288 358
#     4  10  22  42  71  88 121 156 203 253 303 362
#     4  12  24  41  63  87 125 167 208 257 292 354
#
# _framework density 22.509651000000002
#
# number of rings (size 3 to 8) (size 9 to 14) (size 15 to 20)
#    0.857    0.571    0.000    5.143    6.000    1.714 
#    0.000    0.000    0.000    6.857    0.000    0.000 
#    0.000    0.000    0.000    0.000    0.000    0.000 
#
# Total GULP energy -173535.075777 kJ/mol
# GULP energy per Si atom -12395.362555 kJ/mol
# Density = 2.245842 g / cm^3
# Si number density = 22.509651 Si / 1000 Ang^3
#
#
#
# Elastic Constant Matrix: (Units=GPa)
#
#
# Indices 1 2 3 4 5 6 
#
# 1 87.5606 29.6790 14.8824 14.6212 -12.1301 43.9089
# 2 29.6790 101.5924 12.7923 20.9561 -5.6579 31.8256
# 3 14.8824 12.7923 69.4134 1.3791 -23.1451 18.5216
# 4 14.6212 20.9561 1.3791 20.5445 14.1908 -1.6122
# 5 -12.1301 -5.6579 -23.1451 14.1908 32.2939 4.9623
# 6 43.9089 31.8256 18.5216 -1.6122 4.9623 39.7015
#
#
#
# Elastic Compliance Matrix: (Units=1/GPa)
#
#
# Indices 1 2 3 4 5 6 
#
# 1 0.002296 -0.010288 -0.010044 0.025503 -0.021515 0.014118
# 2 -0.010288 0.007518 -0.006695 0.010235 -0.013468 0.010574
# 3 -0.010044 -0.006695 0.011910 0.018673 -0.006536 0.012495
# 4 0.025503 0.010235 0.018673 -0.010825 0.037229 -0.050215
# 5 -0.021515 -0.013468 -0.006536 0.037229 -0.006663 0.039985
# 6 0.014118 0.010574 0.012495 -0.050215 0.039985 -0.011769
#
#
# Mechanical properties :
#
#
# Convention : Reuss Voigt Hill
#
# Bulk Modulus (GPa) = -30.92954 41.47486 5.27266
# Shear Modulus (GPa) = 139.88686 31.92217 85.90451
#
# Velocity S-wave (km/s) = 7.89178 3.76993 6.18436
# Velocity P-wave (km/s) = 8.32285 6.11679 7.30360
#
# Compressibility (1/GPa) = -0.03233155
#
# Stress axis : x y z
#
# Youngs Moduli (GPa) = 435.58289 133.01697 83.96611
#
# Poissons Ratio (x) = 1.36845 0.84337
# Poissons Ratio (y) = 4.48117 0.56219
# Poissons Ratio (z) = 4.37506 0.89061
#
# Static dielectric constant tensor:
#      x y z
#    x 3.818120 0.107300 -0.122640 
#    y 0.107300 4.151280 0.121390 
#    z -0.122640 0.121390 4.035600 
# 
# 
# High freq. dielectric constant tensor:
#      x y z
#    x 1.879700 0.011750 -0.012100 
#    y 0.011750 1.887210 0.006550 
#    z -0.012100 0.006550 1.887620 
# 
# From -- ./inp_files/48723.got.cif
#   From: 2010.06.25/outbox.cif.g09.slc.cpg/sg2_25_cif.got.tgz:48723.got - 2010.06.27 13:26:56.
