data_PCOD8012498
_publ_section_title
;
Structure prediction by ZEFSAII (Michael W. Deem and Ramdas Pophale) SiO2 
 PCOD8012498
Probable space group: P -1
;
_chemical_formula_sum "Si O2"
_cell_formula_units_Z 10
_cell_length_a 5.082253
_cell_length_b 15.849163
_cell_length_c 5.518361
_cell_angle_alpha 116.614758
_cell_angle_beta 99.867010
_cell_angle_gamma 80.160560
_cell_volume 389.281237
_symmetry_space_group_name_H-M "P -1"
_symmetry_group_IT_number 2
_symmetry_cell_setting 'triclinic'
loop_
_space_group_symop_operation_xyz
x,y,z
-x,-y,-z
loop_
_atom_site_type_symbol
_atom_site_label
_atom_site_fract_x
_atom_site_fract_y
_atom_site_fract_z
Si Si1 0.606006 0.390695 0.350975
Si Si2 0.425173 0.109688 0.174757
Si Si3 0.771990 0.433574 0.930229
Si Si4 0.060536 0.789487 0.552642
Si Si5 0.864367 0.736606 0.950554
O O1 0.500000 0.500000 0.500000
O O2 0.737425 0.361781 0.603017
O O3 0.815014 0.380879 0.135143
O O4 0.342988 0.340873 0.197193
O O5 0.312726 0.160574 0.972886
O O6 0.809254 0.871728 0.637329
O O7 0.675459 0.159148 0.379858
O O8 0.500000 0.000000 0.000000
O O9 0.500000 0.500000 0.000000
O O10 0.000000 0.500000 0.000000
O O11 0.004285 0.726544 0.224964
O O12 0.074840 0.731123 0.741930
#
# Coordination Sequence:
#
# PCOD8012498 Si02
#       5
#     2   2   2   2   2
#     4  10  21  43  63  93 127 173 214 263 315 377
#     4  10  24  45  69  98 131 170 215 267 326 394
#     4  10  21  40  60  88 118 161 212 260 307 368
#     4  10  24  42  67  97 133 168 215 267 326 384
#     4  10  24  43  65  98 134 171 217 270 321 384
#
# _framework density 25.688368000000001
#
# number of rings (size 3 to 8) (size 9 to 14) (size 15 to 20)
#    1.200    0.800    0.000    2.400    2.800    1.600 
#   21.600    0.000    0.000    0.000    0.000    0.000 
#    0.000    0.000    0.000    0.000    0.000    0.000 
#
# Total GULP energy -124016.852738 kJ/mol
# GULP energy per Si atom -12401.685274 kJ/mol
# Density = 2.562990 g / cm^3
# Si number density = 25.688368 Si / 1000 Ang^3
#
#
#
# Elastic Constant Matrix: (Units=GPa)
#
#
# Indices 1 2 3 4 5 6 
#
# 1 158.8061 56.4682 82.4252 -13.5557 -2.4239 2.4793
# 2 56.4682 154.8619 103.3287 -9.6459 3.9334 -24.9356
# 3 82.4252 103.3287 227.5025 -22.2515 5.5237 -17.3314
# 4 -13.5557 -9.6459 -22.2515 38.9572 6.2608 7.9318
# 5 -2.4239 3.9334 5.5237 6.2608 61.3004 7.1466
# 6 2.4793 -24.9356 -17.3314 7.9318 7.1466 42.4309
#
#
#
# Elastic Compliance Matrix: (Units=1/GPa)
#
#
# Indices 1 2 3 4 5 6 
#
# 1 0.008346 -0.001963 -0.002222 0.001624 0.000839 -0.002994
# 2 -0.001963 0.010431 -0.003727 -0.001121 -0.000889 0.005082
# 3 -0.002222 -0.003727 0.007193 0.002429 -0.000810 0.000560
# 4 0.001624 -0.001121 0.002429 0.028699 -0.002465 -0.004711
# 5 0.000839 -0.000889 -0.000810 -0.002465 0.017116 -0.003324
# 6 -0.002994 0.005082 0.000560 -0.004711 -0.003324 0.028398
#
#
# Mechanical properties :
#
#
# Convention : Reuss Voigt Hill
#
# Bulk Modulus (GPa) = 98.56006 113.95719 106.25863
# Shear Modulus (GPa) = 41.87898 48.46758 45.17328
#
# Velocity S-wave (km/s) = 4.04204 4.34839 4.19801
# Velocity P-wave (km/s) = 7.76112 8.34680 8.05928
#
# Compressibility (1/GPa) = 0.01014610
#
# Stress axis : x y z
#
# Youngs Moduli (GPa) = 119.81127 95.86592 139.01550
#
# Poissons Ratio (x) = 0.18819 0.30889
# Poissons Ratio (y) = 0.23520 0.51817
# Poissons Ratio (z) = 0.26622 0.35733
#
# Static dielectric constant tensor:
#      x y z
#    x 5.293330 -0.543270 0.096600 
#    y -0.543270 5.439930 -1.266980 
#    z 0.096600 -1.266980 5.946480 
# 
# 
# High freq. dielectric constant tensor:
#      x y z
#    x 2.085890 -0.038780 -0.019750 
#    y -0.038780 2.048850 -0.018610 
#    z -0.019750 -0.018610 2.042900 
# 
# From -- ./inp_files/2338.got.cif
#   From: 2010.06.25/outbox.cif.g09.slc.cpg/sg2_2_cif.got.tgz:2338.got - 2010.06.27 13:26:56.
