data_PCOD8012512
_publ_section_title
;
Structure prediction by ZEFSAII (Michael W. Deem and Ramdas Pophale) SiO2 
 PCOD8012512
Probable space group: P -1
;
_chemical_formula_sum "Si O2"
_cell_formula_units_Z 16
_cell_length_a 15.384919
_cell_length_b 6.560426
_cell_length_c 15.660687
_cell_angle_alpha 110.183199
_cell_angle_beta 42.643382
_cell_angle_gamma 135.401914
_cell_volume 696.723326
_symmetry_space_group_name_H-M "P -1"
_symmetry_group_IT_number 2
_symmetry_cell_setting 'triclinic'
loop_
_space_group_symop_operation_xyz
x,y,z
-x,-y,-z
loop_
_atom_site_type_symbol
_atom_site_label
_atom_site_fract_x
_atom_site_fract_y
_atom_site_fract_z
Si Si1 0.118512 0.614979 0.345455
Si Si2 0.965052 0.776964 0.264081
Si Si3 0.227807 0.767866 0.566723
Si Si4 0.519476 0.202694 0.877768
Si Si5 0.900093 0.329397 0.134095
Si Si6 0.576273 0.170269 0.267371
Si Si7 0.316527 0.164497 0.166365
Si Si8 0.785139 0.844494 0.260507
O O1 0.266309 0.604071 0.241651
O O2 0.000000 0.500000 0.500000
O O3 0.971168 0.387724 0.344378
O O4 0.238527 0.975078 0.284486
O O5 0.797607 0.502299 0.410084
O O6 0.014072 0.605934 0.160676
O O7 0.909259 0.883808 0.248956
O O8 0.148396 0.075549 0.223481
O O9 0.362323 0.899646 0.408798
O O10 0.307170 0.050766 0.615154
O O11 0.531436 0.464113 0.869349
O O12 0.408091 0.907007 0.851145
O O13 0.412928 0.089357 0.029380
O O14 0.691134 0.165331 0.250530
O O15 0.901229 0.080117 0.128992
O O16 0.000000 0.500000 0.000000
O O17 0.640366 0.499573 0.274498
#
# Coordination Sequence:
#
# PCOD8012512 Si02
#       8
#     2   2   2   2   2   2   2   2
#     4  11  22  42  67  96 129 168 219 268 317 382
#     4   9  20  39  62  88 122 167 208 257 310 376
#     4  10  21  40  60  91 129 161 210 262 317 375
#     4  11  23  42  63  96 132 170 215 262 321 381
#     4  10  22  40  60  89 122 157 208 262 310 374
#     4  11  23  38  60  94 127 165 208 264 308 381
#     4  10  23  42  67  93 130 174 212 265 325 375
#     4  10  22  39  65  90 123 169 206 254 324 378
#
# _framework density 22.964642000000001
#
# number of rings (size 3 to 8) (size 9 to 14) (size 15 to 20)
#    0.000    1.750    1.250    2.250    0.000    9.000 
#    2.250    3.750    0.000    0.000    0.000    0.000 
#    0.000    0.000    0.000    0.000    0.000    0.000 
#
# Total GULP energy -198219.402081 kJ/mol
# GULP energy per Si atom -12388.712630 kJ/mol
# Density = 2.291237 g / cm^3
# Si number density = 22.964642 Si / 1000 Ang^3
#
#
#
# Elastic Constant Matrix: (Units=GPa)
#
#
# Indices 1 2 3 4 5 6 
#
# 1 80.4710 27.7523 28.5889 -6.7842 12.5322 -21.0898
# 2 27.7523 113.8452 25.7037 -7.0055 15.5073 -9.0610
# 3 28.5889 25.7037 119.5652 -16.7955 20.1645 -18.5784
# 4 -6.7842 -7.0055 -16.7955 27.1935 -7.6702 11.9100
# 5 12.5322 15.5073 20.1645 -7.6702 35.1027 -4.8788
# 6 -21.0898 -9.0610 -18.5784 11.9100 -4.8788 30.1575
#
#
#
# Elastic Compliance Matrix: (Units=1/GPa)
#
#
# Indices 1 2 3 4 5 6 
#
# 1 0.016996 -0.002668 -0.001738 -0.003090 -0.003074 0.010737
# 2 -0.002668 0.010067 -0.000991 0.000581 -0.002818 -0.000137
# 3 -0.001738 -0.000991 0.010597 0.003440 -0.003856 0.003033
# 4 -0.003090 0.000581 0.003440 0.047972 0.006893 -0.017697
# 5 -0.003074 -0.002818 -0.003856 0.006893 0.034195 -0.002562
# 6 0.010737 -0.000137 0.003033 -0.017697 -0.002562 0.049070
#
#
# Mechanical properties :
#
#
# Convention : Reuss Voigt Hill
#
# Bulk Modulus (GPa) = 37.21941 53.10790 45.16366
# Shear Modulus (GPa) = 26.50480 33.94653 30.22566
#
# Velocity S-wave (km/s) = 3.40097 3.84892 3.63186
# Velocity P-wave (km/s) = 5.62713 6.55198 6.10709
#
# Compressibility (1/GPa) = 0.02686770
#
# Stress axis : x y z
#
# Youngs Moduli (GPa) = 58.83601 99.33926 94.36698
#
# Poissons Ratio (x) = 0.26501 0.16398
# Poissons Ratio (y) = 0.15696 0.09348
# Poissons Ratio (z) = 0.10224 0.09841
#
# Static dielectric constant tensor:
#      x y z
#    x 9.457610 -1.381970 1.951330 
#    y -1.381970 4.485790 -0.638920 
#    z 1.951330 -0.638920 5.014890 
# 
# 
# High freq. dielectric constant tensor:
#      x y z
#    x 1.898300 -0.000390 0.010620 
#    y -0.000390 1.908690 -0.009660 
#    z 0.010620 -0.009660 1.901680 
# 
# From -- ./inp_files/410785.got.cif
#   From: 2010.06.25/outbox.cif.g09.slc.cpg/sg2_206_cif.got.tgz:410785.got - 2010.06.27 13:26:56.
