data_PCOD8012371
_publ_section_title
;
Structure prediction by ZEFSAII (Michael W. Deem and Ramdas Pophale) SiO2 
 PCOD8012371
Probable space group: P -1
;
_chemical_formula_sum "Si O2"
_cell_formula_units_Z 14
_cell_length_a 15.347157
_cell_length_b 11.265774
_cell_length_c 20.650439
_cell_angle_alpha 20.657025
_cell_angle_beta 150.000610
_cell_angle_gamma 147.477952
_cell_volume 618.754776
_symmetry_space_group_name_H-M "P -1"
_symmetry_group_IT_number 2
_symmetry_cell_setting 'triclinic'
loop_
_space_group_symop_operation_xyz
x,y,z
-x,-y,-z
loop_
_atom_site_type_symbol
_atom_site_label
_atom_site_fract_x
_atom_site_fract_y
_atom_site_fract_z
Si Si1 0.316289 0.780598 0.698827
Si Si2 0.095839 0.406975 0.986415
Si Si3 0.900525 0.722021 0.277357
Si Si4 0.311778 0.350907 0.032787
Si Si5 0.238146 0.679304 0.263228
Si Si6 0.449308 0.529402 0.368447
Si Si7 0.327931 0.870662 0.996906
O O1 0.156214 0.530451 0.689689
O O2 0.489474 0.707346 0.811528
O O3 0.317848 0.180621 0.485393
O O4 0.298417 0.691284 0.809475
O O5 0.162975 0.693932 0.936844
O O6 0.942912 0.520815 0.784290
O O7 0.260932 0.384256 0.057658
O O8 0.027456 0.055971 0.159673
O O9 0.000000 0.500000 0.500000
O O10 0.737097 0.832605 0.155080
O O11 0.188699 0.016943 0.091617
O O12 0.388175 0.800728 0.241318
O O13 0.338938 0.472703 0.486252
O O14 0.395858 0.597669 0.226852
O O15 0.500000 0.000000 0.000000
#
# Coordination Sequence:
#
# PCOD8012371 Si02
#       7
#     2   2   2   2   2   2   2
#     4  10  21  40  69  95 134 174 220 268 333 408
#     4  12  24  42  72  97 138 172 222 284 331 391
#     4  12  26  43  69 100 136 174 227 278 335 392
#     4  10  21  41  66  99 133 177 216 271 337 395
#     4  10  21  39  70  96 134 173 217 276 328 394
#     4  10  22  43  69  98 134 179 217 271 341 396
#     4  12  27  48  69  94 138 184 226 271 339 407
#
# _framework density 22.626089
#
# number of rings (size 3 to 8) (size 9 to 14) (size 15 to 20)
#    0.000    1.143    2.857    2.571    2.000    5.714 
#    0.000    6.429    0.000    0.000    0.000    0.000 
#    0.000    0.000    0.000    0.000    0.000    0.000 
#
# Total GULP energy -173498.977845 kJ/mol
# GULP energy per Si atom -12392.784132 kJ/mol
# Density = 2.257459 g / cm^3
# Si number density = 22.626089 Si / 1000 Ang^3
#
#
#
# Elastic Constant Matrix: (Units=GPa)
#
#
# Indices 1 2 3 4 5 6 
#
# 1 107.7086 -1.1088 34.1032 -7.1413 -12.6312 11.5292
# 2 -1.1088 85.1743 25.2764 14.5248 -11.4720 -10.6484
# 3 34.1032 25.2764 96.5286 8.8371 -8.2600 1.5302
# 4 -7.1413 14.5248 8.8371 31.9452 -1.0686 -3.5417
# 5 -12.6312 -11.4720 -8.2600 -1.0686 20.1609 2.0114
# 6 11.5292 -10.6484 1.5302 -3.5417 2.0114 37.8305
#
#
#
# Elastic Compliance Matrix: (Units=1/GPa)
#
#
# Indices 1 2 3 4 5 6 
#
# 1 0.012022 0.001451 -0.004253 0.003090 0.007096 -0.003171
# 2 0.001451 0.015005 -0.003394 -0.004970 0.007488 0.003055
# 3 -0.004253 -0.003394 0.013096 -0.003065 0.000658 -0.000511
# 4 0.003090 -0.004970 -0.003065 0.035211 -0.000391 0.001101
# 5 0.007096 0.007488 0.000658 -0.000391 0.058880 -0.003248
# 6 -0.003171 0.003055 -0.000511 0.001101 -0.003248 0.028557
#
#
# Mechanical properties :
#
#
# Convention : Reuss Voigt Hill
#
# Bulk Modulus (GPa) = 36.06147 45.10591 40.58369
# Shear Modulus (GPa) = 27.11394 33.39670 30.25532
#
# Velocity S-wave (km/s) = 3.46547 3.84608 3.66072
# Velocity P-wave (km/s) = 5.65555 6.30093 5.98694
#
# Compressibility (1/GPa) = 0.02773043
#
# Stress axis : x y z
#
# Youngs Moduli (GPa) = 83.17918 66.64511 76.35967
#
# Poissons Ratio (x) = -0.09669 0.32474
# Poissons Ratio (y) = -0.12068 0.25919
# Poissons Ratio (z) = 0.35374 0.22622
#
# Static dielectric constant tensor:
#      x y z
#    x 4.095750 -0.289230 0.040770 
#    y -0.289230 4.348870 0.011950 
#    z 0.040770 0.011950 4.168910 
# 
# 
# High freq. dielectric constant tensor:
#      x y z
#    x 1.888270 -0.014330 0.000500 
#    y -0.014330 1.898820 0.008020 
#    z 0.000500 0.008020 1.886910 
# 
# From -- ./inp_files/209121.got.cif
#   From: 2010.06.25/outbox.cif.g09.slc.cpg/sg2_105_cif.got.tgz:209121.got - 2010.06.27 13:26:56.
