data_PCOD8012651
_publ_section_title
;
Structure prediction by ZEFSAII (Michael W. Deem and Ramdas Pophale) SiO2 
 PCOD8012651
Probable space group: P -1
;
_chemical_formula_sum "Si O2"
_cell_formula_units_Z 14
_cell_length_a 12.389456
_cell_length_b 6.992644
_cell_length_c 11.063028
_cell_angle_alpha 92.038030
_cell_angle_beta 59.584432
_cell_angle_gamma 123.953546
_cell_volume 643.369537
_symmetry_space_group_name_H-M "P -1"
_symmetry_group_IT_number 2
_symmetry_cell_setting 'triclinic'
loop_
_space_group_symop_operation_xyz
x,y,z
-x,-y,-z
loop_
_atom_site_type_symbol
_atom_site_label
_atom_site_fract_x
_atom_site_fract_y
_atom_site_fract_z
Si Si1 0.534404 0.010564 0.287694
Si Si2 0.348014 0.121584 0.079421
Si Si3 0.193431 0.977768 0.922901
Si Si4 0.577352 0.368908 0.453148
Si Si5 0.330430 0.706220 0.169595
Si Si6 0.100043 0.179538 0.783408
Si Si7 0.892362 0.845646 0.673561
O O1 0.724529 0.146419 0.161534
O O2 0.515727 0.197692 0.365367
O O3 0.467055 0.777997 0.403176
O O4 0.429432 0.906013 0.224444
O O5 0.264006 0.165292 0.233720
O O6 0.276083 0.834359 0.121481
O O7 0.543925 0.307841 0.978302
O O8 0.299642 0.164367 0.977658
O O9 0.197327 0.122899 0.809781
O O10 0.010374 0.787540 0.070376
O O11 0.500000 0.500000 0.500000
O O12 0.770400 0.563724 0.349642
O O13 0.176741 0.438205 0.296771
O O14 0.998218 0.967791 0.736530
O O15 0.000000 0.000000 0.500000
#
# Coordination Sequence:
#
# PCOD8012651 Si02
#       7
#     2   2   2   2   2   2   2
#     4  10  22  39  63  91 119 160 210 252 300 365
#     4   9  21  42  62  89 122 164 212 252 300 359
#     4   9  19  42  59  90 121 157 214 247 301 358
#     4  11  22  40  61  90 124 159 201 255 309 363
#     4  10  21  42  63  91 121 161 212 252 301 364
#     4  10  21  40  62  90 126 162 202 253 310 359
#     4  11  23  40  62  93 128 165 198 251 316 368
#
# _framework density 21.760432999999999
#
# number of rings (size 3 to 8) (size 9 to 14) (size 15 to 20)
#    0.000    2.000    1.429    1.286    0.000    3.429 
#   28.286    0.000    0.000    0.000    0.000    0.000 
#    0.000    0.000    0.000    0.000    0.000    0.000 
#
# Total GULP energy -173508.955416 kJ/mol
# GULP energy per Si atom -12393.496815 kJ/mol
# Density = 2.171091 g / cm^3
# Si number density = 21.760433 Si / 1000 Ang^3
#
#
#
# Elastic Constant Matrix: (Units=GPa)
#
#
# Indices 1 2 3 4 5 6 
#
# 1 82.1284 35.2822 31.7414 -0.9066 8.2877 -1.8261
# 2 35.2822 89.4492 43.9214 -11.0969 -0.1163 -2.5929
# 3 31.7414 43.9214 120.3400 -3.2093 -5.3819 -3.3203
# 4 -0.9066 -11.0969 -3.2093 36.2180 5.2967 -8.8706
# 5 8.2877 -0.1163 -5.3819 5.2967 25.7300 2.4569
# 6 -1.8261 -2.5929 -3.3203 -8.8706 2.4569 22.1455
#
#
#
# Elastic Compliance Matrix: (Units=1/GPa)
#
#
# Indices 1 2 3 4 5 6 
#
# 1 0.015936 -0.005029 -0.002609 -0.000333 -0.005713 0.000834
# 2 -0.005029 0.016018 -0.004324 0.005207 -0.000567 0.002961
# 3 -0.002609 -0.004324 0.010702 -0.000870 0.003221 0.000177
# 4 -0.000333 0.005207 -0.000870 0.034044 -0.008494 0.015031
# 5 -0.005713 -0.000567 0.003221 -0.008494 0.043920 -0.008329
# 6 0.000834 0.002961 0.000177 0.015031 -0.008329 0.052543
#
#
# Mechanical properties :
#
#
# Convention : Reuss Voigt Hill
#
# Bulk Modulus (GPa) = 53.38937 57.08977 55.23957
# Shear Modulus (GPa) = 24.59026 28.88355 26.73691
#
# Velocity S-wave (km/s) = 3.36526 3.64722 3.50908
# Velocity P-wave (km/s) = 6.29987 6.63542 6.46982
#
# Compressibility (1/GPa) = 0.01873032
#
# Stress axis : x y z
#
# Youngs Moduli (GPa) = 62.74933 62.43114 93.43997
#
# Poissons Ratio (x) = 0.31399 0.24380
# Poissons Ratio (y) = 0.31559 0.40406
# Poissons Ratio (z) = 0.16373 0.26997
#
# Static dielectric constant tensor:
#      x y z
#    x 4.010830 -0.180370 -0.105940 
#    y -0.180370 3.668770 0.024020 
#    z -0.105940 0.024020 4.319290 
# 
# 
# High freq. dielectric constant tensor:
#      x y z
#    x 1.851850 -0.008160 -0.002930 
#    y -0.008160 1.827050 0.002070 
#    z -0.002930 0.002070 1.875790 
# 
# From -- ./inp_files/71456.got.cif
#   From: 2010.06.25/outbox.cif.g09.slc.cpg/sg2_36_cif.got.tgz:71456.got - 2010.06.27 13:26:56.
