data_PCOD8012392
_publ_section_title
;
Structure prediction by ZEFSAII (Michael W. Deem and Ramdas Pophale) SiO2 
 PCOD8012392
Probable space group: P -1
;
_chemical_formula_sum "Si O2"
_cell_formula_units_Z 14
_cell_length_a 8.497639
_cell_length_b 11.472652
_cell_length_c 13.406644
_cell_angle_alpha 39.690569
_cell_angle_beta 48.392460
_cell_angle_gamma 55.813763
_cell_volume 620.568749
_symmetry_space_group_name_H-M "P -1"
_symmetry_group_IT_number 2
_symmetry_cell_setting 'triclinic'
loop_
_space_group_symop_operation_xyz
x,y,z
-x,-y,-z
loop_
_atom_site_type_symbol
_atom_site_label
_atom_site_fract_x
_atom_site_fract_y
_atom_site_fract_z
Si Si1 0.627981 0.896156 0.876884
Si Si2 0.347264 0.390680 0.780536
Si Si3 0.264368 0.953582 0.644040
Si Si4 0.783990 0.987715 0.156533
Si Si5 0.054441 0.711285 0.739793
Si Si6 0.299929 0.399891 0.567136
Si Si7 0.101742 0.787974 0.445009
O O1 0.805622 0.762704 0.830469
O O2 0.417657 0.934076 0.875027
O O3 0.719600 0.083545 0.749694
O O4 0.574326 0.787741 0.070813
O O5 0.118421 0.489189 0.850610
O O6 0.357755 0.327557 0.702592
O O7 0.501400 0.553295 0.613556
O O8 0.220787 0.898349 0.813550
O O9 0.124582 0.139264 0.549638
O O10 0.500000 0.000000 0.500000
O O11 0.201025 0.787748 0.712458
O O12 0.787496 0.775228 0.330508
O O13 0.000000 0.000000 0.000000
O O14 0.108742 0.799527 0.553649
O O15 0.137690 0.582729 0.521805
#
# Coordination Sequence:
#
# PCOD8012392 Si02
#       7
#     2   2   2   2   2   2   2
#     4  11  22  40  68  92 129 166 223 261 319 376
#     4  10  21  39  71  97 122 164 218 281 308 376
#     4  11  22  41  68  94 133 173 211 261 330 389
#     4  12  28  44  61  96 140 173 211 267 326 396
#     4  10  21  42  67 100 123 165 223 271 317 377
#     4  10  23  42  63  94 131 164 218 264 326 380
#     4  10  22  41  73  96 123 171 220 272 316 381
#
# _framework density 22.559949
#
# number of rings (size 3 to 8) (size 9 to 14) (size 15 to 20)
#    0.000    1.429    0.000    7.286    6.000    1.714 
#    2.571    0.714    0.000    0.000    0.000    0.000 
#    0.000    0.000    0.000    0.000    0.000    0.000 
#
# Total GULP energy -173552.740160 kJ/mol
# GULP energy per Si atom -12396.624297 kJ/mol
# Density = 2.250860 g / cm^3
# Si number density = 22.559949 Si / 1000 Ang^3
#
#
#
# Elastic Constant Matrix: (Units=GPa)
#
#
# Indices 1 2 3 4 5 6 
#
# 1 138.7289 42.3979 52.4153 2.0036 3.6886 -21.7652
# 2 42.3979 83.3317 40.5158 4.0500 7.8568 -15.6453
# 3 52.4153 40.5158 110.7662 4.7378 13.0955 -1.7443
# 4 2.0036 4.0500 4.7378 38.5257 -9.7920 0.8162
# 5 3.6886 7.8568 13.0955 -9.7920 38.7555 1.4656
# 6 -21.7652 -15.6453 -1.7443 0.8162 1.4656 29.9753
#
#
#
# Elastic Compliance Matrix: (Units=1/GPa)
#
#
# Indices 1 2 3 4 5 6 
#
# 1 0.010365 -0.002218 -0.004087 0.000239 0.000674 0.006091
# 2 -0.002218 0.017097 -0.004727 -0.001864 -0.002401 0.007206
# 3 -0.004087 -0.004727 0.013084 -0.001649 -0.003322 -0.004467
# 4 0.000239 -0.001864 -0.001649 0.028467 0.008183 -0.002070
# 5 0.000674 -0.002401 -0.003322 0.008183 0.029514 -0.002623
# 6 0.006091 0.007206 -0.004467 -0.002070 -0.002623 0.041469
#
#
# Mechanical properties :
#
#
# Convention : Reuss Voigt Hill
#
# Bulk Modulus (GPa) = 54.10948 67.05386 60.58167
# Shear Modulus (GPa) = 29.72278 34.61782 32.17030
#
# Velocity S-wave (km/s) = 3.63368 3.92150 3.78033
# Velocity P-wave (km/s) = 6.45303 7.09163 6.77986
#
# Compressibility (1/GPa) = 0.01848105
#
# Stress axis : x y z
#
# Youngs Moduli (GPa) = 96.48187 58.49048 76.42794
#
# Poissons Ratio (x) = 0.12971 0.31240
# Poissons Ratio (y) = 0.21397 0.36129
# Poissons Ratio (z) = 0.39437 0.27649
#
# Static dielectric constant tensor:
#      x y z
#    x 4.201930 -0.207630 0.196960 
#    y -0.207630 4.250290 0.095110 
#    z 0.196960 0.095110 4.114940 
# 
# 
# High freq. dielectric constant tensor:
#      x y z
#    x 1.872830 -0.016740 0.011360 
#    y -0.016740 1.908830 0.010250 
#    z 0.011360 0.010250 1.892230 
# 
# From -- ./inp_files/391809.got.cif
#   From: 2010.06.25/outbox.cif.g09.slc.cpg/sg2_196_cif.got.tgz:391809.got - 2010.06.27 13:26:56.
