data_PCOD8012589
_publ_section_title
;
Structure prediction by ZEFSAII (Michael W. Deem and Ramdas Pophale) SiO2 
 PCOD8012589
Probable space group: P -1
;
_chemical_formula_sum "Si O2"
_cell_formula_units_Z 12
_cell_length_a 12.529175
_cell_length_b 13.690216
_cell_length_c 10.082277
_cell_angle_alpha 132.830361
_cell_angle_beta 146.339492
_cell_angle_gamma 35.608177
_cell_volume 558.077316
_symmetry_space_group_name_H-M "P -1"
_symmetry_group_IT_number 2
_symmetry_cell_setting 'triclinic'
loop_
_space_group_symop_operation_xyz
x,y,z
-x,-y,-z
loop_
_atom_site_type_symbol
_atom_site_label
_atom_site_fract_x
_atom_site_fract_y
_atom_site_fract_z
Si Si1 0.702886 0.976756 0.592939
Si Si2 0.370090 0.363347 0.186487
Si Si3 0.776786 0.247179 0.990720
Si Si4 0.337087 0.984804 0.719145
Si Si5 0.447926 0.574472 0.818745
Si Si6 0.942021 0.339470 0.677969
O O1 0.757845 0.109229 0.785006
O O2 0.500000 0.000000 0.500000
O O3 0.632172 0.980113 0.369643
O O4 0.959863 0.806698 0.745549
O O5 0.514340 0.340013 0.183161
O O6 0.252594 0.544969 0.300047
O O7 0.570202 0.206805 0.344798
O O8 0.153285 0.358471 0.913440
O O9 0.683117 0.384304 0.905424
O O10 0.597347 0.323031 0.000739
O O11 0.060898 0.139381 0.622944
O O12 0.500000 0.000000 0.000000
O O13 0.209840 0.586321 0.547620
#
# Coordination Sequence:
#
# PCOD8012589 Si02
#       6
#     2   2   2   2   2   2
#     4  11  24  45  68  94 134 174 215 275 331 384
#     4  10  23  39  65  95 131 174 217 268 336 381
#     4  10  25  41  64  98 130 169 228 262 324 408
#     4  10  22  41  66  98 128 167 226 270 316 400
#     4  11  22  42  64  93 132 172 214 274 326 389
#     4  10  21  40  61  94 134 163 222 269 319 396
#
# _framework density 21.502396000000001
#
# number of rings (size 3 to 8) (size 9 to 14) (size 15 to 20)
#    0.000    1.667    1.667    1.500    4.667    6.000 
#    3.000    3.333    0.000    0.000    0.000    0.000 
#    0.000    0.000    0.000    0.000    0.000    0.000 
#
# Total GULP energy -148667.859748 kJ/mol
# GULP energy per Si atom -12388.988312 kJ/mol
# Density = 2.145346 g / cm^3
# Si number density = 21.502396 Si / 1000 Ang^3
#
#
#
# Elastic Constant Matrix: (Units=GPa)
#
#
# Indices 1 2 3 4 5 6 
#
# 1 98.1731 52.0863 32.0160 -18.2023 -6.0426 -6.5957
# 2 52.0863 130.8272 41.4569 -37.4485 -7.0545 -17.1594
# 3 32.0160 41.4569 118.6876 -30.2802 -16.2452 -2.1858
# 4 -18.2023 -37.4485 -30.2802 41.7572 -2.7461 -5.7740
# 5 -6.0426 -7.0545 -16.2452 -2.7461 29.6817 -3.0667
# 6 -6.5957 -17.1594 -2.1858 -5.7740 -3.0667 25.8138
#
#
#
# Elastic Compliance Matrix: (Units=1/GPa)
#
#
# Indices 1 2 3 4 5 6 
#
# 1 0.013326 -0.004433 -0.001743 0.000701 0.000828 0.000566
# 2 -0.004433 0.015397 0.000527 0.014440 0.005730 0.013057
# 3 -0.001743 0.000527 0.012347 0.009743 0.007849 0.004062
# 4 0.000701 0.014440 0.009743 0.048535 0.015809 0.023337
# 5 0.000828 0.005730 0.007849 0.015809 0.042349 0.013252
# 6 0.000566 0.013057 0.004062 0.023337 0.013252 0.054701
#
#
# Mechanical properties :
#
#
# Convention : Reuss Voigt Hill
#
# Bulk Modulus (GPa) = 33.59213 66.53400 50.06307
# Shear Modulus (GPa) = 24.05261 34.25913 29.15587
#
# Velocity S-wave (km/s) = 3.34818 3.99591 3.68630
# Velocity P-wave (km/s) = 5.53204 7.23184 6.43828
#
# Compressibility (1/GPa) = 0.02976888
#
# Stress axis : x y z
#
# Youngs Moduli (GPa) = 75.04243 64.94921 80.99341
#
# Poissons Ratio (x) = 0.28794 0.14120
# Poissons Ratio (y) = 0.33269 -0.04265
# Poissons Ratio (z) = 0.13083 -0.03420
#
# Static dielectric constant tensor:
#      x y z
#    x 3.533160 -0.378000 -0.080350 
#    y -0.378000 4.664540 -0.323370 
#    z -0.080350 -0.323370 4.225180 
# 
# 
# High freq. dielectric constant tensor:
#      x y z
#    x 1.817720 -0.025520 -0.009910 
#    y -0.025520 1.856350 -0.012130 
#    z -0.009910 -0.012130 1.863080 
# 
# From -- ./inp_files/160629.got.cif
#   From: 2010.06.25/outbox.cif.g09.slc.cpg/sg2_81_cif.got.tgz:160629.got - 2010.06.27 13:26:56.
