data_PCOD8012516
_publ_section_title
;
Structure prediction by ZEFSAII (Michael W. Deem and Ramdas Pophale) SiO2 
 PCOD8012516
Probable space group: P -1
;
_chemical_formula_sum "Si O2"
_cell_formula_units_Z 14
_cell_length_a 11.867157
_cell_length_b 9.250394
_cell_length_c 11.780644
_cell_angle_alpha 83.433615
_cell_angle_beta 84.377395
_cell_angle_gamma 24.950712
_cell_volume 541.905452
_symmetry_space_group_name_H-M "P -1"
_symmetry_group_IT_number 2
_symmetry_cell_setting 'triclinic'
loop_
_space_group_symop_operation_xyz
x,y,z
-x,-y,-z
loop_
_atom_site_type_symbol
_atom_site_label
_atom_site_fract_x
_atom_site_fract_y
_atom_site_fract_z
Si Si1 0.353195 0.579166 0.879886
Si Si2 0.791960 0.261985 0.869104
Si Si3 0.587599 0.245846 0.570434
Si Si4 0.490757 0.108753 0.880573
Si Si5 0.173392 0.474386 0.245085
Si Si6 0.141885 0.564352 0.675518
Si Si7 0.683741 0.932749 0.381125
O O1 0.533993 0.493658 0.808190
O O2 0.531522 0.227155 0.903922
O O3 0.248684 0.754406 0.998349
O O4 0.068962 0.883477 0.815767
O O5 0.806638 0.419097 0.857821
O O6 0.500000 0.500000 0.500000
O O7 0.340109 0.471761 0.646572
O O8 0.685019 0.010725 0.493728
O O9 0.838991 0.974174 0.655187
O O10 0.213825 0.415299 0.807581
O O11 0.732897 0.783332 0.801585
O O12 0.500000 0.000000 0.000000
O O13 0.873505 0.804358 0.289174
O O14 0.376125 0.286012 0.341003
O O15 0.202159 0.365101 0.595291
#
# Coordination Sequence:
#
# PCOD8012516 Si02
#       7
#     2   2   2   2   2   2   2
#     4  10  22  39  62  89 130 181 225 281 336 388
#     4  10  21  40  60  92 131 178 227 277 338 403
#     4  12  26  48  75 107 138 180 234 301 357 415
#     4  11  24  46  70 105 143 189 233 293 332 415
#     4  11  23  42  68 103 135 184 237 277 350 419
#     4  11  25  46  72 106 141 186 235 281 360 423
#     4  11  24  44  71 101 138 180 225 291 353 425
#
# _framework density 25.834765999999998
#
# number of rings (size 3 to 8) (size 9 to 14) (size 15 to 20)
#    0.000    1.143    1.429    4.714    0.000    6.857 
#    0.000    7.143    0.000    0.000    0.000    0.000 
#    0.000    0.000    0.000    0.000    0.000    0.000 
#
# Total GULP energy -173529.983003 kJ/mol
# GULP energy per Si atom -12394.998786 kJ/mol
# Density = 2.577596 g / cm^3
# Si number density = 25.834766 Si / 1000 Ang^3
#
#
#
# Elastic Constant Matrix: (Units=GPa)
#
#
# Indices 1 2 3 4 5 6 
#
# 1 162.4592 71.3424 23.6351 -4.2641 -24.6148 -25.1058
# 2 71.3424 135.9910 41.8615 -15.8673 -6.4149 -15.5778
# 3 23.6351 41.8615 92.7452 -12.1835 -0.4186 -14.6751
# 4 -4.2641 -15.8673 -12.1835 41.6033 0.7403 -4.8597
# 5 -24.6148 -6.4149 -0.4186 0.7403 30.0258 -0.0606
# 6 -25.1058 -15.5778 -14.6751 -4.8597 -0.0606 48.0523
#
#
#
# Elastic Compliance Matrix: (Units=1/GPa)
#
#
# Indices 1 2 3 4 5 6 
#
# 1 0.009694 -0.004404 0.000076 -0.000365 0.007024 0.003632
# 2 -0.004404 0.011041 -0.003411 0.002846 -0.001368 0.000523
# 3 0.000076 -0.003411 0.013206 0.002966 -0.000549 0.003266
# 4 -0.000365 0.002846 0.002966 0.026462 -0.000293 0.004314
# 5 0.007024 -0.001368 -0.000549 -0.000293 0.038776 0.003078
# 6 0.003632 0.000523 0.003266 0.004314 0.003078 0.024316
#
#
# Mechanical properties :
#
#
# Convention : Reuss Voigt Hill
#
# Bulk Modulus (GPa) = 54.15990 73.87483 64.01736
# Shear Modulus (GPa) = 34.45208 40.89337 37.67272
#
# Velocity S-wave (km/s) = 3.65575 3.98286 3.82280
# Velocity P-wave (km/s) = 6.23128 7.05749 6.65721
#
# Compressibility (1/GPa) = 0.01846384
#
# Stress axis : x y z
#
# Youngs Moduli (GPa) = 103.15217 90.56871 75.72139
#
# Poissons Ratio (x) = 0.39889 -0.00575
# Poissons Ratio (y) = 0.45431 0.25827
# Poissons Ratio (z) = -0.00784 0.30891
#
# Static dielectric constant tensor:
#      x y z
#    x 5.018220 -0.213250 0.096490 
#    y -0.213250 4.868110 -0.030360 
#    z 0.096490 -0.030360 4.382560 
# 
# 
# High freq. dielectric constant tensor:
#      x y z
#    x 2.045110 -0.003330 0.004450 
#    y -0.003330 2.043960 0.004980 
#    z 0.004450 0.004980 2.013170 
# 
# From -- ./inp_files/419360.got.cif
#   From: 2010.06.25/outbox.cif.g09.slc.cpg/sg2_210_cif.got.tgz:419360.got - 2010.06.27 13:26:56.
