data_PCOD8012643
_publ_section_title
;
Structure prediction by ZEFSAII (Michael W. Deem and Ramdas Pophale) SiO2 
 PCOD8012643
Probable space group: P -1
;
_chemical_formula_sum "Si O2"
_cell_formula_units_Z 14
_cell_length_a 14.211653
_cell_length_b 10.889927
_cell_length_c 8.367456
_cell_angle_alpha 84.920082
_cell_angle_beta 114.707351
_cell_angle_gamma 142.969561
_cell_volume 633.394128
_symmetry_space_group_name_H-M "P -1"
_symmetry_group_IT_number 2
_symmetry_cell_setting 'triclinic'
loop_
_space_group_symop_operation_xyz
x,y,z
-x,-y,-z
loop_
_atom_site_type_symbol
_atom_site_label
_atom_site_fract_x
_atom_site_fract_y
_atom_site_fract_z
Si Si1 0.381925 0.761432 0.390361
Si Si2 0.657854 0.150921 0.959515
Si Si3 0.739074 0.863631 0.076659
Si Si4 0.040668 0.402815 0.738573
Si Si5 0.300127 0.019911 0.238571
Si Si6 0.706997 0.556623 0.166141
Si Si7 0.067250 0.344554 0.429190
O O1 0.356198 0.746635 0.184227
O O2 0.515667 0.779877 0.537447
O O3 0.175689 0.540979 0.355700
O O4 0.500000 0.000000 0.500000
O O5 0.645584 0.010195 0.873927
O O6 0.861819 0.369355 0.169763
O O7 0.500000 0.000000 0.000000
O O8 0.789528 0.772559 0.152066
O O9 0.887687 0.095872 0.253132
O O10 0.760779 0.912320 0.894631
O O11 0.521077 0.675997 0.994092
O O12 0.194909 0.447346 0.877904
O O13 0.985291 0.346213 0.517595
O O14 0.861049 0.206341 0.746916
O O15 0.776194 0.596020 0.393185
#
# Coordination Sequence:
#
# PCOD8012643 Si02
#       7
#     2   2   2   2   2   2   2
#     4  10  21  40  62  89 129 165 210 266 313 376
#     4  11  22  40  63  87 126 169 210 271 319 375
#     4  11  20  40  71  90 127 176 211 262 318 367
#     4  10  22  38  57  92 133 160 219 255 314 381
#     4  11  22  38  60  94 125 171 213 255 322 379
#     4   9  22  40  65  94 130 166 218 260 314 373
#     4  10  21  41  64  96 126 169 211 263 314 376
#
# _framework density 22.103141999999998
#
# number of rings (size 3 to 8) (size 9 to 14) (size 15 to 20)
#    0.857    0.857    1.429    4.286    0.000    4.000 
#    0.000    4.286    0.000    3.429    0.000    0.000 
#    0.000    0.000    0.000    0.000    0.000    0.000 
#
# Total GULP energy -173456.112630 kJ/mol
# GULP energy per Si atom -12389.722331 kJ/mol
# Density = 2.205283 g / cm^3
# Si number density = 22.103142 Si / 1000 Ang^3
#
#
#
# Elastic Constant Matrix: (Units=GPa)
#
#
# Indices 1 2 3 4 5 6 
#
# 1 30.7092 15.2868 7.0664 -6.2517 -5.3683 13.6666
# 2 15.2868 151.8660 45.4359 -11.7200 -16.3918 14.3577
# 3 7.0664 45.4359 113.8989 -9.3475 0.1170 -2.1311
# 4 -6.2517 -11.7200 -9.3475 52.1220 3.0784 -3.7886
# 5 -5.3683 -16.3918 0.1170 3.0784 25.8101 -3.5561
# 6 13.6666 14.3577 -2.1311 -3.7886 -3.5561 38.6288
#
#
#
# Elastic Compliance Matrix: (Units=1/GPa)
#
#
# Indices 1 2 3 4 5 6 
#
# 1 0.041261 -0.001479 -0.001982 0.002967 0.005457 -0.013364
# 2 -0.001479 0.008498 -0.003289 0.000698 0.004702 -0.002315
# 3 -0.001982 -0.003289 0.010360 0.001194 -0.002361 0.002395
# 4 0.002967 0.000698 0.001194 0.020031 -0.001251 0.000606
# 5 0.005457 0.004702 -0.002361 -0.001251 0.043030 0.000030
# 6 -0.013364 -0.002315 0.002395 0.000606 0.000030 0.031671
#
#
# Mechanical properties :
#
#
# Convention : Reuss Voigt Hill
#
# Bulk Modulus (GPa) = 21.45044 48.00582 34.72813
# Shear Modulus (GPa) = 27.19016 38.55783 32.87399
#
# Velocity S-wave (km/s) = 3.51115 4.18119 3.86074
# Velocity P-wave (km/s) = 5.11501 6.71386 5.96822
#
# Compressibility (1/GPa) = 0.04661910
#
# Stress axis : x y z
#
# Youngs Moduli (GPa) = 24.23577 117.67578 96.52518
#
# Poissons Ratio (x) = 0.17403 0.19132
# Poissons Ratio (y) = 0.03584 0.31748
# Poissons Ratio (z) = 0.04804 0.38705
#
# Static dielectric constant tensor:
#      x y z
#    x 3.681810 -0.136640 0.402740 
#    y -0.136640 4.105000 -0.219780 
#    z 0.402740 -0.219780 4.634550 
# 
# 
# High freq. dielectric constant tensor:
#      x y z
#    x 1.829730 0.004750 0.021340 
#    y 0.004750 1.884270 -0.004210 
#    z 0.021340 -0.004210 1.887000 
# 
# From -- ./inp_files/307377.got.cif
#   From: 2010.06.25/outbox.cif.g09.slc.cpg/sg2_154_cif.got.tgz:307377.got - 2010.06.27 13:26:56.
