data_PCOD8012538
_publ_section_title
;
Structure prediction by ZEFSAII (Michael W. Deem and Ramdas Pophale) SiO2 
 PCOD8012538
Probable space group: P -1
;
_chemical_formula_sum "Si O2"
_cell_formula_units_Z 14
_cell_length_a 17.508358
_cell_length_b 9.206423
_cell_length_c 8.553521
_cell_angle_alpha 127.055281
_cell_angle_beta 120.621435
_cell_angle_gamma 100.621859
_cell_volume 661.666153
_symmetry_space_group_name_H-M "P -1"
_symmetry_group_IT_number 2
_symmetry_cell_setting 'triclinic'
loop_
_space_group_symop_operation_xyz
x,y,z
-x,-y,-z
loop_
_atom_site_type_symbol
_atom_site_label
_atom_site_fract_x
_atom_site_fract_y
_atom_site_fract_z
Si Si1 0.866441 0.794004 0.468201
Si Si2 0.665317 0.958138 0.454923
Si Si3 0.433661 0.793659 0.933820
Si Si4 0.934747 0.235864 0.344717
Si Si5 0.753617 0.775990 0.627801
Si Si6 0.644765 0.214631 0.842103
Si Si7 0.111505 0.785063 0.368605
O O1 0.863798 0.844682 0.682008
O O2 0.966226 0.780695 0.536219
O O3 0.908960 0.030890 0.566783
O O4 0.724985 0.517440 0.089335
O O5 0.713962 0.159373 0.778461
O O6 0.761075 0.105301 0.504856
O O7 0.664230 0.757788 0.402148
O O8 0.530296 0.818532 0.156194
O O9 0.334029 0.506918 0.566355
O O10 0.358930 0.818727 0.993517
O O11 0.500000 0.000000 0.000000
O O12 0.880401 0.229141 0.446968
O O13 0.000000 0.500000 0.500000
O O14 0.814499 0.989025 0.962043
O O15 0.500000 0.000000 0.500000
O O16 0.000000 0.500000 0.000000
#
# Coordination Sequence:
#
# PCOD8012538 Si02
#       7
#     2   2   2   2   2   2   2
#     4  10  21  40  61  86 121 160 201 248 301 360
#     4  10  21  41  61  83 120 161 201 247 297 360
#     4  10  22  38  61  92 120 153 199 249 302 358
#     4  12  24  39  61  91 122 158 202 252 306 363
#     4  10  22  39  60  86 119 161 198 243 304 360
#     4   9  19  37  63  87 116 156 197 244 302 356
#     4  11  24  40  61  89 120 161 205 249 300 357
#
# _framework density 21.158705000000001
#
# number of rings (size 3 to 8) (size 9 to 14) (size 15 to 20)
#    0.000    1.714    0.000    4.714    0.000    8.000 
#    0.000    1.429    0.000    0.000    0.000    0.000 
#    0.000    0.000    0.000    0.000    0.000    0.000 
#
# Total GULP energy -173507.429123 kJ/mol
# GULP energy per Si atom -12393.387795 kJ/mol
# Density = 2.111055 g / cm^3
# Si number density = 21.158705 Si / 1000 Ang^3
#
#
#
# Elastic Constant Matrix: (Units=GPa)
#
#
# Indices 1 2 3 4 5 6 
#
# 1 122.0312 51.9054 32.7039 -0.8819 -23.7805 19.6324
# 2 51.9054 123.9892 63.3271 24.6527 -7.0094 27.7918
# 3 32.7039 63.3271 138.2685 12.2952 -20.2481 13.1411
# 4 -0.8819 24.6527 12.2952 35.1433 -2.1037 -0.5670
# 5 -23.7805 -7.0094 -20.2481 -2.1037 30.1870 -9.8900
# 6 19.6324 27.7918 13.1411 -0.5670 -9.8900 37.5956
#
#
#
# Elastic Compliance Matrix: (Units=1/GPa)
#
#
# Indices 1 2 3 4 5 6 
#
# 1 0.012371 -0.006067 0.000752 0.004863 0.009270 0.000274
# 2 -0.006067 0.017699 -0.005993 -0.011167 -0.008848 -0.010316
# 3 0.000752 -0.005993 0.010534 0.000997 0.007066 0.002230
# 4 0.004863 -0.011167 0.000997 0.036606 0.007000 0.007761
# 5 0.009270 -0.008848 0.007066 0.007000 0.047476 0.011825
# 6 0.000274 -0.010316 0.002230 0.007761 0.011825 0.036530
#
#
# Mechanical properties :
#
#
# Convention : Reuss Voigt Hill
#
# Bulk Modulus (GPa) = 55.59814 75.57351 65.58583
# Shear Modulus (GPa) = 26.33958 36.34201 31.34080
#
# Velocity S-wave (km/s) = 3.53208 4.14888 3.85284
# Velocity P-wave (km/s) = 6.55499 7.66459 7.13140
#
# Compressibility (1/GPa) = 0.01798621
#
# Stress axis : x y z
#
# Youngs Moduli (GPa) = 80.83238 56.50196 94.93435
#
# Poissons Ratio (x) = 0.34280 -0.07136
# Poissons Ratio (y) = 0.49041 0.56896
# Poissons Ratio (z) = -0.06076 0.33863
#
# Static dielectric constant tensor:
#      x y z
#    x 4.778160 0.374730 -0.162720 
#    y 0.374730 3.736320 0.182360 
#    z -0.162720 0.182360 3.898000 
# 
# 
# High freq. dielectric constant tensor:
#      x y z
#    x 1.844450 0.009220 -0.011880 
#    y 0.009220 1.810500 0.013930 
#    z -0.011880 0.013930 1.838500 
# 
# From -- ./inp_files/177151.got.cif
#   From: 2010.06.25/outbox.cif.g09.slc.cpg/sg2_89_cif.got.tgz:177151.got - 2010.06.27 13:26:56.
