data_PCOD8012569
_publ_section_title
;
Structure prediction by ZEFSAII (Michael W. Deem and Ramdas Pophale) SiO2 
 PCOD8012569
Probable space group: P -1
;
_chemical_formula_sum "Si O2"
_cell_formula_units_Z 16
_cell_length_a 19.250302
_cell_length_b 8.967489
_cell_length_c 13.307528
_cell_angle_alpha 48.706381
_cell_angle_beta 23.288016
_cell_angle_gamma 51.029865
_cell_volume 680.373900
_symmetry_space_group_name_H-M "P -1"
_symmetry_group_IT_number 2
_symmetry_cell_setting 'triclinic'
loop_
_space_group_symop_operation_xyz
x,y,z
-x,-y,-z
loop_
_atom_site_type_symbol
_atom_site_label
_atom_site_fract_x
_atom_site_fract_y
_atom_site_fract_z
Si Si1 0.853418 0.685932 0.183678
Si Si2 0.598470 0.849878 0.160105
Si Si3 0.040178 0.365802 0.210462
Si Si4 0.537170 0.454066 0.670609
Si Si5 0.929823 0.971843 0.323049
Si Si6 0.827910 0.338000 0.946531
Si Si7 0.720574 0.135683 0.707567
Si Si8 0.270692 0.003359 0.629506
O O1 0.696622 0.591225 0.373076
O O2 0.995251 0.510130 0.110810
O O3 0.762761 0.794407 0.353382
O O4 0.954673 0.835339 0.912968
O O5 0.500615 0.663400 0.329080
O O6 0.480348 0.945640 0.365571
O O7 0.789249 0.778552 0.981967
O O8 0.611176 0.013869 0.983874
O O9 0.078211 0.478922 0.212667
O O10 0.878021 0.236192 0.510109
O O11 0.586378 0.304864 0.762804
O O12 0.364141 0.591911 0.872038
O O13 0.802501 0.982041 0.583145
O O14 0.811146 0.970569 0.382809
O O15 0.055832 0.766731 0.251477
O O16 0.822619 0.171723 0.114135
#
# Coordination Sequence:
#
# PCOD8012569 Si02
#       8
#     2   2   2   2   2   2   2   2
#     4  10  21  40  61  91 115 147 195 236 299 336
#     4  11  24  41  59  84 119 158 194 233 289 342
#     4  10  21  40  63  87 115 149 200 243 276 346
#     4  10  23  38  61  89 119 149 190 249 282 342
#     4  11  21  38  64  84 121 154 184 241 292 347
#     4  10  21  40  61  91 115 147 195 236 299 336
#     4  11  24  41  59  84 119 158 194 233 289 342
#     4  11  21  38  64  84 121 154 184 241 292 347
#
# _framework density 23.516480000000001
#
# number of rings (size 3 to 8) (size 9 to 14) (size 15 to 20)
#    0.000    1.500    3.750    1.500    0.000   10.000 
#    0.000    7.500    0.000    0.000    0.000    0.000 
#    0.000    0.000    0.000    0.000    0.000    0.000 
#
# Total GULP energy -198495.978599 kJ/mol
# GULP energy per Si atom -12405.998662 kJ/mol
# Density = 2.346296 g / cm^3
# Si number density = 23.516480 Si / 1000 Ang^3
#
#
#
# Elastic Constant Matrix: (Units=GPa)
#
#
# Indices 1 2 3 4 5 6 
#
# 1 39.0683 -1.5162 9.7698 -1.3975 -15.4710 -3.9458
# 2 -1.5162 59.2632 17.2147 25.4204 -4.2367 -16.1022
# 3 9.7698 17.2147 58.0129 6.4096 -15.0911 6.1054
# 4 -1.3975 25.4204 6.4096 43.5811 -1.2122 -13.4801
# 5 -15.4710 -4.2367 -15.0911 -1.2122 43.9853 7.4756
# 6 -3.9458 -16.1022 6.1054 -13.4801 7.4756 18.6854
#
#
#
# Elastic Compliance Matrix: (Units=1/GPa)
#
#
# Indices 1 2 3 4 5 6 
#
# 1 0.031811 0.005555 -0.006817 0.003004 0.007260 0.012995
# 2 0.005555 0.032122 -0.014216 -0.007219 -0.005189 0.030367
# 3 -0.006817 -0.014216 0.029755 -0.006019 0.011795 -0.032473
# 4 0.003004 -0.007219 -0.006019 0.035369 -0.004775 0.023807
# 5 0.007260 -0.005189 0.011795 -0.004775 0.032665 -0.023306
# 6 0.012995 0.030367 -0.032473 0.023807 -0.023306 0.119540
#
#
# Mechanical properties :
#
#
# Convention : Reuss Voigt Hill
#
# Bulk Modulus (GPa) = 15.94041 23.03121 19.48581
# Shear Modulus (GPa) = 15.00933 29.97544 22.49239
#
# Velocity S-wave (km/s) = 2.52910 3.57411 3.09601
# Velocity P-wave (km/s) = 3.91428 5.18143 4.59177
#
# Compressibility (1/GPa) = 0.06273363
#
# Stress axis : x y z
#
# Youngs Moduli (GPa) = 31.43557 31.13159 33.60819
#
# Poissons Ratio (x) = -0.17295 0.22910
# Poissons Ratio (y) = -0.17464 0.47776
# Poissons Ratio (z) = 0.21429 0.44255
#
# Static dielectric constant tensor:
#      x y z
#    x 3.895300 0.076700 -0.300840 
#    y 0.076700 4.637300 0.291840 
#    z -0.300840 0.291840 4.274700 
# 
# 
# High freq. dielectric constant tensor:
#      x y z
#    x 1.914790 0.002320 -0.024030 
#    y 0.002320 1.943680 0.013710 
#    z -0.024030 0.013710 1.929740 
# 
# From -- ./inp_files/321044.got.cif
#   From: 2010.06.25/outbox.cif.g09.slc.cpg/sg2_161_cif.got.tgz:321044.got - 2010.06.27 13:26:56.
