data_PCOD8012173
_publ_section_title
;
Structure prediction by ZEFSAII (Michael W. Deem and Ramdas Pophale) SiO2 
 PCOD8012173
Probable space group: P -1
;
_chemical_formula_sum "Si O2"
_cell_formula_units_Z 14
_cell_length_a 8.663763
_cell_length_b 18.743859
_cell_length_c 12.546381
_cell_angle_alpha 28.218768
_cell_angle_beta 88.987162
_cell_angle_gamma 109.478753
_cell_volume 649.694116
_symmetry_space_group_name_H-M "P -1"
_symmetry_group_IT_number 2
_symmetry_cell_setting 'triclinic'
loop_
_space_group_symop_operation_xyz
x,y,z
-x,-y,-z
loop_
_atom_site_type_symbol
_atom_site_label
_atom_site_fract_x
_atom_site_fract_y
_atom_site_fract_z
Si Si1 0.411539 0.584881 0.831863
Si Si2 0.204161 0.700636 0.358701
Si Si3 0.488774 0.485994 0.644818
Si Si4 0.600953 0.851278 0.278091
Si Si5 0.696830 0.324503 0.837384
Si Si6 0.425606 0.028926 0.567522
Si Si7 0.064653 0.203333 0.178232
O O1 0.604876 0.790929 0.477749
O O2 0.396599 0.704797 0.763845
O O3 0.500000 0.500000 0.000000
O O4 0.179397 0.387537 0.028397
O O5 0.358757 0.761473 0.375737
O O6 0.288366 0.659359 0.312177
O O7 0.945346 0.477620 0.684915
O O8 0.207956 0.883098 0.092153
O O9 0.500000 0.500000 0.500000
O O10 0.644114 0.737910 0.351164
O O11 0.592412 0.399944 0.790669
O O12 0.239527 0.316105 0.927581
O O13 0.546998 0.071330 0.204706
O O14 0.163952 0.891291 0.740846
O O15 0.500000 0.000000 0.500000
O O16 0.000000 0.000000 0.500000
#
# Coordination Sequence:
#
# PCOD8012173 Si02
#       7
#     2   2   2   2   2   2   2
#     4  11  23  42  70  97 133 179 227 276 338 407
#     4  10  21  39  67  93 128 173 214 276 336 388
#     4  11  23  39  66  97 134 175 221 271 335 402
#     4  10  21  41  64  94 134 171 221 278 334 399
#     4  11  22  39  63  97 128 170 221 268 335 400
#     4  12  26  45  70 100 134 178 229 282 338 405
#     4  11  24  46  70  97 136 180 224 282 336 400
#
# _framework density 21.548603
#
# number of rings (size 3 to 8) (size 9 to 14) (size 15 to 20)
#    0.000    1.143    4.286    2.571    4.000    1.143 
#    0.000    2.857    0.000    0.000    0.000    0.000 
#    0.000    0.000    0.000    0.000    0.000    0.000 
#
# Total GULP energy -173540.421817 kJ/mol
# GULP energy per Si atom -12395.744416 kJ/mol
# Density = 2.149956 g / cm^3
# Si number density = 21.548603 Si / 1000 Ang^3
#
#
#
# Elastic Constant Matrix: (Units=GPa)
#
#
# Indices 1 2 3 4 5 6 
#
# 1 98.1174 35.3735 33.4765 -1.5774 13.7757 -20.1749
# 2 35.3735 109.9157 39.9343 -7.7250 3.8601 -16.4419
# 3 33.4765 39.9343 110.0568 -5.1426 25.2791 -13.0471
# 4 -1.5774 -7.7250 -5.1426 46.7673 -4.0702 9.8251
# 5 13.7757 3.8601 25.2791 -4.0702 46.6363 -2.0316
# 6 -20.1749 -16.4419 -13.0471 9.8251 -2.0316 39.6438
#
#
#
# Elastic Compliance Matrix: (Units=1/GPa)
#
#
# Indices 1 2 3 4 5 6 
#
# 1 0.013257 -0.002826 -0.001870 -0.001544 -0.002576 0.005210
# 2 -0.002826 0.011598 -0.003505 0.001180 0.001966 0.002027
# 3 -0.001870 -0.003505 0.012432 -0.000079 -0.005842 0.001406
# 4 -0.001544 0.001180 -0.000079 0.022943 0.002147 -0.005898
# 5 -0.002576 0.001966 -0.005842 0.002147 0.025323 -0.001653
# 6 0.005210 0.002027 0.001406 -0.005898 -0.001653 0.030556
#
#
# Mechanical properties :
#
#
# Convention : Reuss Voigt Hill
#
# Bulk Modulus (GPa) = 47.88093 59.51760 53.69926
# Shear Modulus (GPa) = 35.85000 40.56319 38.20659
#
# Velocity S-wave (km/s) = 4.08325 4.34338 4.21532
# Velocity P-wave (km/s) = 6.67074 7.26865 6.97611
#
# Compressibility (1/GPa) = 0.02088514
#
# Stress axis : x y z
#
# Youngs Moduli (GPa) = 75.43373 86.22378 80.44065
#
# Poissons Ratio (x) = 0.24364 0.15041
# Poissons Ratio (y) = 0.21315 0.28193
# Poissons Ratio (z) = 0.14105 0.30220
#
# Static dielectric constant tensor:
#      x y z
#    x 6.242150 0.573180 1.095090 
#    y 0.573180 4.227210 0.008530 
#    z 1.095090 0.008530 4.514070 
# 
# 
# High freq. dielectric constant tensor:
#      x y z
#    x 1.830830 -0.000830 0.034740 
#    y -0.000830 1.850620 -0.004510 
#    z 0.034740 -0.004510 1.858120 
# 
# From -- ./inp_files/192603.got.cif
#   From: 2010.06.25/outbox.cif.g09.slc.cpg/sg2_97_cif.got.tgz:192603.got - 2010.06.27 13:26:56.
