data_PCOD8012826
_publ_section_title
;
Structure prediction by ZEFSAII (Michael W. Deem and Ramdas Pophale) SiO2 
 PCOD8012826
Probable space group: P -1
;
_chemical_formula_sum "Si O2"
_cell_formula_units_Z 16
_cell_length_a 11.877457
_cell_length_b 9.264872
_cell_length_c 20.723584
_cell_angle_alpha 44.895711
_cell_angle_beta 141.632821
_cell_angle_gamma 105.088020
_cell_volume 738.403146
_symmetry_space_group_name_H-M "P -1"
_symmetry_group_IT_number 2
_symmetry_cell_setting 'triclinic'
loop_
_space_group_symop_operation_xyz
x,y,z
-x,-y,-z
loop_
_atom_site_type_symbol
_atom_site_label
_atom_site_fract_x
_atom_site_fract_y
_atom_site_fract_z
Si Si1 0.952159 0.532985 0.806401
Si Si2 0.070742 0.858752 0.320665
Si Si3 0.585887 0.464565 0.623783
Si Si4 0.769920 0.457114 0.182642
Si Si5 0.619900 0.005651 0.759523
Si Si6 0.903384 0.625355 0.542064
Si Si7 0.129669 0.216290 0.184023
Si Si8 0.236504 0.955247 0.752696
O O1 0.808596 0.450084 0.739123
O O2 0.787095 0.780129 0.707182
O O3 0.035926 0.608207 0.761320
O O4 0.197558 0.297965 0.032220
O O5 0.364310 0.679948 0.506082
O O6 0.015766 0.673977 0.328005
O O7 0.963978 0.131726 0.143389
O O8 0.962675 0.962341 0.310456
O O9 0.500000 0.500000 0.500000
O O10 0.684211 0.162082 0.779138
O O11 0.743868 0.233097 0.234032
O O12 0.872766 0.421330 0.311298
O O13 0.508295 0.771665 0.962678
O O14 0.339203 0.154699 0.594574
O O15 0.642807 0.013179 0.688712
O O16 0.851332 0.760409 0.405409
O O17 0.000000 0.500000 0.000000
#
# Coordination Sequence:
#
# PCOD8012826 Si02
#       8
#     2   2   2   2   2   2   2   2
#     4  11  21  40  63  95 129 172 212 261 333 386
#     4  11  23  42  65  93 135 170 211 274 319 389
#     4  11  22  38  62  95 129 167 213 263 324 393
#     4  11  24  40  71  93 126 177 217 270 323 384
#     4  10  21  40  63  95 134 164 214 267 323 394
#     4  11  24  43  68  96 129 173 221 267 326 381
#     4  10  22  38  61  95 130 169 209 267 324 385
#     4  11  24  47  64  94 134 167 229 267 319 382
#
# _framework density 21.668381
#
# number of rings (size 3 to 8) (size 9 to 14) (size 15 to 20)
#    0.000    1.250    3.750    2.625    0.000    2.000 
#    0.000    2.500    0.000    0.000    0.000    0.000 
#    0.000    0.000    0.000    0.000    0.000    0.000 
#
# Total GULP energy -198260.418600 kJ/mol
# GULP energy per Si atom -12391.276163 kJ/mol
# Density = 2.161906 g / cm^3
# Si number density = 21.668381 Si / 1000 Ang^3
#
#
#
# Elastic Constant Matrix: (Units=GPa)
#
#
# Indices 1 2 3 4 5 6 
#
# 1 120.6649 21.4438 30.9269 -17.2348 -4.3753 3.9800
# 2 21.4438 89.8575 49.7313 -7.7953 -0.7594 9.4882
# 3 30.9269 49.7313 79.6337 -0.0341 -3.7928 3.6979
# 4 -17.2348 -7.7953 -0.0341 31.1666 3.3419 1.3387
# 5 -4.3753 -0.7594 -3.7928 3.3419 27.8704 -6.3430
# 6 3.9800 9.4882 3.6979 1.3387 -6.3430 37.0170
#
#
#
# Elastic Compliance Matrix: (Units=1/GPa)
#
#
# Indices 1 2 3 4 5 6 
#
# 1 0.010132 0.000512 -0.004200 0.005756 0.000118 -0.000989
# 2 0.000512 0.018275 -0.011536 0.005300 -0.002588 -0.004222
# 3 -0.004200 -0.011536 0.021445 -0.005600 0.003070 0.001995
# 4 0.005756 0.005300 -0.005600 0.037281 -0.005009 -0.003625
# 5 0.000118 -0.002588 0.003070 -0.005009 0.038466 0.007117
# 6 -0.000989 -0.004222 0.001995 -0.003625 0.007117 0.029354
#
#
# Mechanical properties :
#
#
# Convention : Reuss Voigt Hill
#
# Bulk Modulus (GPa) = 51.54348 54.92892 53.23620
# Shear Modulus (GPa) = 26.05912 31.74774 28.90343
#
# Velocity S-wave (km/s) = 3.47166 3.83190 3.65622
# Velocity P-wave (km/s) = 6.31736 6.70692 6.51505
#
# Compressibility (1/GPa) = 0.01940110
#
# Stress axis : x y z
#
# Youngs Moduli (GPa) = 98.69580 54.71892 46.63197
#
# Poissons Ratio (x) = -0.02799 0.19587
# Poissons Ratio (y) = -0.05048 0.53797
# Poissons Ratio (z) = 0.41456 0.63126
#
# Static dielectric constant tensor:
#      x y z
#    x 4.121510 -0.007350 -0.005090 
#    y -0.007350 4.306770 -0.513970 
#    z -0.005090 -0.513970 3.838020 
# 
# 
# High freq. dielectric constant tensor:
#      x y z
#    x 1.862400 0.006850 -0.001970 
#    y 0.006850 1.854340 -0.030080 
#    z -0.001970 -0.030080 1.832220 
# 
# From -- ./inp_files/594046.got.cif
#   From: 2010.06.25/outbox.cif.g09.slc.cpg/sg2_298_cif.got.tgz:594046.got - 2010.06.27 13:26:56.
