data_PCOD8012084
_publ_section_title
;
Structure prediction by ZEFSAII (Michael W. Deem and Ramdas Pophale) SiO2 
 PCOD8012084
Probable space group: P -1
;
_chemical_formula_sum "Si O2"
_cell_formula_units_Z 16
_cell_length_a 8.810016
_cell_length_b 6.526093
_cell_length_c 16.236782
_cell_angle_alpha 72.420960
_cell_angle_beta 126.451584
_cell_angle_gamma 94.726068
_cell_volume 710.073585
_symmetry_space_group_name_H-M "P -1"
_symmetry_group_IT_number 2
_symmetry_cell_setting 'triclinic'
loop_
_space_group_symop_operation_xyz
x,y,z
-x,-y,-z
loop_
_atom_site_type_symbol
_atom_site_label
_atom_site_fract_x
_atom_site_fract_y
_atom_site_fract_z
Si Si1 0.747894 0.931408 0.961128
Si Si2 0.194544 0.849621 0.579257
Si Si3 0.624891 0.333300 0.677317
Si Si4 0.068671 0.436727 0.657805
Si Si5 0.670707 0.293616 0.521681
Si Si6 0.618376 0.917891 0.252868
Si Si7 0.006556 0.736437 0.935854
Si Si8 0.975837 0.537964 0.173447
O O1 0.828926 0.897438 0.896728
O O2 0.518702 0.965409 0.876410
O O3 0.815329 0.718446 0.062016
O O4 0.808032 0.150899 0.994165
O O5 0.154842 0.602705 0.605241
O O6 0.288946 0.884170 0.516171
O O7 0.333006 0.900925 0.690185
O O8 0.000000 0.000000 0.500000
O O9 0.653809 0.186276 0.620309
O O10 0.524980 0.562690 0.583493
O O11 0.496246 0.248752 0.715604
O O12 0.826536 0.361218 0.779403
O O13 0.191017 0.202238 0.712554
O O14 0.085817 0.513619 0.748181
O O15 0.848942 0.433166 0.565340
O O16 0.004393 0.691860 0.842216
O O17 0.000000 0.500000 0.000000
#
# Coordination Sequence:
#
# PCOD8012084 Si02
#       8
#     2   2   2   2   2   2   2   2
#     4  10  22  39  61  93 128 164 211 259 304 368
#     4  12  24  41  67  92 124 171 207 251 320 385
#     4  10  21  39  66  93 124 162 202 263 313 362
#     4  11  24  44  63  90 131 166 206 259 315 372
#     4  10  21  42  64  90 126 162 206 258 315 367
#     4  12  24  39  65  94 127 167 208 254 312 373
#     4   9  18  37  61  87 125 163 202 257 313 354
#     4  10  23  42  66  91 127 169 208 259 310 368
#
# _framework density 22.532878
#
# number of rings (size 3 to 8) (size 9 to 14) (size 15 to 20)
#    0.000    1.500    2.500    3.375    1.750    4.000 
#    2.250    1.250    0.000    0.000    0.000    0.000 
#    0.000    0.000    0.000    0.000    0.000    0.000 
#
# Total GULP energy -198335.972885 kJ/mol
# GULP energy per Si atom -12395.998305 kJ/mol
# Density = 2.248159 g / cm^3
# Si number density = 22.532878 Si / 1000 Ang^3
#
#
#
# Elastic Constant Matrix: (Units=GPa)
#
#
# Indices 1 2 3 4 5 6 
#
# 1 68.4098 9.7815 17.7249 6.9231 -8.0768 -25.3035
# 2 9.7815 79.5055 22.7805 17.0554 -5.3699 -20.6524
# 3 17.7249 22.7805 111.1605 6.0505 10.3935 -13.1217
# 4 6.9231 17.0554 6.0505 32.8240 -11.2950 -5.8378
# 5 -8.0768 -5.3699 10.3935 -11.2950 39.2833 9.3613
# 6 -25.3035 -20.6524 -13.1217 -5.8378 9.3613 36.2040
#
#
#
# Elastic Compliance Matrix: (Units=1/GPa)
#
#
# Indices 1 2 3 4 5 6 
#
# 1 0.020425 0.002318 -0.002022 -0.002260 0.001008 0.014240
# 2 0.002318 0.016955 -0.002205 -0.007563 -0.001073 0.009551
# 3 -0.002022 -0.002205 0.010507 -0.001524 -0.004420 0.002034
# 4 -0.002260 -0.007563 -0.001524 0.038273 0.010629 -0.003023
# 5 0.001008 -0.001073 -0.004420 0.010629 0.031643 -0.007977
# 6 0.014240 0.009551 0.002034 -0.003023 -0.007977 0.045334
#
#
# Mechanical properties :
#
#
# Convention : Reuss Voigt Hill
#
# Bulk Modulus (GPa) = 22.69148 39.96106 31.32627
# Shear Modulus (GPa) = 27.52622 35.58151 31.55387
#
# Velocity S-wave (km/s) = 3.49894 3.97809 3.74618
# Velocity P-wave (km/s) = 5.13962 6.23485 5.71354
#
# Compressibility (1/GPa) = 0.04406940
#
# Stress axis : x y z
#
# Youngs Moduli (GPa) = 48.95937 58.97879 95.17823
#
# Poissons Ratio (x) = -0.13674 0.19248
# Poissons Ratio (y) = -0.11351 0.20987
# Poissons Ratio (z) = 0.09901 0.13005
#
# Static dielectric constant tensor:
#      x y z
#    x 4.318310 -0.295430 -0.341840 
#    y -0.295430 4.334280 0.137470 
#    z -0.341840 0.137470 4.533670 
# 
# 
# High freq. dielectric constant tensor:
#      x y z
#    x 1.883350 -0.023640 -0.001620 
#    y -0.023640 1.872280 0.014650 
#    z -0.001620 0.014650 1.897380 
# 
# From -- ./inp_files/84876.got.cif
#   From: 2010.06.25/outbox.cif.g09.slc.cpg/sg2_43_cif.got.tgz:84876.got - 2010.06.27 13:26:56.
