data_PCOD8012541
_publ_section_title
;
Structure prediction by ZEFSAII (Michael W. Deem and Ramdas Pophale) SiO2 
 PCOD8012541
Probable space group: P -1
;
_chemical_formula_sum "Si O2"
_cell_formula_units_Z 14
_cell_length_a 11.916214
_cell_length_b 11.145972
_cell_length_c 11.775655
_cell_angle_alpha 93.848351
_cell_angle_beta 48.005724
_cell_angle_gamma 132.781341
_cell_volume 600.756388
_symmetry_space_group_name_H-M "P -1"
_symmetry_group_IT_number 2
_symmetry_cell_setting 'triclinic'
loop_
_space_group_symop_operation_xyz
x,y,z
-x,-y,-z
loop_
_atom_site_type_symbol
_atom_site_label
_atom_site_fract_x
_atom_site_fract_y
_atom_site_fract_z
Si Si1 0.306802 0.108458 0.916547
Si Si2 0.785431 0.176206 0.891844
Si Si3 0.280039 0.449450 0.192149
Si Si4 0.293059 0.618594 0.995613
Si Si5 0.034730 0.868981 0.410735
Si Si6 0.685777 0.770389 0.303433
Si Si7 0.494356 0.609644 0.664624
O O1 0.570840 0.348751 0.818454
O O2 0.361447 0.150737 0.745871
O O3 0.272893 0.946927 0.966697
O O4 0.018596 0.989046 0.134557
O O5 0.026483 0.279030 0.651955
O O6 0.878658 0.371505 0.886811
O O7 0.500000 0.000000 0.000000
O O8 0.023434 0.215846 0.426909
O O9 0.500000 0.500000 0.000000
O O10 0.143330 0.426370 0.175422
O O11 0.278038 0.549181 0.876528
O O12 0.634013 0.864947 0.815347
O O13 0.813715 0.827262 0.524314
O O14 0.489225 0.653072 0.541178
O O15 0.621284 0.604837 0.265838
#
# Coordination Sequence:
#
# PCOD8012541 Si02
#       7
#     2   2   2   2   2   2   2
#     4  11  20  39  58  87 125 155 202 247 294 363
#     4  10  21  40  61  86 124 165 187 246 319 360
#     4  12  22  34  63  97 117 150 202 256 304 347
#     4  11  23  40  59  92 129 148 200 262 301 352
#     4  11  21  36  64  89 122 159 196 248 312 353
#     4  10  22  35  63  85 117 166 204 242 290 355
#     4  11  20  38  60  90 113 160 209 244 300 350
#
# _framework density 23.303954999999998
#
# number of rings (size 3 to 8) (size 9 to 14) (size 15 to 20)
#    0.000    1.143    7.143    0.429    2.000    0.571 
#    0.000    1.429    0.000    0.000    0.000    0.000 
#    0.000    0.000    0.000    0.000    0.000    0.000 
#
# Total GULP energy -173573.722431 kJ/mol
# GULP energy per Si atom -12398.123031 kJ/mol
# Density = 2.325091 g / cm^3
# Si number density = 23.303955 Si / 1000 Ang^3
#
#
#
# Elastic Constant Matrix: (Units=GPa)
#
#
# Indices 1 2 3 4 5 6 
#
# 1 146.1202 23.9577 38.5518 24.7096 51.2842 -25.4817
# 2 23.9577 47.5278 14.1665 27.1302 13.3901 -10.2968
# 3 38.5518 14.1665 78.7890 22.6465 36.6716 -11.5476
# 4 24.7096 27.1302 22.6465 39.5093 4.0616 -4.7997
# 5 51.2842 13.3901 36.6716 4.0616 48.0699 -2.1580
# 6 -25.4817 -10.2968 -11.5476 -4.7997 -2.1580 32.7694
#
#
#
# Elastic Compliance Matrix: (Units=1/GPa)
#
#
# Indices 1 2 3 4 5 6 
#
# 1 0.018425 0.010211 0.010102 -0.019471 -0.027826 0.016411
# 2 0.010211 0.050475 0.017690 -0.045147 -0.033682 0.021203
# 3 0.010102 0.017690 0.034272 -0.031948 -0.038330 0.018287
# 4 -0.019471 -0.045147 -0.031948 0.078535 0.049927 -0.025794
# 5 -0.027826 -0.033682 -0.038330 0.049927 0.083417 -0.032922
# 6 0.016411 0.021203 0.018287 -0.025794 -0.032922 0.050439
#
#
# Mechanical properties :
#
#
# Convention : Reuss Voigt Hill
#
# Bulk Modulus (GPa) = 5.58107 47.30987 26.44547
# Shear Modulus (GPa) = 16.70657 37.12046 26.91351
#
# Velocity S-wave (km/s) = 2.68040 3.99542 3.40205
# Velocity P-wave (km/s) = 3.46114 6.45212 5.17732
#
# Compressibility (1/GPa) = 0.17917710
#
# Stress axis : x y z
#
# Youngs Moduli (GPa) = 54.27407 19.81181 29.17831
#
# Poissons Ratio (x) = -0.20229 -0.29475
# Poissons Ratio (y) = -0.55418 -0.51616
# Poissons Ratio (z) = -0.54827 -0.35047
#
# Static dielectric constant tensor:
#      x y z
#    x 4.293860 -0.215770 0.183110 
#    y -0.215770 4.455820 0.376640 
#    z 0.183110 0.376640 4.347010 
# 
# 
# High freq. dielectric constant tensor:
#      x y z
#    x 1.914730 0.000470 0.028650 
#    y 0.000470 1.910970 0.010230 
#    z 0.028650 0.010230 1.904990 
# 
# From -- ./inp_files/259448.got.cif
#   From: 2010.06.25/outbox.cif.g09.slc.cpg/sg2_130_cif.got.tgz:259448.got - 2010.06.27 13:26:56.
