data_PCOD8012743
_publ_section_title
;
Structure prediction by ZEFSAII (Michael W. Deem and Ramdas Pophale) SiO2 
 PCOD8012743
Probable space group: P -1
;
_chemical_formula_sum "Si O2"
_cell_formula_units_Z 14
_cell_length_a 5.080592
_cell_length_b 16.195819
_cell_length_c 17.916059
_cell_angle_alpha 145.370872
_cell_angle_beta 56.937629
_cell_angle_gamma 107.408961
_cell_volume 666.494930
_symmetry_space_group_name_H-M "P -1"
_symmetry_group_IT_number 2
_symmetry_cell_setting 'triclinic'
loop_
_space_group_symop_operation_xyz
x,y,z
-x,-y,-z
loop_
_atom_site_type_symbol
_atom_site_label
_atom_site_fract_x
_atom_site_fract_y
_atom_site_fract_z
Si Si1 0.014133 0.271703 0.114146
Si Si2 0.998761 0.777889 0.623929
Si Si3 0.400473 0.623322 0.887986
Si Si4 0.473652 0.296370 0.635655
Si Si5 0.634816 0.319386 0.354578
Si Si6 0.963992 0.895236 0.494749
Si Si7 0.325800 0.927405 0.184500
O O1 0.207164 0.395754 0.193388
O O2 0.744915 0.341054 0.145125
O O3 0.823953 0.239955 0.192177
O O4 0.286610 0.111546 0.927235
O O5 0.673812 0.736697 0.620735
O O6 0.299505 0.688608 0.457736
O O7 0.098301 0.732750 0.659495
O O8 0.906855 0.959004 0.755853
O O9 0.334526 0.471288 0.817693
O O10 0.231844 0.768303 0.077271
O O11 0.178403 0.236607 0.609990
O O12 0.675462 0.184773 0.585858
O O13 0.500000 0.500000 0.500000
O O14 0.722857 0.000934 0.672215
O O15 0.000000 0.000000 0.500000
#
# Coordination Sequence:
#
# PCOD8012743 Si02
#       7
#     2   2   2   2   2   2   2
#     4  10  22  37  61  85 130 162 205 251 305 342
#     4  11  23  37  62  86 122 164 212 244 303 359
#     4  10  21  40  63  88 122 168 204 242 308 368
#     4  11  22  42  67  91 122 166 202 247 309 370
#     4  12  23  37  57  90 124 163 213 258 290 344
#     4  11  24  43  68  95 121 154 205 253 304 374
#     4   9  25  40  65  87 126 163 200 251 319 361
#
# _framework density 21.005410000000001
#
# number of rings (size 3 to 8) (size 9 to 14) (size 15 to 20)
#    0.857    0.571    0.000    6.000    6.000    1.143 
#    0.000    1.429    0.000    0.000    0.000    0.000 
#    0.000    0.000    0.000    0.000    0.000    0.000 
#
# Total GULP energy -173561.093962 kJ/mol
# GULP energy per Si atom -12397.220997 kJ/mol
# Density = 2.095760 g / cm^3
# Si number density = 21.005410 Si / 1000 Ang^3
#
#
#
# Elastic Constant Matrix: (Units=GPa)
#
#
# Indices 1 2 3 4 5 6 
#
# 1 94.7133 13.7782 14.1183 0.4740 19.0573 -2.4614
# 2 13.7782 87.6413 36.2275 7.6011 8.4064 -9.8179
# 3 14.1183 36.2275 96.9787 22.8155 6.1831 2.8963
# 4 0.4740 7.6011 22.8155 24.2802 8.7068 4.6785
# 5 19.0573 8.4064 6.1831 8.7068 23.7211 6.0184
# 6 -2.4614 -9.8179 2.8963 4.6785 6.0184 38.1405
#
#
#
# Elastic Compliance Matrix: (Units=1/GPa)
#
#
# Indices 1 2 3 4 5 6 
#
# 1 0.013680 -0.000046 -0.002763 0.006657 -0.013297 0.002363
# 2 -0.000046 0.014698 -0.005702 0.001824 -0.005591 0.004872
# 3 -0.002763 -0.005702 0.016055 -0.015047 0.006081 -0.001979
# 4 0.006657 0.001824 -0.015047 0.063976 -0.025086 -0.001847
# 5 -0.013297 -0.005591 0.006081 -0.025086 0.064963 -0.009933
# 6 0.002363 0.004872 -0.001979 -0.001847 -0.009933 0.029570
#
#
# Mechanical properties :
#
#
# Convention : Reuss Voigt Hill
#
# Bulk Modulus (GPa) = 36.48120 45.28680 40.88400
# Shear Modulus (GPa) = 21.82427 31.57566 26.69996
#
# Velocity S-wave (km/s) = 3.22682 3.88134 3.56912
# Velocity P-wave (km/s) = 5.59360 6.45699 6.04074
#
# Compressibility (1/GPa) = 0.02741138
#
# Stress axis : x y z
#
# Youngs Moduli (GPa) = 73.09777 68.03498 62.28437
#
# Poissons Ratio (x) = 0.00311 0.17212
# Poissons Ratio (y) = 0.00334 0.35516
# Poissons Ratio (z) = 0.20200 0.38795
#
# Static dielectric constant tensor:
#      x y z
#    x 3.851860 -0.019820 0.016500 
#    y -0.019820 3.634390 0.187620 
#    z 0.016500 0.187620 3.881930 
# 
# 
# High freq. dielectric constant tensor:
#      x y z
#    x 1.836290 -0.010370 0.002300 
#    y -0.010370 1.803910 0.019220 
#    z 0.002300 0.019220 1.819150 
# 
# From -- ./inp_files/311678.got.cif
#   From: 2010.06.25/outbox.cif.g09.slc.cpg/sg2_156_cif.got.tgz:311678.got - 2010.06.27 13:26:56.
