data_PCOD8012471
_publ_section_title
;
Structure prediction by ZEFSAII (Michael W. Deem and Ramdas Pophale) SiO2 
 PCOD8012471
Probable space group: P -1
;
_chemical_formula_sum "Si O2"
_cell_formula_units_Z 16
_cell_length_a 7.958589
_cell_length_b 11.856847
_cell_length_c 10.699515
_cell_angle_alpha 99.676121
_cell_angle_beta 77.541445
_cell_angle_gamma 56.021118
_cell_volume 763.818189
_symmetry_space_group_name_H-M "P -1"
_symmetry_group_IT_number 2
_symmetry_cell_setting 'triclinic'
loop_
_space_group_symop_operation_xyz
x,y,z
-x,-y,-z
loop_
_atom_site_type_symbol
_atom_site_label
_atom_site_fract_x
_atom_site_fract_y
_atom_site_fract_z
Si Si1 0.473489 0.177830 0.637694
Si Si2 0.317676 0.866666 0.945762
Si Si3 0.161296 0.126364 0.575625
Si Si4 0.301906 0.681847 0.448550
Si Si5 0.949038 0.890453 0.140329
Si Si6 0.352278 0.644052 0.712593
Si Si7 0.865325 0.402902 0.056606
Si Si8 0.676305 0.693497 0.051353
O O1 0.277182 0.203296 0.589725
O O2 0.534510 0.282340 0.610216
O O3 0.387813 0.206775 0.798505
O O4 0.688894 0.011110 0.564643
O O5 0.372730 0.747878 0.812634
O O6 0.251161 0.009715 0.908010
O O7 0.532538 0.795763 0.978942
O O8 0.123954 0.917607 0.084947
O O9 0.142563 0.063782 0.696816
O O10 0.921746 0.232063 0.576001
O O11 0.246619 0.720171 0.610776
O O12 0.413986 0.512971 0.374938
O O13 0.074760 0.719182 0.075057
O O14 0.194863 0.620903 0.803506
O O15 0.665104 0.561738 0.061328
O O16 0.076154 0.392203 0.048479
#
# Coordination Sequence:
#
# PCOD8012471 Si02
#       8
#     2   2   2   2   2   2   2   2
#     4  11  23  42  64 100 126 165 226 261 311 401
#     4  10  23  38  64  93 129 171 208 270 327 377
#     4  11  24  41  68  93 129 176 209 273 320 382
#     4  11  23  43  67  90 132 174 213 268 325 376
#     4  10  21  40  59  94 128 163 218 262 315 386
#     4  10  23  42  60  96 125 168 220 261 317 395
#     4  10  22  39  64  89 133 159 214 266 308 392
#     4  11  22  40  65  96 126 172 207 268 329 375
#
# _framework density 20.947393999999999
#
# number of rings (size 3 to 8) (size 9 to 14) (size 15 to 20)
#    0.000    1.500    2.500    1.875    1.750    4.500 
#    6.750    1.250    0.000    0.000    0.000    0.000 
#    0.000    0.000    0.000    0.000    0.000    0.000 
#
# Total GULP energy -198350.046182 kJ/mol
# GULP energy per Si atom -12396.877886 kJ/mol
# Density = 2.089972 g / cm^3
# Si number density = 20.947394 Si / 1000 Ang^3
#
#
#
# Elastic Constant Matrix: (Units=GPa)
#
#
# Indices 1 2 3 4 5 6 
#
# 1 71.5804 21.1650 20.9033 -8.8041 3.6643 -14.3359
# 2 21.1650 90.5808 29.7011 -0.9413 12.7731 -15.7119
# 3 20.9033 29.7011 105.3478 0.6568 0.3113 -10.4010
# 4 -8.8041 -0.9413 0.6568 36.1901 -1.0246 9.2042
# 5 3.6643 12.7731 0.3113 -1.0246 26.0074 -1.0019
# 6 -14.3359 -15.7119 -10.4010 9.2042 -1.0019 28.8689
#
#
#
# Elastic Compliance Matrix: (Units=1/GPa)
#
#
# Indices 1 2 3 4 5 6 
#
# 1 0.016698 -0.002055 -0.002203 0.002619 -0.001002 0.005510
# 2 -0.002055 0.014496 -0.003044 -0.001812 -0.006629 0.006120
# 3 -0.002203 -0.003044 0.010951 -0.001181 0.001691 0.001630
# 4 0.002619 -0.001812 -0.001181 0.030795 0.001367 -0.009882
# 5 -0.001002 -0.006629 0.001691 0.001367 0.041785 -0.002482
# 6 0.005510 0.006120 0.001630 -0.009882 -0.002482 0.044358
#
#
# Mechanical properties :
#
#
# Convention : Reuss Voigt Hill
#
# Bulk Modulus (GPa) = 36.31039 45.67199 40.99119
# Shear Modulus (GPa) = 27.34212 31.26257 29.30235
#
# Velocity S-wave (km/s) = 3.61678 3.86739 3.74418
# Velocity P-wave (km/s) = 5.90027 6.46474 6.18894
#
# Compressibility (1/GPa) = 0.02754033
#
# Stress axis : x y z
#
# Youngs Moduli (GPa) = 59.88627 68.98655 91.31574
#
# Poissons Ratio (x) = 0.14177 0.20119
# Poissons Ratio (y) = 0.12307 0.27796
# Poissons Ratio (z) = 0.13195 0.20999
#
# Static dielectric constant tensor:
#      x y z
#    x 3.640840 0.084220 -0.158640 
#    y 0.084220 4.070790 0.070650 
#    z -0.158640 0.070650 3.957390 
# 
# 
# High freq. dielectric constant tensor:
#      x y z
#    x 1.802050 0.002170 -0.011560 
#    y 0.002170 1.829390 0.009280 
#    z -0.011560 0.009280 1.830230 
# 
# From -- ./inp_files/187497.got.cif
#   From: 2010.06.25/outbox.cif.g09.slc.cpg/sg2_94_cif.got.tgz:187497.got - 2010.06.27 13:26:56.
