data_PCOD8012665
_publ_section_title
;
Structure prediction by ZEFSAII (Michael W. Deem and Ramdas Pophale) SiO2 
 PCOD8012665
Probable space group: P -1
;
_chemical_formula_sum "Si O2"
_cell_formula_units_Z 14
_cell_length_a 9.272721
_cell_length_b 13.760506
_cell_length_c 14.074841
_cell_angle_alpha 150.614638
_cell_angle_beta 50.436190
_cell_angle_gamma 127.309812
_cell_volume 673.110561
_symmetry_space_group_name_H-M "P -1"
_symmetry_group_IT_number 2
_symmetry_cell_setting 'triclinic'
loop_
_space_group_symop_operation_xyz
x,y,z
-x,-y,-z
loop_
_atom_site_type_symbol
_atom_site_label
_atom_site_fract_x
_atom_site_fract_y
_atom_site_fract_z
Si Si1 0.362440 0.540262 0.175634
Si Si2 0.555437 0.175776 0.459086
Si Si3 0.894566 0.181483 0.811209
Si Si4 0.812516 0.735172 0.403471
Si Si5 0.822706 0.107995 0.138760
Si Si6 0.953644 0.392086 0.154272
Si Si7 0.510436 0.798158 0.052922
O O1 0.385380 0.388276 0.122354
O O2 0.500000 0.500000 0.000000
O O3 0.411719 0.759642 0.389706
O O4 0.151985 0.515073 0.204361
O O5 0.394269 0.289533 0.576487
O O6 0.752800 0.227143 0.360994
O O7 0.487724 0.935268 0.274551
O O8 0.695532 0.270692 0.962979
O O9 0.032107 0.281261 0.756966
O O10 0.861217 0.942552 0.616081
O O11 0.985207 0.244218 0.928315
O O12 0.818092 0.554209 0.320610
O O13 0.861351 0.260113 0.166404
O O14 0.647164 0.935577 0.038725
O O15 0.000000 0.000000 0.000000
#
# Coordination Sequence:
#
# PCOD8012665 Si02
#       7
#     2   2   2   2   2   2   2
#     4  12  23  37  64  94 117 158 207 248 305 362
#     4   9  22  42  60  86 123 164 192 249 305 352
#     4  10  21  40  63  89 124 155 194 255 309 352
#     4  10  21  40  62  92 121 154 199 250 308 361
#     4  10  22  45  60  84 127 163 207 247 297 355
#     4  12  23  36  62  93 118 159 205 246 297 360
#     4   9  21  43  59  84 124 164 194 247 305 351
#
# _framework density 20.798962
#
# number of rings (size 3 to 8) (size 9 to 14) (size 15 to 20)
#    0.857    0.857    1.429    3.000    0.000    4.571 
#    2.571    0.000    0.000    0.000    0.000    0.000 
#    0.000    0.000    0.000    0.000    0.000    0.000 
#
# Total GULP energy -173543.447788 kJ/mol
# GULP energy per Si atom -12395.960556 kJ/mol
# Density = 2.075162 g / cm^3
# Si number density = 20.798962 Si / 1000 Ang^3
#
#
#
# Elastic Constant Matrix: (Units=GPa)
#
#
# Indices 1 2 3 4 5 6 
#
# 1 110.4321 26.3496 42.0930 -7.5150 -0.4125 19.6502
# 2 26.3496 75.4551 8.2655 -10.9759 -6.5412 3.2342
# 3 42.0930 8.2655 68.3333 -5.8280 2.0129 1.3860
# 4 -7.5150 -10.9759 -5.8280 24.4548 6.2194 -6.3362
# 5 -0.4125 -6.5412 2.0129 6.2194 37.1140 -4.5670
# 6 19.6502 3.2342 1.3860 -6.3362 -4.5670 34.1396
#
#
#
# Elastic Compliance Matrix: (Units=1/GPa)
#
#
# Indices 1 2 3 4 5 6 
#
# 1 0.014565 -0.004075 -0.008393 -0.001201 -0.000884 -0.007998
# 2 -0.004075 0.015510 0.001050 0.006051 0.001889 0.002210
# 3 -0.008393 0.001050 0.019969 0.004111 -0.001122 0.004534
# 4 -0.001201 0.006051 0.004111 0.047871 -0.006207 0.008006
# 5 -0.000884 0.001889 -0.001122 -0.006207 0.028746 0.003069
# 6 -0.007998 0.002210 0.004534 0.008006 0.003069 0.035398
#
#
# Mechanical properties :
#
#
# Convention : Reuss Voigt Hill
#
# Bulk Modulus (GPa) = 36.75499 45.29296 41.02398
# Shear Modulus (GPa) = 25.77778 30.97585 28.37681
#
# Velocity S-wave (km/s) = 3.52430 3.86333 3.69770
# Velocity P-wave (km/s) = 5.85413 6.45943 6.16421
#
# Compressibility (1/GPa) = 0.02720719
#
# Stress axis : x y z
#
# Youngs Moduli (GPa) = 68.65776 64.47301 50.07754
#
# Poissons Ratio (x) = 0.26275 0.42031
# Poissons Ratio (y) = 0.27980 -0.05258
# Poissons Ratio (z) = 0.57626 -0.06769
#
# Static dielectric constant tensor:
#      x y z
#    x 3.758420 0.141930 -0.069480 
#    y 0.141930 3.609370 0.038860 
#    z -0.069480 0.038860 3.843920 
# 
# 
# High freq. dielectric constant tensor:
#      x y z
#    x 1.812280 0.014870 -0.007780 
#    y 0.014870 1.800650 0.007920 
#    z -0.007780 0.007920 1.819500 
# 
# From -- ./inp_files/425378.got.cif
#   From: 2010.06.25/outbox.cif.g09.slc.cpg/sg2_213_cif.got.tgz:425378.got - 2010.06.27 13:26:56.
