data_PCOD8012133
_publ_section_title
;
Structure prediction by ZEFSAII (Michael W. Deem and Ramdas Pophale) SiO2 
 PCOD8012133
Probable space group: P -1
;
_chemical_formula_sum "Si O2"
_cell_formula_units_Z 14
_cell_length_a 15.113768
_cell_length_b 11.792739
_cell_length_c 22.281772
_cell_angle_alpha 29.426354
_cell_angle_beta 17.480336
_cell_angle_gamma 26.746681
_cell_volume 531.408275
_symmetry_space_group_name_H-M "P -1"
_symmetry_group_IT_number 2
_symmetry_cell_setting 'triclinic'
loop_
_space_group_symop_operation_xyz
x,y,z
-x,-y,-z
loop_
_atom_site_type_symbol
_atom_site_label
_atom_site_fract_x
_atom_site_fract_y
_atom_site_fract_z
Si Si1 0.689850 0.905817 0.744870
Si Si2 0.783697 0.661239 0.666952
Si Si3 0.105592 0.284304 0.177876
Si Si4 0.958701 0.104798 0.803462
Si Si5 0.500292 0.957241 0.426254
Si Si6 0.404621 0.695605 0.232348
Si Si7 0.511607 0.545324 0.359092
O O1 0.761511 0.778225 0.693012
O O2 0.901075 0.696291 0.754735
O O3 0.755832 0.166337 0.583650
O O4 0.302876 0.014239 0.963353
O O5 0.729291 0.406256 0.820298
O O6 0.154007 0.567114 0.446824
O O7 0.528940 0.871511 0.691876
O O8 0.769769 0.468705 0.280608
O O9 0.189489 0.997145 0.236718
O O10 0.376690 0.370712 0.937639
O O11 0.240387 0.000224 0.719293
O O12 0.143789 0.033602 0.652370
O O13 0.639605 0.661678 0.451970
O O14 0.629474 0.577772 0.200338
#
# Coordination Sequence:
#
# PCOD8012133 Si02
#       7
#     2   2   2   2   2   2   2
#     4  11  28  42  67 102 139 177 217 270 340 402
#     4  12  24  46  67  95 141 180 220 265 335 407
#     4  10  22  40  68 100 134 167 219 280 336 382
#     4  11  26  47  67  97 134 177 231 274 322 396
#     4  11  25  44  74  98 126 177 230 280 329 383
#     4  10  21  39  66  98 129 172 217 273 325 387
#     4  11  23  42  70 103 133 166 224 283 332 390
#
# _framework density 26.345091
#
# number of rings (size 3 to 8) (size 9 to 14) (size 15 to 20)
#    0.000    1.143    2.857    2.143    6.000    5.714 
#    0.000    0.000    0.000    0.000    0.000    0.000 
#    0.000    0.000    0.000    0.000    0.000    0.000 
#
# Total GULP energy -173604.947460 kJ/mol
# GULP energy per Si atom -12400.353390 kJ/mol
# Density = 2.628513 g / cm^3
# Si number density = 26.345091 Si / 1000 Ang^3
#
#
#
# Elastic Constant Matrix: (Units=GPa)
#
#
# Indices 1 2 3 4 5 6 
#
# 1 150.4702 48.5127 26.3632 -11.3436 31.8177 -29.4244
# 2 48.5127 93.3391 -6.4828 -14.7579 12.1279 -22.7208
# 3 26.3632 -6.4828 71.1538 1.1422 11.6477 -10.3134
# 4 -11.3436 -14.7579 1.1422 27.0055 -1.7991 -0.6287
# 5 31.8177 12.1279 11.6477 -1.7991 31.2480 -8.7618
# 6 -29.4244 -22.7208 -10.3134 -0.6287 -8.7618 47.4083
#
#
#
# Elastic Compliance Matrix: (Units=1/GPa)
#
#
# Indices 1 2 3 4 5 6 
#
# 1 0.010598 -0.003690 -0.002661 0.002120 -0.007436 0.002884
# 2 -0.003690 0.015607 0.003797 0.006840 -0.001698 0.005793
# 3 -0.002661 0.003797 0.016486 0.000059 -0.004063 0.003004
# 4 0.002120 0.006840 0.000059 0.041702 -0.001041 0.004967
# 5 -0.007436 -0.001698 -0.004063 -0.001041 0.042095 0.001453
# 6 0.002884 0.005793 0.003004 0.004967 0.001453 0.026648
#
#
# Mechanical properties :
#
#
# Convention : Reuss Voigt Hill
#
# Bulk Modulus (GPa) = 26.60842 50.19436 38.40139
# Shear Modulus (GPa) = 29.27894 37.57035 33.42464
#
# Velocity S-wave (km/s) = 3.33733 3.78045 3.56578
# Velocity P-wave (km/s) = 4.99722 6.17655 5.61792
#
# Compressibility (1/GPa) = 0.03758210
#
# Stress axis : x y z
#
# Youngs Moduli (GPa) = 94.35771 64.07283 60.65881
#
# Poissons Ratio (x) = 0.23641 0.16144
# Poissons Ratio (y) = 0.34815 -0.23031
# Poissons Ratio (z) = 0.25113 -0.24327
#
# Static dielectric constant tensor:
#      x y z
#    x 4.781770 -0.237450 0.099140 
#    y -0.237450 4.658210 -0.221820 
#    z 0.099140 -0.221820 4.967840 
# 
# 
# High freq. dielectric constant tensor:
#      x y z
#    x 2.069010 -0.015140 0.003200 
#    y -0.015140 2.055520 -0.011080 
#    z 0.003200 -0.011080 2.054850 
# 
# From -- ./inp_files/597914.got.cif
#   From: 2010.06.25/outbox.cif.g09.slc.cpg/sg2_299_cif.got.tgz:597914.got - 2010.06.27 13:26:56.
