data_PCOD8012602
_publ_section_title
;
Structure prediction by ZEFSAII (Michael W. Deem and Ramdas Pophale) SiO2 
 PCOD8012602
Probable space group: P -1
;
_chemical_formula_sum "Si O2"
_cell_formula_units_Z 12
_cell_length_a 15.610406
_cell_length_b 12.917386
_cell_length_c 8.219062
_cell_angle_alpha 90.164102
_cell_angle_beta 104.864014
_cell_angle_gamma 25.930130
_cell_volume 589.968235
_symmetry_space_group_name_H-M "P -1"
_symmetry_group_IT_number 2
_symmetry_cell_setting 'triclinic'
loop_
_space_group_symop_operation_xyz
x,y,z
-x,-y,-z
loop_
_atom_site_type_symbol
_atom_site_label
_atom_site_fract_x
_atom_site_fract_y
_atom_site_fract_z
Si Si1 0.993258 0.193847 0.632433
Si Si2 0.877178 0.508116 0.766765
Si Si3 0.516342 0.806106 0.379250
Si Si4 0.713107 0.798478 0.984887
Si Si5 0.852371 0.165792 0.764356
Si Si6 0.337512 0.823471 0.504451
O O1 0.734525 0.495457 0.418221
O O2 0.005932 0.062969 0.704760
O O3 0.207773 0.983071 0.612999
O O4 0.012718 0.251246 0.798248
O O5 0.053092 0.413376 0.804257
O O6 0.638318 0.769026 0.538681
O O7 0.791364 0.614959 0.913104
O O8 0.638297 0.978027 0.839130
O O9 0.344878 0.923991 0.412719
O O10 0.500000 0.000000 0.000000
O O11 0.602833 0.495736 0.675874
O O12 0.810019 0.097309 0.675863
O O13 0.000000 0.000000 0.000000
#
# Coordination Sequence:
#
# PCOD8012602 Si02
#       6
#     2   2   2   2   2   2
#     4   9  21  40  59  88 120 156 194 237 292 349
#     4   9  23  40  55  90 118 148 208 238 281 358
#     4   9  22  39  59  87 118 154 197 239 289 351
#     4  11  23  39  62  85 120 156 197 246 295 343
#     4  10  22  39  61  90 120 152 197 242 286 353
#     4  10  21  40  62  84 124 156 190 243 293 345
#
# _framework density 20.34008
#
# number of rings (size 3 to 8) (size 9 to 14) (size 15 to 20)
#    1.000    1.333    0.000    1.000    4.667    4.000 
#    3.000    0.000    0.000    0.000    0.000    0.000 
#    0.000    0.000    0.000    0.000    0.000    0.000 
#
# Total GULP energy -148697.687971 kJ/mol
# GULP energy per Si atom -12391.473998 kJ/mol
# Density = 2.029379 g / cm^3
# Si number density = 20.340080 Si / 1000 Ang^3
#
#
#
# Elastic Constant Matrix: (Units=GPa)
#
#
# Indices 1 2 3 4 5 6 
#
# 1 133.2390 63.9557 55.1947 4.0209 -1.4407 -24.1182
# 2 63.9557 120.6667 27.6907 19.3206 0.1289 -28.7190
# 3 55.1947 27.6907 80.5242 11.0502 4.2790 4.9482
# 4 4.0209 19.3206 11.0502 13.6801 2.9988 -1.9999
# 5 -1.4407 0.1289 4.2790 2.9988 30.4385 -0.4271
# 6 -24.1182 -28.7190 4.9482 -1.9999 -0.4271 38.0643
#
#
#
# Elastic Compliance Matrix: (Units=1/GPa)
#
#
# Indices 1 2 3 4 5 6 
#
# 1 0.016390 -0.006548 -0.011523 0.014628 0.001091 0.007723
# 2 -0.006548 0.016694 0.001233 -0.021979 0.001712 0.007151
# 3 -0.011523 0.001233 0.023124 -0.018072 -0.002166 -0.010350
# 4 0.014628 -0.021979 -0.018072 0.116373 -0.008124 0.001058
# 5 0.001091 0.001712 -0.002166 -0.008124 0.034034 0.002219
# 6 0.007723 0.007151 -0.010350 0.001058 0.002219 0.037986
#
#
# Mechanical properties :
#
#
# Convention : Reuss Voigt Hill
#
# Bulk Modulus (GPa) = 44.37928 69.79022 57.08475
# Shear Modulus (GPa) = 17.49560 28.94252 23.21906
#
# Velocity S-wave (km/s) = 2.93602 3.77627 3.38234
# Velocity P-wave (km/s) = 5.77578 7.30751 6.58633
#
# Compressibility (1/GPa) = 0.02253304
#
# Stress axis : x y z
#
# Youngs Moduli (GPa) = 61.01256 59.90174 43.24564
#
# Poissons Ratio (x) = 0.39224 0.49830
# Poissons Ratio (y) = 0.39951 -0.05333
# Poissons Ratio (z) = 0.70303 -0.07387
#
# Static dielectric constant tensor:
#      x y z
#    x 3.651990 -0.014250 0.245090 
#    y -0.014250 3.628050 -0.095920 
#    z 0.245090 -0.095920 3.498460 
# 
# 
# High freq. dielectric constant tensor:
#      x y z
#    x 1.792040 -0.002540 0.021350 
#    y -0.002540 1.794710 -0.006950 
#    z 0.021350 -0.006950 1.780050 
# 
# From -- ./inp_files/7238.got.cif
#   From: 2010.06.25/outbox.cif.g09.slc.cpg/sg2_4_cif.got.tgz:7238.got - 2010.06.27 13:26:56.
