data_PCOD8012901
_publ_section_title
;
Structure prediction by ZEFSAII (Michael W. Deem and Ramdas Pophale) SiO2 
 PCOD8012901
Probable space group: P -1
;
_chemical_formula_sum "Si O2"
_cell_formula_units_Z 16
_cell_length_a 14.951695
_cell_length_b 22.933265
_cell_length_c 9.866273
_cell_angle_alpha 130.928586
_cell_angle_beta 49.120843
_cell_angle_gamma 161.618292
_cell_volume 798.359070
_symmetry_space_group_name_H-M "P -1"
_symmetry_group_IT_number 2
_symmetry_cell_setting 'triclinic'
loop_
_space_group_symop_operation_xyz
x,y,z
-x,-y,-z
loop_
_atom_site_type_symbol
_atom_site_label
_atom_site_fract_x
_atom_site_fract_y
_atom_site_fract_z
Si Si1 0.351998 0.483446 0.952710
Si Si2 0.623861 0.395602 0.135374
Si Si3 0.713026 0.944201 0.962050
Si Si4 0.741819 0.483920 0.452533
Si Si5 0.677864 0.704463 0.227639
Si Si6 0.828020 0.362587 0.155084
Si Si7 0.262931 0.880805 0.661373
Si Si8 0.269594 0.830687 0.867619
O O1 0.445485 0.578301 0.863059
O O2 0.423958 0.435974 0.814900
O O3 0.523456 0.628315 0.121820
O O4 0.014638 0.288123 0.013175
O O5 0.673578 0.466047 0.338124
O O6 0.360250 0.178403 0.072288
O O7 0.906375 0.514866 0.002406
O O8 0.767124 0.045317 0.169182
O O9 0.452124 0.814098 0.927486
O O10 0.983610 0.089176 0.817067
O O11 0.442348 0.303521 0.559232
O O12 0.888864 0.487377 0.319186
O O13 0.953692 0.670742 0.595912
O O14 0.787741 0.293022 0.230267
O O15 0.365874 0.896483 0.717469
O O16 0.500000 0.000000 0.500000
O O17 0.500000 0.000000 0.000000
#
# Coordination Sequence:
#
# PCOD8012901 Si02
#       8
#     2   2   2   2   2   2   2   2
#     4  10  21  41  62  85 122 172 195 244 309 367
#     4  10  23  40  65  89 124 158 203 252 314 355
#     4  11  21  41  63  89 124 167 197 247 305 368
#     4  11  23  39  60  94 121 161 198 256 300 359
#     4  11  21  40  64  83 126 165 210 238 296 367
#     4  10  21  40  64  90 124 159 197 252 317 358
#     4  12  22  36  61  95 123 152 200 259 305 347
#     4  11  20  38  65  91 118 162 205 243 308 376
#
# _framework density 20.041107
#
# number of rings (size 3 to 8) (size 9 to 14) (size 15 to 20)
#    0.000    1.250    3.750    3.750    1.750    3.500 
#    2.250    0.000    0.000    0.000    0.000    0.000 
#    0.000    0.000    0.000    0.000    0.000    0.000 
#
# Total GULP energy -198405.404053 kJ/mol
# GULP energy per Si atom -12400.337753 kJ/mol
# Density = 1.999549 g / cm^3
# Si number density = 20.041107 Si / 1000 Ang^3
#
#
#
# Elastic Constant Matrix: (Units=GPa)
#
#
# Indices 1 2 3 4 5 6 
#
# 1 110.7426 35.7586 40.4443 2.2982 32.1161 -8.9402
# 2 35.7586 112.1989 50.3643 -3.8367 6.2291 -7.9736
# 3 40.4443 50.3643 103.5396 -2.8702 20.1698 -6.9427
# 4 2.2982 -3.8367 -2.8702 42.5332 -2.5792 3.3115
# 5 32.1161 6.2291 20.1698 -2.5792 27.9593 -9.9347
# 6 -8.9402 -7.9736 -6.9427 3.3115 -9.9347 24.2171
#
#
#
# Elastic Compliance Matrix: (Units=1/GPa)
#
#
# Indices 1 2 3 4 5 6 
#
# 1 0.015483 -0.003743 -0.001094 -0.002091 -0.017293 -0.002638
# 2 -0.003743 0.012615 -0.005773 0.001080 0.007138 0.003897
# 3 -0.001094 -0.005773 0.014431 0.000129 -0.008442 -0.001648
# 4 -0.002091 0.001080 0.000129 0.024117 0.003497 -0.002243
# 5 -0.017293 0.007138 -0.008442 0.003497 0.067885 0.020917
# 6 -0.002638 0.003897 -0.001648 -0.002243 0.020917 0.050017
#
#
# Mechanical properties :
#
#
# Convention : Reuss Voigt Hill
#
# Bulk Modulus (GPa) = 46.92684 64.40173 55.66429
# Shear Modulus (GPa) = 23.48840 32.26950 27.87895
#
# Velocity S-wave (km/s) = 3.42718 4.01704 3.73378
# Velocity P-wave (km/s) = 6.25515 7.32940 6.81348
#
# Compressibility (1/GPa) = 0.02130977
#
# Stress axis : x y z
#
# Youngs Moduli (GPa) = 64.58564 79.27225 69.29401
#
# Poissons Ratio (x) = 0.29669 0.07579
# Poissons Ratio (y) = 0.24172 0.40006
# Poissons Ratio (z) = 0.07064 0.45767
#
# Static dielectric constant tensor:
#      x y z
#    x 3.920330 -0.127410 0.045720 
#    y -0.127410 3.783660 -0.050580 
#    z 0.045720 -0.050580 3.586570 
# 
# 
# High freq. dielectric constant tensor:
#      x y z
#    x 1.783950 -0.004030 0.005320 
#    y -0.004030 1.790370 -0.005710 
#    z 0.005320 -0.005710 1.774330 
# 
# From -- ./inp_files/320329.got.cif
#   From: 2010.06.25/outbox.cif.g09.slc.cpg/sg2_161_cif.got.tgz:320329.got - 2010.06.27 13:26:56.
