data_PCOD8012128
_publ_section_title
;
Structure prediction by ZEFSAII (Michael W. Deem and Ramdas Pophale) SiO2 
 PCOD8012128
Probable space group: P -1
;
_chemical_formula_sum "Si O2"
_cell_formula_units_Z 16
_cell_length_a 7.714855
_cell_length_b 12.720823
_cell_length_c 8.017761
_cell_angle_alpha 90.645892
_cell_angle_beta 80.869594
_cell_angle_gamma 55.382818
_cell_volume 634.352422
_symmetry_space_group_name_H-M "P -1"
_symmetry_group_IT_number 2
_symmetry_cell_setting 'triclinic'
loop_
_space_group_symop_operation_xyz
x,y,z
-x,-y,-z
loop_
_atom_site_type_symbol
_atom_site_label
_atom_site_fract_x
_atom_site_fract_y
_atom_site_fract_z
Si Si1 0.228275 0.311284 0.720497
Si Si2 0.249848 0.491962 0.174934
Si Si3 0.794170 0.856751 0.560126
Si Si4 0.448692 0.396887 0.480442
Si Si5 0.657168 0.314030 0.941120
Si Si6 0.131877 0.795036 0.748627
Si Si7 0.403587 0.057158 0.838447
Si Si8 0.970878 0.932751 0.254045
O O1 0.197350 0.248656 0.559555
O O2 0.353088 0.375554 0.660185
O O3 0.363559 0.196267 0.830671
O O4 0.999692 0.425458 0.835236
O O5 0.278778 0.438962 0.357020
O O6 0.405817 0.371986 0.021562
O O7 0.336519 0.581182 0.162479
O O8 0.887582 0.927568 0.450324
O O9 0.948720 0.783622 0.694949
O O10 0.553356 0.963129 0.663172
O O11 0.500000 0.500000 0.500000
O O12 0.668249 0.260573 0.406845
O O13 0.786649 0.285124 0.094621
O O14 0.777938 0.184699 0.810537
O O15 0.034153 0.944020 0.787081
O O16 0.174518 0.078228 0.860301
O O17 0.500000 0.000000 0.000000
#
# Coordination Sequence:
#
# PCOD8012128 Si02
#       8
#     2   2   2   2   2   2   2   2
#     4  11  22  44  71  98 135 183 231 282 345 402
#     4  10  21  41  68  94 134 187 227 278 337 402
#     4  11  22  38  67  98 136 177 225 279 340 411
#     4  11  24  42  69 102 132 177 236 286 336 409
#     4  10  21  39  66  97 140 179 227 278 342 405
#     4  11  23  39  65 101 136 176 228 283 345 407
#     4  11  23  40  64 101 144 182 224 281 347 415
#     4  11  21  41  65 100 136 183 227 284 345 401
#
# _framework density 25.222573000000001
#
# number of rings (size 3 to 8) (size 9 to 14) (size 15 to 20)
#    0.000    1.250    2.500    5.625    0.000    0.000 
#    2.250    0.000    2.750   10.500    0.000    0.000 
#    0.000    0.000    0.000    0.000    0.000    0.000 
#
# Total GULP energy -198415.122537 kJ/mol
# GULP energy per Si atom -12400.945159 kJ/mol
# Density = 2.516517 g / cm^3
# Si number density = 25.222573 Si / 1000 Ang^3
#
#
#
# Elastic Constant Matrix: (Units=GPa)
#
#
# Indices 1 2 3 4 5 6 
#
# 1 78.3562 42.6171 23.4020 3.2426 -27.6634 -9.6087
# 2 42.6171 143.2215 50.7417 7.8870 -21.1264 -18.3930
# 3 23.4020 50.7417 85.6658 1.6066 -24.7836 -8.9124
# 4 3.2426 7.8870 1.6066 47.6018 -13.8117 -13.4144
# 5 -27.6634 -21.1264 -24.7836 -13.8117 34.0929 8.2280
# 6 -9.6087 -18.3930 -8.9124 -13.4144 8.2280 45.4533
#
#
#
# Elastic Compliance Matrix: (Units=1/GPa)
#
#
# Indices 1 2 3 4 5 6 
#
# 1 0.020471 -0.004379 0.001906 0.004484 0.016807 0.001210
# 2 -0.004379 0.010161 -0.005153 -0.001176 -0.002008 0.002192
# 3 0.001906 -0.005153 0.017919 0.004044 0.012849 0.000699
# 4 0.004484 -0.001176 0.004044 0.027004 0.015226 0.006478
# 5 0.016807 -0.002008 0.012849 0.015226 0.057387 -0.000635
# 6 0.001210 0.002192 0.000699 0.006478 -0.000635 0.025307
#
#
# Mechanical properties :
#
#
# Convention : Reuss Voigt Hill
#
# Bulk Modulus (GPa) = 30.03153 60.08502 45.05828
# Shear Modulus (GPa) = 27.08529 38.12842 32.60685
#
# Velocity S-wave (km/s) = 3.28052 3.89225 3.59940
# Velocity P-wave (km/s) = 5.12655 6.63876 5.93105
#
# Compressibility (1/GPa) = 0.03329834
#
# Stress axis : x y z
#
# Youngs Moduli (GPa) = 48.84892 98.41589 55.80601
#
# Poissons Ratio (x) = 0.43096 -0.10635
# Poissons Ratio (y) = 0.21391 0.28758
# Poissons Ratio (z) = -0.09309 0.50716
#
# Static dielectric constant tensor:
#      x y z
#    x 4.402140 -0.459020 -0.250430 
#    y -0.459020 4.663660 0.056650 
#    z -0.250430 0.056650 4.681700 
# 
# 
# High freq. dielectric constant tensor:
#      x y z
#    x 1.989800 -0.026250 -0.011280 
#    y -0.026250 2.014640 -0.003400 
#    z -0.011280 -0.003400 2.010250 
# 
# From -- ./inp_files/187478.got.cif
#   From: 2010.06.25/outbox.cif.g09.slc.cpg/sg2_94_cif.got.tgz:187478.got - 2010.06.27 13:26:56.
