data_PCOD8012273
_publ_section_title
;
Structure prediction by ZEFSAII (Michael W. Deem and Ramdas Pophale) SiO2 
 PCOD8012273
Probable space group: P -1
;
_chemical_formula_sum "Si O2"
_cell_formula_units_Z 16
_cell_length_a 11.908747
_cell_length_b 9.140126
_cell_length_c 8.998704
_cell_angle_alpha 119.594299
_cell_angle_beta 61.985278
_cell_angle_gamma 104.209426
_cell_volume 751.792844
_symmetry_space_group_name_H-M "P -1"
_symmetry_group_IT_number 2
_symmetry_cell_setting 'triclinic'
loop_
_space_group_symop_operation_xyz
x,y,z
-x,-y,-z
loop_
_atom_site_type_symbol
_atom_site_label
_atom_site_fract_x
_atom_site_fract_y
_atom_site_fract_z
Si Si1 0.030195 0.672722 0.986309
Si Si2 0.498522 0.647727 0.858742
Si Si3 0.776435 0.867244 0.287584
Si Si4 0.887994 0.481375 0.444881
Si Si5 0.752613 0.160783 0.868561
Si Si6 0.734514 0.222067 0.578167
Si Si7 0.549217 0.710185 0.191143
Si Si8 0.270115 0.218361 0.392296
O O1 0.072840 0.635406 0.774449
O O2 0.140170 0.777034 0.053666
O O3 0.000000 0.500000 0.000000
O O4 0.904974 0.782783 0.113854
O O5 0.445189 0.456070 0.791901
O O6 0.600304 0.685602 0.686166
O O7 0.383736 0.773351 0.962026
O O8 0.566458 0.669024 0.986460
O O9 0.666918 0.830646 0.217900
O O10 0.724892 0.805535 0.447235
O O11 0.801455 0.067396 0.377059
O O12 0.768565 0.394104 0.559060
O O13 0.850523 0.667136 0.510414
O O14 0.000000 0.500000 0.500000
O O15 0.785008 0.234488 0.722302
O O16 0.747417 0.958335 0.770429
O O17 0.582618 0.193465 0.655554
#
# Coordination Sequence:
#
# PCOD8012273 Si02
#       8
#     2   2   2   2   2   2   2   2
#     4  12  25  44  65  96 127 170 216 261 322 377
#     4  10  21  39  68  94 127 170 213 262 318 375
#     4  11  25  40  67  93 132 169 215 264 316 378
#     4  12  27  43  67  93 132 169 215 263 322 384
#     4  10  24  43  69  94 133 166 214 262 318 381
#     4  10  23  44  65  97 127 173 210 264 320 376
#     4  10  21  40  65  96 130 168 212 263 319 375
#     4  11  24  43  65  99 126 171 212 267 319 372
#
# _framework density 21.28246
#
# number of rings (size 3 to 8) (size 9 to 14) (size 15 to 20)
#    0.000    1.250    2.500    2.250    3.500    4.000 
#    0.000    0.000    0.000    0.000    0.000    0.000 
#    0.000    0.000    0.000    0.000    0.000    0.000 
#
# Total GULP energy -198487.525828 kJ/mol
# GULP energy per Si atom -12405.470364 kJ/mol
# Density = 2.123402 g / cm^3
# Si number density = 21.282460 Si / 1000 Ang^3
#
#
#
# Elastic Constant Matrix: (Units=GPa)
#
#
# Indices 1 2 3 4 5 6 
#
# 1 126.2555 14.9716 42.6212 10.0714 4.0101 6.4585
# 2 14.9716 69.6403 19.1998 2.2208 -2.1019 -9.5624
# 3 42.6212 19.1998 96.7716 10.1667 -10.2638 -1.1616
# 4 10.0714 2.2208 10.1667 33.4875 -4.5078 -9.7621
# 5 4.0101 -2.1019 -10.2638 -4.5078 33.6100 8.5371
# 6 6.4585 -9.5624 -1.1616 -9.7621 8.5371 28.7469
#
#
#
# Elastic Compliance Matrix: (Units=1/GPa)
#
#
# Indices 1 2 3 4 5 6 
#
# 1 0.009914 -0.001432 -0.004038 -0.002881 -0.002072 -0.003230
# 2 -0.001432 0.016263 -0.002842 0.001998 -0.001094 0.006620
# 3 -0.004038 -0.002842 0.013400 -0.002556 0.004484 -0.001696
# 4 -0.002881 0.001998 -0.002556 0.035272 0.001157 0.012843
# 5 -0.002072 -0.001094 0.004484 0.001157 0.033837 -0.009373
# 6 -0.003230 0.006620 -0.001696 0.012843 -0.009373 0.044790
#
#
# Mechanical properties :
#
#
# Convention : Reuss Voigt Hill
#
# Bulk Modulus (GPa) = 43.56922 49.58363 46.57643
# Shear Modulus (GPa) = 28.12893 33.56053 30.84473
#
# Velocity S-wave (km/s) = 3.63946 3.97534 3.81110
# Velocity P-wave (km/s) = 6.17877 6.66480 6.42638
#
# Compressibility (1/GPa) = 0.02295198
#
# Stress axis : x y z
#
# Youngs Moduli (GPa) = 100.86348 61.48812 74.62769
#
# Poissons Ratio (x) = 0.08807 0.30136
# Poissons Ratio (y) = 0.14447 0.21211
# Poissons Ratio (z) = 0.40731 0.17477
#
# Static dielectric constant tensor:
#      x y z
#    x 3.726140 -0.141480 -0.063170 
#    y -0.141480 3.967590 0.113650 
#    z -0.063170 0.113650 3.981550 
# 
# 
# High freq. dielectric constant tensor:
#      x y z
#    x 1.836100 -0.006810 -0.007190 
#    y -0.006810 1.837630 0.007500 
#    z -0.007190 0.007500 1.842950 
# 
# From -- ./inp_files/184807.got.cif
#   From: 2010.06.25/outbox.cif.g09.slc.cpg/sg2_93_cif.got.tgz:184807.got - 2010.06.27 13:26:56.
