data_PCOD8012888
_publ_section_title
;
Structure prediction by ZEFSAII (Michael W. Deem and Ramdas Pophale) SiO2 
 PCOD8012888
Probable space group: P -1
;
_chemical_formula_sum "Si O2"
_cell_formula_units_Z 16
_cell_length_a 14.088199
_cell_length_b 26.628290
_cell_length_c 9.672808
_cell_angle_alpha 40.038878
_cell_angle_beta 50.660640
_cell_angle_gamma 20.254289
_cell_volume 747.915086
_symmetry_space_group_name_H-M "P -1"
_symmetry_group_IT_number 2
_symmetry_cell_setting 'triclinic'
loop_
_space_group_symop_operation_xyz
x,y,z
-x,-y,-z
loop_
_atom_site_type_symbol
_atom_site_label
_atom_site_fract_x
_atom_site_fract_y
_atom_site_fract_z
Si Si1 0.651361 0.329723 0.216027
Si Si2 0.302645 0.134452 0.770387
Si Si3 0.754862 0.193142 0.978341
Si Si4 0.277560 0.104890 0.365880
Si Si5 0.220173 0.341046 0.518138
Si Si6 0.861102 0.936575 0.895192
Si Si7 0.064587 0.856300 0.369433
Si Si8 0.261140 0.470995 0.065103
O O1 0.432856 0.396304 0.203029
O O2 0.958879 0.158212 0.212505
O O3 0.715072 0.264583 0.449465
O O4 0.500000 0.500000 0.000000
O O5 0.110101 0.322757 0.590452
O O6 0.524555 0.028945 0.666310
O O7 0.105380 0.171353 0.846350
O O8 0.500000 0.000000 0.000000
O O9 0.738554 0.245801 0.734917
O O10 0.444313 0.386504 0.936037
O O11 0.024178 0.071771 0.075417
O O12 0.810948 0.068878 0.165478
O O13 0.088128 0.139227 0.508368
O O14 0.500000 0.000000 0.500000
O O15 0.057886 0.303999 0.119952
O O16 0.230057 0.395927 0.265672
O O17 0.000000 0.500000 0.500000
O O18 0.528949 0.151205 0.712107
#
# Coordination Sequence:
#
# PCOD8012888 Si02
#       8
#     2   2   2   2   2   2   2   2
#     4  11  22  38  69  97 122 166 211 274 310 382
#     4  10  21  40  64  89 127 170 210 258 318 380
#     4  10  23  42  65  95 129 169 205 279 324 388
#     4  12  25  43  64  89 131 176 212 265 320 394
#     4  11  23  37  66  97 131 170 220 271 312 385
#     4  10  21  41  63  95 131 166 214 262 331 375
#     4  11  22  42  65  94 132 166 217 258 334 376
#     4  11  23  42  64  95 129 162 223 264 327 377
#
# _framework density 21.392804000000002
#
# number of rings (size 3 to 8) (size 9 to 14) (size 15 to 20)
#    0.000    1.250    1.250    6.000    1.750    2.500 
#    2.250    3.750    0.000    0.000    0.000    0.000 
#    0.000    0.000    0.000    0.000    0.000    0.000 
#
# Total GULP energy -198427.511558 kJ/mol
# GULP energy per Si atom -12401.719472 kJ/mol
# Density = 2.134411 g / cm^3
# Si number density = 21.392804 Si / 1000 Ang^3
#
#
#
# Elastic Constant Matrix: (Units=GPa)
#
#
# Indices 1 2 3 4 5 6 
#
# 1 90.9495 40.6766 54.5516 1.2092 -10.2190 8.8303
# 2 40.6766 105.0447 52.9083 -1.3381 12.8888 20.6329
# 3 54.5516 52.9083 129.9145 13.6695 -7.5510 8.2258
# 4 1.2092 -1.3381 13.6695 39.0554 7.6962 2.8578
# 5 -10.2190 12.8888 -7.5510 7.6962 48.7495 2.2620
# 6 8.8303 20.6329 8.2258 2.8578 2.2620 34.1409
#
#
#
# Elastic Compliance Matrix: (Units=1/GPa)
#
#
# Indices 1 2 3 4 5 6 
#
# 1 0.016287 -0.004105 -0.004943 0.000415 0.003706 -0.000821
# 2 -0.004105 0.015920 -0.005102 0.004210 -0.006187 -0.007273
# 3 -0.004943 -0.005102 0.012458 -0.005084 0.002971 0.001589
# 4 0.000415 0.004210 -0.005084 0.028995 -0.006231 -0.003441
# 5 0.003706 -0.006187 0.002971 -0.006231 0.024325 0.000975
# 6 -0.000821 -0.007273 0.001589 -0.003441 0.000975 0.033739
#
#
# Mechanical properties :
#
#
# Convention : Reuss Voigt Hill
#
# Bulk Modulus (GPa) = 61.10900 69.13132 65.12016
# Shear Modulus (GPa) = 30.21536 36.24065 33.22800
#
# Velocity S-wave (km/s) = 3.76228 4.12036 3.94538
# Velocity P-wave (km/s) = 6.89204 7.41767 7.15968
#
# Compressibility (1/GPa) = 0.01636420
#
# Stress axis : x y z
#
# Youngs Moduli (GPa) = 61.39970 62.81229 80.27065
#
# Poissons Ratio (x) = 0.25786 0.39680
# Poissons Ratio (y) = 0.25206 0.40954
# Poissons Ratio (z) = 0.30351 0.32047
#
# Static dielectric constant tensor:
#      x y z
#    x 4.164260 0.107460 -0.411240 
#    y 0.107460 3.817930 0.061200 
#    z -0.411240 0.061200 4.127330 
# 
# 
# High freq. dielectric constant tensor:
#      x y z
#    x 1.844330 0.012460 -0.016770 
#    y 0.012460 1.841950 0.010220 
#    z -0.016770 0.010220 1.843480 
# 
# From -- ./inp_files/206257.got.cif
#   From: 2010.06.25/outbox.cif.g09.slc.cpg/sg2_104_cif.got.tgz:206257.got - 2010.06.27 13:26:56.
