data_PCOD8012534
_publ_section_title
;
Structure prediction by ZEFSAII (Michael W. Deem and Ramdas Pophale) SiO2 
 PCOD8012534
Probable space group: P -1
;
_chemical_formula_sum "Si O2"
_cell_formula_units_Z 14
_cell_length_a 6.312477
_cell_length_b 9.391994
_cell_length_c 20.110843
_cell_angle_alpha 34.380708
_cell_angle_beta 74.471817
_cell_angle_gamma 82.745096
_cell_volume 638.813318
_symmetry_space_group_name_H-M "P -1"
_symmetry_group_IT_number 2
_symmetry_cell_setting 'triclinic'
loop_
_space_group_symop_operation_xyz
x,y,z
-x,-y,-z
loop_
_atom_site_type_symbol
_atom_site_label
_atom_site_fract_x
_atom_site_fract_y
_atom_site_fract_z
Si Si1 0.124642 0.480030 0.246076
Si Si2 0.673006 0.965142 0.621648
Si Si3 0.209297 0.593736 0.805228
Si Si4 0.566954 0.604285 0.526838
Si Si5 0.985961 0.031872 0.688634
Si Si6 0.725176 0.205420 0.757781
Si Si7 0.523328 0.792077 0.023846
O O1 0.156269 0.185835 0.374522
O O2 0.157855 0.652393 0.241994
O O3 0.299311 0.581127 0.131893
O O4 0.882201 0.472852 0.236533
O O5 0.441215 0.778472 0.711295
O O6 0.622105 0.234342 0.492619
O O7 0.765533 0.024661 0.665343
O O8 0.252371 0.332043 0.936795
O O9 0.041488 0.744390 0.801888
O O10 0.500000 0.500000 0.500000
O O11 0.810560 0.779736 0.435451
O O12 0.574517 0.378273 0.665423
O O13 0.930469 0.140471 0.722598
O O14 0.557509 0.942293 0.892746
O O15 0.500000 0.000000 0.000000
#
# Coordination Sequence:
#
# PCOD8012534 Si02
#       7
#     2   2   2   2   2   2   2
#     4   9  20  41  61  87 122 149 196 244 285 348
#     4   9  19  40  63  81 121 157 191 243 289 342
#     4   9  19  40  62  83 117 162 187 239 297 339
#     4  11  22  39  61  86 119 156 194 241 296 343
#     4  10  21  40  61  85 118 154 196 244 288 343
#     4  11  22  37  60  92 117 155 196 241 292 343
#     4   9  20  39  58  88 123 151 191 243 288 346
#
# _framework density 21.915637
#
# number of rings (size 3 to 8) (size 9 to 14) (size 15 to 20)
#    0.000    2.286    1.429    0.429    0.000    3.429 
#   10.286   12.857    0.000    0.000    0.000    0.000 
#    0.000    0.000    0.000    0.000    0.000    0.000 
#
# Total GULP energy -173438.786008 kJ/mol
# GULP energy per Si atom -12388.484715 kJ/mol
# Density = 2.186576 g / cm^3
# Si number density = 21.915637 Si / 1000 Ang^3
#
#
#
# Elastic Constant Matrix: (Units=GPa)
#
#
# Indices 1 2 3 4 5 6 
#
# 1 103.7307 38.0855 51.2902 -4.8264 27.3969 19.1790
# 2 38.0855 103.9913 42.6768 -8.6511 20.9098 7.4196
# 3 51.2902 42.6768 134.0626 -13.8162 38.0391 -9.5950
# 4 -4.8264 -8.6511 -13.8162 29.6424 -10.2346 9.7405
# 5 27.3969 20.9098 38.0391 -10.2346 28.7682 -9.2662
# 6 19.1790 7.4196 -9.5950 9.7405 -9.2662 41.6414
#
#
#
# Elastic Compliance Matrix: (Units=1/GPa)
#
#
# Indices 1 2 3 4 5 6 
#
# 1 0.018224 -0.001300 -0.002650 -0.000448 -0.017082 -0.012469
# 2 -0.001300 0.012474 -0.001878 0.001746 -0.005944 -0.003788
# 3 -0.002650 -0.001878 0.012698 0.000128 -0.012303 0.001713
# 4 -0.000448 0.001746 0.000128 0.040375 0.011081 -0.007054
# 5 -0.017082 -0.005944 -0.012303 0.011081 0.082608 0.021882
# 6 -0.012469 -0.003788 0.001713 -0.007054 0.021882 0.037347
#
#
# Mechanical properties :
#
#
# Convention : Reuss Voigt Hill
#
# Bulk Modulus (GPa) = 31.50631 67.32107 49.41369
# Shear Modulus (GPa) = 22.12768 33.99253 28.06010
#
# Velocity S-wave (km/s) = 3.18099 3.94263 3.58211
# Velocity P-wave (km/s) = 5.28195 7.17710 6.30118
#
# Compressibility (1/GPa) = 0.03173968
#
# Stress axis : x y z
#
# Youngs Moduli (GPa) = 54.87204 80.16909 78.75360
#
# Poissons Ratio (x) = 0.10419 0.20872
# Poissons Ratio (y) = 0.07131 0.14791
# Poissons Ratio (z) = 0.14543 0.15057
#
# Static dielectric constant tensor:
#      x y z
#    x 4.296260 -0.244060 0.226190 
#    y -0.244060 4.170500 -0.625170 
#    z 0.226190 -0.625170 4.542560 
# 
# 
# High freq. dielectric constant tensor:
#      x y z
#    x 1.864700 0.000360 0.017870 
#    y 0.000360 1.864580 -0.034830 
#    z 0.017870 -0.034830 1.845250 
# 
# From -- ./inp_files/65521.got.cif
#   From: 2010.06.25/outbox.cif.g09.slc.cpg/sg2_33_cif.got.tgz:65521.got - 2010.06.27 13:26:56.
