data_PCOD8012658
_publ_section_title
;
Structure prediction by ZEFSAII (Michael W. Deem and Ramdas Pophale) SiO2 
 PCOD8012658
Probable space group: P -1
;
_chemical_formula_sum "Si O2"
_cell_formula_units_Z 14
_cell_length_a 23.171547
_cell_length_b 11.990062
_cell_length_c 5.204782
_cell_angle_alpha 123.757809
_cell_angle_beta 126.021977
_cell_angle_gamma 29.863839
_cell_volume 578.603625
_symmetry_space_group_name_H-M "P -1"
_symmetry_group_IT_number 2
_symmetry_cell_setting 'triclinic'
loop_
_space_group_symop_operation_xyz
x,y,z
-x,-y,-z
loop_
_atom_site_type_symbol
_atom_site_label
_atom_site_fract_x
_atom_site_fract_y
_atom_site_fract_z
Si Si1 0.621500 0.661784 0.749799
Si Si2 0.350403 0.237377 0.557808
Si Si3 0.946089 0.513954 0.127329
Si Si4 0.145183 0.695632 0.825134
Si Si5 0.062121 0.103243 0.137982
Si Si6 0.264776 0.000279 0.687830
Si Si7 0.604844 0.133011 0.667139
O O1 0.595505 0.806117 0.633676
O O2 0.539966 0.652148 0.473368
O O3 0.575086 0.798188 0.068984
O O4 0.762703 0.414089 0.833098
O O5 0.211681 0.500501 0.541312
O O6 0.350301 0.082630 0.423303
O O7 0.803417 0.757404 0.094347
O O8 0.000000 0.500000 0.500000
O O9 0.988189 0.295170 0.969776
O O10 0.000000 0.500000 0.000000
O O11 0.027632 0.795883 0.736608
O O12 0.111078 0.892117 0.867400
O O13 0.170421 0.022770 0.445085
O O14 0.332863 0.910449 0.483412
O O15 0.358161 0.828184 0.944920
#
# Coordination Sequence:
#
# PCOD8012658 Si02
#       7
#     2   2   2   2   2   2   2
#     4  10  22  42  64  98 124 167 218 264 321 373
#     4  10  21  40  65  98 124 165 216 267 320 374
#     4  10  21  40  62  91 127 165 206 262 311 375
#     4   9  23  43  69  92 131 176 217 263 316 390
#     4  10  21  47  63  98 130 175 215 265 321 386
#     4  11  24  39  64  99 129 166 209 266 328 384
#     4  12  22  40  68  96 130 165 210 272 327 374
#
# _framework density 24.196186000000001
#
# number of rings (size 3 to 8) (size 9 to 14) (size 15 to 20)
#    0.857    0.857    0.000    5.143    2.000    1.143 
#   10.286    2.857    0.000    0.000    0.000    0.000 
#    0.000    0.000    0.000    0.000    0.000    0.000 
#
# Total GULP energy -173477.151510 kJ/mol
# GULP energy per Si atom -12391.225108 kJ/mol
# Density = 2.414111 g / cm^3
# Si number density = 24.196186 Si / 1000 Ang^3
#
#
#
# Elastic Constant Matrix: (Units=GPa)
#
#
# Indices 1 2 3 4 5 6 
#
# 1 153.6428 30.7823 65.1098 -10.6146 -5.3998 -7.1369
# 2 30.7823 40.8957 -0.2924 3.6921 6.4229 5.9184
# 3 65.1098 -0.2924 86.9379 -27.1857 -12.6793 -16.7308
# 4 -10.6146 3.6921 -27.1857 35.3775 -6.3016 9.3756
# 5 -5.3998 6.4229 -12.6793 -6.3016 51.7419 -6.7444
# 6 -7.1369 5.9184 -16.7308 9.3756 -6.7444 40.8933
#
#
#
# Elastic Compliance Matrix: (Units=1/GPa)
#
#
# Indices 1 2 3 4 5 6 
#
# 1 0.012591 -0.009113 -0.010694 -0.003562 -0.000628 -0.000146
# 2 -0.009113 0.032987 0.004627 -0.002216 -0.004802 -0.004755
# 3 -0.010694 0.004627 0.027111 0.016952 0.007794 0.005955
# 4 -0.003562 -0.002216 0.016952 0.042491 0.009021 -0.001620
# 5 -0.000628 -0.004802 0.007794 0.009021 0.023595 0.005597
# 6 -0.000146 -0.004755 0.005955 -0.001620 0.005597 0.028847
#
#
# Mechanical properties :
#
#
# Convention : Reuss Voigt Hill
#
# Bulk Modulus (GPa) = 23.62413 52.51951 38.07182
# Shear Modulus (GPa) = 23.57472 37.99432 30.78452
#
# Velocity S-wave (km/s) = 3.12479 3.96695 3.57078
# Velocity P-wave (km/s) = 4.77534 6.53721 5.72446
#
# Compressibility (1/GPa) = 0.04232960
#
# Stress axis : x y z
#
# Youngs Moduli (GPa) = 79.42044 30.31504 36.88607
#
# Poissons Ratio (x) = 0.27625 0.39446
# Poissons Ratio (y) = 0.72372 -0.17068
# Poissons Ratio (z) = 0.84933 -0.14027
#
# Static dielectric constant tensor:
#      x y z
#    x 4.150490 -0.014540 0.086460 
#    y -0.014540 4.855980 -0.422700 
#    z 0.086460 -0.422700 4.466270 
# 
# 
# High freq. dielectric constant tensor:
#      x y z
#    x 1.954410 -0.012010 0.002160 
#    y -0.012010 1.952570 -0.024120 
#    z 0.002160 -0.024120 1.964740 
# 
# From -- ./inp_files/117956.got.cif
#   From: 2010.06.25/outbox.cif.g09.slc.cpg/sg2_59_cif.got.tgz:117956.got - 2010.06.27 13:26:56.
