data_PCOD8012271
_publ_section_title
;
Structure prediction by ZEFSAII (Michael W. Deem and Ramdas Pophale) SiO2 
 PCOD8012271
Probable space group: P -1
;
_chemical_formula_sum "Si O2"
_cell_formula_units_Z 16
_cell_length_a 8.001325
_cell_length_b 12.180221
_cell_length_c 17.603828
_cell_angle_alpha 30.196621
_cell_angle_beta 59.156792
_cell_angle_gamma 73.303373
_cell_volume 690.962010
_symmetry_space_group_name_H-M "P -1"
_symmetry_group_IT_number 2
_symmetry_cell_setting 'triclinic'
loop_
_space_group_symop_operation_xyz
x,y,z
-x,-y,-z
loop_
_atom_site_type_symbol
_atom_site_label
_atom_site_fract_x
_atom_site_fract_y
_atom_site_fract_z
Si Si1 0.013016 0.033312 0.268971
Si Si2 0.826936 0.139498 0.795882
Si Si3 0.477338 0.235986 0.436068
Si Si4 0.836153 0.903099 0.161690
Si Si5 0.115704 0.689271 0.982550
Si Si6 0.486304 0.758387 0.746442
Si Si7 0.884894 0.773529 0.710434
Si Si8 0.544378 0.702799 0.219402
O O1 0.037693 0.239914 0.078627
O O2 0.136866 0.149210 0.245201
O O3 0.774030 0.885333 0.433942
O O4 0.131685 0.881442 0.291004
O O5 0.692889 0.306870 0.731899
O O6 0.058907 0.239336 0.722147
O O7 0.697878 0.892233 0.013602
O O8 0.565861 0.325859 0.278046
O O9 0.550349 0.450910 0.348464
O O10 0.571466 0.043658 0.557284
O O11 0.619031 0.749609 0.262489
O O12 0.797497 0.113652 0.090287
O O13 0.000000 0.000000 0.000000
O O14 0.292428 0.656493 0.907877
O O15 0.008294 0.426241 0.200031
O O16 0.655992 0.657891 0.797576
O O17 0.000000 0.000000 0.500000
#
# Coordination Sequence:
#
# PCOD8012271 Si02
#       8
#     2   2   2   2   2   2   2   2
#     4  10  22  43  61  93 137 166 212 265 328 387
#     4   9  21  39  63  94 127 166 224 264 314 396
#     4  10  22  43  62  90 136 169 207 274 324 378
#     4   9  20  41  61  97 126 162 221 265 316 383
#     4  10  23  42  68  88 131 171 210 265 321 391
#     4  10  23  41  61  93 130 166 218 261 322 385
#     4  12  24  39  63 102 125 166 215 266 325 380
#     4  10  21  39  68  94 123 175 218 264 328 375
#
# _framework density 23.156120000000001
#
# number of rings (size 3 to 8) (size 9 to 14) (size 15 to 20)
#    0.000    2.000    1.250    0.750    3.500    6.500 
#    2.250    5.625    0.000    0.000    0.000    0.000 
#    0.000    0.000    0.000    0.000    0.000    0.000 
#
# Total GULP energy -198275.376299 kJ/mol
# GULP energy per Si atom -12392.211019 kJ/mol
# Density = 2.310342 g / cm^3
# Si number density = 23.156120 Si / 1000 Ang^3
#
#
#
# Elastic Constant Matrix: (Units=GPa)
#
#
# Indices 1 2 3 4 5 6 
#
# 1 85.3891 36.3842 15.6696 -8.2673 15.1049 11.9385
# 2 36.3842 143.2597 35.0977 -2.7051 14.2793 16.5073
# 3 15.6696 35.0977 71.1472 -12.0797 13.4163 8.6245
# 4 -8.2673 -2.7051 -12.0797 28.5736 -1.8666 -6.1539
# 5 15.1049 14.2793 13.4163 -1.8666 20.8147 4.4900
# 6 11.9385 16.5073 8.6245 -6.1539 4.4900 38.5338
#
#
#
# Elastic Compliance Matrix: (Units=1/GPa)
#
#
# Indices 1 2 3 4 5 6 
#
# 1 0.014902 -0.002760 0.000483 0.003262 -0.008501 -0.002031
# 2 -0.002760 0.008939 -0.003588 -0.002068 -0.001500 -0.002327
# 3 0.000483 -0.003588 0.018711 0.006977 -0.009191 -0.000615
# 4 0.003262 -0.002068 0.006977 0.039573 -0.002971 0.004980
# 5 -0.008501 -0.001500 -0.009191 -0.002971 0.061394 -0.002294
# 6 -0.002031 -0.002327 -0.000615 0.004980 -0.002294 0.028778
#
#
# Mechanical properties :
#
#
# Convention : Reuss Voigt Hill
#
# Bulk Modulus (GPa) = 32.44473 52.67769 42.56121
# Shear Modulus (GPa) = 25.73305 31.76071 28.74688
#
# Velocity S-wave (km/s) = 3.33721 3.70752 3.52723
# Velocity P-wave (km/s) = 5.37504 6.41295 5.91679
#
# Compressibility (1/GPa) = 0.03082165
#
# Stress axis : x y z
#
# Youngs Moduli (GPa) = 67.10427 111.87041 53.44310
#
# Poissons Ratio (x) = 0.30876 -0.02579
# Poissons Ratio (y) = 0.18521 0.19175
# Poissons Ratio (z) = -0.03238 0.40139
#
# Static dielectric constant tensor:
#      x y z
#    x 4.928970 0.088590 0.141760 
#    y 0.088590 4.552980 0.108220 
#    z 0.141760 0.108220 4.098430 
# 
# 
# High freq. dielectric constant tensor:
#      x y z
#    x 1.910010 -0.003380 0.009120 
#    y -0.003380 1.923260 0.010980 
#    z 0.009120 0.010980 1.899860 
# 
# From -- ./inp_files/218950.got.cif
#   From: 2010.06.25/outbox.cif.g09.slc.cpg/sg2_110_cif.got.tgz:218950.got - 2010.06.27 13:26:56.
