data_PCOD8012306
_publ_section_title
;
Structure prediction by ZEFSAII (Michael W. Deem and Ramdas Pophale) SiO2 
 PCOD8012306
Probable space group: P -1
;
_chemical_formula_sum "Si O2"
_cell_formula_units_Z 16
_cell_length_a 8.984463
_cell_length_b 11.943598
_cell_length_c 15.575620
_cell_angle_alpha 114.181528
_cell_angle_beta 47.577498
_cell_angle_gamma 141.602033
_cell_volume 740.044349
_symmetry_space_group_name_H-M "P -1"
_symmetry_group_IT_number 2
_symmetry_cell_setting 'triclinic'
loop_
_space_group_symop_operation_xyz
x,y,z
-x,-y,-z
loop_
_atom_site_type_symbol
_atom_site_label
_atom_site_fract_x
_atom_site_fract_y
_atom_site_fract_z
Si Si1 0.038312 0.260368 0.239147
Si Si2 0.243583 0.322733 0.484609
Si Si3 0.215406 0.096627 0.725098
Si Si4 0.779591 0.511488 0.223076
Si Si5 0.132524 0.694333 0.502551
Si Si6 0.802497 0.247933 0.156317
Si Si7 0.292984 0.377779 0.884304
Si Si8 0.095928 0.892025 0.294632
O O1 0.387039 0.451606 0.139150
O O2 0.949920 0.266216 0.369472
O O3 0.821344 0.225306 0.242481
O O4 0.005225 0.097489 0.198890
O O5 0.500000 0.500000 0.500000
O O6 0.433350 0.338437 0.342139
O O7 0.021457 0.319289 0.526184
O O8 0.029471 0.138167 0.569682
O O9 0.503770 0.146603 0.599857
O O10 0.312087 0.251274 0.797469
O O11 0.050564 0.073093 0.698008
O O12 0.921383 0.440906 0.153018
O O13 0.757384 0.541882 0.142952
O O14 0.992918 0.706505 0.251340
O O15 0.000000 0.500000 0.500000
O O16 0.459330 0.067804 0.200969
O O17 0.019627 0.256358 0.020923
#
# Coordination Sequence:
#
# PCOD8012306 Si02
#       8
#     2   2   2   2   2   2   2   2
#     4  12  26  43  66 101 133 178 224 268 340 394
#     4  10  21  39  68  99 132 170 220 270 339 393
#     4  11  25  44  70  98 137 176 219 278 333 400
#     4  10  22  43  68  96 131 176 221 280 328 387
#     4  12  22  42  69  97 138 173 215 276 342 399
#     4  12  27  41  69 100 134 179 228 271 324 400
#     4  11  24  48  67  95 134 182 226 271 332 385
#     4  10  24  42  66 101 134 174 221 277 334 385
#
# _framework density 21.620325999999999
#
# number of rings (size 3 to 8) (size 9 to 14) (size 15 to 20)
#    0.000    1.000    2.500    4.125    5.250    5.000 
#    0.000    0.000    0.000    0.000    0.000    0.000 
#    0.000    0.000    0.000    0.000    0.000    0.000 
#
# Total GULP energy -198447.824820 kJ/mol
# GULP energy per Si atom -12402.989051 kJ/mol
# Density = 2.157112 g / cm^3
# Si number density = 21.620326 Si / 1000 Ang^3
#
#
#
# Elastic Constant Matrix: (Units=GPa)
#
#
# Indices 1 2 3 4 5 6 
#
# 1 143.5962 51.7700 31.0665 -2.7197 -4.2984 11.3609
# 2 51.7700 92.8195 24.6017 -15.9924 -6.1939 -3.6199
# 3 31.0665 24.6017 93.4419 -18.3942 -12.2170 13.0171
# 4 -2.7197 -15.9924 -18.3942 21.9064 7.1774 -9.3607
# 5 -4.2984 -6.1939 -12.2170 7.1774 29.8040 -4.3902
# 6 11.3609 -3.6199 13.0171 -9.3607 -4.3902 38.7749
#
#
#
# Elastic Compliance Matrix: (Units=1/GPa)
#
#
# Indices 1 2 3 4 5 6 
#
# 1 0.010019 -0.006381 -0.002467 -0.007483 0.000249 -0.004481
# 2 -0.006381 0.017240 -0.000585 0.014347 0.000019 0.007141
# 3 -0.002467 -0.000585 0.014132 0.009602 0.002791 -0.001442
# 4 -0.007483 0.014347 0.009602 0.073600 -0.009380 0.017014
# 5 0.000249 0.000019 0.002791 -0.009380 0.037133 0.000932
# 6 -0.004481 0.007141 -0.001442 0.017014 0.000932 0.032467
#
#
# Mechanical properties :
#
#
# Convention : Reuss Voigt Hill
#
# Bulk Modulus (GPa) = 44.39894 60.52598 52.46246
# Shear Modulus (GPa) = 23.70069 32.92500 28.31285
#
# Velocity S-wave (km/s) = 3.31452 3.90663 3.62269
# Velocity P-wave (km/s) = 5.93535 6.95735 6.46657
#
# Compressibility (1/GPa) = 0.02252306
#
# Stress axis : x y z
#
# Youngs Moduli (GPa) = 99.81426 58.00554 70.76105
#
# Poissons Ratio (x) = 0.37016 0.17456
# Poissons Ratio (y) = 0.63695 0.04142
# Poissons Ratio (z) = 0.24623 0.03396
#
# Static dielectric constant tensor:
#      x y z
#    x 3.937040 -0.066840 0.037940 
#    y -0.066840 3.938110 -0.079030 
#    z 0.037940 -0.079030 4.026670 
# 
# 
# High freq. dielectric constant tensor:
#      x y z
#    x 1.859100 0.001010 0.003370 
#    y 0.001010 1.855250 -0.007990 
#    z 0.003370 -0.007990 1.845080 
# 
# From -- ./inp_files/315989.got.cif
#   From: 2010.06.25/outbox.cif.g09.slc.cpg/sg2_158_cif.got.tgz:315989.got - 2010.06.27 13:26:56.
