data_PCOD8012374
_publ_section_title
;
Structure prediction by ZEFSAII (Michael W. Deem and Ramdas Pophale) SiO2 
 PCOD8012374
Probable space group: P -1
;
_chemical_formula_sum "Si O2"
_cell_formula_units_Z 12
_cell_length_a 13.068428
_cell_length_b 9.232791
_cell_length_c 9.442010
_cell_angle_alpha 43.820949
_cell_angle_beta 126.962711
_cell_angle_gamma 134.742443
_cell_volume 550.088036
_symmetry_space_group_name_H-M "P -1"
_symmetry_group_IT_number 2
_symmetry_cell_setting 'triclinic'
loop_
_space_group_symop_operation_xyz
x,y,z
-x,-y,-z
loop_
_atom_site_type_symbol
_atom_site_label
_atom_site_fract_x
_atom_site_fract_y
_atom_site_fract_z
Si Si1 0.125069 0.374138 0.302498
Si Si2 0.801096 0.137703 0.110759
Si Si3 0.023206 0.299441 0.585734
Si Si4 0.264883 0.085629 0.508800
Si Si5 0.534110 0.783242 0.666636
Si Si6 0.287166 0.261405 0.904313
O O1 0.104879 0.400073 0.433188
O O2 0.236416 0.274759 0.438734
O O3 0.969412 0.192757 0.228540
O O4 0.202482 0.633958 0.114046
O O5 0.724647 0.084107 0.240457
O O6 0.712988 0.912662 0.094925
O O7 0.125478 0.230739 0.815630
O O8 0.000000 0.500000 0.500000
O O9 0.865796 0.067051 0.601349
O O10 0.414125 0.217048 0.451264
O O11 0.389948 0.535348 0.751336
O O12 0.500000 0.000000 0.500000
O O13 0.662196 0.810796 0.859483
#
# Coordination Sequence:
#
# PCOD8012374 Si02
#       6
#     2   2   2   2   2   2
#     4  10  21  40  66 102 135 163 212 279 331 388
#     4  10  21  39  70  97 132 167 219 267 333 393
#     4  11  22  40  72 102 132 169 219 273 333 392
#     4  11  22  44  67  97 133 167 218 278 325 389
#     4  11  28  45  64  93 140 178 223 272 326 387
#     4  11  24  45  66  97 134 177 222 268 328 396
#
# _framework density 21.814689999999999
#
# number of rings (size 3 to 8) (size 9 to 14) (size 15 to 20)
#    0.000    1.333    3.333    2.000    4.667    8.000 
#    0.000    1.667    0.000    0.000    0.000    0.000 
#    0.000    0.000    0.000    0.000    0.000    0.000 
#
# Total GULP energy -148837.809938 kJ/mol
# GULP energy per Si atom -12403.150828 kJ/mol
# Density = 2.176504 g / cm^3
# Si number density = 21.814690 Si / 1000 Ang^3
#
#
#
# Elastic Constant Matrix: (Units=GPa)
#
#
# Indices 1 2 3 4 5 6 
#
# 1 107.5368 13.1172 31.4919 -11.6126 -14.5689 -27.0251
# 2 13.1172 82.1022 26.7096 -0.8524 -5.4096 -20.6058
# 3 31.4919 26.7096 106.7541 -16.3598 -8.8462 -4.0371
# 4 -11.6126 -0.8524 -16.3598 30.0307 5.4679 0.8300
# 5 -14.5689 -5.4096 -8.8462 5.4679 25.8100 -0.3080
# 6 -27.0251 -20.6058 -4.0371 0.8300 -0.3080 25.8039
#
#
#
# Elastic Compliance Matrix: (Units=1/GPa)
#
#
# Indices 1 2 3 4 5 6 
#
# 1 0.016397 0.004335 -0.004135 0.002103 0.008541 0.020022
# 2 0.004335 0.018007 -0.004967 -0.001961 0.005152 0.018267
# 3 -0.004135 -0.004967 0.012357 0.005232 -0.000326 -0.006535
# 4 0.002103 -0.001961 0.005232 0.037896 -0.005457 0.000171
# 5 0.008541 0.005152 -0.000326 -0.005457 0.045854 0.013731
# 6 0.020022 0.018267 -0.006535 0.000171 0.013731 0.073447
#
#
# Mechanical properties :
#
#
# Convention : Reuss Voigt Hill
#
# Bulk Modulus (GPa) = 26.86111 48.78117 37.82114
# Shear Modulus (GPa) = 22.13366 31.33388 26.73377
#
# Velocity S-wave (km/s) = 3.18877 3.79405 3.50450
# Velocity P-wave (km/s) = 5.08898 6.45006 5.80952
#
# Compressibility (1/GPa) = 0.03722854
#
# Stress axis : x y z
#
# Youngs Moduli (GPa) = 60.98641 55.53414 80.92349
#
# Poissons Ratio (x) = -0.24074 0.33458
# Poissons Ratio (y) = -0.26438 0.40194
# Poissons Ratio (z) = 0.25215 0.27583
#
# Static dielectric constant tensor:
#      x y z
#    x 3.733520 0.039770 -0.063770 
#    y 0.039770 3.958080 -0.020610 
#    z -0.063770 -0.020610 4.239370 
# 
# 
# High freq. dielectric constant tensor:
#      x y z
#    x 1.841580 -0.007300 -0.004170 
#    y -0.007300 1.861860 -0.004120 
#    z -0.004170 -0.004120 1.870900 
# 
# From -- ./inp_files/174246.got.cif
#   From: 2010.06.25/outbox.cif.g09.slc.cpg/sg2_88_cif.got.tgz:174246.got - 2010.06.27 13:26:56.
