data_PCOD8012627
_publ_section_title
;
Structure prediction by ZEFSAII (Michael W. Deem and Ramdas Pophale) SiO2 
 PCOD8012627
Probable space group: P -1
;
_chemical_formula_sum "Si O2"
_cell_formula_units_Z 16
_cell_length_a 6.236620
_cell_length_b 14.667463
_cell_length_c 9.049758
_cell_angle_alpha 86.468976
_cell_angle_beta 100.904474
_cell_angle_gamma 113.263220
_cell_volume 746.716482
_symmetry_space_group_name_H-M "P -1"
_symmetry_group_IT_number 2
_symmetry_cell_setting 'triclinic'
loop_
_space_group_symop_operation_xyz
x,y,z
-x,-y,-z
loop_
_atom_site_type_symbol
_atom_site_label
_atom_site_fract_x
_atom_site_fract_y
_atom_site_fract_z
Si Si1 0.856808 0.193663 0.480470
Si Si2 0.929442 0.485664 0.823319
Si Si3 0.757843 0.485994 0.387078
Si Si4 0.847069 0.881689 0.276288
Si Si5 0.669142 0.049717 0.221837
Si Si6 0.817760 0.111220 0.919843
Si Si7 0.736861 0.622588 0.601628
Si Si8 0.334569 0.737048 0.276221
O O1 0.667368 0.123318 0.346097
O O2 0.739430 0.251630 0.564431
O O3 0.939916 0.121565 0.596207
O O4 0.072190 0.266721 0.401185
O O5 0.824383 0.564243 0.742567
O O6 0.744623 0.376479 0.768772
O O7 0.181993 0.502975 0.778561
O O8 0.000000 0.500000 0.000000
O O9 0.692563 0.573780 0.436449
O O10 0.525744 0.382368 0.387372
O O11 0.000000 0.500000 0.500000
O O12 0.616822 0.782533 0.287309
O O13 0.935455 0.887590 0.116013
O O14 0.791157 0.976475 0.300777
O O15 0.396807 0.988721 0.151238
O O16 0.823006 0.112176 0.097625
O O17 0.784334 0.209848 0.854516
#
# Coordination Sequence:
#
# PCOD8012627 Si02
#       8
#     2   2   2   2   2   2   2   2
#     4  11  23  37  62  90 120 153 201 245 298 358
#     4  11  24  40  60  87 126 162 201 249 302 355
#     4   9  20  40  63  83 120 157 201 244 300 350
#     4  10  22  38  61  89 118 155 195 246 303 354
#     4  10  21  40  62  88 120 154 195 248 298 357
#     4   9  21  41  63  84 120 159 194 241 301 359
#     4  10  22  38  63  88 117 163 201 246 298 358
#     4  10  23  40  59  87 122 157 199 248 294 354
#
# _framework density 21.427143000000001
#
# number of rings (size 3 to 8) (size 9 to 14) (size 15 to 20)
#    0.000    2.000    1.250    0.750    7.000    6.000 
#    2.250    0.000    0.000    0.000    0.000    0.000 
#    0.000    0.000    0.000    0.000    0.000    0.000 
#
# Total GULP energy -198312.366466 kJ/mol
# GULP energy per Si atom -12394.522904 kJ/mol
# Density = 2.137837 g / cm^3
# Si number density = 21.427143 Si / 1000 Ang^3
#
#
#
# Elastic Constant Matrix: (Units=GPa)
#
#
# Indices 1 2 3 4 5 6 
#
# 1 101.9786 17.5544 41.8802 -2.1949 -18.1840 24.9208
# 2 17.5544 75.4566 37.8097 -5.3837 -8.5106 7.3394
# 3 41.8802 37.8097 134.1327 6.7075 -20.6273 3.0754
# 4 -2.1949 -5.3837 6.7075 27.9720 1.3305 -6.1710
# 5 -18.1840 -8.5106 -20.6273 1.3305 27.6466 -11.5156
# 6 24.9208 7.3394 3.0754 -6.1710 -11.5156 30.3949
#
#
#
# Elastic Compliance Matrix: (Units=1/GPa)
#
#
# Indices 1 2 3 4 5 6 
#
# 1 0.014389 -0.000173 -0.003852 -0.000431 0.002122 -0.010650
# 2 -0.000173 0.016111 -0.004577 0.003631 0.000231 -0.002461
# 3 -0.003852 -0.004577 0.010981 -0.003023 0.006475 0.004992
# 4 -0.000431 0.003631 -0.003023 0.038827 -0.000115 0.007622
# 5 0.002122 0.000231 0.006475 -0.000115 0.049209 0.016170
# 6 -0.010650 -0.002461 0.004992 0.007622 0.016170 0.049395
#
#
# Mechanical properties :
#
#
# Convention : Reuss Voigt Hill
#
# Bulk Modulus (GPa) = 41.19146 56.22849 48.70998
# Shear Modulus (GPa) = 24.48489 31.49094 27.98792
#
# Velocity S-wave (km/s) = 3.38406 3.83779 3.61805
# Velocity P-wave (km/s) = 5.87663 6.77768 6.34317
#
# Compressibility (1/GPa) = 0.02427688
#
# Stress axis : x y z
#
# Youngs Moduli (GPa) = 69.49629 62.07025 91.06959
#
# Poissons Ratio (x) = 0.01074 0.35080
# Poissons Ratio (y) = 0.01202 0.41682
# Poissons Ratio (z) = 0.26770 0.28409
#
# Static dielectric constant tensor:
#      x y z
#    x 4.385400 0.191230 -0.420780 
#    y 0.191230 3.747670 -0.240290 
#    z -0.420780 -0.240290 3.962860 
# 
# 
# High freq. dielectric constant tensor:
#      x y z
#    x 1.845640 0.011420 -0.012970 
#    y 0.011420 1.834590 -0.019230 
#    z -0.012970 -0.019230 1.828380 
# 
# From -- ./inp_files/39832.got.cif
#   From: 2010.06.25/outbox.cif.g09.slc.cpg/sg2_20_cif.got.tgz:39832.got - 2010.06.27 13:26:56.
