data_PCOD8012757
_publ_section_title
;
Structure prediction by ZEFSAII (Michael W. Deem and Ramdas Pophale) SiO2 
 PCOD8012757
Probable space group: P -1
;
_chemical_formula_sum "Si O2"
_cell_formula_units_Z 16
_cell_length_a 10.212593
_cell_length_b 6.719469
_cell_length_c 19.063153
_cell_angle_alpha 121.805599
_cell_angle_beta 51.021597
_cell_angle_gamma 132.669342
_cell_volume 736.045702
_symmetry_space_group_name_H-M "P -1"
_symmetry_group_IT_number 2
_symmetry_cell_setting 'triclinic'
loop_
_space_group_symop_operation_xyz
x,y,z
-x,-y,-z
loop_
_atom_site_type_symbol
_atom_site_label
_atom_site_fract_x
_atom_site_fract_y
_atom_site_fract_z
Si Si1 0.607737 0.848019 0.105780
Si Si2 0.288350 0.284356 0.729438
Si Si3 0.774616 0.534374 0.914554
Si Si4 0.238237 0.400577 0.618091
Si Si5 0.378607 0.663021 0.294418
Si Si6 0.996365 0.663903 0.725263
Si Si7 0.921565 0.473027 0.097066
Si Si8 0.423715 0.079656 0.470282
O O1 0.431845 0.734813 0.087449
O O2 0.520968 0.782702 0.201221
O O3 0.739521 0.171826 0.118160
O O4 0.741416 0.721514 0.015791
O O5 0.293122 0.454199 0.691470
O O6 0.514605 0.442755 0.709281
O O7 0.149725 0.312056 0.836866
O O8 0.196391 0.953242 0.691648
O O9 0.895040 0.702062 0.835707
O O10 0.900556 0.427549 0.890034
O O11 0.232267 0.112567 0.553753
O O12 0.396729 0.622534 0.553860
O O13 0.041883 0.417974 0.675506
O O14 0.158909 0.423092 0.302615
O O15 0.362754 0.885229 0.387297
O O16 0.000000 0.500000 0.000000
O O17 0.500000 0.000000 0.500000
#
# Coordination Sequence:
#
# PCOD8012757 Si02
#       8
#     2   2   2   2   2   2   2   2
#     4  10  22  40  62  93 130 171 218 260 320 381
#     4  12  23  42  64  95 135 163 213 276 315 379
#     4  10  21  40  63  89 134 174 206 270 317 370
#     4  11  22  42  70  92 127 172 205 264 333 374
#     4  11  23  42  68  92 127 174 213 265 323 386
#     4  11  23  43  65  96 131 171 217 259 323 384
#     4  12  23  35  62  96 126 174 221 258 318 383
#     4  11  22  43  71  95 129 169 211 269 331 377
#
# _framework density 21.737777999999999
#
# number of rings (size 3 to 8) (size 9 to 14) (size 15 to 20)
#    0.000    1.000    3.750    3.375    0.000    2.000 
#    2.250    2.500    0.000    0.000    0.000    0.000 
#    0.000    0.000    0.000    0.000    0.000    0.000 
#
# Total GULP energy -198241.836122 kJ/mol
# GULP energy per Si atom -12390.114758 kJ/mol
# Density = 2.168830 g / cm^3
# Si number density = 21.737778 Si / 1000 Ang^3
#
#
#
# Elastic Constant Matrix: (Units=GPa)
#
#
# Indices 1 2 3 4 5 6 
#
# 1 164.8904 49.2527 36.1029 10.4463 -5.3889 -2.2119
# 2 49.2527 39.7929 26.2030 5.0608 -4.5345 -12.8876
# 3 36.1029 26.2030 131.1337 20.0811 1.4561 -7.7736
# 4 10.4463 5.0608 20.0811 37.6308 -8.5146 -3.4969
# 5 -5.3889 -4.5345 1.4561 -8.5146 36.0182 7.1431
# 6 -2.2119 -12.8876 -7.7736 -3.4969 7.1431 22.0527
#
#
#
# Elastic Compliance Matrix: (Units=1/GPa)
#
#
# Indices 1 2 3 4 5 6 
#
# 1 0.010844 -0.015891 -0.000132 -0.001384 0.001046 -0.008804
# 2 -0.015891 0.058289 -0.005813 0.002468 -0.000354 0.030927
# 3 -0.000132 -0.005813 0.009582 -0.004813 -0.002264 -0.000062
# 4 -0.001384 0.002468 -0.004813 0.031027 0.007197 0.002195
# 5 0.001046 -0.000354 -0.002264 0.007197 0.031654 -0.010012
# 6 -0.008804 0.030927 -0.000062 0.002195 -0.010012 0.066106
#
#
# Mechanical properties :
#
#
# Convention : Reuss Voigt Hill
#
# Bulk Modulus (GPa) = 28.53592 62.10380 45.31986
# Shear Modulus (GPa) = 19.02192 34.09092 26.55642
#
# Velocity S-wave (km/s) = 2.96135 3.96445 3.49903
# Velocity P-wave (km/s) = 4.98484 7.04183 6.10066
#
# Compressibility (1/GPa) = 0.03504355
#
# Stress axis : x y z
#
# Youngs Moduli (GPa) = 92.21742 17.15597 104.36174
#
# Poissons Ratio (x) = 0.27263 0.01374
# Poissons Ratio (y) = 1.46545 0.60663
# Poissons Ratio (z) = 0.01214 0.09972
#
# Static dielectric constant tensor:
#      x y z
#    x 4.733310 -0.798670 0.179510 
#    y -0.798670 4.282660 -0.246010 
#    z 0.179510 -0.246010 4.666310 
# 
# 
# High freq. dielectric constant tensor:
#      x y z
#    x 1.860800 -0.012210 -0.007090 
#    y -0.012210 1.820740 0.002820 
#    z -0.007090 0.002820 1.886980 
# 
# From -- ./inp_files/52678.got.cif
#   From: 2010.06.25/outbox.cif.g09.slc.cpg/sg2_27_cif.got.tgz:52678.got - 2010.06.27 13:26:56.
