data_PCOD8012424
_publ_section_title
;
Structure prediction by ZEFSAII (Michael W. Deem and Ramdas Pophale) SiO2 
 PCOD8012424
Probable space group: P -1
;
_chemical_formula_sum "Si O2"
_cell_formula_units_Z 16
_cell_length_a 5.104179
_cell_length_b 8.159991
_cell_length_c 20.086819
_cell_angle_alpha 71.855242
_cell_angle_beta 60.040928
_cell_angle_gamma 83.599486
_cell_volume 687.800374
_symmetry_space_group_name_H-M "P -1"
_symmetry_group_IT_number 2
_symmetry_cell_setting 'triclinic'
loop_
_space_group_symop_operation_xyz
x,y,z
-x,-y,-z
loop_
_atom_site_type_symbol
_atom_site_label
_atom_site_fract_x
_atom_site_fract_y
_atom_site_fract_z
Si Si1 0.193783 0.259190 0.913804
Si Si2 0.599607 0.088036 0.054824
Si Si3 0.849391 0.871190 0.287094
Si Si4 0.218854 0.374730 0.034077
Si Si5 0.718591 0.193751 0.178179
Si Si6 0.237779 0.280104 0.332370
Si Si7 0.628529 0.078912 0.406333
Si Si8 0.431986 0.667505 0.267204
O O1 0.307503 0.348320 0.819967
O O2 0.438899 0.119170 0.920962
O O3 0.143409 0.402536 0.961300
O O4 0.869393 0.158563 0.961847
O O5 0.303931 0.173873 0.054094
O O6 0.654008 0.135112 0.118851
O O7 0.598298 0.734808 0.304958
O O8 0.180134 0.796706 0.259616
O O9 0.876817 0.042609 0.216979
O O10 0.749168 0.921570 0.367701
O O11 0.941557 0.369460 0.122936
O O12 0.500000 0.500000 0.000000
O O13 0.413951 0.245211 0.246112
O O14 0.358981 0.166508 0.391121
O O15 0.269579 0.480288 0.323900
O O16 0.888859 0.226690 0.369756
O O17 0.500000 0.000000 0.500000
#
# Coordination Sequence:
#
# PCOD8012424 Si02
#       8
#     2   2   2   2   2   2   2   2
#     4  10  23  36  58  84 124 180 224 286 331 392
#     4  10  21  40  56  84 121 176 239 271 336 378
#     4  11  24  44  71 103 130 188 223 278 343 421
#     4  11  25  35  57  87 129 178 235 294 346 384
#     4  10  23  40  64  89 129 179 240 282 328 417
#     4  11  26  43  73 109 140 180 223 285 350 402
#     4  11  25  51  78 105 140 179 221 267 340 438
#     4  12  25  42  69 104 146 174 233 290 343 398
#
# _framework density 23.262563
#
# number of rings (size 3 to 8) (size 9 to 14) (size 15 to 20)
#    0.000    1.250    1.250    3.750    8.750    1.000 
#    0.000    3.750    0.000    0.000    0.000    0.000 
#    0.000    0.000    0.000    0.000    0.000    0.000 
#
# Total GULP energy -198345.850050 kJ/mol
# GULP energy per Si atom -12396.615628 kJ/mol
# Density = 2.320962 g / cm^3
# Si number density = 23.262563 Si / 1000 Ang^3
#
#
#
# Elastic Constant Matrix: (Units=GPa)
#
#
# Indices 1 2 3 4 5 6 
#
# 1 76.8156 6.6545 34.6179 4.1867 4.6814 18.6796
# 2 6.6545 84.3416 43.5506 2.6220 2.2101 15.8902
# 3 34.6179 43.5506 152.0167 5.0340 7.1446 21.0648
# 4 4.1867 2.6220 5.0340 22.0236 7.4066 -0.5523
# 5 4.6814 2.2101 7.1446 7.4066 27.0226 -1.7307
# 6 18.6796 15.8902 21.0648 -0.5523 -1.7307 54.0788
#
#
#
# Elastic Compliance Matrix: (Units=1/GPa)
#
#
# Indices 1 2 3 4 5 6 
#
# 1 0.015675 0.001387 -0.003174 -0.001946 -0.001755 -0.004662
# 2 0.001387 0.014435 -0.003959 -0.001060 -0.000288 -0.003198
# 3 -0.003174 -0.003959 0.008677 -0.000479 -0.001364 -0.001169
# 4 -0.001946 -0.001060 -0.000479 0.050484 -0.013206 0.001263
# 5 -0.001755 -0.000288 -0.001364 -0.013206 0.041468 0.002414
# 6 -0.004662 -0.003198 -0.001169 0.001263 0.002414 0.021587
#
#
# Mechanical properties :
#
#
# Convention : Reuss Voigt Hill
#
# Bulk Modulus (GPa) = 36.63791 53.64666 45.14229
# Shear Modulus (GPa) = 28.91551 35.84840 32.38196
#
# Velocity S-wave (km/s) = 3.52945 3.92986 3.73503
# Velocity P-wave (km/s) = 5.69151 6.61084 6.16833
#
# Compressibility (1/GPa) = 0.02729413
#
# Stress axis : x y z
#
# Youngs Moduli (GPa) = 63.79553 69.27778 115.24388
#
# Poissons Ratio (x) = -0.09608 0.36579
# Poissons Ratio (y) = -0.08848 0.45629
# Poissons Ratio (z) = 0.20249 0.27429
#
# Static dielectric constant tensor:
#      x y z
#    x 4.285370 -0.204230 0.003580 
#    y -0.204230 4.634740 0.067560 
#    z 0.003580 0.067560 4.097300 
# 
# 
# High freq. dielectric constant tensor:
#      x y z
#    x 1.927900 -0.006460 0.000260 
#    y -0.006460 1.938110 0.001210 
#    z 0.000260 0.001210 1.902830 
# 
# From -- ./inp_files/581888.got.cif
#   From: 2010.06.25/outbox.cif.g09.slc.cpg/sg2_291_cif.got.tgz:581888.got - 2010.06.27 13:26:56.
