data_PCOD8012625
_publ_section_title
;
Structure prediction by ZEFSAII (Michael W. Deem and Ramdas Pophale) SiO2 
 PCOD8012625
Probable space group: P -1
;
_chemical_formula_sum "Si O2"
_cell_formula_units_Z 16
_cell_length_a 8.982489
_cell_length_b 12.354049
_cell_length_c 11.782279
_cell_angle_alpha 131.297738
_cell_angle_beta 55.753049
_cell_angle_gamma 127.759747
_cell_volume 748.383082
_symmetry_space_group_name_H-M "P -1"
_symmetry_group_IT_number 2
_symmetry_cell_setting 'triclinic'
loop_
_space_group_symop_operation_xyz
x,y,z
-x,-y,-z
loop_
_atom_site_type_symbol
_atom_site_label
_atom_site_fract_x
_atom_site_fract_y
_atom_site_fract_z
Si Si1 0.557953 0.154307 0.756940
Si Si2 0.772286 0.922296 0.526709
Si Si3 0.178600 0.874667 0.987977
Si Si4 0.836565 0.968700 0.288325
Si Si5 0.459445 0.323490 0.373532
Si Si6 0.530639 0.192107 0.034440
Si Si7 0.137075 0.699914 0.457567
Si Si8 0.850785 0.360615 0.329592
O O1 0.333584 0.060491 0.751032
O O2 0.675537 0.263813 0.678681
O O3 0.656508 0.035524 0.673683
O O4 0.565399 0.261614 0.938968
O O5 0.739302 0.864861 0.369739
O O6 0.716056 0.784375 0.547278
O O7 0.000000 0.000000 0.500000
O O8 0.016286 0.932791 0.142799
O O9 0.372630 0.016514 0.960795
O O10 0.258741 0.797221 0.001638
O O11 0.062861 0.753290 0.851266
O O12 0.925615 0.152672 0.412808
O O13 0.500000 0.500000 0.500000
O O14 0.433379 0.282386 0.221619
O O15 0.642370 0.289633 0.311699
O O16 0.184263 0.663784 0.539041
O O17 0.963787 0.543641 0.377722
#
# Coordination Sequence:
#
# PCOD8012625 Si02
#       8
#     2   2   2   2   2   2   2   2
#     4  11  22  39  64  93 122 162 213 261 310 370
#     4  11  22  39  66  93 127 165 210 258 306 368
#     4  10  21  40  63  91 122 165 209 250 315 369
#     4  11  22  38  67  95 121 164 217 258 303 376
#     4  11  24  40  63  93 124 164 210 257 313 374
#     4  10  21  40  62  87 126 162 202 265 307 372
#     4  10  22  39  63  88 127 164 201 256 319 369
#     4  10  22  42  60  89 129 164 198 262 316 369
#
# _framework density 21.379425999999999
#
# number of rings (size 3 to 8) (size 9 to 14) (size 15 to 20)
#    0.000    1.500    0.000    7.500    5.250    2.000 
#    4.500    1.875    0.000    0.000    0.000    0.000 
#    0.000    0.000    0.000    0.000    0.000    0.000 
#
# Total GULP energy -198261.251329 kJ/mol
# GULP energy per Si atom -12391.328208 kJ/mol
# Density = 2.133077 g / cm^3
# Si number density = 21.379426 Si / 1000 Ang^3
#
#
#
# Elastic Constant Matrix: (Units=GPa)
#
#
# Indices 1 2 3 4 5 6 
#
# 1 87.5828 31.5370 52.5077 -9.4420 5.1603 8.7199
# 2 31.5370 125.0010 78.9396 -4.6062 4.7263 2.9175
# 3 52.5077 78.9396 163.3021 -5.6187 17.7705 -1.5917
# 4 -9.4420 -4.6062 -5.6187 31.7939 1.2104 4.0008
# 5 5.1603 4.7263 17.7705 1.2104 36.2219 -3.4541
# 6 8.7199 2.9175 -1.5917 4.0008 -3.4541 26.4800
#
#
#
# Elastic Compliance Matrix: (Units=1/GPa)
#
#
# Indices 1 2 3 4 5 6 
#
# 1 0.015480 -0.000772 -0.004438 0.004486 -0.000654 -0.006042
# 2 -0.000772 0.011690 -0.005519 0.000610 0.001147 -0.001308
# 3 -0.004438 -0.005519 0.010622 -0.000391 -0.003627 0.002294
# 4 0.004486 0.000610 -0.000391 0.033770 -0.002320 -0.006973
# 5 -0.000654 0.001147 -0.003627 -0.002320 0.029800 0.004109
# 6 -0.006042 -0.001308 0.002294 -0.006973 0.004109 0.041626
#
#
# Mechanical properties :
#
#
# Convention : Reuss Voigt Hill
#
# Bulk Modulus (GPa) = 61.22150 77.98384 69.60267
# Shear Modulus (GPa) = 29.43092 33.09258 31.26175
#
# Velocity S-wave (km/s) = 3.71428 3.93857 3.82807
# Velocity P-wave (km/s) = 6.86239 7.56560 7.22256
#
# Compressibility (1/GPa) = 0.01633413
#
# Stress axis : x y z
#
# Youngs Moduli (GPa) = 64.59967 85.54503 94.14425
#
# Poissons Ratio (x) = 0.06605 0.41777
# Poissons Ratio (y) = 0.04988 0.51960
# Poissons Ratio (z) = 0.28667 0.47214
#
# Static dielectric constant tensor:
#      x y z
#    x 3.989880 0.027870 0.098350 
#    y 0.027870 4.016690 -0.549850 
#    z 0.098350 -0.549850 5.116210 
# 
# 
# High freq. dielectric constant tensor:
#      x y z
#    x 1.838130 0.006210 0.014270 
#    y 0.006210 1.819350 -0.019280 
#    z 0.014270 -0.019280 1.850430 
# 
# From -- ./inp_files/393024.got.cif
#   From: 2010.06.25/outbox.cif.g09.slc.cpg/sg2_197_cif.got.tgz:393024.got - 2010.06.27 13:26:56.
