data_PCOD8012062
_publ_section_title
;
Structure prediction by ZEFSAII (Michael W. Deem and Ramdas Pophale) SiO2 
 PCOD8012062
Probable space group: P -1
;
_chemical_formula_sum "Si O2"
_cell_formula_units_Z 14
_cell_length_a 11.151725
_cell_length_b 15.628655
_cell_length_c 7.542375
_cell_angle_alpha 49.297999
_cell_angle_beta 84.463514
_cell_angle_gamma 47.419272
_cell_volume 577.110950
_symmetry_space_group_name_H-M "P -1"
_symmetry_group_IT_number 2
_symmetry_cell_setting 'triclinic'
loop_
_space_group_symop_operation_xyz
x,y,z
-x,-y,-z
loop_
_atom_site_type_symbol
_atom_site_label
_atom_site_fract_x
_atom_site_fract_y
_atom_site_fract_z
Si Si1 0.731727 0.466483 0.023428
Si Si2 0.367792 0.743769 0.098379
Si Si3 0.186715 0.220660 0.634495
Si Si4 0.167805 0.083906 0.478660
Si Si5 0.728768 0.628091 0.113941
Si Si6 0.396736 0.028393 0.223376
Si Si7 0.413666 0.618916 0.611305
O O1 0.729153 0.587439 0.963445
O O2 0.735911 0.353722 0.305041
O O3 0.952619 0.280030 0.145913
O O4 0.529232 0.619394 0.723277
O O5 0.581790 0.652712 0.206832
O O6 0.288296 0.786611 0.254533
O O7 0.402958 0.592763 0.219407
O O8 0.204450 0.925520 0.741059
O O9 0.170155 0.139338 0.596448
O O10 0.966506 0.449532 0.388226
O O11 0.366668 0.169836 0.610836
O O12 0.250000 0.119064 0.952072
O O13 0.349167 0.979185 0.457635
O O14 0.633952 0.823802 0.887757
#
# Coordination Sequence:
#
# PCOD8012062 Si02
#       7
#     2   2   2   2   2   2   2
#     4   9  21  40  65  96 121 165 220 255 327 377
#     4  10  21  39  66  89 128 166 206 265 328 364
#     4  10  23  41  60  94 132 171 215 250 316 371
#     4  11  23  42  62  98 131 166 210 267 312 384
#     4  10  21  41  65  91 129 172 206 258 319 378
#     4  11  23  43  62  94 138 165 212 266 303 388
#     4   9  20  43  62  93 122 163 215 269 311 389
#
# _framework density 24.258766999999999
#
# number of rings (size 3 to 8) (size 9 to 14) (size 15 to 20)
#    0.000    2.000    1.429    0.857    2.000    3.429 
#   12.857    0.000    0.000    0.000    0.000    0.000 
#    0.000    0.000    0.000    0.000    0.000    0.000 
#
# Total GULP energy -173465.351767 kJ/mol
# GULP energy per Si atom -12390.382269 kJ/mol
# Density = 2.420355 g / cm^3
# Si number density = 24.258767 Si / 1000 Ang^3
#
#
#
# Elastic Constant Matrix: (Units=GPa)
#
#
# Indices 1 2 3 4 5 6 
#
# 1 38.0894 4.9048 2.3221 4.4451 10.8772 8.5679
# 2 4.9048 64.9003 16.6922 10.7805 0.9382 -5.6242
# 3 2.3221 16.6922 59.9836 9.4158 -2.5340 1.1321
# 4 4.4451 10.7805 9.4158 38.7017 -14.5110 8.1389
# 5 10.8772 0.9382 -2.5340 -14.5110 31.4932 -2.0766
# 6 8.5679 -5.6242 1.1321 8.1389 -2.0766 27.6773
#
#
#
# Elastic Compliance Matrix: (Units=1/GPa)
#
#
# Indices 1 2 3 4 5 6 
#
# 1 0.034072 -0.002013 -0.000119 -0.007075 -0.015640 -0.010045
# 2 -0.002013 0.018229 -0.004268 -0.006056 -0.002580 0.006089
# 3 -0.000119 -0.004268 0.018363 -0.003051 0.000196 -0.000670
# 4 -0.007075 -0.006056 -0.003051 0.038181 0.019398 -0.008688
# 5 -0.015640 -0.002580 0.000196 0.019398 0.046322 0.002081
# 6 -0.010045 0.006089 -0.000670 -0.008688 0.002081 0.043216
#
#
# Mechanical properties :
#
#
# Convention : Reuss Voigt Hill
#
# Bulk Modulus (GPa) = 17.28227 23.42353 20.35290
# Shear Modulus (GPa) = 21.69458 28.84473 25.26965
#
# Velocity S-wave (km/s) = 2.99373 3.45199 3.23099
# Velocity P-wave (km/s) = 4.36915 5.05618 4.72517
#
# Compressibility (1/GPa) = 0.05786277
#
# Stress axis : x y z
#
# Youngs Moduli (GPa) = 29.34967 54.85723 54.45621
#
# Poissons Ratio (x) = 0.11045 0.00649
# Poissons Ratio (y) = 0.05909 0.23243
# Poissons Ratio (z) = 0.00350 0.23414
#
# Static dielectric constant tensor:
#      x y z
#    x 4.242400 -0.112220 0.194520 
#    y -0.112220 4.587190 -0.003270 
#    z 0.194520 -0.003270 4.265700 
# 
# 
# High freq. dielectric constant tensor:
#      x y z
#    x 1.947720 -0.000040 0.006860 
#    y -0.000040 1.964210 0.002600 
#    z 0.006860 0.002600 1.954430 
# 
# From -- ./inp_files/277333.got.cif
#   From: 2010.06.25/outbox.cif.g09.slc.cpg/sg2_139_cif.got.tgz:277333.got - 2010.06.27 13:26:56.
