data_PCOD8012864
_publ_section_title
;
Structure prediction by ZEFSAII (Michael W. Deem and Ramdas Pophale) SiO2 
 PCOD8012864
Probable space group: P -1
;
_chemical_formula_sum "Si O2"
_cell_formula_units_Z 14
_cell_length_a 6.519826
_cell_length_b 11.349894
_cell_length_c 9.401203
_cell_angle_alpha 96.689269
_cell_angle_beta 102.797202
_cell_angle_gamma 93.404590
_cell_volume 671.172513
_symmetry_space_group_name_H-M "P -1"
_symmetry_group_IT_number 2
_symmetry_cell_setting 'triclinic'
loop_
_space_group_symop_operation_xyz
x,y,z
-x,-y,-z
loop_
_atom_site_type_symbol
_atom_site_label
_atom_site_fract_x
_atom_site_fract_y
_atom_site_fract_z
Si Si1 0.447653 0.732859 0.172547
Si Si2 0.944215 0.179269 0.334615
Si Si3 0.070879 0.659508 0.910892
Si Si4 0.294491 0.018249 0.376705
Si Si5 0.429389 0.007506 0.831043
Si Si6 0.186755 0.401251 0.869665
Si Si7 0.150923 0.760825 0.368905
O O1 0.571323 0.620899 0.128952
O O2 0.360551 0.715741 0.318997
O O3 0.595981 0.855839 0.198753
O O4 0.249241 0.738659 0.037013
O O5 0.161929 0.128419 0.415517
O O6 0.998140 0.270454 0.227581
O O7 0.790448 0.068333 0.241375
O O8 0.839527 0.246857 0.458717
O O9 0.157110 0.537862 0.853045
O O10 0.869695 0.631135 0.979427
O O11 0.379742 0.043025 0.234486
O O12 0.500000 0.000000 0.500000
O O13 0.136690 0.898477 0.342387
O O14 0.500000 0.000000 0.000000
O O15 0.051807 0.319371 0.725933
#
# Coordination Sequence:
#
# PCOD8012864 Si02
#       7
#     2   2   2   2   2   2   2
#     4  10  21  40  64  87 121 162 201 242 304 363
#     4  12  24  39  62  92 129 154 202 255 296 359
#     4  10  23  41  61  93 117 161 205 253 300 350
#     4  11  24  40  62  89 125 165 195 239 311 367
#     4  11  23  38  60  95 124 152 201 248 304 365
#     4  10  22  42  65  83 123 162 206 248 301 352
#     4  10  23  39  62  90 118 164 202 238 306 363
#
# _framework density 20.859017000000001
#
# number of rings (size 3 to 8) (size 9 to 14) (size 15 to 20)
#    0.000    1.429    2.857    1.714    6.000    1.143 
#    0.000    0.714    0.000    0.000    0.000    0.000 
#    0.000    0.000    0.000    0.000    0.000    0.000 
#
# Total GULP energy -173583.566403 kJ/mol
# GULP energy per Si atom -12398.826172 kJ/mol
# Density = 2.081154 g / cm^3
# Si number density = 20.859017 Si / 1000 Ang^3
#
#
#
# Elastic Constant Matrix: (Units=GPa)
#
#
# Indices 1 2 3 4 5 6 
#
# 1 95.4101 34.9042 50.6337 -7.7375 -16.1544 -23.7029
# 2 34.9042 88.6862 36.4966 -4.9929 -6.1977 -8.6150
# 3 50.6337 36.4966 139.3341 -3.5804 -17.6244 -8.0764
# 4 -7.7375 -4.9929 -3.5804 26.5113 1.9178 -4.3799
# 5 -16.1544 -6.1977 -17.6244 1.9178 32.1736 9.1047
# 6 -23.7029 -8.6150 -8.0764 -4.3799 9.1047 31.8961
#
#
#
# Elastic Compliance Matrix: (Units=1/GPa)
#
#
# Indices 1 2 3 4 5 6 
#
# 1 0.017789 -0.003609 -0.004433 0.005604 0.002294 0.011236
# 2 -0.003609 0.013754 -0.002300 0.001423 -0.000751 0.000860
# 3 -0.004433 -0.002300 0.009643 -0.001101 0.003415 -0.002600
# 4 0.005604 0.001423 -0.001101 0.041486 -0.003056 0.010839
# 5 0.002294 -0.000751 0.003415 -0.003056 0.036542 -0.008484
# 6 0.011236 0.000860 -0.002600 0.010839 -0.008484 0.043186
#
#
# Mechanical properties :
#
#
# Convention : Reuss Voigt Hill
#
# Bulk Modulus (GPa) = 48.77770 63.05548 55.91659
# Shear Modulus (GPa) = 26.32714 31.54260 28.93487
#
# Velocity S-wave (km/s) = 3.55652 3.89290 3.72851
# Velocity P-wave (km/s) = 6.34826 7.10642 6.73801
#
# Compressibility (1/GPa) = 0.02050117
#
# Stress axis : x y z
#
# Youngs Moduli (GPa) = 56.21570 72.70763 103.69799
#
# Poissons Ratio (x) = 0.26242 0.45974
# Poissons Ratio (y) = 0.20290 0.23846
# Poissons Ratio (z) = 0.24923 0.16719
#
# Static dielectric constant tensor:
#      x y z
#    x 4.271770 -0.005180 -0.380030 
#    y -0.005180 3.761070 0.223920 
#    z -0.380030 0.223920 3.818240 
# 
# 
# High freq. dielectric constant tensor:
#      x y z
#    x 1.816590 0.010660 -0.019370 
#    y 0.010660 1.805620 0.019610 
#    z -0.019370 0.019610 1.816070 
# 
# From -- ./inp_files/46101.got.cif
#   From: 2010.06.25/outbox.cif.g09.slc.cpg/sg2_24_cif.got.tgz:46101.got - 2010.06.27 13:26:56.
