data_PCOD8012114
_publ_section_title
;
Structure prediction by ZEFSAII (Michael W. Deem and Ramdas Pophale) SiO2 
 PCOD8012114
Probable space group: P -1
;
_chemical_formula_sum "Si O2"
_cell_formula_units_Z 16
_cell_length_a 12.029154
_cell_length_b 14.472107
_cell_length_c 8.802295
_cell_angle_alpha 65.889175
_cell_angle_beta 112.867407
_cell_angle_gamma 148.740845
_cell_volume 723.272630
_symmetry_space_group_name_H-M "P -1"
_symmetry_group_IT_number 2
_symmetry_cell_setting 'triclinic'
loop_
_space_group_symop_operation_xyz
x,y,z
-x,-y,-z
loop_
_atom_site_type_symbol
_atom_site_label
_atom_site_fract_x
_atom_site_fract_y
_atom_site_fract_z
Si Si1 0.202003 0.238552 0.508170
Si Si2 0.410147 0.147608 0.006388
Si Si3 0.589668 0.092409 0.324390
Si Si4 0.949736 0.498441 0.644853
Si Si5 0.623981 0.448994 0.462860
Si Si6 0.444838 0.348265 0.110977
Si Si7 0.587270 0.153346 0.842796
Si Si8 0.017977 0.083514 0.212437
O O1 0.408897 0.310570 0.541399
O O2 0.238488 0.356014 0.562394
O O3 0.116120 0.220426 0.310554
O O4 0.037369 0.057866 0.635887
O O5 0.431999 0.068547 0.186845
O O6 0.495971 0.309367 0.023437
O O7 0.547914 0.226752 0.872378
O O8 0.164126 0.984816 0.931183
O O9 0.833270 0.303779 0.302808
O O10 0.500000 0.000000 0.500000
O O11 0.564938 0.968309 0.304218
O O12 0.754820 0.441940 0.585483
O O13 0.841543 0.332677 0.801790
O O14 0.000000 0.500000 0.500000
O O15 0.579579 0.406377 0.289030
O O16 0.191550 0.169634 0.124047
O O17 0.500000 0.500000 0.000000
O O18 0.500000 0.000000 0.000000
#
# Coordination Sequence:
#
# PCOD8012114 Si02
#       8
#     2   2   2   2   2   2   2   2
#     4   9  20  41  66 102 129 171 230 289 347 417
#     4  11  24  44  67  97 142 186 225 296 352 421
#     4  11  25  46  71 104 141 184 247 295 350 427
#     4  12  24  43  73 102 139 188 236 292 355 423
#     4  10  22  40  67  97 134 175 229 286 345 421
#     4  11  24  41  62  98 140 180 229 282 350 429
#     4  10  25  47  67 102 141 180 239 297 347 422
#     4  10  21  39  66  96 132 176 226 279 354 410
#
# _framework density 22.121670000000002
#
# number of rings (size 3 to 8) (size 9 to 14) (size 15 to 20)
#    0.000    1.500    1.250    2.625    1.750    6.000 
#    4.500    0.000    0.000    0.000    0.000    0.000 
#    0.000    0.000    0.000    0.000    0.000    0.000 
#
# Total GULP energy -198235.423704 kJ/mol
# GULP energy per Si atom -12389.713982 kJ/mol
# Density = 2.207132 g / cm^3
# Si number density = 22.121670 Si / 1000 Ang^3
#
#
#
# Elastic Constant Matrix: (Units=GPa)
#
#
# Indices 1 2 3 4 5 6 
#
# 1 115.9433 45.4192 54.2925 8.3868 -24.3011 -20.4495
# 2 45.4192 143.6653 53.5579 -0.6036 -21.1961 -4.9360
# 3 54.2925 53.5579 113.2899 3.5700 -10.3768 1.1621
# 4 8.3868 -0.6036 3.5700 50.4102 3.9667 -3.8821
# 5 -24.3011 -21.1961 -10.3768 3.9667 49.1130 12.7698
# 6 -20.4495 -4.9360 1.1621 -3.8821 12.7698 22.5629
#
#
#
# Elastic Compliance Matrix: (Units=1/GPa)
#
#
# Indices 1 2 3 4 5 6 
#
# 1 0.014855 -0.001631 -0.006212 -0.001323 0.002355 0.011866
# 2 -0.001631 0.009049 -0.003265 0.000353 0.002568 -0.000723
# 3 -0.006212 -0.003265 0.013468 -0.000546 0.000306 -0.007306
# 4 -0.001323 0.000353 -0.000546 0.020711 -0.003438 0.004416
# 5 0.002355 0.002568 0.000306 -0.003438 0.026305 -0.012799
# 6 0.011866 -0.000723 -0.007306 0.004416 -0.012799 0.063297
#
#
# Mechanical properties :
#
#
# Convention : Reuss Voigt Hill
#
# Bulk Modulus (GPa) = 65.98198 75.49306 70.73752
# Shear Modulus (GPa) = 28.57926 39.05916 33.81921
#
# Velocity S-wave (km/s) = 3.59822 4.20652 3.91421
# Velocity P-wave (km/s) = 6.86691 7.60220 7.24389
#
# Compressibility (1/GPa) = 0.01515565
#
# Stress axis : x y z
#
# Youngs Moduli (GPa) = 67.31717 110.51174 74.25133
#
# Poissons Ratio (x) = 0.18022 0.46128
# Poissons Ratio (y) = 0.10978 0.24242
# Poissons Ratio (z) = 0.41820 0.36080
#
# Static dielectric constant tensor:
#      x y z
#    x 4.310750 -0.257680 -0.522770 
#    y -0.257680 4.449830 0.250930 
#    z -0.522770 0.250930 4.344220 
# 
# 
# High freq. dielectric constant tensor:
#      x y z
#    x 1.862110 -0.009490 -0.021610 
#    y -0.009490 1.879310 0.004980 
#    z -0.021610 0.004980 1.880330 
# 
# From -- ./inp_files/272639.got.cif
#   From: 2010.06.25/outbox.cif.g09.slc.cpg/sg2_137_cif.got.tgz:272639.got - 2010.06.27 13:26:56.
