data_PCOD8012824
_publ_section_title
;
Structure prediction by ZEFSAII (Michael W. Deem and Ramdas Pophale) SiO2 
 PCOD8012824
Probable space group: P -1
;
_chemical_formula_sum "Si O2"
_cell_formula_units_Z 16
_cell_length_a 5.244766
_cell_length_b 28.717368
_cell_length_c 8.671397
_cell_angle_alpha 150.507198
_cell_angle_beta 81.205598
_cell_angle_gamma 102.953177
_cell_volume 624.194540
_symmetry_space_group_name_H-M "P -1"
_symmetry_group_IT_number 2
_symmetry_cell_setting 'triclinic'
loop_
_space_group_symop_operation_xyz
x,y,z
-x,-y,-z
loop_
_atom_site_type_symbol
_atom_site_label
_atom_site_fract_x
_atom_site_fract_y
_atom_site_fract_z
Si Si1 0.156919 0.201458 0.333478
Si Si2 0.377923 0.347716 0.506225
Si Si3 0.949646 0.716080 0.933622
Si Si4 0.081997 0.639319 0.010545
Si Si5 0.457974 0.209875 0.620282
Si Si6 0.107076 0.995950 0.309388
Si Si7 0.832989 0.498941 0.860933
Si Si8 0.692641 0.103777 0.525842
O O1 0.341249 0.243027 0.288730
O O2 0.027257 0.285989 0.654966
O O3 0.333475 0.164387 0.341923
O O4 0.925708 0.115750 0.055074
O O5 0.668418 0.389849 0.528236
O O6 0.355758 0.424861 0.865998
O O7 0.160038 0.344444 0.381685
O O8 0.977242 0.640038 0.847314
O O9 0.753223 0.785877 0.212312
O O10 0.218856 0.793515 0.093980
O O11 0.395192 0.678838 0.097654
O O12 0.003923 0.533804 0.791473
O O13 0.657534 0.139861 0.456254
O O14 0.413400 0.043160 0.428329
O O15 0.000000 0.000000 0.500000
O O16 0.925684 0.043198 0.343101
O O17 0.000000 0.500000 0.000000
#
# Coordination Sequence:
#
# PCOD8012824 Si02
#       8
#     2   2   2   2   2   2   2   2
#     4  10  23  40  65  92 129 175 222 273 336 392
#     4  10  22  41  66  93 128 173 218 273 335 400
#     4  10  21  43  66  95 131 178 219 273 334 393
#     4   9  21  40  62  94 129 172 219 275 332 402
#     4  10  21  42  65  94 132 176 221 272 327 398
#     4  12  26  44  65 100 138 176 224 282 329 391
#     4  10  21  40  63  95 130 168 220 274 331 403
#     4  11  24  44  66  96 136 176 224 274 328 391
#
# _framework density 25.633035
#
# number of rings (size 3 to 8) (size 9 to 14) (size 15 to 20)
#    0.000    1.750    1.250    1.875    1.750    4.500 
#    2.250    1.250    0.000    0.000    0.000    0.000 
#    0.000    0.000    0.000    0.000    0.000    0.000 
#
# Total GULP energy -198264.456420 kJ/mol
# GULP energy per Si atom -12391.528526 kJ/mol
# Density = 2.557469 g / cm^3
# Si number density = 25.633035 Si / 1000 Ang^3
#
#
#
# Elastic Constant Matrix: (Units=GPa)
#
#
# Indices 1 2 3 4 5 6 
#
# 1 94.9919 34.4767 30.9333 14.5178 42.9925 6.8725
# 2 34.4767 124.7263 54.0513 18.3612 28.6374 14.9769
# 3 30.9333 54.0513 120.6867 13.3839 44.4934 11.6680
# 4 14.5178 18.3612 13.3839 40.4747 5.7545 15.0842
# 5 42.9925 28.6374 44.4934 5.7545 46.9381 11.4956
# 6 6.8725 14.9769 11.6680 15.0842 11.4956 41.0663
#
#
#
# Elastic Compliance Matrix: (Units=1/GPa)
#
#
# Indices 1 2 3 4 5 6 
#
# 1 0.020291 -0.001980 0.003808 -0.006294 -0.021324 0.004525
# 2 -0.001980 0.010843 -0.003714 -0.002317 -0.000619 -0.001543
# 3 0.003808 -0.003714 0.014782 -0.003117 -0.015330 0.001954
# 4 -0.006294 -0.002317 -0.003117 0.032055 0.009024 -0.011516
# 5 -0.021324 -0.000619 -0.015330 0.009024 0.057389 -0.011229
# 6 0.004525 -0.001543 0.001954 -0.011516 -0.011229 0.030975
#
#
# Mechanical properties :
#
#
# Convention : Reuss Voigt Hill
#
# Bulk Modulus (GPa) = 23.72859 64.36970 44.04915
# Shear Modulus (GPa) = 27.15092 40.42541 33.78816
#
# Velocity S-wave (km/s) = 3.25809 3.97556 3.63457
# Velocity P-wave (km/s) = 4.84052 6.80000 5.90214
#
# Compressibility (1/GPa) = 0.04214326
#
# Stress axis : x y z
#
# Youngs Moduli (GPa) = 49.28225 92.22482 67.65026
#
# Poissons Ratio (x) = 0.18259 -0.25759
# Poissons Ratio (y) = 0.09757 0.25128
# Poissons Ratio (z) = -0.18765 0.34255
#
# Static dielectric constant tensor:
#      x y z
#    x 4.732900 0.292280 0.392530 
#    y 0.292280 5.784670 0.849750 
#    z 0.392530 0.849750 5.044770 
# 
# 
# High freq. dielectric constant tensor:
#      x y z
#    x 2.018140 0.006090 0.026620 
#    y 0.006090 2.034800 0.014290 
#    z 0.026620 0.014290 2.011170 
# 
# From -- ./inp_files/143445.got.cif
#   From: 2010.06.25/outbox.cif.g09.slc.cpg/sg2_72_cif.got.tgz:143445.got - 2010.06.27 13:26:56.
