data_PCOD8012343
_publ_section_title
;
Structure prediction by ZEFSAII (Michael W. Deem and Ramdas Pophale) SiO2 
 PCOD8012343
Probable space group: P -1
;
_chemical_formula_sum "Si O2"
_cell_formula_units_Z 16
_cell_length_a 9.602618
_cell_length_b 11.985267
_cell_length_c 11.907578
_cell_angle_alpha 133.959432
_cell_angle_beta 79.477347
_cell_angle_gamma 123.443904
_cell_volume 776.209510
_symmetry_space_group_name_H-M "P -1"
_symmetry_group_IT_number 2
_symmetry_cell_setting 'triclinic'
loop_
_space_group_symop_operation_xyz
x,y,z
-x,-y,-z
loop_
_atom_site_type_symbol
_atom_site_label
_atom_site_fract_x
_atom_site_fract_y
_atom_site_fract_z
Si Si1 0.084906 0.472823 0.171657
Si Si2 0.359930 0.076983 0.670982
Si Si3 0.802770 0.531869 0.296326
Si Si4 0.014150 0.041696 0.398737
Si Si5 0.405437 0.752120 0.453685
Si Si6 0.514805 0.325698 0.369609
Si Si7 0.306974 0.664646 0.054570
Si Si8 0.199097 0.914558 0.142364
O O1 0.247275 0.543687 0.279800
O O2 0.151317 0.535156 0.077247
O O3 0.990271 0.568411 0.291785
O O4 0.937490 0.240809 0.039253
O O5 0.424003 0.141825 0.578308
O O6 0.502653 0.242704 0.852321
O O7 0.335061 0.880194 0.563411
O O8 0.173023 0.038897 0.687823
O O9 0.839402 0.727861 0.473780
O O10 0.667676 0.369997 0.293324
O O11 0.716367 0.468366 0.139686
O O12 0.082213 0.928342 0.258230
O O13 0.000000 0.000000 0.500000
O O14 0.454367 0.715547 0.539404
O O15 0.500000 0.500000 0.500000
O O16 0.336991 0.123609 0.210008
O O17 0.298996 0.837332 0.134370
#
# Coordination Sequence:
#
# PCOD8012343 Si02
#       8
#     2   2   2   2   2   2   2   2
#     4  10  21  41  66  97 122 158 216 271 316 368
#     4  10  21  39  69  97 123 159 219 262 324 366
#     4  11  23  39  64  91 126 171 213 255 312 389
#     4  12  22  37  63  99 127 163 209 265 324 373
#     4  10  21  41  65  92 127 169 206 269 308 380
#     4  12  25  43  60  91 133 176 214 250 318 386
#     4  10  21  42  67  97 125 160 213 271 315 375
#     4  11  22  40  62  89 131 168 203 262 320 368
#
# _framework density 20.612992999999999
#
# number of rings (size 3 to 8) (size 9 to 14) (size 15 to 20)
#    0.000    1.250    3.750    3.750    1.750    2.500 
#    2.250    2.500    0.000    0.000    0.000    0.000 
#    0.000    0.000    0.000    0.000    0.000    0.000 
#
# Total GULP energy -198385.349523 kJ/mol
# GULP energy per Si atom -12399.084345 kJ/mol
# Density = 2.056608 g / cm^3
# Si number density = 20.612993 Si / 1000 Ang^3
#
#
#
# Elastic Constant Matrix: (Units=GPa)
#
#
# Indices 1 2 3 4 5 6 
#
# 1 73.8767 28.4490 31.0701 1.8901 15.2820 6.8764
# 2 28.4490 99.2396 24.5860 10.4865 14.1023 4.4974
# 3 31.0701 24.5860 81.8519 12.6942 14.0179 -2.9315
# 4 1.8901 10.4865 12.6942 38.5524 5.4523 1.5027
# 5 15.2820 14.1023 14.0179 5.4523 24.1626 5.9479
# 6 6.8764 4.4974 -2.9315 1.5027 5.9479 18.4362
#
#
#
# Elastic Compliance Matrix: (Units=1/GPa)
#
#
# Indices 1 2 3 4 5 6 
#
# 1 0.018896 -0.003175 -0.005839 0.002925 -0.006017 -0.005499
# 2 -0.003175 0.012122 -0.001529 -0.002111 -0.003530 -0.000705
# 3 -0.005839 -0.001529 0.016872 -0.004286 -0.006094 0.007549
# 4 0.002925 -0.002111 -0.004286 0.028433 -0.003984 -0.002290
# 5 -0.006017 -0.003530 -0.006094 -0.003984 0.055487 -0.015440
# 6 -0.005499 -0.000705 0.007549 -0.002290 -0.015440 0.062833
#
#
# Mechanical properties :
#
#
# Convention : Reuss Voigt Hill
#
# Bulk Modulus (GPa) = 37.30951 47.01984 42.16467
# Shear Modulus (GPa) = 22.25538 27.62111 24.93825
#
# Velocity S-wave (km/s) = 3.28941 3.66455 3.48204
# Velocity P-wave (km/s) = 5.70668 6.38479 6.05524
#
# Compressibility (1/GPa) = 0.02680282
#
# Stress axis : x y z
#
# Youngs Moduli (GPa) = 52.92048 82.49211 59.27098
#
# Poissons Ratio (x) = 0.26193 0.34610
# Poissons Ratio (y) = 0.16803 0.09064
# Poissons Ratio (z) = 0.30902 0.12615
#
# Static dielectric constant tensor:
#      x y z
#    x 3.750610 0.180580 0.197870 
#    y 0.180580 3.723630 0.119510 
#    z 0.197870 0.119510 3.594390 
# 
# 
# High freq. dielectric constant tensor:
#      x y z
#    x 1.801740 0.017090 0.006730 
#    y 0.017090 1.794600 0.017760 
#    z 0.006730 0.017760 1.814060 
# 
# From -- ./inp_files/391342.got.cif
#   From: 2010.06.25/outbox.cif.g09.slc.cpg/sg2_196_cif.got.tgz:391342.got - 2010.06.27 13:26:56.
