data_PCOD8012001
_publ_section_title
;
Structure prediction by ZEFSAII (Michael W. Deem and Ramdas Pophale) SiO2 
 PCOD8012001
Probable space group: P -1
;
_chemical_formula_sum "Si O2"
_cell_formula_units_Z 14
_cell_length_a 13.073837
_cell_length_b 7.240808
_cell_length_c 11.550098
_cell_angle_alpha 106.485922
_cell_angle_beta 145.777212
_cell_angle_gamma 80.922968
_cell_volume 583.633627
_symmetry_space_group_name_H-M "P -1"
_symmetry_group_IT_number 2
_symmetry_cell_setting 'triclinic'
loop_
_space_group_symop_operation_xyz
x,y,z
-x,-y,-z
loop_
_atom_site_type_symbol
_atom_site_label
_atom_site_fract_x
_atom_site_fract_y
_atom_site_fract_z
Si Si1 0.394105 0.153863 0.673007
Si Si2 0.198864 0.943616 0.661143
Si Si3 0.900582 0.365541 0.982478
Si Si4 0.441935 0.490101 0.228884
Si Si5 0.293197 0.057412 0.016192
Si Si6 0.079492 0.958554 0.211166
Si Si7 0.818753 0.377911 0.589438
O O1 0.301853 0.110178 0.703485
O O2 0.496407 0.376511 0.802639
O O3 0.539544 0.001983 0.762886
O O4 0.245167 0.132727 0.423073
O O5 0.196940 0.725491 0.569739
O O6 0.293275 0.943174 0.874499
O O7 0.000000 0.000000 0.500000
O O8 0.685342 0.387316 0.790864
O O9 0.930377 0.137267 0.946711
O O10 0.000000 0.500000 0.000000
O O11 0.013669 0.439795 0.218478
O O12 0.317692 0.285750 0.047071
O O13 0.627328 0.450754 0.459886
O O14 0.112307 0.991792 0.910850
O O15 0.142111 0.783444 0.312349
#
# Coordination Sequence:
#
# PCOD8012001 Si02
#       7
#     2   2   2   2   2   2   2
#     4  11  26  41  64 102 131 166 221 264 322 387
#     4  11  20  43  68  90 132 173 211 264 324 387
#     4  10  21  40  69  96 126 176 217 258 330 385
#     4  12  24  41  66  99 135 163 219 271 315 388
#     4  12  22  44  69  91 136 175 208 266 326 385
#     4  10  21  43  67  93 129 175 214 262 326 382
#     4  10  21  39  65  95 128 168 215 261 324 379
#
# _framework density 23.987652000000001
#
# number of rings (size 3 to 8) (size 9 to 14) (size 15 to 20)
#    0.000    1.143    8.571    0.429    0.000    5.714 
#    0.000    2.143    0.000    0.000    0.000    0.000 
#    0.000    0.000    0.000    0.000    0.000    0.000 
#
# Total GULP energy -173491.899703 kJ/mol
# GULP energy per Si atom -12392.278550 kJ/mol
# Density = 2.393306 g / cm^3
# Si number density = 23.987652 Si / 1000 Ang^3
#
#
#
# Elastic Constant Matrix: (Units=GPa)
#
#
# Indices 1 2 3 4 5 6 
#
# 1 102.3436 25.4924 40.4935 15.4809 24.0884 -10.7756
# 2 25.4924 81.2045 16.2875 13.3890 26.9176 -8.5757
# 3 40.4935 16.2875 96.4484 22.4077 29.1654 -12.4485
# 4 15.4809 13.3890 22.4077 18.8431 -34.9295 1.5550
# 5 24.0884 26.9176 29.1654 -34.9295 39.7539 -7.7813
# 6 -10.7756 -8.5757 -12.4485 1.5550 -7.7813 35.7343
#
#
#
# Elastic Compliance Matrix: (Units=1/GPa)
#
#
# Indices 1 2 3 4 5 6 
#
# 1 0.012122 -0.003689 -0.005577 0.002847 0.001967 0.001132
# 2 -0.003689 0.011286 -0.003687 0.008470 0.004940 0.001019
# 3 -0.005577 -0.003687 0.009448 0.008701 0.006953 0.001860
# 4 0.002847 0.008470 0.008701 -0.014219 -0.026172 0.000842
# 5 0.001967 0.004940 0.006953 -0.026172 -0.006720 0.003876
# 6 0.001132 0.001019 0.001860 0.000842 0.003876 0.030026
#
#
# Mechanical properties :
#
#
# Convention : Reuss Voigt Hill
#
# Bulk Modulus (GPa) = 143.87776 49.39370 96.63573
# Shear Modulus (GPa) = 71.26093 32.04779 51.65436
#
# Velocity S-wave (km/s) = 5.45636 3.65912 4.64548
# Velocity P-wave (km/s) = 9.99029 6.20388 8.31547
#
# Compressibility (1/GPa) = 0.00695034
#
# Stress axis : x y z
#
# Youngs Moduli (GPa) = 82.49616 88.60748 105.83715
#
# Poissons Ratio (x) = 0.32686 0.59022
# Poissons Ratio (y) = 0.30432 0.39025
# Poissons Ratio (z) = 0.46005 0.32672
#
# Static dielectric constant tensor:
#      x y z
#    x 4.667890 -0.622120 -0.680320 
#    y -0.622120 4.932990 1.062900 
#    z -0.680320 1.062900 6.453270 
# 
# 
# High freq. dielectric constant tensor:
#      x y z
#    x 1.930310 -0.008710 0.018170 
#    y -0.008710 1.962760 -0.007130 
#    z 0.018170 -0.007130 1.965550 
# 
# From -- ./inp_files/528996.got.cif
#   From: 2010.06.25/outbox.cif.g09.slc.cpg/sg2_265_cif.got.tgz:528996.got - 2010.06.27 13:26:56.
