data_PCOD8012230
_publ_section_title
;
Structure prediction by ZEFSAII (Michael W. Deem and Ramdas Pophale) SiO2 
 PCOD8012230
Probable space group: P -1
;
_chemical_formula_sum "Si O2"
_cell_formula_units_Z 16
_cell_length_a 8.641103
_cell_length_b 5.496526
_cell_length_c 21.172443
_cell_angle_alpha 67.961848
_cell_angle_beta 46.081230
_cell_angle_gamma 84.372286
_cell_volume 651.322534
_symmetry_space_group_name_H-M "P -1"
_symmetry_group_IT_number 2
_symmetry_cell_setting 'triclinic'
loop_
_space_group_symop_operation_xyz
x,y,z
-x,-y,-z
loop_
_atom_site_type_symbol
_atom_site_label
_atom_site_fract_x
_atom_site_fract_y
_atom_site_fract_z
Si Si1 0.145561 0.778437 0.208710
Si Si2 0.736139 0.821463 0.388084
Si Si3 0.317470 0.238440 0.214649
Si Si4 0.192774 0.761274 0.930422
Si Si5 0.340510 0.698568 0.704304
Si Si6 0.001640 0.210174 0.889019
Si Si7 0.629938 0.475707 0.558784
Si Si8 0.198539 0.968554 0.401717
O O1 0.265302 0.531927 0.198805
O O2 0.904687 0.675262 0.319079
O O3 0.124224 0.860332 0.134479
O O4 0.272104 0.051959 0.182937
O O5 0.752845 0.768224 0.464656
O O6 0.478069 0.708733 0.452206
O O7 0.789021 0.135701 0.321705
O O8 0.577363 0.300658 0.148578
O O9 0.169696 0.062349 0.329399
O O10 0.162213 0.008538 0.871801
O O11 0.000000 0.500000 0.000000
O O12 0.185452 0.839546 0.998952
O O13 0.152679 0.520254 0.820303
O O14 0.424379 0.482218 0.660254
O O15 0.554716 0.872083 0.662529
O O16 0.802046 0.349162 0.561978
O O17 0.000000 0.000000 0.500000
#
# Coordination Sequence:
#
# PCOD8012230 Si02
#       8
#     2   2   2   2   2   2   2   2
#     4  12  28  48  76 112 160 195 249 319 388 453
#     4  10  22  40  66 105 144 193 248 308 373 441
#     4  12  30  49  75 116 158 201 253 319 387 454
#     4  11  28  51  84 107 149 197 259 313 383 474
#     4  11  22  41  75 103 143 196 262 310 367 458
#     4  11  26  49  80 113 141 203 253 315 385 456
#     4  10  21  39  67  99 139 200 261 303 358 450
#     4  11  26  43  68 105 156 209 251 313 378 451
#
# _framework density 24.565401999999999
#
# number of rings (size 3 to 8) (size 9 to 14) (size 15 to 20)
#    0.000    1.000    1.250    3.375   14.000    1.500 
#    0.000    0.000    0.000    0.000    0.000    0.000 
#    0.000    0.000    0.000    0.000    0.000    0.000 
#
# Total GULP energy -198297.725910 kJ/mol
# GULP energy per Si atom -12393.607869 kJ/mol
# Density = 2.450949 g / cm^3
# Si number density = 24.565402 Si / 1000 Ang^3
#
#
#
# Elastic Constant Matrix: (Units=GPa)
#
#
# Indices 1 2 3 4 5 6 
#
# 1 74.9183 50.6821 51.3310 0.4183 8.4623 -12.1601
# 2 50.6821 137.7658 43.3673 -2.4814 6.6532 -36.5146
# 3 51.3310 43.3673 121.9602 -4.3238 15.1327 -26.5303
# 4 0.4183 -2.4814 -4.3238 43.9780 -4.4647 -2.3112
# 5 8.4623 6.6532 15.1327 -4.4647 51.4148 -7.3695
# 6 -12.1601 -36.5146 -26.5303 -2.3112 -7.3695 52.8816
#
#
#
# Elastic Compliance Matrix: (Units=1/GPa)
#
#
# Indices 1 2 3 4 5 6 
#
# 1 0.023021 -0.006926 -0.007943 -0.001712 -0.001237 -0.003721
# 2 -0.006926 0.011468 0.000231 0.001145 0.000631 0.006580
# 3 -0.007943 0.000231 0.012706 0.001404 -0.001691 0.004533
# 4 -0.001712 0.001145 0.001404 0.023296 0.002089 0.002411
# 5 -0.001237 0.000631 -0.001691 0.002089 0.020575 0.002261
# 6 -0.003721 0.006580 0.004533 0.002411 0.002261 0.025293
#
#
# Mechanical properties :
#
#
# Convention : Reuss Voigt Hill
#
# Bulk Modulus (GPa) = 55.80715 69.48944 62.64830
# Shear Modulus (GPa) = 32.97980 42.27247 37.62613
#
# Velocity S-wave (km/s) = 3.66803 4.15277 3.91790
# Velocity P-wave (km/s) = 6.38015 7.16540 6.78415
#
# Compressibility (1/GPa) = 0.01791885
#
# Stress axis : x y z
#
# Youngs Moduli (GPa) = 43.43899 87.19786 78.70274
#
# Poissons Ratio (x) = 0.60393 0.62513
# Poissons Ratio (y) = 0.30086 -0.01817
# Poissons Ratio (z) = 0.34503 -0.02013
#
# Static dielectric constant tensor:
#      x y z
#    x 4.475890 -0.168610 0.199520 
#    y -0.168610 4.474680 -0.012700 
#    z 0.199520 -0.012700 4.581230 
# 
# 
# High freq. dielectric constant tensor:
#      x y z
#    x 1.982230 -0.009480 0.006140 
#    y -0.009480 1.977840 -0.002090 
#    z 0.006140 -0.002090 1.983940 
# 
# From -- ./inp_files/585534.got.cif
#   From: 2010.06.25/outbox.cif.g09.slc.cpg/sg2_293_cif.got.tgz:585534.got - 2010.06.27 13:26:56.
