data_PCOD8012417
_publ_section_title
;
Structure prediction by ZEFSAII (Michael W. Deem and Ramdas Pophale) SiO2 
 PCOD8012417
Probable space group: P -1
;
_chemical_formula_sum "Si O2"
_cell_formula_units_Z 12
_cell_length_a 16.378830
_cell_length_b 5.279665
_cell_length_c 12.026705
_cell_angle_alpha 47.867702
_cell_angle_beta 140.349994
_cell_angle_gamma 120.306370
_cell_volume 491.986512
_symmetry_space_group_name_H-M "P -1"
_symmetry_group_IT_number 2
_symmetry_cell_setting 'triclinic'
loop_
_space_group_symop_operation_xyz
x,y,z
-x,-y,-z
loop_
_atom_site_type_symbol
_atom_site_label
_atom_site_fract_x
_atom_site_fract_y
_atom_site_fract_z
Si Si1 0.373581 0.990623 0.296935
Si Si2 0.339817 0.288224 0.524916
Si Si3 0.428182 0.176272 0.063225
Si Si4 0.030857 0.438895 0.729044
Si Si5 0.203961 0.840127 0.345823
Si Si6 0.851156 0.903612 0.250777
O O1 0.360411 0.589191 0.366401
O O2 0.247591 0.082580 0.215778
O O3 0.500000 0.000000 0.500000
O O4 0.387143 0.228941 0.134194
O O5 0.265196 0.457391 0.502436
O O6 0.476561 0.148851 0.753368
O O7 0.258432 0.985902 0.475642
O O8 0.500000 0.500000 0.000000
O O9 0.299888 0.116682 0.876125
O O10 0.122958 0.199945 0.820234
O O11 0.949520 0.191280 0.797255
O O12 0.925729 0.640258 0.485192
O O13 0.109986 0.706617 0.804265
#
# Coordination Sequence:
#
# PCOD8012417 Si02
#       6
#     2   2   2   2   2   2
#     4  10  23  42  67  99 138 179 213 266 341 414
#     4  10  22  40  67  97 135 170 212 265 341 398
#     4  12  24  42  67 107 136 168 224 286 332 385
#     4  10  21  46  62  92 127 186 214 268 332 398
#     4  10  21  39  74  89 125 180 224 251 326 411
#     4  10  24  39  66  91 137 167 225 271 330 387
#
# _framework density 24.390910999999999
#
# number of rings (size 3 to 8) (size 9 to 14) (size 15 to 20)
#    1.000    0.667    1.667    2.500    0.000    5.333 
#    0.000    6.667    0.000    0.000    0.000    0.000 
#    0.000    0.000    0.000    0.000    0.000    0.000 
#
# Total GULP energy -148702.006721 kJ/mol
# GULP energy per Si atom -12391.833893 kJ/mol
# Density = 2.433540 g / cm^3
# Si number density = 24.390911 Si / 1000 Ang^3
#
#
#
# Elastic Constant Matrix: (Units=GPa)
#
#
# Indices 1 2 3 4 5 6 
#
# 1 134.9415 78.5397 24.3254 -0.0216 6.5100 21.7991
# 2 78.5397 177.6012 37.3861 26.5909 6.5863 0.2826
# 3 24.3254 37.3861 49.6772 3.8476 -0.5696 12.6350
# 4 -0.0216 26.5909 3.8476 29.8198 6.5556 4.4488
# 5 6.5100 6.5863 -0.5696 6.5556 29.8803 0.7668
# 6 21.7991 0.2826 12.6350 4.4488 0.7668 59.3584
#
#
#
# Elastic Compliance Matrix: (Units=1/GPa)
#
#
# Indices 1 2 3 4 5 6 
#
# 1 0.011934 -0.006047 -0.000655 0.006766 -0.002644 -0.004688
# 2 -0.006047 0.010892 -0.005500 -0.009802 0.000858 0.004063
# 3 -0.000655 -0.005500 0.025824 0.002040 0.001538 -0.005403
# 4 0.006766 -0.009802 0.002040 0.044902 -0.008969 -0.006122
# 5 -0.002644 0.000858 0.001538 -0.008969 0.035829 0.000849
# 6 -0.004688 0.004063 -0.005403 -0.006122 0.000849 0.020147
#
#
# Mechanical properties :
#
#
# Convention : Reuss Voigt Hill
#
# Bulk Modulus (GPa) = 41.24547 71.41357 56.32952
# Shear Modulus (GPa) = 27.47022 38.60963 33.03992
#
# Velocity S-wave (km/s) = 3.35960 3.98295 3.68448
# Velocity P-wave (km/s) = 5.65651 7.10592 6.42224
#
# Compressibility (1/GPa) = 0.02424509
#
# Stress axis : x y z
#
# Youngs Moduli (GPa) = 83.79233 91.81001 38.72374
#
# Poissons Ratio (x) = 0.55521 0.02536
# Poissons Ratio (y) = 0.50672 0.21300
# Poissons Ratio (z) = 0.05487 0.50499
#
# Static dielectric constant tensor:
#      x y z
#    x 4.543190 0.120040 0.099050 
#    y 0.120040 4.326280 -0.001720 
#    z 0.099050 -0.001720 4.040140 
# 
# 
# High freq. dielectric constant tensor:
#      x y z
#    x 1.976360 0.010420 0.011440 
#    y 0.010420 1.971580 0.009090 
#    z 0.011440 0.009090 1.945490 
# 
# From -- ./inp_files/458449.got.cif
#   From: 2010.06.25/outbox.cif.g09.slc.cpg/sg2_230_cif.got.tgz:458449.got - 2010.06.27 13:26:56.
