data_PCOD8012462
_publ_section_title
;
Structure prediction by ZEFSAII (Michael W. Deem and Ramdas Pophale) SiO2 
 PCOD8012462
Probable space group: P -1
;
_chemical_formula_sum "Si O2"
_cell_formula_units_Z 16
_cell_length_a 15.175418
_cell_length_b 19.635693
_cell_length_c 12.014920
_cell_angle_alpha 48.580434
_cell_angle_beta 26.644317
_cell_angle_gamma 32.141355
_cell_volume 783.135048
_symmetry_space_group_name_H-M "P -1"
_symmetry_group_IT_number 2
_symmetry_cell_setting 'triclinic'
loop_
_space_group_symop_operation_xyz
x,y,z
-x,-y,-z
loop_
_atom_site_type_symbol
_atom_site_label
_atom_site_fract_x
_atom_site_fract_y
_atom_site_fract_z
Si Si1 0.737527 0.149022 0.073241
Si Si2 0.287061 0.153084 0.528798
Si Si3 0.270344 0.489009 0.581820
Si Si4 0.413171 0.114684 0.901062
Si Si5 0.862323 0.883094 0.491317
Si Si6 0.616635 0.377480 0.080552
Si Si7 0.597492 0.698706 0.181570
Si Si8 0.187703 0.699309 0.535852
O O1 0.452214 0.189946 0.317074
O O2 0.601430 0.282234 0.149123
O O3 0.883072 0.134921 0.811502
O O4 0.000000 0.000000 0.000000
O O5 0.219446 0.157772 0.470583
O O6 0.500000 0.000000 0.500000
O O7 0.969770 0.270960 0.826244
O O8 0.406459 0.446101 0.351772
O O9 0.383249 0.363423 0.658351
O O10 0.384504 0.539585 0.464256
O O11 0.906094 0.608949 0.863135
O O12 0.541027 0.157821 0.775437
O O13 0.568992 0.046688 0.678577
O O14 0.048284 0.242849 0.160643
O O15 0.500000 0.000000 0.000000
O O16 0.989575 0.780763 0.560120
O O17 0.500000 0.500000 0.000000
O O18 0.378674 0.722056 0.319486
#
# Coordination Sequence:
#
# PCOD8012462 Si02
#       8
#     2   2   2   2   2   2   2   2
#     4  11  23  42  65  94 129 168 219 267 327 390
#     4  11  23  42  65  91 130 171 215 272 329 381
#     4  10  22  40  62  90 129 162 214 265 319 389
#     4   9  21  37  56  89 125 154 209 256 310 387
#     4  10  22  37  62  89 126 164 210 267 317 386
#     4  11  25  43  66 100 134 169 222 271 323 395
#     4  10  22  38  63  90 125 169 208 265 325 380
#     4  10  21  40  59  90 127 161 212 262 326 379
#
# _framework density 20.430705
#
# number of rings (size 3 to 8) (size 9 to 14) (size 15 to 20)
#    0.000    1.750    2.500    1.875    1.750    9.500 
#    0.000    0.000    0.000    0.000    0.000    0.000 
#    0.000    0.000    0.000    0.000    0.000    0.000 
#
# Total GULP energy -198276.412546 kJ/mol
# GULP energy per Si atom -12392.275784 kJ/mol
# Density = 2.038420 g / cm^3
# Si number density = 20.430705 Si / 1000 Ang^3
#
#
#
# Elastic Constant Matrix: (Units=GPa)
#
#
# Indices 1 2 3 4 5 6 
#
# 1 107.9294 38.0212 74.5228 -8.5520 -8.2560 26.9199
# 2 38.0212 109.1562 40.5053 -8.4127 0.5358 30.0244
# 3 74.5228 40.5053 154.4442 -6.6556 7.3995 20.2197
# 4 -8.5520 -8.4127 -6.6556 30.2005 8.3901 -3.7339
# 5 -8.2560 0.5358 7.3995 8.3901 53.1766 -5.0248
# 6 26.9199 30.0244 20.2197 -3.7339 -5.0248 38.4403
#
#
#
# Elastic Compliance Matrix: (Units=1/GPa)
#
#
# Indices 1 2 3 4 5 6 
#
# 1 0.016282 -0.001344 -0.006751 0.001218 0.002690 -0.006331
# 2 -0.001344 0.012550 -0.001436 0.002146 -0.001235 -0.008059
# 3 -0.006751 -0.001436 0.010234 0.000675 -0.002545 0.000200
# 4 0.001218 0.002146 0.000675 0.035736 -0.005578 -0.000142
# 5 0.002690 -0.001235 -0.002545 -0.005578 0.020714 0.002586
# 6 -0.006331 -0.008059 0.000200 -0.000142 0.002586 0.036962
#
#
# Mechanical properties :
#
#
# Convention : Reuss Voigt Hill
#
# Bulk Modulus (GPa) = 49.99177 75.29204 62.64190
# Shear Modulus (GPa) = 31.60365 38.92885 35.26625
#
# Velocity S-wave (km/s) = 3.93729 4.36983 4.15919
# Velocity P-wave (km/s) = 6.72248 7.89892 7.33433
#
# Compressibility (1/GPa) = 0.02000329
#
# Stress axis : x y z
#
# Youngs Moduli (GPa) = 61.41762 79.67851 97.71162
#
# Poissons Ratio (x) = 0.10707 0.65970
# Poissons Ratio (y) = 0.08253 0.14035
# Poissons Ratio (z) = 0.41466 0.11445
#
# Static dielectric constant tensor:
#      x y z
#    x 3.726450 0.377710 0.205630 
#    y 0.377710 3.984560 0.165030 
#    z 0.205630 0.165030 4.394860 
# 
# 
# High freq. dielectric constant tensor:
#      x y z
#    x 1.784140 0.017860 0.004230 
#    y 0.017860 1.809910 -0.005930 
#    z 0.004230 -0.005930 1.812120 
# 
# From -- ./inp_files/457684.got.cif
#   From: 2010.06.25/outbox.cif.g09.slc.cpg/sg2_229_cif.got.tgz:457684.got - 2010.06.27 13:26:56.
