data_PCOD8012736
_publ_section_title
;
Structure prediction by ZEFSAII (Michael W. Deem and Ramdas Pophale) SiO2 
 PCOD8012736
Probable space group: P -1
;
_chemical_formula_sum "Si O2"
_cell_formula_units_Z 16
_cell_length_a 14.434663
_cell_length_b 13.544363
_cell_length_c 8.699785
_cell_angle_alpha 67.074987
_cell_angle_beta 63.062018
_cell_angle_gamma 28.458158
_cell_volume 722.403395
_symmetry_space_group_name_H-M "P -1"
_symmetry_group_IT_number 2
_symmetry_cell_setting 'triclinic'
loop_
_space_group_symop_operation_xyz
x,y,z
-x,-y,-z
loop_
_atom_site_type_symbol
_atom_site_label
_atom_site_fract_x
_atom_site_fract_y
_atom_site_fract_z
Si Si1 0.257903 0.177128 0.924508
Si Si2 0.648943 0.276298 0.577082
Si Si3 0.497734 0.757194 0.063382
Si Si4 0.243865 0.687732 0.249638
Si Si5 0.614021 0.932432 0.611511
Si Si6 0.167743 0.035908 0.615106
Si Si7 0.633513 0.257668 0.105428
Si Si8 0.855968 0.586074 0.851213
O O1 0.450063 0.077243 0.785114
O O2 0.085242 0.340478 0.823167
O O3 0.166767 0.297932 0.079640
O O4 0.323269 0.997689 0.013160
O O5 0.500000 0.500000 0.500000
O O6 0.532254 0.276675 0.733091
O O7 0.792778 0.200086 0.646569
O O8 0.776540 0.115878 0.438686
O O9 0.496323 0.673968 0.977863
O O10 0.718996 0.609836 0.995319
O O11 0.467598 0.440513 0.245634
O O12 0.232459 0.763444 0.050615
O O13 0.075110 0.742585 0.344814
O O14 0.721747 0.951765 0.516726
O O15 0.500000 0.000000 0.500000
O O16 0.784223 0.693612 0.672662
O O17 0.225815 0.955566 0.794640
#
# Coordination Sequence:
#
# PCOD8012736 Si02
#       8
#     2   2   2   2   2   2   2   2
#     4  10  21  41  64  89 120 166 216 262 309 373
#     4  11  22  42  62  94 133 162 202 268 311 368
#     4  10  21  40  63  87 124 166 206 252 318 370
#     4  10  23  42  60  88 124 166 210 251 304 372
#     4  11  24  40  63  95 135 162 203 266 319 374
#     4  12  22  39  66  92 124 170 203 255 320 367
#     4  10  22  40  61  85 124 164 207 254 299 371
#     4  10  21  41  64  91 118 164 218 262 306 379
#
# _framework density 22.148289999999999
#
# number of rings (size 3 to 8) (size 9 to 14) (size 15 to 20)
#    0.000    1.500    1.250    5.250    0.000    3.500 
#   11.250    0.000    0.000    0.000    0.000    0.000 
#    0.000    0.000    0.000    0.000    0.000    0.000 
#
# Total GULP energy -198354.544462 kJ/mol
# GULP energy per Si atom -12397.159029 kJ/mol
# Density = 2.209788 g / cm^3
# Si number density = 22.148290 Si / 1000 Ang^3
#
#
#
# Elastic Constant Matrix: (Units=GPa)
#
#
# Indices 1 2 3 4 5 6 
#
# 1 85.6279 34.9278 28.7597 -1.6478 -21.8088 -12.6056
# 2 34.9278 100.0875 44.2051 -15.4742 -20.8526 -18.9818
# 3 28.7597 44.2051 96.8346 -21.1259 -18.8255 -9.6765
# 4 -1.6478 -15.4742 -21.1259 32.3695 5.2935 5.9821
# 5 -21.8088 -20.8526 -18.8255 5.2935 39.6804 2.6583
# 6 -12.6056 -18.9818 -9.6765 5.9821 2.6583 32.8981
#
#
#
# Elastic Compliance Matrix: (Units=1/GPa)
#
#
# Indices 1 2 3 4 5 6 
#
# 1 0.015837 -0.002975 -0.002651 -0.004059 0.006169 0.003811
# 2 -0.002975 0.015089 -0.004155 0.002737 0.003585 0.005556
# 3 -0.002651 -0.004155 0.015068 0.007393 0.002558 -0.000532
# 4 -0.004059 0.002737 0.007393 0.037995 -0.002050 -0.004545
# 5 0.006169 0.003585 0.002558 -0.002050 0.031763 0.002991
# 6 0.003811 0.005556 -0.000532 -0.004545 0.002991 0.035492
#
#
# Mechanical properties :
#
#
# Convention : Reuss Voigt Hill
#
# Bulk Modulus (GPa) = 37.83421 55.37060 46.60240
# Shear Modulus (GPa) = 27.83743 32.63341 30.23542
#
# Velocity S-wave (km/s) = 3.54908 3.84266 3.69878
# Velocity P-wave (km/s) = 5.82356 6.68897 6.27121
#
# Compressibility (1/GPa) = 0.02643111
#
# Stress axis : x y z
#
# Youngs Moduli (GPa) = 63.14522 66.27540 66.36675
#
# Poissons Ratio (x) = 0.19719 0.17591
# Poissons Ratio (y) = 0.18788 0.27575
# Poissons Ratio (z) = 0.16737 0.27537
#
# Static dielectric constant tensor:
#      x y z
#    x 3.991520 -0.047480 0.097700 
#    y -0.047480 3.924260 -0.058230 
#    z 0.097700 -0.058230 4.083590 
# 
# 
# High freq. dielectric constant tensor:
#      x y z
#    x 1.872610 -0.003030 0.003660 
#    y -0.003030 1.861530 -0.005030 
#    z 0.003660 -0.005030 1.875320 
# 
# From -- ./inp_files/314774.got.cif
#   From: 2010.06.25/outbox.cif.g09.slc.cpg/sg2_158_cif.got.tgz:314774.got - 2010.06.27 13:26:56.
