data_PCOD8012724
_publ_section_title
;
Structure prediction by ZEFSAII (Michael W. Deem and Ramdas Pophale) SiO2 
 PCOD8012724
Probable space group: P -1
;
_chemical_formula_sum "Si O2"
_cell_formula_units_Z 16
_cell_length_a 14.721521
_cell_length_b 9.241095
_cell_length_c 12.620116
_cell_angle_alpha 124.638592
_cell_angle_beta 70.803806
_cell_angle_gamma 63.409459
_cell_volume 770.007998
_symmetry_space_group_name_H-M "P -1"
_symmetry_group_IT_number 2
_symmetry_cell_setting 'triclinic'
loop_
_space_group_symop_operation_xyz
x,y,z
-x,-y,-z
loop_
_atom_site_type_symbol
_atom_site_label
_atom_site_fract_x
_atom_site_fract_y
_atom_site_fract_z
Si Si1 0.871805 0.851980 0.537699
Si Si2 0.787089 0.560880 0.667723
Si Si3 0.442182 0.226572 0.530318
Si Si4 0.677329 0.345913 0.647249
Si Si5 0.828881 0.071637 0.052922
Si Si6 0.314885 0.905752 0.075055
Si Si7 0.336799 0.809476 0.634434
Si Si8 0.833610 0.504681 0.388825
O O1 0.863552 0.664874 0.423831
O O2 0.059777 0.627891 0.392925
O O3 0.815291 0.056329 0.547979
O O4 0.759931 0.050789 0.767661
O O5 0.686086 0.542820 0.737899
O O6 0.856596 0.417885 0.465069
O O7 0.667978 0.908379 0.854177
O O8 0.301471 0.574744 0.770361
O O9 0.616906 0.058806 0.359706
O O10 0.353952 0.261482 0.479973
O O11 0.500000 0.000000 0.500000
O O12 0.708885 0.237729 0.469827
O O13 0.496911 0.550488 0.840966
O O14 0.807966 0.001118 0.144343
O O15 0.802918 0.972821 0.926100
O O16 0.027605 0.819664 0.863374
O O17 0.500000 0.500000 0.500000
#
# Coordination Sequence:
#
# PCOD8012724 Si02
#       8
#     2   2   2   2   2   2   2   2
#     4  11  23  42  61  91 126 159 196 259 303 353
#     4  11  22  41  63  92 119 165 204 246 296 369
#     4  11  23  40  62  92 122 156 203 258 299 348
#     4  12  23  39  63  91 124 156 203 256 309 341
#     4  11  21  42  66  85 124 165 203 243 298 370
#     4  11  21  41  65  87 123 163 203 243 303 366
#     4  10  21  40  63  86 121 162 200 248 295 359
#     4  11  22  41  66  87 121 166 206 239 302 368
#
# _framework density 20.779004
#
# number of rings (size 3 to 8) (size 9 to 14) (size 15 to 20)
#    0.000    1.000    5.000    4.500    0.000    0.000 
#    0.000    3.750    0.000    0.000    0.000    0.000 
#    0.000    0.000    0.000    0.000    0.000    0.000 
#
# Total GULP energy -198355.214021 kJ/mol
# GULP energy per Si atom -12397.200876 kJ/mol
# Density = 2.073171 g / cm^3
# Si number density = 20.779004 Si / 1000 Ang^3
#
#
#
# Elastic Constant Matrix: (Units=GPa)
#
#
# Indices 1 2 3 4 5 6 
#
# 1 80.7153 25.8411 -3.3184 5.4655 9.2543 -8.5261
# 2 25.8411 116.4829 20.1968 0.9658 11.4992 0.2075
# 3 -3.3184 20.1968 75.3095 -2.8040 6.0161 -4.8507
# 4 5.4655 0.9658 -2.8040 17.9953 -10.6552 1.2010
# 5 9.2543 11.4992 6.0161 -10.6552 26.3641 -4.4207
# 6 -8.5261 0.2075 -4.8507 1.2010 -4.4207 35.9796
#
#
#
# Elastic Compliance Matrix: (Units=1/GPa)
#
#
# Indices 1 2 3 4 5 6 
#
# 1 0.015202 -0.002895 0.001929 -0.008845 -0.007544 0.003248
# 2 -0.002895 0.010111 -0.002706 -0.002338 -0.003976 -0.001520
# 3 0.001929 -0.002706 0.014422 0.000296 -0.002312 0.002123
# 4 -0.008845 -0.002338 0.000296 0.079956 0.036330 -0.000248
# 5 -0.007544 -0.003976 -0.002312 0.036330 0.058170 0.003858
# 6 0.003248 -0.001520 0.002123 -0.000248 0.003858 0.029340
#
#
# Mechanical properties :
#
#
# Convention : Reuss Voigt Hill
#
# Bulk Modulus (GPa) = 30.87370 39.77188 35.32279
# Shear Modulus (GPa) = 22.18838 31.38701 26.78770
#
# Velocity S-wave (km/s) = 3.27131 3.89075 3.59440
# Velocity P-wave (km/s) = 5.39991 6.27423 5.85341
#
# Compressibility (1/GPa) = 0.03239003
#
# Stress axis : x y z
#
# Youngs Moduli (GPa) = 65.78026 98.90210 69.33952
#
# Poissons Ratio (x) = 0.28628 -0.13373
# Poissons Ratio (y) = 0.19041 0.18766
# Poissons Ratio (z) = -0.12687 0.26767
#
# Static dielectric constant tensor:
#      x y z
#    x 4.011090 0.135250 -0.068510 
#    y 0.135250 3.854730 -0.300800 
#    z -0.068510 -0.300800 3.795000 
# 
# 
# High freq. dielectric constant tensor:
#      x y z
#    x 1.833040 -0.006410 -0.000420 
#    y -0.006410 1.805800 -0.006310 
#    z -0.000420 -0.006310 1.800970 
# 
# From -- ./inp_files/185349.got.cif
#   From: 2010.06.25/outbox.cif.g09.slc.cpg/sg2_93_cif.got.tgz:185349.got - 2010.06.27 13:26:56.
