data_PCOD8012163
_publ_section_title
;
Structure prediction by ZEFSAII (Michael W. Deem and Ramdas Pophale) SiO2 
 PCOD8012163
Probable space group: P -1
;
_chemical_formula_sum "Si O2"
_cell_formula_units_Z 16
_cell_length_a 9.059327
_cell_length_b 12.408583
_cell_length_c 15.602824
_cell_angle_alpha 51.234365
_cell_angle_beta 65.113200
_cell_angle_gamma 107.604511
_cell_volume 744.144603
_symmetry_space_group_name_H-M "P -1"
_symmetry_group_IT_number 2
_symmetry_cell_setting 'triclinic'
loop_
_space_group_symop_operation_xyz
x,y,z
-x,-y,-z
loop_
_atom_site_type_symbol
_atom_site_label
_atom_site_fract_x
_atom_site_fract_y
_atom_site_fract_z
Si Si1 0.340542 0.775967 0.702474
Si Si2 0.404453 0.354266 0.693397
Si Si3 0.525705 0.671222 0.000037
Si Si4 0.106517 0.091178 0.061106
Si Si5 0.684818 0.777482 0.713339
Si Si6 0.897565 0.388682 0.869598
Si Si7 0.675508 0.410001 0.454876
Si Si8 0.757418 0.105856 0.180113
O O1 0.537307 0.794302 0.685416
O O2 0.176000 0.740710 0.836732
O O3 0.136843 0.564004 0.793337
O O4 0.500000 0.000000 0.500000
O O5 0.649367 0.431833 0.551768
O O6 0.463193 0.557871 0.580519
O O7 0.346016 0.258344 0.849016
O O8 0.143061 0.164681 0.788041
O O9 0.758691 0.887105 0.899424
O O10 0.646461 0.777853 0.823538
O O11 0.448248 0.462897 0.150226
O O12 0.249594 0.567974 0.133172
O O13 0.014180 0.181596 0.065770
O O14 0.000000 0.000000 0.500000
O O15 0.016267 0.408219 0.741521
O O16 0.696097 0.141260 0.086697
O O17 0.511088 0.160435 0.596267
#
# Coordination Sequence:
#
# PCOD8012163 Si02
#       8
#     2   2   2   2   2   2   2   2
#     4  12  24  40  67  97 131 173 220 258 310 389
#     4   9  20  41  68  96 118 160 224 277 311 384
#     4  11  26  42  63  92 138 174 207 264 326 382
#     4  10  21  41  69  93 124 168 215 269 326 371
#     4  11  26  43  61  95 138 175 212 258 317 385
#     4  12  23  40  63  94 130 172 213 259 314 385
#     4  10  21  39  67  92 122 156 216 274 318 367
#     4  11  22  37  66  92 123 169 214 261 308 383
#
# _framework density 21.501194999999999
#
# number of rings (size 3 to 8) (size 9 to 14) (size 15 to 20)
#    0.000    1.250    3.750    1.875    5.250    0.000 
#    2.250    1.250    0.000    0.000    0.000    0.000 
#    0.000    0.000    0.000    0.000    0.000    0.000 
#
# Total GULP energy -198326.282191 kJ/mol
# GULP energy per Si atom -12395.392637 kJ/mol
# Density = 2.145226 g / cm^3
# Si number density = 21.501195 Si / 1000 Ang^3
#
#
#
# Elastic Constant Matrix: (Units=GPa)
#
#
# Indices 1 2 3 4 5 6 
#
# 1 128.0520 53.4256 40.2824 10.5557 9.3588 1.3985
# 2 53.4256 77.2567 31.5209 21.5811 -8.1317 -12.0424
# 3 40.2824 31.5209 97.4441 22.9836 11.1943 -9.4527
# 4 10.5557 21.5811 22.9836 43.4926 -10.6140 -7.8586
# 5 9.3588 -8.1317 11.1943 -10.6140 31.0394 4.0125
# 6 1.3985 -12.0424 -9.4527 -7.8586 4.0125 37.5459
#
#
#
# Elastic Compliance Matrix: (Units=1/GPa)
#
#
# Indices 1 2 3 4 5 6 
#
# 1 0.012589 -0.009019 -0.002292 0.000921 -0.004596 -0.003255
# 2 -0.009019 0.023434 -0.003018 -0.005059 0.007541 0.005227
# 3 -0.002292 -0.003018 0.015176 -0.007628 -0.008472 0.002247
# 4 0.000921 -0.005059 -0.007628 0.032603 0.012043 0.001960
# 5 -0.004596 0.007541 -0.008472 0.012043 0.042960 -0.001613
# 6 -0.003255 0.005227 0.002247 0.001960 -0.001613 0.029580
#
#
# Mechanical properties :
#
#
# Convention : Reuss Voigt Hill
#
# Bulk Modulus (GPa) = 44.36187 61.46783 52.91485
# Shear Modulus (GPa) = 25.97227 34.25050 30.11139
#
# Velocity S-wave (km/s) = 3.47932 3.99552 3.74632
# Velocity P-wave (km/s) = 6.06778 7.06652 6.58611
#
# Compressibility (1/GPa) = 0.02254188
#
# Stress axis : x y z
#
# Youngs Moduli (GPa) = 79.43716 42.67325 65.89323
#
# Poissons Ratio (x) = 0.38486 0.15100
# Poissons Ratio (y) = 0.71643 0.19886
# Poissons Ratio (z) = 0.18204 0.12878
#
# Static dielectric constant tensor:
#      x y z
#    x 3.675580 -0.233170 0.180070 
#    y -0.233170 3.965300 0.245880 
#    z 0.180070 0.245880 4.233900 
# 
# 
# High freq. dielectric constant tensor:
#      x y z
#    x 1.817630 -0.026210 0.015010 
#    y -0.026210 1.843300 0.019330 
#    z 0.015010 0.019330 1.863590 
# 
# From -- ./inp_files/500025.got.cif
#   From: 2010.06.25/outbox.cif.g09.slc.cpg/sg2_251_cif.got.tgz:500025.got - 2010.06.27 13:26:56.
