data_PCOD8012291
_publ_section_title
;
Structure prediction by ZEFSAII (Michael W. Deem and Ramdas Pophale) SiO2 
 PCOD8012291
Probable space group: P -1
;
_chemical_formula_sum "Si O2"
_cell_formula_units_Z 14
_cell_length_a 8.719078
_cell_length_b 9.059396
_cell_length_c 8.944483
_cell_angle_alpha 67.190651
_cell_angle_beta 82.798320
_cell_angle_gamma 92.838493
_cell_volume 642.403480
_symmetry_space_group_name_H-M "P -1"
_symmetry_group_IT_number 2
_symmetry_cell_setting 'triclinic'
loop_
_space_group_symop_operation_xyz
x,y,z
-x,-y,-z
loop_
_atom_site_type_symbol
_atom_site_label
_atom_site_fract_x
_atom_site_fract_y
_atom_site_fract_z
Si Si1 0.444975 0.671161 0.460531
Si Si2 0.424987 0.857754 0.668776
Si Si3 0.869900 0.981183 0.309611
Si Si4 0.900077 0.775037 0.671494
Si Si5 0.390915 0.329669 0.075737
Si Si6 0.874469 0.432253 0.425648
Si Si7 0.726165 0.740518 0.211592
O O1 0.500000 0.500000 0.500000
O O2 0.431555 0.699808 0.628152
O O3 0.265599 0.675283 0.424733
O O4 0.574967 0.786064 0.309694
O O5 0.252436 0.887761 0.723194
O O6 0.518773 0.819143 0.820844
O O7 0.500000 0.000000 0.500000
O O8 0.039387 0.079898 0.277659
O O9 0.837599 0.848371 0.497572
O O10 0.857499 0.885780 0.188901
O O11 0.759382 0.657976 0.805588
O O12 0.044236 0.672986 0.663480
O O13 0.500000 0.500000 0.000000
O O14 0.326987 0.267403 0.948405
O O15 0.794102 0.573183 0.300000
O O16 0.000000 0.500000 0.500000
#
# Coordination Sequence:
#
# PCOD8012291 Si02
#       7
#     2   2   2   2   2   2   2
#     4  10  21  39  68  96 131 177 229 277 324 408
#     4  12  22  45  73  97 129 184 236 272 337 413
#     4  11  23  44  71 102 133 178 238 283 333 407
#     4  11  24  44  72 100 137 183 228 282 340 409
#     4  12  28  45  68 102 144 181 224 287 354 407
#     4  11  22  38  68 100 131 182 235 274 331 407
#     4  11  24  42  64 102 141 175 224 286 344 405
#
# _framework density 21.793157999999998
#
# number of rings (size 3 to 8) (size 9 to 14) (size 15 to 20)
#    0.000    0.857    5.714    1.714    4.000    1.714 
#    0.000    0.000    0.000    0.000    0.000    0.000 
#    0.000    0.000    0.000    0.000    0.000    0.000 
#
# Total GULP energy -173455.945012 kJ/mol
# GULP energy per Si atom -12389.710358 kJ/mol
# Density = 2.174356 g / cm^3
# Si number density = 21.793158 Si / 1000 Ang^3
#
#
#
# Elastic Constant Matrix: (Units=GPa)
#
#
# Indices 1 2 3 4 5 6 
#
# 1 139.7388 46.9819 55.7695 0.6891 4.6001 -1.1856
# 2 46.9819 121.9359 39.4495 11.2669 10.5803 11.0432
# 3 55.7695 39.4495 93.1469 0.8006 18.3065 6.8196
# 4 0.6891 11.2669 0.8006 28.7038 7.3890 4.0364
# 5 4.6001 10.5803 18.3065 7.3890 46.1505 3.0230
# 6 -1.1856 11.0432 6.8196 4.0364 3.0230 53.6374
#
#
#
# Elastic Compliance Matrix: (Units=1/GPa)
#
#
# Indices 1 2 3 4 5 6 
#
# 1 0.010091 -0.002411 -0.005427 0.000268 0.001571 0.001301
# 2 -0.002411 0.010553 -0.002806 -0.003690 -0.000372 -0.001571
# 3 -0.005427 -0.002806 0.016361 0.002426 -0.005597 -0.001490
# 4 0.000268 -0.003690 0.002426 0.038074 -0.006104 -0.002064
# 5 0.001571 -0.000372 -0.005597 -0.006104 0.024802 -0.000116
# 6 0.001301 -0.001571 -0.001490 -0.002064 -0.000116 0.019347
#
#
# Mechanical properties :
#
#
# Convention : Reuss Voigt Hill
#
# Bulk Modulus (GPa) = 63.62316 71.02482 67.32399
# Shear Modulus (GPa) = 34.30404 39.87307 37.08856
#
# Velocity S-wave (km/s) = 3.97176 4.28204 4.12982
# Velocity P-wave (km/s) = 7.09159 7.55705 7.32802
#
# Compressibility (1/GPa) = 0.01571755
#
# Stress axis : x y z
#
# Youngs Moduli (GPa) = 99.10165 94.75668 61.11949
#
# Poissons Ratio (x) = 0.22847 0.33168
# Poissons Ratio (y) = 0.23895 0.17150
# Poissons Ratio (z) = 0.53780 0.26589
#
# Static dielectric constant tensor:
#      x y z
#    x 4.656370 0.039020 -0.529260 
#    y 0.039020 4.357690 0.144940 
#    z -0.529260 0.144940 3.389070 
# 
# 
# High freq. dielectric constant tensor:
#      x y z
#    x 1.880080 0.011100 0.004750 
#    y 0.011100 1.872320 0.004950 
#    z 0.004750 0.004950 1.811220 
# 
# From -- ./inp_files/156670.got.cif
#   From: 2010.06.25/outbox.cif.g09.slc.cpg/sg2_79_cif.got.tgz:156670.got - 2010.06.27 13:26:56.
