data_PCOD8012942
_publ_section_title
;
Structure prediction by ZEFSAII (Michael W. Deem and Ramdas Pophale) SiO2 
 PCOD8012942
Probable space group: P -1
;
_chemical_formula_sum "Si O2"
_cell_formula_units_Z 14
_cell_length_a 21.958886
_cell_length_b 8.032539
_cell_length_c 13.281959
_cell_angle_alpha 125.168028
_cell_angle_beta 148.841670
_cell_angle_gamma 34.922543
_cell_volume 628.365732
_symmetry_space_group_name_H-M "P -1"
_symmetry_group_IT_number 2
_symmetry_cell_setting 'triclinic'
loop_
_space_group_symop_operation_xyz
x,y,z
-x,-y,-z
loop_
_atom_site_type_symbol
_atom_site_label
_atom_site_fract_x
_atom_site_fract_y
_atom_site_fract_z
Si Si1 0.345122 0.320698 0.458232
Si Si2 0.690780 0.031723 0.627964
Si Si3 0.905610 0.015561 0.771428
Si Si4 0.373202 0.353073 0.976116
Si Si5 0.687869 0.455774 0.827655
Si Si6 0.015894 0.240660 0.425747
Si Si7 0.413644 0.577930 0.795686
O O1 0.219105 0.623702 0.311431
O O2 0.427833 0.338483 0.677413
O O3 0.500000 0.000000 0.500000
O O4 0.222025 0.297589 0.323717
O O5 0.794125 0.986215 0.660594
O O6 0.683750 0.218988 0.768167
O O7 0.475673 0.267483 0.382757
O O8 0.977693 0.823632 0.703861
O O9 0.111885 0.790553 0.035808
O O10 0.165780 0.617089 0.727180
O O11 0.339190 0.371707 0.053206
O O12 0.479104 0.418506 0.127386
O O13 0.500000 0.000000 0.000000
O O14 0.000000 0.500000 0.500000
O O15 0.198843 0.918339 0.628039
O O16 0.500000 0.500000 0.000000
#
# Coordination Sequence:
#
# PCOD8012942 Si02
#       7
#     2   2   2   2   2   2   2
#     4  11  24  43  68  95 133 175 215 264 326 388
#     4  11  22  40  69  91 130 171 210 269 325 373
#     4  10  23  42  63  96 131 164 221 268 312 393
#     4  11  22  39  70  86 124 178 206 261 334 376
#     4  10  22  41  64  97 124 166 224 260 317 394
#     4  10  21  40  64  93 124 172 218 256 320 395
#     4  11  25  42  62  98 134 159 220 275 315 387
#
# _framework density 22.280017000000001
#
# number of rings (size 3 to 8) (size 9 to 14) (size 15 to 20)
#    0.000    1.429    1.429    4.714    2.000    1.143 
#    0.000   10.000    0.000    0.000    0.000    0.000 
#    0.000    0.000    0.000    0.000    0.000    0.000 
#
# Total GULP energy -173439.241782 kJ/mol
# GULP energy per Si atom -12388.517270 kJ/mol
# Density = 2.222931 g / cm^3
# Si number density = 22.280017 Si / 1000 Ang^3
#
#
#
# Elastic Constant Matrix: (Units=GPa)
#
#
# Indices 1 2 3 4 5 6 
#
# 1 108.1006 54.7125 43.9856 -13.9185 14.9590 6.1983
# 2 54.7125 158.2450 53.5991 0.5114 13.3817 -9.4157
# 3 43.9856 53.5991 141.7945 -20.9991 12.6181 -10.1431
# 4 -13.9185 0.5114 -20.9991 34.0915 -6.0407 10.3385
# 5 14.9590 13.3817 12.6181 -6.0407 34.2078 4.3105
# 6 6.1983 -9.4157 -10.1431 10.3385 4.3105 41.6146
#
#
#
# Elastic Compliance Matrix: (Units=1/GPa)
#
#
# Indices 1 2 3 4 5 6 
#
# 1 0.013317 -0.004056 -0.001955 0.005296 -0.002015 -0.004485
# 2 -0.004056 0.008921 -0.002373 -0.004659 -0.002094 0.003418
# 3 -0.001955 -0.002373 0.009390 0.004533 -0.001009 0.001021
# 4 0.005296 -0.004659 0.004533 0.038767 0.006066 -0.010998
# 5 -0.002015 -0.002094 -0.001009 0.006066 0.033051 -0.005350
# 6 -0.004485 0.003418 0.001021 -0.010998 -0.005350 0.029007
#
#
# Mechanical properties :
#
#
# Convention : Reuss Voigt Hill
#
# Bulk Modulus (GPa) = 67.29358 79.19270 73.24314
# Shear Modulus (GPa) = 32.43096 39.03897 35.73497
#
# Velocity S-wave (km/s) = 3.81938 4.19047 4.00922
# Velocity P-wave (km/s) = 7.05120 7.68341 7.37408
#
# Compressibility (1/GPa) = 0.01486026
#
# Stress axis : x y z
#
# Youngs Moduli (GPa) = 75.09363 112.09644 106.49504
#
# Poissons Ratio (x) = 0.45461 0.20820
# Poissons Ratio (y) = 0.30455 0.25273
# Poissons Ratio (z) = 0.14681 0.26602
#
# Static dielectric constant tensor:
#      x y z
#    x 1.475460 0.694390 -0.231270 
#    y 0.694390 4.054890 0.244680 
#    z -0.231270 0.244680 4.731500 
# 
# 
# High freq. dielectric constant tensor:
#      x y z
#    x 1.868750 -0.023070 0.012570 
#    y -0.023070 1.891730 0.008740 
#    z 0.012570 0.008740 1.895220 
# 
# From -- ./inp_files/542586.got.cif
#   From: 2010.06.25/outbox.cif.g09.slc.cpg/sg2_272_cif.got.tgz:542586.got - 2010.06.27 13:26:56.
