data_PCOD8012242
_publ_section_title
;
Structure prediction by ZEFSAII (Michael W. Deem and Ramdas Pophale) SiO2 
 PCOD8012242
Probable space group: P -1
;
_chemical_formula_sum "Si O2"
_cell_formula_units_Z 16
_cell_length_a 8.940051
_cell_length_b 26.715224
_cell_length_c 5.401857
_cell_angle_alpha 98.578306
_cell_angle_beta 124.849071
_cell_angle_gamma 45.425681
_cell_volume 680.612947
_symmetry_space_group_name_H-M "P -1"
_symmetry_group_IT_number 2
_symmetry_cell_setting 'triclinic'
loop_
_space_group_symop_operation_xyz
x,y,z
-x,-y,-z
loop_
_atom_site_type_symbol
_atom_site_label
_atom_site_fract_x
_atom_site_fract_y
_atom_site_fract_z
Si Si1 0.921620 0.987658 0.165565
Si Si2 0.347587 0.143955 0.824263
Si Si3 0.362311 0.679211 0.227547
Si Si4 0.307227 0.567834 0.668587
Si Si5 0.597707 0.176517 0.378423
Si Si6 0.728717 0.526364 0.684392
Si Si7 0.724389 0.245585 0.307211
Si Si8 0.853494 0.728874 0.626900
O O1 0.092070 0.898382 0.264025
O O2 0.000000 0.000000 0.500000
O O3 0.000000 0.000000 0.000000
O O4 0.582219 0.053304 0.893479
O O5 0.312880 0.195510 0.632887
O O6 0.058432 0.175786 0.612071
O O7 0.461870 0.150122 0.176641
O O8 0.596948 0.585258 0.371339
O O9 0.415342 0.699499 0.542721
O O10 0.380546 0.707692 0.012704
O O11 0.063975 0.714695 0.995611
O O12 0.488308 0.573034 0.704819
O O13 0.192343 0.548060 0.363424
O O14 0.027860 0.651947 0.574287
O O15 0.500000 0.500000 0.000000
O O16 0.630495 0.206529 0.193743
O O17 0.384025 0.249457 0.420462
O O18 0.000000 0.500000 0.000000
#
# Coordination Sequence:
#
# PCOD8012242 Si02
#       8
#     2   2   2   2   2   2   2   2
#     4  10  21  39  68 102 137 183 235 283 349 420
#     4  10  22  43  68  97 141 185 229 292 352 407
#     4  11  24  48  68 100 143 182 234 294 352 424
#     4  11  25  46  72 103 138 186 237 295 357 432
#     4  11  24  42  69 102 138 183 237 286 350 424
#     4  11  26  49  71 102 142 186 238 299 367 426
#     4  11  26  42  70 103 137 184 240 286 349 417
#     4  11  22  43  73  93 141 187 230 289 358 416
#
# _framework density 23.508220999999999
#
# number of rings (size 3 to 8) (size 9 to 14) (size 15 to 20)
#    0.000    1.250    3.750    1.500    1.750    3.000 
#    2.250    0.000    0.000    5.250    0.000    0.000 
#    0.000    0.000    0.000    0.000    0.000    0.000 
#
# Total GULP energy -198279.070805 kJ/mol
# GULP energy per Si atom -12392.441925 kJ/mol
# Density = 2.345472 g / cm^3
# Si number density = 23.508221 Si / 1000 Ang^3
#
#
#
# Elastic Constant Matrix: (Units=GPa)
#
#
# Indices 1 2 3 4 5 6 
#
# 1 151.9737 73.4561 46.4487 -15.4197 -8.7006 -4.5061
# 2 73.4561 111.2273 48.1553 -26.0614 2.9206 -18.9165
# 3 46.4487 48.1553 94.4374 -19.2131 -19.5715 -4.4256
# 4 -15.4197 -26.0614 -19.2131 46.3450 2.9430 -1.1390
# 5 -8.7006 2.9206 -19.5715 2.9430 37.3525 0.1796
# 6 -4.5061 -18.9165 -4.4256 -1.1390 0.1796 30.0900
#
#
#
# Elastic Compliance Matrix: (Units=1/GPa)
#
#
# Indices 1 2 3 4 5 6 
#
# 1 0.010380 -0.007201 -0.001375 -0.001397 0.002386 -0.003242
# 2 -0.007201 0.020178 -0.006276 0.007074 -0.007154 0.010994
# 3 -0.001375 -0.006276 0.016670 0.002329 0.008730 -0.001663
# 4 -0.001397 0.007074 0.002329 0.026305 -0.001758 0.005587
# 5 0.002386 -0.007154 0.008730 -0.001758 0.032615 -0.003117
# 6 -0.003242 0.010994 -0.001663 0.005587 -0.003117 0.039645
#
#
# Mechanical properties :
#
#
# Convention : Reuss Voigt Hill
#
# Bulk Modulus (GPa) = 57.06024 77.08426 67.07225
# Shear Modulus (GPa) = 27.57280 35.39606 31.48443
#
# Velocity S-wave (km/s) = 3.42848 3.88453 3.66361
# Velocity P-wave (km/s) = 6.32438 7.27880 6.81831
#
# Compressibility (1/GPa) = 0.01752534
#
# Stress axis : x y z
#
# Youngs Moduli (GPa) = 96.34300 49.55816 59.98626
#
# Poissons Ratio (x) = 0.35686 0.08248
# Poissons Ratio (y) = 0.69375 0.37645
# Poissons Ratio (z) = 0.13247 0.31101
#
# Static dielectric constant tensor:
#      x y z
#    x 4.340640 0.129370 0.675100 
#    y 0.129370 4.884420 0.754720 
#    z 0.675100 0.754720 7.265090 
# 
# 
# High freq. dielectric constant tensor:
#      x y z
#    x 1.924310 -0.011560 -0.006130 
#    y -0.011560 1.929480 -0.016350 
#    z -0.006130 -0.016350 1.935730 
# 
# From -- ./inp_files/56442.got.cif
#   From: 2010.06.25/outbox.cif.g09.slc.cpg/sg2_29_cif.got.tgz:56442.got - 2010.06.27 13:26:56.
