data_PCOD8012899
_publ_section_title
;
Structure prediction by ZEFSAII (Michael W. Deem and Ramdas Pophale) SiO2 
 PCOD8012899
Probable space group: P -1
;
_chemical_formula_sum "Si O2"
_cell_formula_units_Z 14
_cell_length_a 21.402850
_cell_length_b 8.285131
_cell_length_c 7.493050
_cell_angle_alpha 127.800249
_cell_angle_beta 128.133938
_cell_angle_gamma 34.157623
_cell_volume 570.962593
_symmetry_space_group_name_H-M "P -1"
_symmetry_group_IT_number 2
_symmetry_cell_setting 'triclinic'
loop_
_space_group_symop_operation_xyz
x,y,z
-x,-y,-z
loop_
_atom_site_type_symbol
_atom_site_label
_atom_site_fract_x
_atom_site_fract_y
_atom_site_fract_z
Si Si1 0.825199 0.827297 0.735896
Si Si2 0.666471 0.220014 0.415798
Si Si3 0.283947 0.745742 0.858159
Si Si4 0.122267 0.713719 0.429539
Si Si5 0.279925 0.443527 0.175808
Si Si6 0.516418 0.160530 0.010143
Si Si7 0.923822 0.067615 0.072450
O O1 0.883689 0.502150 0.649838
O O2 0.760627 0.929081 0.502928
O O3 0.733429 0.056596 0.883539
O O4 0.922582 0.822435 0.897303
O O5 0.720709 0.130804 0.253538
O O6 0.645212 0.486662 0.634371
O O7 0.547327 0.313457 0.271999
O O8 0.179862 0.771569 0.706490
O O9 0.405122 0.403010 0.857457
O O10 0.201991 0.561115 0.291266
O O11 0.990397 0.021681 0.341912
O O12 0.203808 0.603110 0.966823
O O13 0.371643 0.090794 0.086062
O O14 0.500000 0.000000 0.000000
O O15 0.000000 0.000000 0.000000
#
# Coordination Sequence:
#
# PCOD8012899 Si02
#       7
#     2   2   2   2   2   2   2
#     4  11  22  40  65  92 124 162 204 252 307 363
#     4  10  23  41  60  87 128 163 200 253 303 358
#     4  11  25  41  62  95 126 161 207 249 305 373
#     4  10  21  40  64  90 123 161 205 256 306 361
#     4   9  21  40  62  89 124 164 203 254 310 358
#     4  12  23  38  63  93 124 163 210 250 300 372
#     4   9  19  39  64  91 124 160 203 253 306 365
#
# _framework density 24.519997
#
# number of rings (size 3 to 8) (size 9 to 14) (size 15 to 20)
#    0.000    1.714    0.000    5.143    0.000    6.286 
#    0.000    2.857    0.000   16.286    0.000    0.000 
#    0.000    0.000    0.000    0.000    0.000    0.000 
#
# Total GULP energy -173618.084518 kJ/mol
# GULP energy per Si atom -12401.291751 kJ/mol
# Density = 2.446419 g / cm^3
# Si number density = 24.519997 Si / 1000 Ang^3
#
#
#
# Elastic Constant Matrix: (Units=GPa)
#
#
# Indices 1 2 3 4 5 6 
#
# 1 91.3765 43.6090 60.5775 -12.5809 6.2348 13.7036
# 2 43.6090 144.4181 64.9298 -13.5507 -2.2730 -1.6666
# 3 60.5775 64.9298 154.2732 -28.5556 11.3780 8.4836
# 4 -12.5809 -13.5507 -28.5556 38.0063 2.9152 4.3071
# 5 6.2348 -2.2730 11.3780 2.9152 47.6502 -5.3503
# 6 13.7036 -1.6666 8.4836 4.3071 -5.3503 35.9365
#
#
#
# Elastic Compliance Matrix: (Units=1/GPa)
#
#
# Indices 1 2 3 4 5 6 
#
# 1 0.016585 -0.002929 -0.004444 0.001937 -0.002035 -0.005946
# 2 -0.002929 0.009218 -0.003095 -0.000448 0.001882 0.002609
# 3 -0.004444 -0.003095 0.010997 0.006154 -0.002816 -0.002202
# 4 0.001937 -0.000448 0.006154 0.032529 -0.004496 -0.006780
# 5 -0.002035 0.001882 -0.002816 -0.004496 0.022905 0.005477
# 6 -0.005946 0.002609 -0.002202 -0.006780 0.005477 0.032363
#
#
# Mechanical properties :
#
#
# Convention : Reuss Voigt Hill
#
# Bulk Modulus (GPa) = 63.03350 80.92229 71.97789
# Shear Modulus (GPa) = 33.15191 39.04869 36.10030
#
# Velocity S-wave (km/s) = 3.68099 3.99497 3.84119
# Velocity P-wave (km/s) = 6.62035 7.37251 7.00653
#
# Compressibility (1/GPa) = 0.01586458
#
# Stress axis : x y z
#
# Youngs Moduli (GPa) = 60.29575 108.48552 90.93120
#
# Poissons Ratio (x) = 0.31775 0.40411
# Poissons Ratio (y) = 0.17660 0.28141
# Poissons Ratio (z) = 0.26796 0.33573
#
# Static dielectric constant tensor:
#      x y z
#    x 4.704380 0.107820 -0.008340 
#    y 0.107820 4.297430 -0.302910 
#    z -0.008340 -0.302910 4.884840 
# 
# 
# High freq. dielectric constant tensor:
#      x y z
#    x 2.006310 0.003140 -0.001450 
#    y 0.003140 1.957340 -0.010860 
#    z -0.001450 -0.010860 1.990730 
# 
# From -- ./inp_files/189691.got.cif
#   From: 2010.06.25/outbox.cif.g09.slc.cpg/sg2_95_cif.got.tgz:189691.got - 2010.06.27 13:26:56.
