data_PCOD8012553
_publ_section_title
;
Structure prediction by ZEFSAII (Michael W. Deem and Ramdas Pophale) SiO2 
 PCOD8012553
Probable space group: P -1
;
_chemical_formula_sum "Si O2"
_cell_formula_units_Z 16
_cell_length_a 12.305334
_cell_length_b 15.265245
_cell_length_c 12.504220
_cell_angle_alpha 161.349559
_cell_angle_beta 79.921920
_cell_angle_gamma 95.891915
_cell_volume 724.527576
_symmetry_space_group_name_H-M "P -1"
_symmetry_group_IT_number 2
_symmetry_cell_setting 'triclinic'
loop_
_space_group_symop_operation_xyz
x,y,z
-x,-y,-z
loop_
_atom_site_type_symbol
_atom_site_label
_atom_site_fract_x
_atom_site_fract_y
_atom_site_fract_z
Si Si1 0.081237 0.204450 0.237227
Si Si2 0.377292 0.298045 0.618070
Si Si3 0.023056 0.877446 0.236316
Si Si4 0.882560 0.704584 0.890464
Si Si5 0.657169 0.570193 0.733764
Si Si6 0.425446 0.964297 0.870161
Si Si7 0.149320 0.252403 0.506230
Si Si8 0.548031 0.156315 0.765631
O O1 0.153976 0.165759 0.070746
O O2 0.158140 0.124923 0.237133
O O3 0.004006 0.507965 0.622318
O O4 0.000000 0.000000 0.000000
O O5 0.493283 0.178728 0.402085
O O6 0.272355 0.307613 0.570297
O O7 0.363709 0.089012 0.474649
O O8 0.383110 0.611843 0.020075
O O9 0.111152 0.033401 0.341552
O O10 0.064675 0.548659 0.868733
O O11 0.000000 0.000000 0.500000
O O12 0.908757 0.911934 0.220993
O O13 0.773215 0.573594 0.784251
O O14 0.657723 0.247182 0.331942
O O15 0.552976 0.699946 0.975496
O O16 0.645192 0.740045 0.819393
O O17 0.500000 0.000000 0.000000
O O18 0.500000 0.000000 0.500000
#
# Coordination Sequence:
#
# PCOD8012553 Si02
#       8
#     2   2   2   2   2   2   2   2
#     4  10  21  40  61  88 126 164 203 259 297 364
#     4  10  22  38  61  91 119 153 204 246 293 365
#     4  11  24  43  62  90 128 159 205 259 302 361
#     4  10  23  39  60  92 124 162 209 250 307 365
#     4  10  23  37  60  89 117 158 202 241 298 361
#     4  10  22  40  56  88 123 153 192 245 296 352
#     4  11  23  40  64  92 122 165 205 245 314 365
#     4  10  21  42  62  87 123 157 201 255 297 353
#
# _framework density 22.083354
#
# number of rings (size 3 to 8) (size 9 to 14) (size 15 to 20)
#    0.000    1.750    1.250    1.875    3.500    2.000 
#    0.000    0.000    0.000    0.000    0.000    0.000 
#    0.000    0.000    0.000    0.000    0.000    0.000 
#
# Total GULP energy -198242.010973 kJ/mol
# GULP energy per Si atom -12390.125686 kJ/mol
# Density = 2.203309 g / cm^3
# Si number density = 22.083354 Si / 1000 Ang^3
#
#
#
# Elastic Constant Matrix: (Units=GPa)
#
#
# Indices 1 2 3 4 5 6 
#
# 1 96.0531 21.4064 22.7332 0.4451 38.1027 -13.6810
# 2 21.4064 110.4032 50.7121 -4.1531 12.0431 -11.3651
# 3 22.7332 50.7121 103.6741 6.9375 37.2200 -5.6164
# 4 0.4451 -4.1531 6.9375 43.9815 -5.5635 15.1380
# 5 38.1027 12.0431 37.2200 -5.5635 38.6401 0.1120
# 6 -13.6810 -11.3651 -5.6164 15.1380 0.1120 26.9365
#
#
#
# Elastic Compliance Matrix: (Units=1/GPa)
#
#
# Indices 1 2 3 4 5 6 
#
# 1 0.029310 -0.005644 0.014617 -0.017473 -0.043812 0.025554
# 2 -0.005644 0.013441 -0.010042 0.005177 0.011801 -0.002248
# 3 0.014617 -0.010042 0.028279 -0.017279 -0.041066 0.018965
# 4 -0.017473 0.005177 -0.017279 0.042899 0.038537 -0.034562
# 5 -0.043812 0.011801 -0.041066 0.038537 0.110649 -0.047953
# 6 0.025554 -0.002248 0.018965 -0.034562 -0.047953 0.072732
#
#
# Mechanical properties :
#
#
# Convention : Reuss Voigt Hill
#
# Bulk Modulus (GPa) = 14.51578 55.53710 35.02644
# Shear Modulus (GPa) = 15.50807 36.26353 25.88580
#
# Velocity S-wave (km/s) = 2.65288 4.05671 3.42743
# Velocity P-wave (km/s) = 3.99639 6.86629 5.61770
#
# Compressibility (1/GPa) = 0.06889056
#
# Stress axis : x y z
#
# Youngs Moduli (GPa) = 34.11833 74.40101 35.36145
#
# Poissons Ratio (x) = 0.41995 -0.51686
# Poissons Ratio (y) = 0.19258 0.35509
# Poissons Ratio (z) = -0.49869 0.74712
#
# Static dielectric constant tensor:
#      x y z
#    x 3.788980 -0.308980 0.333370 
#    y -0.308980 4.199490 -0.028690 
#    z 0.333370 -0.028690 3.826260 
# 
# 
# High freq. dielectric constant tensor:
#      x y z
#    x 1.866810 -0.011900 0.022470 
#    y -0.011900 1.871410 0.009410 
#    z 0.022470 0.009410 1.868410 
# 
# From -- ./inp_files/66795.got.cif
#   From: 2010.06.25/outbox.cif.g09.slc.cpg/sg2_34_cif.got.tgz:66795.got - 2010.06.27 13:26:56.
