data_PCOD8012817
_publ_section_title
;
Structure prediction by ZEFSAII (Michael W. Deem and Ramdas Pophale) SiO2 
 PCOD8012817
Probable space group: P -1
;
_chemical_formula_sum "Si O2"
_cell_formula_units_Z 16
_cell_length_a 12.628228
_cell_length_b 11.485563
_cell_length_c 12.084151
_cell_angle_alpha 82.482134
_cell_angle_beta 142.343600
_cell_angle_gamma 69.494525
_cell_volume 702.912673
_symmetry_space_group_name_H-M "P -1"
_symmetry_group_IT_number 2
_symmetry_cell_setting 'triclinic'
loop_
_space_group_symop_operation_xyz
x,y,z
-x,-y,-z
loop_
_atom_site_type_symbol
_atom_site_label
_atom_site_fract_x
_atom_site_fract_y
_atom_site_fract_z
Si Si1 0.270169 0.775247 0.293818
Si Si2 0.577282 0.597931 0.775363
Si Si3 0.298478 0.588755 0.722450
Si Si4 0.718425 0.965412 0.245552
Si Si5 0.529379 0.083578 0.321365
Si Si6 0.403301 0.776127 0.047915
Si Si7 0.941449 0.219197 0.105804
Si Si8 0.292039 0.963110 0.140173
O O1 0.485355 0.611147 0.572773
O O2 0.391839 0.837699 0.344114
O O3 0.183755 0.740346 0.122960
O O4 0.011452 0.925103 0.138158
O O5 0.365160 0.650108 0.676253
O O6 0.608969 0.720695 0.804747
O O7 0.860724 0.393703 0.050068
O O8 0.998969 0.761098 0.486953
O O9 0.500000 0.500000 0.000000
O O10 0.334487 0.435199 0.728970
O O11 0.665954 0.001822 0.326688
O O12 0.700780 0.105680 0.162750
O O13 0.500000 0.000000 0.000000
O O14 0.312345 0.092494 0.158464
O O15 0.746680 0.953829 0.612913
O O16 0.175137 0.804607 0.893010
O O17 0.454684 0.845207 0.179249
#
# Coordination Sequence:
#
# PCOD8012817 Si02
#       8
#     2   2   2   2   2   2   2   2
#     4  10  21  41  70  87 124 169 221 252 320 392
#     4  11  23  41  67  96 124 167 218 258 315 384
#     4  11  24  42  68  96 129 175 221 265 321 386
#     4  12  24  40  64  98 132 173 217 265 326 384
#     4  12  24  40  62  94 135 159 210 272 322 374
#     4  10  21  43  64  91 130 172 217 259 317 389
#     4  10  23  42  65  95 126 168 211 267 317 379
#     4  10  21  40  63  95 123 171 204 266 322 374
#
# _framework density 22.762429999999998
#
# number of rings (size 3 to 8) (size 9 to 14) (size 15 to 20)
#    0.000    1.250    1.250    6.375    0.000    4.000 
#    2.250    3.750    0.000    0.000    0.000    0.000 
#    0.000    0.000    0.000    0.000    0.000    0.000 
#
# Total GULP energy -198327.207558 kJ/mol
# GULP energy per Si atom -12395.450472 kJ/mol
# Density = 2.271062 g / cm^3
# Si number density = 22.762430 Si / 1000 Ang^3
#
#
#
# Elastic Constant Matrix: (Units=GPa)
#
#
# Indices 1 2 3 4 5 6 
#
# 1 107.3440 41.1625 35.0780 1.4782 -16.4015 8.7926
# 2 41.1625 146.4642 36.7019 -12.5650 -0.7429 20.2913
# 3 35.0780 36.7019 76.5605 -7.6717 -10.7956 14.1479
# 4 1.4782 -12.5650 -7.6717 37.7668 -3.6885 -3.4610
# 5 -16.4015 -0.7429 -10.7956 -3.6885 26.9343 -2.7226
# 6 8.7926 20.2913 14.1479 -3.4610 -2.7226 31.3611
#
#
#
# Elastic Compliance Matrix: (Units=1/GPa)
#
#
# Indices 1 2 3 4 5 6 
#
# 1 0.012484 -0.002698 -0.003819 -0.001567 0.005812 0.000300
# 2 -0.002698 0.008899 -0.002469 0.001963 -0.002511 -0.003889
# 3 -0.003819 -0.002469 0.017810 0.002979 0.004684 -0.004631
# 4 -0.001567 0.001963 0.002979 0.028340 0.004309 0.001327
# 5 0.005812 -0.002511 0.004684 0.004309 0.043279 0.002115
# 6 0.000300 -0.003889 -0.004631 0.001327 0.002115 0.036738
#
#
# Mechanical properties :
#
#
# Convention : Reuss Voigt Hill
#
# Bulk Modulus (GPa) = 47.12372 61.80594 54.46483
# Shear Modulus (GPa) = 28.96966 33.70751 31.33858
#
# Velocity S-wave (km/s) = 3.57136 3.85234 3.71451
# Velocity P-wave (km/s) = 6.14439 6.85558 6.50970
#
# Compressibility (1/GPa) = 0.02122073
#
# Stress axis : x y z
#
# Youngs Moduli (GPa) = 80.10574 112.37350 56.14936
#
# Poissons Ratio (x) = 0.30317 0.21444
# Poissons Ratio (y) = 0.21612 0.13861
# Poissons Ratio (z) = 0.30594 0.27740
#
# Static dielectric constant tensor:
#      x y z
#    x 4.318360 -0.032660 -0.211760 
#    y -0.032660 4.389860 -0.230240 
#    z -0.211760 -0.230240 3.831880 
# 
# 
# High freq. dielectric constant tensor:
#      x y z
#    x 1.909310 -0.004300 -0.023370 
#    y -0.004300 1.912580 -0.010540 
#    z -0.023370 -0.010540 1.869360 
# 
# From -- ./inp_files/428251.got.cif
#   From: 2010.06.25/outbox.cif.g09.slc.cpg/sg2_215_cif.got.tgz:428251.got - 2010.06.27 13:26:56.
