data_PCOD8012617
_publ_section_title
;
Structure prediction by ZEFSAII (Michael W. Deem and Ramdas Pophale) SiO2 
 PCOD8012617
Probable space group: P -1
;
_chemical_formula_sum "Si O2"
_cell_formula_units_Z 14
_cell_length_a 22.527358
_cell_length_b 7.037893
_cell_length_c 14.381632
_cell_angle_alpha 65.454403
_cell_angle_beta 21.029119
_cell_angle_gamma 77.274394
_cell_volume 638.848865
_symmetry_space_group_name_H-M "P -1"
_symmetry_group_IT_number 2
_symmetry_cell_setting 'triclinic'
loop_
_space_group_symop_operation_xyz
x,y,z
-x,-y,-z
loop_
_atom_site_type_symbol
_atom_site_label
_atom_site_fract_x
_atom_site_fract_y
_atom_site_fract_z
Si Si1 0.695602 0.454753 0.141114
Si Si2 0.285844 0.312493 0.258008
Si Si3 0.717524 0.485809 0.591648
Si Si4 0.522543 0.793142 0.311193
Si Si5 0.823317 0.532323 0.231297
Si Si6 0.041241 0.772785 0.691401
Si Si7 0.228472 0.656972 0.141202
O O1 0.607640 0.619603 0.210506
O O2 0.576892 0.251508 0.433572
O O3 0.684912 0.309568 0.094585
O O4 0.917716 0.631135 0.810816
O O5 0.199802 0.321519 0.483455
O O6 0.309085 0.531471 0.116641
O O7 0.143839 0.059885 0.465925
O O8 0.488335 0.326489 0.972140
O O9 0.771542 0.623389 0.383972
O O10 0.802234 0.306451 0.503790
O O11 0.363217 0.721899 0.477523
O O12 0.692033 0.071196 0.992123
O O13 0.000000 0.500000 0.000000
O O14 0.892945 0.720552 0.005081
O O15 0.000000 0.500000 0.500000
#
# Coordination Sequence:
#
# PCOD8012617 Si02
#       7
#     2   2   2   2   2   2   2
#     4  10  22  41  65  88 116 159 201 244 299 350
#     4  11  24  37  58  90 121 160 198 239 303 360
#     4  10  22  40  58  86 122 158 201 246 296 352
#     4  10  22  42  64  88 120 156 201 250 293 351
#     4   9  20  39  64  87 113 157 201 245 297 342
#     4  10  21  40  62  87 119 154 201 251 294 351
#     4  12  25  39  60  92 125 158 197 243 299 359
#
# _framework density 21.914415999999999
#
# number of rings (size 3 to 8) (size 9 to 14) (size 15 to 20)
#    0.000    1.714    0.000    3.429    0.000   10.857 
#    0.000   12.857    0.000    0.000    0.000    0.000 
#    0.000    0.000    0.000    0.000    0.000    0.000 
#
# Total GULP energy -173575.115609 kJ/mol
# GULP energy per Si atom -12398.222543 kJ/mol
# Density = 2.186454 g / cm^3
# Si number density = 21.914416 Si / 1000 Ang^3
#
#
#
# Elastic Constant Matrix: (Units=GPa)
#
#
# Indices 1 2 3 4 5 6 
#
# 1 106.0333 26.8053 29.6811 9.2442 -7.3486 9.3787
# 2 26.8053 71.9222 39.5859 -4.6928 -2.1712 2.7502
# 3 29.6811 39.5859 93.0952 -3.2673 -16.4493 -1.3401
# 4 9.2442 -4.6928 -3.2673 39.7433 12.5430 7.2831
# 5 -7.3486 -2.1712 -16.4493 12.5430 38.6329 8.3403
# 6 9.3787 2.7502 -1.3401 7.2831 8.3403 26.2659
#
#
#
# Elastic Compliance Matrix: (Units=1/GPa)
#
#
# Indices 1 2 3 4 5 6 
#
# 1 0.011686 -0.003265 -0.001951 -0.003553 0.003219 -0.003967
# 2 -0.003265 0.019632 -0.007873 0.003862 -0.003880 -0.001130
# 3 -0.001951 -0.007873 0.015765 -0.001253 0.006150 0.000720
# 4 -0.003553 0.003862 -0.001253 0.030269 -0.009856 -0.004463
# 5 0.003219 -0.003880 0.006150 -0.009856 0.033926 -0.008469
# 6 -0.003967 -0.001130 0.000720 -0.004463 -0.008469 0.043571
#
#
# Mechanical properties :
#
#
# Convention : Reuss Voigt Hill
#
# Bulk Modulus (GPa) = 47.83445 51.46614 49.65030
# Shear Modulus (GPa) = 26.59642 32.59363 29.59503
#
# Velocity S-wave (km/s) = 3.48753 3.86076 3.67888
# Velocity P-wave (km/s) = 6.17190 6.58862 6.38366
#
# Compressibility (1/GPa) = 0.02090544
#
# Stress axis : x y z
#
# Youngs Moduli (GPa) = 85.57179 50.93652 63.43306
#
# Poissons Ratio (x) = 0.16629 0.12374
# Poissons Ratio (y) = 0.27937 0.49944
# Poissons Ratio (z) = 0.16692 0.40105
#
# Static dielectric constant tensor:
#      x y z
#    x 4.406870 0.228830 0.151030 
#    y 0.228830 3.670020 0.257450 
#    z 0.151030 0.257450 4.110930 
# 
# 
# High freq. dielectric constant tensor:
#      x y z
#    x 1.879040 0.010820 -0.004960 
#    y 0.010820 1.838030 0.015010 
#    z -0.004960 0.015010 1.867030 
# 
# From -- ./inp_files/38701.got.cif
#   From: 2010.06.25/outbox.cif.g09.slc.cpg/sg2_20_cif.got.tgz:38701.got - 2010.06.27 13:26:56.
