data_PCOD8012578
_publ_section_title
;
Structure prediction by ZEFSAII (Michael W. Deem and Ramdas Pophale) SiO2 
 PCOD8012578
Probable space group: P -1
;
_chemical_formula_sum "Si O2"
_cell_formula_units_Z 14
_cell_length_a 17.694889
_cell_length_b 10.969535
_cell_length_c 9.878899
_cell_angle_alpha 66.695332
_cell_angle_beta 132.403821
_cell_angle_gamma 149.591346
_cell_volume 621.682304
_symmetry_space_group_name_H-M "P -1"
_symmetry_group_IT_number 2
_symmetry_cell_setting 'triclinic'
loop_
_space_group_symop_operation_xyz
x,y,z
-x,-y,-z
loop_
_atom_site_type_symbol
_atom_site_label
_atom_site_fract_x
_atom_site_fract_y
_atom_site_fract_z
Si Si1 0.190191 0.748616 0.284990
Si Si2 0.681540 0.364312 0.377535
Si Si3 0.459859 0.506459 0.798889
Si Si4 0.146490 0.932451 0.622647
Si Si5 0.752556 0.154612 0.999230
Si Si6 0.750612 0.741691 0.810313
Si Si7 0.625274 0.848865 0.454018
O O1 0.262662 0.676589 0.417767
O O2 0.933443 0.464141 0.135636
O O3 0.336113 0.998079 0.452743
O O4 0.218890 0.834694 0.131708
O O5 0.578360 0.379765 0.308924
O O6 0.890169 0.640458 0.421302
O O7 0.497918 0.089109 0.177840
O O8 0.661600 0.695782 0.865986
O O9 0.242674 0.190129 0.619525
O O10 0.500000 0.500000 0.000000
O O11 0.211681 0.944890 0.840394
O O12 0.250501 0.963495 0.614103
O O13 0.720094 0.814917 0.624762
O O14 0.627354 0.463885 0.743286
O O15 0.000000 0.000000 0.000000
#
# Coordination Sequence:
#
# PCOD8012578 Si02
#       7
#     2   2   2   2   2   2   2
#     4  10  23  42  64  92 133 178 213 277 324 393
#     4  11  22  39  65  98 129 171 222 268 333 385
#     4  11  22  41  68  96 131 166 219 280 321 387
#     4  10  23  40  65  96 131 171 217 277 328 389
#     4  10  21  40  61  92 129 169 224 266 319 390
#     4  10  24  44  68  96 133 177 221 266 335 396
#     4  10  23  44  65  97 135 170 221 268 331 395
#
# _framework density 22.519541
#
# number of rings (size 3 to 8) (size 9 to 14) (size 15 to 20)
#    0.000    1.714    1.429    1.714    2.000    3.429 
#    5.143    1.429    0.000    0.000    0.000    0.000 
#    0.000    0.000    0.000    0.000    0.000    0.000 
#
# Total GULP energy -173479.577815 kJ/mol
# GULP energy per Si atom -12391.398415 kJ/mol
# Density = 2.246829 g / cm^3
# Si number density = 22.519541 Si / 1000 Ang^3
#
#
#
# Elastic Constant Matrix: (Units=GPa)
#
#
# Indices 1 2 3 4 5 6 
#
# 1 88.6724 60.3379 52.2732 4.6792 -11.2443 7.0765
# 2 60.3379 140.6517 69.5971 26.3214 4.7676 18.0357
# 3 52.2732 69.5971 125.0307 26.4982 3.4520 14.0316
# 4 4.6792 26.3214 26.4982 56.6354 8.1493 8.8988
# 5 -11.2443 4.7676 3.4520 8.1493 30.4985 8.7093
# 6 7.0765 18.0357 14.0316 8.8988 8.7093 28.7491
#
#
#
# Elastic Compliance Matrix: (Units=1/GPa)
#
#
# Indices 1 2 3 4 5 6 
#
# 1 0.019983 -0.006526 -0.005386 0.002922 0.008714 -0.001740
# 2 -0.006526 0.012522 -0.003206 -0.002964 -0.002335 -0.003060
# 3 -0.005386 -0.003206 0.013021 -0.003713 -0.001568 -0.001394
# 4 0.002922 -0.002964 -0.003713 0.021392 -0.002964 -0.002771
# 5 0.008714 -0.002335 -0.001568 -0.002964 0.040558 -0.011284
# 6 -0.001740 -0.003060 -0.001394 -0.002771 -0.011284 0.042088
#
#
# Mechanical properties :
#
#
# Convention : Reuss Voigt Hill
#
# Bulk Modulus (GPa) = 65.40533 79.86348 72.63441
# Shear Modulus (GPa) = 27.04211 34.65304 30.84757
#
# Velocity S-wave (km/s) = 3.46906 3.92701 3.70511
# Velocity P-wave (km/s) = 6.71957 7.49019 7.11532
#
# Compressibility (1/GPa) = 0.01528927
#
# Stress axis : x y z
#
# Youngs Moduli (GPa) = 50.04172 79.86055 76.79935
#
# Poissons Ratio (x) = 0.52120 0.41367
# Poissons Ratio (y) = 0.32659 0.24619
# Poissons Ratio (z) = 0.26955 0.25600
#
# Static dielectric constant tensor:
#      x y z
#    x 3.576620 0.034590 -0.137620 
#    y 0.034590 4.673480 0.321850 
#    z -0.137620 0.321850 4.405660 
# 
# 
# High freq. dielectric constant tensor:
#      x y z
#    x 1.838110 0.005380 -0.007840 
#    y 0.005380 1.923940 0.012530 
#    z -0.007840 0.012530 1.893650 
# 
# From -- ./inp_files/333159.got.cif
#   From: 2010.06.25/outbox.cif.g09.slc.cpg/sg2_167_cif.got.tgz:333159.got - 2010.06.27 13:26:56.
