data_PCOD8012142
_publ_section_title
;
Structure prediction by ZEFSAII (Michael W. Deem and Ramdas Pophale) SiO2 
 PCOD8012142
Probable space group: P -1
;
_chemical_formula_sum "Si O2"
_cell_formula_units_Z 14
_cell_length_a 24.951349
_cell_length_b 7.754028
_cell_length_c 10.981831
_cell_angle_alpha 61.343301
_cell_angle_beta 149.464617
_cell_angle_gamma 138.519864
_cell_volume 622.302490
_symmetry_space_group_name_H-M "P -1"
_symmetry_group_IT_number 2
_symmetry_cell_setting 'triclinic'
loop_
_space_group_symop_operation_xyz
x,y,z
-x,-y,-z
loop_
_atom_site_type_symbol
_atom_site_label
_atom_site_fract_x
_atom_site_fract_y
_atom_site_fract_z
Si Si1 0.497946 0.333276 0.256072
Si Si2 0.184534 0.783828 0.920754
Si Si3 0.830916 0.734202 0.695149
Si Si4 0.900051 0.160195 0.501761
Si Si5 0.835024 0.289750 0.818454
Si Si6 0.533402 0.800245 0.246819
Si Si7 0.365692 0.947142 0.904570
O O1 0.689751 0.587622 0.565791
O O2 0.442760 0.471410 0.147141
O O3 0.473187 0.251491 0.091479
O O4 0.377620 0.017638 0.201859
O O5 0.132408 0.889576 0.690942
O O6 0.088190 0.450290 0.805226
O O7 0.144705 0.773660 0.985980
O O8 0.795321 0.463753 0.678525
O O9 0.824976 0.864090 0.519779
O O10 0.000000 0.000000 0.000000
O O11 0.817812 0.249229 0.359549
O O12 0.685350 0.968121 0.574305
O O13 0.000000 0.500000 0.000000
O O14 0.410009 0.780835 0.076625
O O15 0.607155 0.992629 0.204552
#
# Coordination Sequence:
#
# PCOD8012142 Si02
#       7
#     2   2   2   2   2   2   2
#     4  11  23  43  70 100 141 179 232 285 338 420
#     4  10  24  43  68 100 144 180 224 290 359 390
#     4  12  23  43  75 102 130 187 235 272 348 413
#     4  10  21  44  69 103 134 181 235 285 335 422
#     4  12  25  45  66 102 142 183 232 292 342 419
#     4  11  22  37  66 103 135 179 229 278 343 403
#     4  10  21  39  67 100 137 177 230 282 336 407
#
# _framework density 22.497098000000001
#
# number of rings (size 3 to 8) (size 9 to 14) (size 15 to 20)
#    0.000    1.143    4.286    2.143    2.000    1.143 
#    0.000    5.714    0.000    0.000    0.000    0.000 
#    0.000    0.000    0.000    0.000    0.000    0.000 
#
# Total GULP energy -173436.811279 kJ/mol
# GULP energy per Si atom -12388.343663 kJ/mol
# Density = 2.244589 g / cm^3
# Si number density = 22.497098 Si / 1000 Ang^3
#
#
#
# Elastic Constant Matrix: (Units=GPa)
#
#
# Indices 1 2 3 4 5 6 
#
# 1 119.9686 57.1498 52.2635 -12.4570 -13.3591 7.8929
# 2 57.1498 97.7620 47.8561 10.7936 16.7032 1.3551
# 3 52.2635 47.8561 104.5785 11.7919 0.1566 9.7710
# 4 -12.4570 10.7936 11.7919 34.7813 1.0819 3.4429
# 5 -13.3591 16.7032 0.1566 1.0819 36.9402 -0.2357
# 6 7.8929 1.3551 9.7710 3.4429 -0.2357 53.6772
#
#
#
# Elastic Compliance Matrix: (Units=1/GPa)
#
#
# Indices 1 2 3 4 5 6 
#
# 1 0.019020 -0.011900 -0.005234 0.012133 0.011912 -0.002270
# 2 -0.011900 0.022274 -0.003336 -0.009840 -0.014058 0.002364
# 3 -0.005234 -0.003336 0.014468 -0.005595 -0.000291 -0.001422
# 4 0.012133 -0.009840 -0.005595 0.038096 0.007727 -0.002927
# 5 0.011912 -0.014058 -0.000291 0.007727 0.037499 -0.001675
# 6 -0.002270 0.002364 -0.001422 -0.002927 -0.001675 0.019343
#
#
# Mechanical properties :
#
#
# Convention : Reuss Voigt Hill
#
# Bulk Modulus (GPa) = 67.46265 70.76087 69.11176
# Shear Modulus (GPa) = 25.43469 36.08240 30.75855
#
# Velocity S-wave (km/s) = 3.36605 4.00918 3.70161
# Velocity P-wave (km/s) = 6.72008 7.27688 7.00401
#
# Compressibility (1/GPa) = 0.01482302
#
# Stress axis : x y z
#
# Youngs Moduli (GPa) = 52.57611 44.89532 69.11598
#
# Poissons Ratio (x) = 0.53426 0.36173
# Poissons Ratio (y) = 0.62566 0.23057
# Poissons Ratio (z) = 0.27516 0.14977
#
# Static dielectric constant tensor:
#      x y z
#    x 4.304790 -0.083800 0.241200 
#    y -0.083800 4.133560 0.028750 
#    z 0.241200 0.028750 4.371700 
# 
# 
# High freq. dielectric constant tensor:
#      x y z
#    x 1.875720 0.009060 -0.004210 
#    y 0.009060 1.870770 0.019460 
#    z -0.004210 0.019460 1.895480 
# 
# From -- ./inp_files/476224.got.cif
#   From: 2010.06.25/outbox.cif.g09.slc.cpg/sg2_239_cif.got.tgz:476224.got - 2010.06.27 13:26:56.
