data_PCOD8012532
_publ_section_title
;
Structure prediction by ZEFSAII (Michael W. Deem and Ramdas Pophale) SiO2 
 PCOD8012532
Probable space group: P -1
;
_chemical_formula_sum "Si O2"
_cell_formula_units_Z 14
_cell_length_a 10.650446
_cell_length_b 19.765809
_cell_length_c 11.859034
_cell_angle_alpha 41.498280
_cell_angle_beta 35.266730
_cell_angle_gamma 29.707547
_cell_volume 707.388994
_symmetry_space_group_name_H-M "P -1"
_symmetry_group_IT_number 2
_symmetry_cell_setting 'triclinic'
loop_
_space_group_symop_operation_xyz
x,y,z
-x,-y,-z
loop_
_atom_site_type_symbol
_atom_site_label
_atom_site_fract_x
_atom_site_fract_y
_atom_site_fract_z
Si Si1 0.017211 0.288563 0.962791
Si Si2 0.226206 0.154275 0.214157
Si Si3 0.152877 0.016700 0.962185
Si Si4 0.222891 0.562832 0.699841
Si Si5 0.601455 0.856263 0.351465
Si Si6 0.228293 0.445761 0.066885
Si Si7 0.347120 0.767779 0.799903
O O1 0.907076 0.435809 0.889026
O O2 0.255990 0.224160 0.769709
O O3 0.734325 0.310159 0.108527
O O4 0.172191 0.187114 0.081490
O O5 0.953809 0.278618 0.334105
O O6 0.519938 0.127300 0.067255
O O7 0.289776 0.013338 0.362146
O O8 0.183091 0.128058 0.765767
O O9 0.949940 0.075983 0.148697
O O10 0.000000 0.000000 0.000000
O O11 0.500000 0.500000 0.500000
O O12 0.018920 0.556268 0.782466
O O13 0.334296 0.472241 0.844810
O O14 0.560452 0.769983 0.565488
O O15 0.500337 0.303401 0.103194
#
# Coordination Sequence:
#
# PCOD8012532 Si02
#       7
#     2   2   2   2   2   2   2
#     4  10  21  40  61  84 125 164 196 251 298 340
#     4   9  20  42  60  89 123 149 207 250 290 364
#     4   9  20  39  58  86 121 159 190 249 302 343
#     4  10  22  43  65  88 115 162 202 251 302 347
#     4   9  22  37  59  94 118 156 200 244 298 366
#     4  10  23  41  61  90 124 155 207 248 288 368
#     4  11  22  38  59  92 123 159 198 242 307 356
#
# _framework density 19.791091999999999
#
# number of rings (size 3 to 8) (size 9 to 14) (size 15 to 20)
#    0.857    1.429    0.000    1.714    0.000    6.286 
#   10.286    0.000    0.000    0.000    0.000    0.000 
#    0.000    0.000    0.000    0.000    0.000    0.000 
#
# Total GULP energy -173511.497632 kJ/mol
# GULP energy per Si atom -12393.678402 kJ/mol
# Density = 1.974605 g / cm^3
# Si number density = 19.791092 Si / 1000 Ang^3
#
#
#
# Elastic Constant Matrix: (Units=GPa)
#
#
# Indices 1 2 3 4 5 6 
#
# 1 116.9739 34.1749 52.0720 7.2592 7.1524 -2.6103
# 2 34.1749 88.4749 58.4019 16.0350 10.2842 0.7474
# 3 52.0720 58.4019 125.1479 15.7900 5.9942 1.4291
# 4 7.2592 16.0350 15.7900 29.3163 1.0269 3.8215
# 5 7.1524 10.2842 5.9942 1.0269 17.9283 -2.6750
# 6 -2.6103 0.7474 1.4291 3.8215 -2.6750 37.0700
#
#
#
# Elastic Compliance Matrix: (Units=1/GPa)
#
#
# Indices 1 2 3 4 5 6 
#
# 1 0.010775 -0.001501 -0.003707 0.000122 -0.002091 0.000768
# 2 -0.001501 0.018271 -0.006836 -0.005664 -0.007295 -0.000153
# 3 -0.003707 -0.006836 0.012965 -0.002327 0.001154 -0.000300
# 4 0.000122 -0.005664 -0.002327 0.038874 0.001199 -0.003708
# 5 -0.002091 -0.007295 0.001154 0.001199 0.060973 0.004232
# 6 0.000768 -0.000153 -0.000300 -0.003708 0.004232 0.027732
#
#
# Mechanical properties :
#
#
# Convention : Reuss Voigt Hill
#
# Bulk Modulus (GPa) = 55.79422 68.87713 62.33567
# Shear Modulus (GPa) = 25.04366 29.25944 27.15155
#
# Velocity S-wave (km/s) = 3.56111 3.84919 3.70795
# Velocity P-wave (km/s) = 6.72022 7.39139 7.06378
#
# Compressibility (1/GPa) = 0.01792300
#
# Stress axis : x y z
#
# Youngs Moduli (GPa) = 92.80771 54.73300 77.13138
#
# Poissons Ratio (x) = 0.08213 0.28593
# Poissons Ratio (y) = 0.13927 0.52727
# Poissons Ratio (z) = 0.34405 0.37415
#
# Static dielectric constant tensor:
#      x y z
#    x 3.671930 0.056360 -0.045830 
#    y 0.056360 3.631040 0.069180 
#    z -0.045830 0.069180 3.319490 
# 
# 
# High freq. dielectric constant tensor:
#      x y z
#    x 1.779490 0.008290 -0.000090 
#    y 0.008290 1.774950 0.009670 
#    z -0.000090 0.009670 1.751890 
# 
# From -- ./inp_files/71846.got.cif
#   From: 2010.06.25/outbox.cif.g09.slc.cpg/sg2_36_cif.got.tgz:71846.got - 2010.06.27 13:26:56.
