data_PCOD8012073
_publ_section_title
;
Structure prediction by ZEFSAII (Michael W. Deem and Ramdas Pophale) SiO2 
 PCOD8012073
Probable space group: P -1
;
_chemical_formula_sum "Si O2"
_cell_formula_units_Z 16
_cell_length_a 8.639215
_cell_length_b 18.075136
_cell_length_c 11.711332
_cell_angle_alpha 132.839288
_cell_angle_beta 138.928119
_cell_angle_gamma 43.618555
_cell_volume 791.723559
_symmetry_space_group_name_H-M "P -1"
_symmetry_group_IT_number 2
_symmetry_cell_setting 'triclinic'
loop_
_space_group_symop_operation_xyz
x,y,z
-x,-y,-z
loop_
_atom_site_type_symbol
_atom_site_label
_atom_site_fract_x
_atom_site_fract_y
_atom_site_fract_z
Si Si1 0.586551 0.269455 0.440438
Si Si2 0.819880 0.123102 0.073097
Si Si3 0.646874 0.484918 0.448632
Si Si4 0.988306 0.744951 0.523038
Si Si5 0.497242 0.269132 0.837940
Si Si6 0.424687 0.122670 0.042653
Si Si7 0.241762 0.493371 0.054498
Si Si8 0.165174 0.733860 0.192645
O O1 0.348404 0.396173 0.450418
O O2 0.459287 0.191488 0.241153
O O3 0.709154 0.230775 0.593058
O O4 0.818728 0.266712 0.486416
O O5 0.604009 0.120846 0.035741
O O6 0.004628 0.168197 0.288250
O O7 0.677197 0.204665 0.975632
O O8 0.000000 0.000000 0.000000
O O9 0.500000 0.500000 0.500000
O O10 0.492829 0.454497 0.233399
O O11 0.929362 0.378056 0.502281
O O12 0.691518 0.789446 0.360445
O O13 0.680625 0.262575 0.829011
O O14 0.309964 0.399177 0.897312
O O15 0.131108 0.174787 0.888745
O O16 0.500000 0.000000 0.000000
O O17 0.169598 0.612632 0.081718
O O18 0.000000 0.500000 0.000000
#
# Coordination Sequence:
#
# PCOD8012073 Si02
#       8
#     2   2   2   2   2   2   2   2
#     4   9  21  40  62  93 121 165 214 256 315 376
#     4  11  24  44  68  94 125 167 221 264 314 380
#     4   9  17  34  60  94 120 157 209 256 309 372
#     4  10  21  39  66  91 125 165 215 261 313 379
#     4  12  24  40  62  96 132 167 206 264 324 379
#     4  11  24  43  68  92 123 171 214 264 316 374
#     4  11  21  38  64  92 130 170 213 259 312 382
#     4  11  25  40  60  96 133 164 208 260 322 382
#
# _framework density 20.209074999999999
#
# number of rings (size 3 to 8) (size 9 to 14) (size 15 to 20)
#    0.000    1.500    1.250    4.875    5.250    3.000 
#    0.000    1.250    0.000    0.000    0.000    0.000 
#    0.000    0.000    0.000    0.000    0.000    0.000 
#
# Total GULP energy -198413.495342 kJ/mol
# GULP energy per Si atom -12400.843459 kJ/mol
# Density = 2.016308 g / cm^3
# Si number density = 20.209075 Si / 1000 Ang^3
#
#
#
# Elastic Constant Matrix: (Units=GPa)
#
#
# Indices 1 2 3 4 5 6 
#
# 1 87.1743 25.8227 38.1117 4.8883 -15.8574 7.0278
# 2 25.8227 95.2846 39.4861 8.8725 -18.5500 5.0208
# 3 38.1117 39.4861 114.7379 11.3586 -21.7897 5.8036
# 4 4.8883 8.8725 11.3586 30.3515 2.2546 -5.7061
# 5 -15.8574 -18.5500 -21.7897 2.2546 25.9157 0.6182
# 6 7.0278 5.0208 5.8036 -5.7061 0.6182 33.9899
#
#
#
# Elastic Compliance Matrix: (Units=1/GPa)
#
#
# Indices 1 2 3 4 5 6 
#
# 1 0.014505 -0.001283 -0.002990 -0.001770 0.005662 -0.002699
# 2 -0.001283 0.013759 -0.002407 -0.003869 0.007427 -0.002141
# 3 -0.002990 -0.002407 0.012476 -0.004413 0.007370 -0.002031
# 4 -0.001770 -0.003869 -0.004413 0.038408 -0.011104 0.008341
# 5 0.005662 0.007427 0.007370 -0.011104 0.054683 -0.006385
# 6 -0.002699 -0.002141 -0.002031 0.008341 -0.006385 0.032158
#
#
# Mechanical properties :
#
#
# Convention : Reuss Voigt Hill
#
# Bulk Modulus (GPa) = 36.52098 56.00419 46.26258
# Shear Modulus (GPa) = 26.52872 30.96984 28.74928
#
# Velocity S-wave (km/s) = 3.62707 3.91893 3.77582
# Velocity P-wave (km/s) = 5.97090 6.94621 6.47694
#
# Compressibility (1/GPa) = 0.02738152
#
# Stress axis : x y z
#
# Youngs Moduli (GPa) = 68.94141 72.67943 80.15241
#
# Poissons Ratio (x) = 0.09323 0.23962
# Poissons Ratio (y) = 0.08843 0.19294
# Poissons Ratio (z) = 0.20610 0.17495
#
# Static dielectric constant tensor:
#      x y z
#    x 3.550000 0.003580 -0.175490 
#    y 0.003580 4.044680 0.100150 
#    z -0.175490 0.100150 3.959730 
# 
# 
# High freq. dielectric constant tensor:
#      x y z
#    x 1.777290 0.004000 -0.011030 
#    y 0.004000 1.793220 -0.003550 
#    z -0.011030 -0.003550 1.805290 
# 
# From -- ./inp_files/273805.got.cif
#   From: 2010.06.25/outbox.cif.g09.slc.cpg/sg2_137_cif.got.tgz:273805.got - 2010.06.27 13:26:56.
