data_PCOD8012266
_publ_section_title
;
Structure prediction by ZEFSAII (Michael W. Deem and Ramdas Pophale) SiO2 
 PCOD8012266
Probable space group: P -1
;
_chemical_formula_sum "Si O2"
_cell_formula_units_Z 16
_cell_length_a 8.905243
_cell_length_b 11.937495
_cell_length_c 9.834268
_cell_angle_alpha 99.933368
_cell_angle_beta 83.654027
_cell_angle_gamma 132.646205
_cell_volume 757.421140
_symmetry_space_group_name_H-M "P -1"
_symmetry_group_IT_number 2
_symmetry_cell_setting 'triclinic'
loop_
_space_group_symop_operation_xyz
x,y,z
-x,-y,-z
loop_
_atom_site_type_symbol
_atom_site_label
_atom_site_fract_x
_atom_site_fract_y
_atom_site_fract_z
Si Si1 0.551029 0.858527 0.026090
Si Si2 0.117781 0.635402 0.910120
Si Si3 0.576374 0.448717 0.591371
Si Si4 0.366286 0.908022 0.279058
Si Si5 0.990245 0.394739 0.373595
Si Si6 0.073970 0.841065 0.084131
Si Si7 0.393288 0.350222 0.885027
Si Si8 0.414595 0.805804 0.516232
O O1 0.515316 0.951582 0.145766
O O2 0.541578 0.740876 0.092560
O O3 0.362981 0.748173 0.916817
O O4 0.760456 0.980241 0.945182
O O5 0.027120 0.551887 0.758122
O O6 0.054706 0.734862 0.950240
O O7 0.000000 0.500000 0.000000
O O8 0.500000 0.500000 0.500000
O O9 0.453012 0.401145 0.733224
O O10 0.552738 0.312305 0.496946
O O11 0.816589 0.591585 0.630015
O O12 0.145494 0.818149 0.214073
O O13 0.382469 0.810316 0.359709
O O14 0.401081 0.038634 0.393563
O O15 0.774945 0.227070 0.394194
O O16 0.000000 0.500000 0.500000
O O17 0.851404 0.779426 0.112079
O O18 0.500000 0.500000 0.000000
#
# Coordination Sequence:
#
# PCOD8012266 Si02
#       8
#     2   2   2   2   2   2   2   2
#     4  11  22  43  67  96 135 168 224 276 331 391
#     4  11  22  39  67  97 128 167 224 279 327 386
#     4  11  25  43  63  93 135 173 212 272 330 399
#     4  10  21  39  68  93 124 167 216 275 317 390
#     4  10  22  37  63  92 125 164 219 264 330 376
#     4  11  24  38  67  94 133 173 223 264 340 385
#     4  12  26  44  64  96 135 179 221 269 331 401
#     4  10  21  41  65  93 127 165 219 267 328 384
#
# _framework density 21.124310999999999
#
# number of rings (size 3 to 8) (size 9 to 14) (size 15 to 20)
#    0.000    1.250    1.250    5.625    7.000    4.000 
#    0.000    3.125    0.000    0.000    0.000    0.000 
#    0.000    0.000    0.000    0.000    0.000    0.000 
#
# Total GULP energy -198260.627219 kJ/mol
# GULP energy per Si atom -12391.289201 kJ/mol
# Density = 2.107623 g / cm^3
# Si number density = 21.124311 Si / 1000 Ang^3
#
#
#
# Elastic Constant Matrix: (Units=GPa)
#
#
# Indices 1 2 3 4 5 6 
#
# 1 127.1713 44.4117 60.4688 -5.4921 10.2786 10.4258
# 2 44.4117 92.1564 42.5775 -2.8986 1.7015 1.6180
# 3 60.4688 42.5775 141.6653 -1.9119 20.8541 7.1070
# 4 -5.4921 -2.8986 -1.9119 33.5583 2.8446 -5.3270
# 5 10.2786 1.7015 20.8541 2.8446 32.6632 -6.9331
# 6 10.4258 1.6180 7.1070 -5.3270 -6.9331 40.1218
#
#
#
# Elastic Compliance Matrix: (Units=1/GPa)
#
#
# Indices 1 2 3 4 5 6 
#
# 1 0.011083 -0.003753 -0.003200 0.001093 -0.001840 -0.002335
# 2 -0.003753 0.014019 -0.003076 0.000428 0.002691 0.001477
# 3 -0.003200 -0.003076 0.010297 -0.000008 -0.005804 -0.001872
# 4 0.001093 0.000428 -0.000008 0.030748 -0.002321 0.003382
# 5 -0.001840 0.002691 -0.005804 -0.002321 0.036533 0.007402
# 6 -0.002335 0.001477 -0.001872 0.003382 0.007402 0.027531
#
#
# Mechanical properties :
#
#
# Convention : Reuss Voigt Hill
#
# Bulk Modulus (GPa) = 65.18354 72.87879 69.03116
# Shear Modulus (GPa) = 32.17859 35.50432 33.84146
#
# Velocity S-wave (km/s) = 3.90718 4.10412 4.00686
# Velocity P-wave (km/s) = 7.16092 7.55204 7.35908
#
# Compressibility (1/GPa) = 0.01534130
#
# Stress axis : x y z
#
# Youngs Moduli (GPa) = 90.22819 71.33296 97.11226
#
# Poissons Ratio (x) = 0.26774 0.31075
# Poissons Ratio (y) = 0.33866 0.29868
# Poissons Ratio (z) = 0.28872 0.21939
#
# Static dielectric constant tensor:
#      x y z
#    x 3.634960 -0.222770 0.265450 
#    y -0.222770 3.179650 0.392090 
#    z 0.265450 0.392090 3.856000 
# 
# 
# High freq. dielectric constant tensor:
#      x y z
#    x 1.819920 0.009060 0.010030 
#    y 0.009060 1.828660 -0.000720 
#    z 0.010030 -0.000720 1.841800 
# 
# From -- ./inp_files/184102.got.cif
#   From: 2010.06.25/outbox.cif.g09.slc.cpg/sg2_93_cif.got.tgz:184102.got - 2010.06.27 13:26:56.
