data_PCOD8012510
_publ_section_title
;
Structure prediction by ZEFSAII (Michael W. Deem and Ramdas Pophale) SiO2 
 PCOD8012510
Probable space group: P -1
;
_chemical_formula_sum "Si O2"
_cell_formula_units_Z 16
_cell_length_a 7.513825
_cell_length_b 9.232372
_cell_length_c 17.597801
_cell_angle_alpha 37.316542
_cell_angle_beta 89.180033
_cell_angle_gamma 95.061885
_cell_volume 729.914857
_symmetry_space_group_name_H-M "P -1"
_symmetry_group_IT_number 2
_symmetry_cell_setting 'triclinic'
loop_
_space_group_symop_operation_xyz
x,y,z
-x,-y,-z
loop_
_atom_site_type_symbol
_atom_site_label
_atom_site_fract_x
_atom_site_fract_y
_atom_site_fract_z
Si Si1 0.065111 0.501283 0.119054
Si Si2 0.352173 0.507753 0.246105
Si Si3 0.421682 0.733956 0.422012
Si Si4 0.032483 0.884334 0.843044
Si Si5 0.240128 0.534889 0.754622
Si Si6 0.248395 0.822494 0.239812
Si Si7 0.875707 0.593582 0.355955
Si Si8 0.348643 0.060590 0.529815
O O1 0.225715 0.484871 0.183256
O O2 0.016298 0.243650 0.184184
O O3 0.891364 0.578194 0.130092
O O4 0.128494 0.710979 0.969036
O O5 0.552476 0.495008 0.219292
O O6 0.343557 0.759386 0.186896
O O7 0.280479 0.295011 0.396631
O O8 0.500000 0.500000 0.500000
O O9 0.391859 0.871687 0.286993
O O10 0.230849 0.643877 0.503680
O O11 0.564386 0.901084 0.403322
O O12 0.849724 0.940996 0.863498
O O13 0.162175 0.144987 0.718965
O O14 0.181414 0.399740 0.733911
O O15 0.203178 0.815297 0.635199
O O16 0.091410 0.591874 0.359488
O O17 0.500000 0.000000 0.500000
#
# Coordination Sequence:
#
# PCOD8012510 Si02
#       8
#     2   2   2   2   2   2   2   2
#     4  11  23  47  65  90 126 162 214 269 310 368
#     4  11  22  42  65  93 127 170 209 250 316 375
#     4  12  21  37  60  93 138 159 205 259 301 385
#     4   9  25  42  67  89 123 162 216 266 312 369
#     4  11  23  40  65  95 128 166 209 256 311 375
#     4  10  22  39  64  92 124 172 207 250 319 366
#     4  10  21  40  60  91 125 165 208 248 312 373
#     4  10  22  36  58  94 133 158 202 253 306 376
#
# _framework density 21.920366000000001
#
# number of rings (size 3 to 8) (size 9 to 14) (size 15 to 20)
#    0.750    0.750    5.000    0.375    5.250    2.500 
#    0.000    6.250    0.000    0.000    0.000    0.000 
#    0.000    0.000    0.000    0.000    0.000    0.000 
#
# Total GULP energy -198226.967450 kJ/mol
# GULP energy per Si atom -12389.185466 kJ/mol
# Density = 2.187047 g / cm^3
# Si number density = 21.920366 Si / 1000 Ang^3
#
#
#
# Elastic Constant Matrix: (Units=GPa)
#
#
# Indices 1 2 3 4 5 6 
#
# 1 61.9415 14.5029 3.3816 13.8589 17.2656 -9.5907
# 2 14.5029 156.0050 31.8073 19.8922 21.0848 5.4543
# 3 3.3816 31.8073 52.3842 14.9924 19.4792 16.8022
# 4 13.8589 19.8922 14.9924 35.0460 5.1128 9.4065
# 5 17.2656 21.0848 19.4792 5.1128 30.0296 6.2193
# 6 -9.5907 5.4543 16.8022 9.4065 6.2193 32.8598
#
#
#
# Elastic Compliance Matrix: (Units=1/GPa)
#
#
# Indices 1 2 3 4 5 6 
#
# 1 0.025764 0.000360 0.004801 -0.013032 -0.018495 0.012236
# 2 0.000360 0.007849 -0.003206 -0.003261 -0.003505 0.002038
# 3 0.004801 -0.003206 0.033096 -0.009149 -0.018586 -0.008852
# 4 -0.013032 -0.003261 -0.009149 0.041161 0.011300 -0.012505
# 5 -0.018495 -0.003505 -0.018586 0.011300 0.058521 -0.009623
# 6 0.012236 0.002038 -0.008852 -0.012505 -0.009623 0.043593
#
#
# Mechanical properties :
#
#
# Convention : Reuss Voigt Hill
#
# Bulk Modulus (GPa) = 14.16076 41.07937 27.62006
# Shear Modulus (GPa) = 21.77584 34.29634 28.03609
#
# Velocity S-wave (km/s) = 3.15525 3.95978 3.58019
# Velocity P-wave (km/s) = 4.44391 6.29980 5.45141
#
# Compressibility (1/GPa) = 0.07061767
#
# Stress axis : x y z
#
# Youngs Moduli (GPa) = 38.81429 127.41205 30.21528
#
# Poissons Ratio (x) = -0.04582 -0.14507
# Poissons Ratio (y) = -0.01396 0.09687
# Poissons Ratio (z) = -0.18635 0.40847
#
# Static dielectric constant tensor:
#      x y z
#    x 3.721750 -0.258040 0.726550 
#    y -0.258040 4.568360 -0.538480 
#    z 0.726550 -0.538480 2.730970 
# 
# 
# High freq. dielectric constant tensor:
#      x y z
#    x 1.845200 -0.005550 0.012160 
#    y -0.005550 1.883470 0.005950 
#    z 0.012160 0.005950 1.830100 
# 
# From -- ./inp_files/556802.got.cif
#   From: 2010.06.25/outbox.cif.g09.slc.cpg/sg2_279_cif.got.tgz:556802.got - 2010.06.27 13:26:56.
