data_PCOD8012370
_publ_section_title
;
Structure prediction by ZEFSAII (Michael W. Deem and Ramdas Pophale) SiO2 
 PCOD8012370
Probable space group: P -1
;
_chemical_formula_sum "Si O2"
_cell_formula_units_Z 16
_cell_length_a 18.293518
_cell_length_b 8.245099
_cell_length_c 5.007746
_cell_angle_alpha 102.254229
_cell_angle_beta 95.524512
_cell_angle_gamma 60.971389
_cell_volume 645.373693
_symmetry_space_group_name_H-M "P -1"
_symmetry_group_IT_number 2
_symmetry_cell_setting 'triclinic'
loop_
_space_group_symop_operation_xyz
x,y,z
-x,-y,-z
loop_
_atom_site_type_symbol
_atom_site_label
_atom_site_fract_x
_atom_site_fract_y
_atom_site_fract_z
Si Si1 0.725778 0.174375 0.680918
Si Si2 0.619811 0.938793 0.063024
Si Si3 0.111514 0.543871 0.468854
Si Si4 0.600550 0.745530 0.481397
Si Si5 0.542592 0.295526 0.818057
Si Si6 0.947859 0.668876 0.235686
Si Si7 0.797707 0.821832 0.918873
Si Si8 0.243254 0.646363 0.740773
O O1 0.626485 0.252142 0.674314
O O2 0.751588 0.202931 0.404730
O O3 0.774663 0.952220 0.692071
O O4 0.751418 0.291771 0.936378
O O5 0.715577 0.896949 0.102073
O O6 0.611369 0.794160 0.804486
O O7 0.560783 0.150606 0.017489
O O8 0.589474 0.915975 0.338439
O O9 0.096319 0.396507 0.584265
O O10 0.172153 0.400406 0.210338
O O11 0.155424 0.646218 0.674869
O O12 0.019855 0.712305 0.399271
O O13 0.520332 0.714456 0.423461
O O14 0.682689 0.561271 0.354872
O O15 0.500000 0.500000 0.000000
O O16 0.872386 0.839866 0.107877
O O17 0.000000 0.500000 0.000000
#
# Coordination Sequence:
#
# PCOD8012370 Si02
#       8
#     2   2   2   2   2   2   2   2
#     4  11  28  44  63  96 134 176 217 263 332 389
#     4  11  25  43  67 100 125 172 225 273 321 379
#     4  10  21  39  70  96 127 168 217 267 316 385
#     4  12  24  44  67  94 130 170 225 277 321 380
#     4  11  25  45  66  95 136 176 215 274 330 387
#     4   9  20  38  68 101 126 160 217 264 325 375
#     4  10  22  40  67  91 132 171 215 268 320 390
#     4  12  25  44  67  96 132 173 217 267 324 385
#
# _framework density 24.791836
#
# number of rings (size 3 to 8) (size 9 to 14) (size 15 to 20)
#    0.000    1.250    2.500    2.250    5.250    4.500 
#    0.000    1.250    0.000    0.000    0.000    0.000 
#    0.000    0.000    0.000    0.000    0.000    0.000 
#
# Total GULP energy -198404.789049 kJ/mol
# GULP energy per Si atom -12400.299316 kJ/mol
# Density = 2.473541 g / cm^3
# Si number density = 24.791836 Si / 1000 Ang^3
#
#
#
# Elastic Constant Matrix: (Units=GPa)
#
#
# Indices 1 2 3 4 5 6 
#
# 1 147.9384 26.0361 12.3480 -8.0419 46.7423 -19.1839
# 2 26.0361 75.8377 1.2966 -3.1406 17.3300 -14.2271
# 3 12.3480 1.2966 46.8643 -9.7161 14.9003 -8.4920
# 4 -8.0419 -3.1406 -9.7161 28.1097 -0.5622 6.0391
# 5 46.7423 17.3300 14.9003 -0.5622 45.4829 -9.9347
# 6 -19.1839 -14.2271 -8.4920 6.0391 -9.9347 36.1716
#
#
#
# Elastic Compliance Matrix: (Units=1/GPa)
#
#
# Indices 1 2 3 4 5 6 
#
# 1 0.010530 -0.000681 0.001594 0.002775 -0.010540 0.002333
# 2 -0.000681 0.015444 0.002438 0.001261 -0.004937 0.004719
# 3 0.001594 0.002438 0.026681 0.008943 -0.010384 0.003723
# 4 0.002775 0.001261 0.008943 0.040441 -0.006754 -0.004540
# 5 -0.010540 -0.004937 -0.010384 -0.006754 0.038390 0.001702
# 6 0.002333 0.004719 0.003723 -0.004540 0.001702 0.032839
#
#
# Mechanical properties :
#
#
# Convention : Reuss Voigt Hill
#
# Bulk Modulus (GPa) = 16.84724 38.88909 27.86817
# Shear Modulus (GPa) = 28.18353 37.35016 32.76685
#
# Velocity S-wave (km/s) = 3.37531 3.88564 3.63943
# Velocity P-wave (km/s) = 4.69048 5.98759 5.37828
#
# Compressibility (1/GPa) = 0.05935689
#
# Stress axis : x y z
#
# Youngs Moduli (GPa) = 94.96584 64.75049 37.47963
#
# Poissons Ratio (x) = 0.04411 -0.05973
# Poissons Ratio (y) = 0.06469 -0.09139
# Poissons Ratio (z) = -0.15135 -0.15789
#
# Static dielectric constant tensor:
#      x y z
#    x 5.030460 -0.380500 0.446120 
#    y -0.380500 4.490760 -0.335610 
#    z 0.446120 -0.335610 4.330950 
# 
# 
# High freq. dielectric constant tensor:
#      x y z
#    x 1.997000 -0.022240 0.012650 
#    y -0.022240 1.973890 -0.006030 
#    z 0.012650 -0.006030 1.990850 
# 
# From -- ./inp_files/105421.got.cif
#   From: 2010.06.25/outbox.cif.g09.slc.cpg/sg2_53_cif.got.tgz:105421.got - 2010.06.27 13:26:56.
