data_PCOD8012718
_publ_section_title
;
Structure prediction by ZEFSAII (Michael W. Deem and Ramdas Pophale) SiO2 
 PCOD8012718
Probable space group: P -1
;
_chemical_formula_sum "Si O2"
_cell_formula_units_Z 16
_cell_length_a 8.478678
_cell_length_b 16.264414
_cell_length_c 11.544792
_cell_angle_alpha 63.882644
_cell_angle_beta 99.786704
_cell_angle_gamma 143.496465
_cell_volume 798.385316
_symmetry_space_group_name_H-M "P -1"
_symmetry_group_IT_number 2
_symmetry_cell_setting 'triclinic'
loop_
_space_group_symop_operation_xyz
x,y,z
-x,-y,-z
loop_
_atom_site_type_symbol
_atom_site_label
_atom_site_fract_x
_atom_site_fract_y
_atom_site_fract_z
Si Si1 0.413993 0.875991 0.485659
Si Si2 0.939088 0.756805 0.363834
Si Si3 0.048853 0.928288 0.709580
Si Si4 0.696606 0.397408 0.028713
Si Si5 0.530362 0.437318 0.385574
Si Si6 0.516392 0.278425 0.327029
Si Si7 0.884661 0.965234 0.879076
Si Si8 0.704022 0.597169 0.858214
O O1 0.346009 0.758619 0.635625
O O2 0.156933 0.790670 0.430724
O O3 0.500000 0.000000 0.500000
O O4 0.649487 0.937479 0.397504
O O5 0.794927 0.625484 0.330962
O O6 0.701129 0.679061 0.470654
O O7 0.087275 0.913902 0.225241
O O8 0.827047 0.879065 0.629901
O O9 0.066441 0.989793 0.796500
O O10 0.969263 0.784431 0.812903
O O11 0.619391 0.382800 0.161710
O O12 0.447972 0.217792 0.053602
O O13 0.756753 0.516267 0.887825
O O14 0.000000 0.500000 0.000000
O O15 0.622749 0.377768 0.397621
O O16 0.396699 0.411281 0.269202
O O17 0.000000 0.000000 0.000000
O O18 0.500000 0.500000 0.000000
#
# Coordination Sequence:
#
# PCOD8012718 Si02
#       8
#     2   2   2   2   2   2   2   2
#     4  12  23  38  62  95 125 159 210 269 311 366
#     4  11  25  39  65  93 126 161 214 259 315 378
#     4  10  22  38  63  90 122 164 211 256 313 375
#     4  11  24  37  60  96 123 158 214 263 307 366
#     4  10  22  44  63  89 124 172 207 256 317 381
#     4  10  21  40  63  84 125 167 208 256 314 375
#     4  11  23  45  64  90 127 174 208 255 323 389
#     4  11  19  39  65  86 117 167 212 247 305 378
#
# _framework density 20.04045
#
# number of rings (size 3 to 8) (size 9 to 14) (size 15 to 20)
#    0.000    1.250    3.750    4.875    5.250    0.500 
#    2.250    0.625    0.000    0.000    0.000    0.000 
#    0.000    0.000    0.000    0.000    0.000    0.000 
#
# Total GULP energy -198217.258952 kJ/mol
# GULP energy per Si atom -12388.578684 kJ/mol
# Density = 1.999484 g / cm^3
# Si number density = 20.040450 Si / 1000 Ang^3
#
#
#
# Elastic Constant Matrix: (Units=GPa)
#
#
# Indices 1 2 3 4 5 6 
#
# 1 93.8543 52.1888 20.7012 -1.2677 16.1130 -18.9990
# 2 52.1888 100.2169 29.0707 4.0356 -3.3701 -21.2637
# 3 20.7012 29.0707 67.0908 0.8715 18.4223 -15.1231
# 4 -1.2677 4.0356 0.8715 27.7264 -11.8722 -6.5615
# 5 16.1130 -3.3701 18.4223 -11.8722 43.3521 -4.5083
# 6 -18.9990 -21.2637 -15.1231 -6.5615 -4.5083 36.3789
#
#
#
# Elastic Compliance Matrix: (Units=1/GPa)
#
#
# Indices 1 2 3 4 5 6 
#
# 1 0.017259 -0.008889 0.001330 -0.000328 -0.007408 0.003393
# 2 -0.008889 0.017525 -0.006143 0.001797 0.008226 0.004391
# 3 0.001330 -0.006143 0.020923 -0.003190 -0.010326 0.003947
# 4 -0.000328 0.001797 -0.003190 0.044436 0.014763 0.009397
# 5 -0.007408 0.008226 -0.010326 0.014763 0.035274 0.003681
# 6 0.003393 0.004391 0.003947 0.009397 0.003681 0.035619
#
#
# Mechanical properties :
#
#
# Convention : Reuss Voigt Hill
#
# Bulk Modulus (GPa) = 35.33344 51.67591 43.50468
# Shear Modulus (GPa) = 24.05288 32.10490 28.07889
#
# Velocity S-wave (km/s) = 3.46817 4.00685 3.74720
# Velocity P-wave (km/s) = 5.80577 6.87373 6.36220
#
# Compressibility (1/GPa) = 0.02830180
#
# Stress axis : x y z
#
# Youngs Moduli (GPa) = 57.94164 57.05989 47.79365
#
# Poissons Ratio (x) = 0.50722 -0.06355
# Poissons Ratio (y) = 0.51506 0.29361
# Poissons Ratio (z) = -0.07704 0.35053
#
# Static dielectric constant tensor:
#      x y z
#    x 3.460670 -0.133290 -0.016970 
#    y -0.133290 3.358090 0.376640 
#    z -0.016970 0.376640 3.908300 
# 
# 
# High freq. dielectric constant tensor:
#      x y z
#    x 1.788560 -0.020760 0.008400 
#    y -0.020760 1.769800 -0.007830 
#    z 0.008400 -0.007830 1.794590 
# 
# From -- ./inp_files/402041.got.cif
#   From: 2010.06.25/outbox.cif.g09.slc.cpg/sg2_202_cif.got.tgz:402041.got - 2010.06.27 13:26:56.
