data_PCOD8012941
_publ_section_title
;
Structure prediction by ZEFSAII (Michael W. Deem and Ramdas Pophale) SiO2 
 PCOD8012941
Probable space group: P -1
;
_chemical_formula_sum "Si O2"
_cell_formula_units_Z 16
_cell_length_a 9.745710
_cell_length_b 22.369069
_cell_length_c 18.333159
_cell_angle_alpha 163.514905
_cell_angle_beta 53.945429
_cell_angle_gamma 133.553776
_cell_volume 769.676105
_symmetry_space_group_name_H-M "P -1"
_symmetry_group_IT_number 2
_symmetry_cell_setting 'triclinic'
loop_
_space_group_symop_operation_xyz
x,y,z
-x,-y,-z
loop_
_atom_site_type_symbol
_atom_site_label
_atom_site_fract_x
_atom_site_fract_y
_atom_site_fract_z
Si Si1 0.979194 0.049664 0.982344
Si Si2 0.287669 0.164041 0.434992
Si Si3 0.351770 0.735326 0.937634
Si Si4 0.529395 0.818308 0.825456
Si Si5 0.398388 0.445604 0.305419
Si Si6 0.057129 0.242445 0.718602
Si Si7 0.743249 0.198576 0.653317
Si Si8 0.016764 0.192665 0.444668
O O1 0.760395 0.999624 0.988018
O O2 0.025554 0.897730 0.731244
O O3 0.000000 0.000000 0.000000
O O4 0.161093 0.337734 0.248261
O O5 0.508319 0.375870 0.584508
O O6 0.218564 0.286211 0.658450
O O7 0.129997 0.071816 0.308316
O O8 0.311317 0.953833 0.219825
O O9 0.375117 0.715035 0.820061
O O10 0.546851 0.769033 0.959134
O O11 0.159957 0.492082 0.748381
O O12 0.491361 0.584657 0.516535
O O13 0.500000 0.000000 0.000000
O O14 0.849751 0.183762 0.676651
O O15 0.177529 0.505368 0.033711
O O16 0.000000 0.000000 0.500000
O O17 0.815238 0.117476 0.464357
O O18 0.500000 0.000000 0.500000
#
# Coordination Sequence:
#
# PCOD8012941 Si02
#       8
#     2   2   2   2   2   2   2   2
#     4  12  23  39  63  95 126 168 216 260 311 373
#     4  10  21  40  64  93 124 169 209 259 322 382
#     4  11  19  39  64  86 124 168 209 257 314 368
#     4  12  22  42  62  87 127 172 211 261 314 371
#     4  11  23  38  63  88 126 165 214 260 311 373
#     4  10  22  43  69  97 130 166 215 271 329 393
#     4  10  23  43  70  97 130 173 214 267 335 392
#     4  10  22  41  64  93 128 170 209 262 320 381
#
# _framework density 20.787963000000001
#
# number of rings (size 3 to 8) (size 9 to 14) (size 15 to 20)
#    0.000    1.250    5.000    1.875    1.750    2.000 
#    0.000    2.500    0.000    0.000    0.000    0.000 
#    0.000    0.000    0.000    0.000    0.000    0.000 
#
# Total GULP energy -198260.097342 kJ/mol
# GULP energy per Si atom -12391.256084 kJ/mol
# Density = 2.074065 g / cm^3
# Si number density = 20.787963 Si / 1000 Ang^3
#
#
#
# Elastic Constant Matrix: (Units=GPa)
#
#
# Indices 1 2 3 4 5 6 
#
# 1 98.1680 26.3170 56.0916 7.5658 1.8583 16.2968
# 2 26.3170 99.7728 18.8803 4.7164 16.7501 17.0010
# 3 56.0916 18.8803 79.9618 10.6833 -3.6861 5.8370
# 4 7.5658 4.7164 10.6833 35.9501 1.9630 7.2058
# 5 1.8583 16.7501 -3.6861 1.9630 39.2100 7.0008
# 6 16.2968 17.0010 5.8370 7.2058 7.0008 34.5178
#
#
#
# Elastic Compliance Matrix: (Units=1/GPa)
#
#
# Indices 1 2 3 4 5 6 
#
# 1 0.018635 -0.001510 -0.012449 0.001225 -0.000375 -0.006129
# 2 -0.001510 0.012219 -0.001778 0.000324 -0.004592 -0.004141
# 3 -0.012449 -0.001778 0.022167 -0.004570 0.003067 0.003337
# 4 0.001225 0.000324 -0.004570 0.030143 -0.001056 -0.006043
# 5 -0.000375 -0.004592 0.003067 -0.001056 0.028473 -0.003634
# 6 -0.006129 -0.004141 0.003337 -0.006043 -0.003634 0.035338
#
#
# Mechanical properties :
#
#
# Convention : Reuss Voigt Hill
#
# Bulk Modulus (GPa) = 46.41331 53.38673 49.90002
# Shear Modulus (GPa) = 26.93511 33.70983 30.32247
#
# Velocity S-wave (km/s) = 3.60350 4.03128 3.82338
# Velocity P-wave (km/s) = 6.29993 6.88517 6.59904
#
# Compressibility (1/GPa) = 0.02154554
#
# Stress axis : x y z
#
# Youngs Moduli (GPa) = 53.66353 81.84081 45.11227
#
# Poissons Ratio (x) = 0.12359 0.56160
# Poissons Ratio (y) = 0.08104 0.08023
# Poissons Ratio (z) = 0.66805 0.14555
#
# Static dielectric constant tensor:
#      x y z
#    x 3.882860 -0.095320 -0.024970 
#    y -0.095320 4.549770 -0.174240 
#    z -0.024970 -0.174240 3.851760 
# 
# 
# High freq. dielectric constant tensor:
#      x y z
#    x 1.803410 0.004100 -0.009640 
#    y 0.004100 1.837580 0.004600 
#    z -0.009640 0.004600 1.796090 
# 
# From -- ./inp_files/562775.got.cif
#   From: 2010.06.25/outbox.cif.g09.slc.cpg/sg2_282_cif.got.tgz:562775.got - 2010.06.27 13:26:56.
