data_PCOD8012074
_publ_section_title
;
Structure prediction by ZEFSAII (Michael W. Deem and Ramdas Pophale) SiO2 
 PCOD8012074
Probable space group: P -1
;
_chemical_formula_sum "Si O2"
_cell_formula_units_Z 16
_cell_length_a 15.059943
_cell_length_b 5.315122
_cell_length_c 9.409707
_cell_angle_alpha 112.304792
_cell_angle_beta 95.237485
_cell_angle_gamma 77.633032
_cell_volume 680.636453
_symmetry_space_group_name_H-M "P -1"
_symmetry_group_IT_number 2
_symmetry_cell_setting 'triclinic'
loop_
_space_group_symop_operation_xyz
x,y,z
-x,-y,-z
loop_
_atom_site_type_symbol
_atom_site_label
_atom_site_fract_x
_atom_site_fract_y
_atom_site_fract_z
Si Si1 0.711561 0.221337 0.631658
Si Si2 0.563721 0.205457 0.813225
Si Si3 0.170372 0.546563 0.880273
Si Si4 0.902356 0.238108 0.786620
Si Si5 0.540924 0.618474 0.666354
Si Si6 0.356401 0.637439 0.861005
Si Si7 0.001949 0.607859 0.683420
Si Si8 0.313685 0.075103 0.719061
O O1 0.663332 0.107444 0.735437
O O2 0.712197 0.006986 0.458443
O O3 0.811594 0.261281 0.687430
O O4 0.650613 0.523856 0.650694
O O5 0.511806 0.948549 0.742128
O O6 0.507562 0.473220 0.773390
O O7 0.575924 0.288282 0.994007
O O8 0.219426 0.219994 0.814365
O O9 0.104141 0.614777 0.749399
O O10 0.250372 0.725003 0.914442
O O11 0.115853 0.612076 0.032401
O O12 0.966778 0.396328 0.739826
O O13 0.944449 0.917485 0.750955
O O14 0.500000 0.500000 0.500000
O O15 0.367195 0.806687 0.754322
O O16 0.378738 0.303474 0.767671
O O17 0.000000 0.500000 0.500000
#
# Coordination Sequence:
#
# PCOD8012074 Si02
#       8
#     2   2   2   2   2   2   2   2
#     4  10  24  38  66  94 123 160 214 259 308 373
#     4  10  21  39  66  91 126 159 215 245 308 368
#     4  10  24  41  61  87 122 167 213 257 315 363
#     4  12  26  40  65  88 119 166 215 256 313 374
#     4  10  22  38  68  99 129 159 203 256 310 369
#     4  10  22  38  63  89 124 164 211 251 311 362
#     4  12  28  42  61  87 130 161 210 266 323 358
#     4  10  23  35  63  88 127 154 214 255 316 349
#
# _framework density 23.507408999999999
#
# number of rings (size 3 to 8) (size 9 to 14) (size 15 to 20)
#    1.500    0.000    1.250    3.000   10.500    0.000 
#    0.000    0.000    0.000    4.500    0.000    0.000 
#    0.000    0.000    0.000    0.000    0.000    0.000 
#
# Total GULP energy -198361.715016 kJ/mol
# GULP energy per Si atom -12397.607188 kJ/mol
# Density = 2.345391 g / cm^3
# Si number density = 23.507409 Si / 1000 Ang^3
#
#
#
# Elastic Constant Matrix: (Units=GPa)
#
#
# Indices 1 2 3 4 5 6 
#
# 1 72.9566 51.4582 31.5589 0.4431 5.8615 1.6918
# 2 51.4582 145.0971 50.0158 3.2645 13.6073 -16.2692
# 3 31.5589 50.0158 181.9425 6.4034 9.7395 -3.9753
# 4 0.4431 3.2645 6.4034 32.2793 -6.1070 -2.3223
# 5 5.8615 13.6073 9.7395 -6.1070 48.3795 -4.1235
# 6 1.6918 -16.2692 -3.9753 -2.3223 -4.1235 40.0963
#
#
#
# Elastic Compliance Matrix: (Units=1/GPa)
#
#
# Indices 1 2 3 4 5 6 
#
# 1 0.019192 -0.006647 -0.001574 0.000379 -0.000405 -0.003683
# 2 -0.006647 0.010394 -0.001508 -0.000654 -0.001543 0.004152
# 3 -0.001574 -0.001508 0.006269 -0.001228 -0.000809 -0.000078
# 4 0.000379 -0.000654 -0.001228 0.032300 0.004628 0.001944
# 5 -0.000405 -0.001543 -0.000809 0.004628 0.022057 0.001847
# 6 -0.003683 0.004152 -0.000078 0.001944 0.001847 0.027075
#
#
# Mechanical properties :
#
#
# Convention : Reuss Voigt Hill
#
# Bulk Modulus (GPa) = 60.98906 74.00689 67.49797
# Shear Modulus (GPa) = 35.15937 41.94857 38.55397
#
# Velocity S-wave (km/s) = 3.87159 4.22890 4.05418
# Velocity P-wave (km/s) = 6.78134 7.44281 7.11976
#
# Compressibility (1/GPa) = 0.01639638
#
# Stress axis : x y z
#
# Youngs Moduli (GPa) = 52.10608 96.20787 159.52619
#
# Poissons Ratio (x) = 0.63952 0.25105
# Poissons Ratio (y) = 0.34636 0.24056
# Poissons Ratio (z) = 0.08200 0.14508
#
# Static dielectric constant tensor:
#      x y z
#    x 4.363110 -0.199310 -0.029600 
#    y -0.199310 4.261300 0.012730 
#    z -0.029600 0.012730 4.090980 
# 
# 
# High freq. dielectric constant tensor:
#      x y z
#    x 1.953650 -0.012910 -0.001770 
#    y -0.012910 1.931480 0.001350 
#    z -0.001770 0.001350 1.939730 
# 
# From -- ./inp_files/322929.got.cif
#   From: 2010.06.25/outbox.cif.g09.slc.cpg/sg2_162_cif.got.tgz:322929.got - 2010.06.27 13:26:56.
