data_PCOD8012774
_publ_section_title
;
Structure prediction by ZEFSAII (Michael W. Deem and Ramdas Pophale) SiO2 
 PCOD8012774
Probable space group: P -1
;
_chemical_formula_sum "Si O2"
_cell_formula_units_Z 16
_cell_length_a 10.736772
_cell_length_b 8.564456
_cell_length_c 14.177720
_cell_angle_alpha 79.651470
_cell_angle_beta 136.210992
_cell_angle_gamma 122.090616
_cell_volume 716.623282
_symmetry_space_group_name_H-M "P -1"
_symmetry_group_IT_number 2
_symmetry_cell_setting 'triclinic'
loop_
_space_group_symop_operation_xyz
x,y,z
-x,-y,-z
loop_
_atom_site_type_symbol
_atom_site_label
_atom_site_fract_x
_atom_site_fract_y
_atom_site_fract_z
Si Si1 0.803752 0.778117 0.887752
Si Si2 0.351672 0.997221 0.289313
Si Si3 0.826697 0.178358 0.595933
Si Si4 0.390661 0.609045 0.075769
Si Si5 0.815400 0.190774 0.971523
Si Si6 0.860634 0.798099 0.393570
Si Si7 0.009006 0.423695 0.411792
Si Si8 0.550349 0.161705 0.085860
O O1 0.704527 0.617906 0.935686
O O2 0.615518 0.797039 0.740258
O O3 0.922151 0.720051 0.882570
O O4 0.000000 0.000000 0.000000
O O5 0.192204 0.911556 0.302982
O O6 0.230732 0.825609 0.163866
O O7 0.590634 0.041835 0.429251
O O8 0.017094 0.193980 0.636330
O O9 0.883052 0.394224 0.620809
O O10 0.226759 0.662008 0.018950
O O11 0.621679 0.744407 0.243194
O O12 0.428074 0.659654 0.978374
O O13 0.662605 0.962318 0.948641
O O14 0.837252 0.649202 0.476821
O O15 0.000000 0.000000 0.500000
O O16 0.768698 0.244069 0.259643
O O17 0.000000 0.500000 0.500000
O O18 0.500000 0.000000 0.000000
#
# Coordination Sequence:
#
# PCOD8012774 Si02
#       8
#     2   2   2   2   2   2   2   2
#     4  10  23  39  61  89 131 169 213 264 327 387
#     4  10  21  41  60  88 128 166 220 257 326 382
#     4  10  22  38  64  89 123 173 213 268 312 400
#     4  11  23  40  65  99 127 170 219 270 327 396
#     4  10  21  41  64  86 130 173 207 266 331 385
#     4  11  22  40  68  97 131 164 219 274 340 386
#     4  10  21  40  63  91 129 169 217 261 330 383
#     4  10  22  39  65  96 130 166 220 271 326 387
#
# _framework density 22.326933
#
# number of rings (size 3 to 8) (size 9 to 14) (size 15 to 20)
#    0.000    1.750    0.000    4.875    5.250    3.000 
#    0.000    5.000    0.000    4.500    0.000    0.000 
#    0.000    0.000    0.000    0.000    0.000    0.000 
#
# Total GULP energy -198240.896959 kJ/mol
# GULP energy per Si atom -12390.056060 kJ/mol
# Density = 2.227612 g / cm^3
# Si number density = 22.326933 Si / 1000 Ang^3
#
#
#
# Elastic Constant Matrix: (Units=GPa)
#
#
# Indices 1 2 3 4 5 6 
#
# 1 53.7651 17.4003 11.3739 -6.9206 -2.5185 4.5053
# 2 17.4003 126.1492 4.1816 -22.6941 -17.8317 9.4027
# 3 11.3739 4.1816 77.0803 -5.3642 -13.1389 0.1247
# 4 -6.9206 -22.6941 -5.3642 41.0267 -1.6376 -2.0235
# 5 -2.5185 -17.8317 -13.1389 -1.6376 27.3375 -1.7502
# 6 4.5053 9.4027 0.1247 -2.0235 -1.7502 33.0536
#
#
#
# Elastic Compliance Matrix: (Units=1/GPa)
#
#
# Indices 1 2 3 4 5 6 
#
# 1 0.020330 -0.002444 -0.002958 0.001543 -0.001180 -0.002033
# 2 -0.002444 0.010460 0.001483 0.005775 0.007535 -0.001896
# 3 -0.002958 0.001483 0.014880 0.002613 0.008035 0.000511
# 4 0.001543 0.005775 0.002613 0.028458 0.006885 0.000244
# 5 -0.001180 0.007535 0.008035 0.006885 0.045714 0.000829
# 6 -0.002033 -0.001896 0.000511 0.000244 0.000829 0.031127
#
#
# Mechanical properties :
#
#
# Convention : Reuss Voigt Hill
#
# Bulk Modulus (GPa) = 26.43250 35.87848 31.15549
# Shear Modulus (GPa) = 29.16855 35.21948 32.19402
#
# Velocity S-wave (km/s) = 3.61838 3.97601 3.80140
# Velocity P-wave (km/s) = 5.41492 6.09776 5.76646
#
# Compressibility (1/GPa) = 0.03783221
#
# Stress axis : x y z
#
# Youngs Moduli (GPa) = 49.18901 95.59865 67.20344
#
# Poissons Ratio (x) = 0.23362 0.19877
# Poissons Ratio (y) = 0.12021 -0.09963
# Poissons Ratio (z) = 0.14549 -0.14173
#
# Static dielectric constant tensor:
#      x y z
#    x 3.890810 0.381240 0.084340 
#    y 0.381240 4.998620 -0.485970 
#    z 0.084340 -0.485970 4.158700 
# 
# 
# High freq. dielectric constant tensor:
#      x y z
#    x 1.864660 0.008790 0.008940 
#    y 0.008790 1.892840 -0.009510 
#    z 0.008940 -0.009510 1.875320 
# 
# From -- ./inp_files/515446.got.cif
#   From: 2010.06.25/outbox.cif.g09.slc.cpg/sg2_258_cif.got.tgz:515446.got - 2010.06.27 13:26:56.
