data_PCOD8012626
_publ_section_title
;
Structure prediction by ZEFSAII (Michael W. Deem and Ramdas Pophale) SiO2 
 PCOD8012626
Probable space group: P -1
;
_chemical_formula_sum "Si O2"
_cell_formula_units_Z 16
_cell_length_a 16.332006
_cell_length_b 12.214638
_cell_length_c 15.460200
_cell_angle_alpha 51.812532
_cell_angle_beta 33.943316
_cell_angle_gamma 27.631554
_cell_volume 712.930555
_symmetry_space_group_name_H-M "P -1"
_symmetry_group_IT_number 2
_symmetry_cell_setting 'triclinic'
loop_
_space_group_symop_operation_xyz
x,y,z
-x,-y,-z
loop_
_atom_site_type_symbol
_atom_site_label
_atom_site_fract_x
_atom_site_fract_y
_atom_site_fract_z
Si Si1 0.137712 0.024015 0.327943
Si Si2 0.467333 0.367345 0.961187
Si Si3 0.731992 0.429323 0.331977
Si Si4 0.787358 0.943758 0.029316
Si Si5 0.392695 0.192191 0.658723
Si Si6 0.921258 0.445490 0.404210
Si Si7 0.990054 0.360214 0.670971
Si Si8 0.416549 0.410703 0.232357
O O1 0.955183 0.214650 0.313478
O O2 0.149647 0.142515 0.327166
O O3 0.449690 0.736974 0.159668
O O4 0.000000 0.000000 0.500000
O O5 0.590384 0.417859 0.854093
O O6 0.135057 0.630412 0.143033
O O7 0.592327 0.147517 0.021317
O O8 0.500000 0.500000 0.500000
O O9 0.584707 0.694341 0.352655
O O10 0.889300 0.309261 0.159721
O O11 0.709163 0.852127 0.171618
O O12 0.719398 0.104964 0.089361
O O13 0.171505 0.394695 0.677093
O O14 0.686644 0.930046 0.483062
O O15 0.654462 0.579387 0.612778
O O16 0.051395 0.444069 0.361830
O O17 0.822799 0.461528 0.681109
#
# Coordination Sequence:
#
# PCOD8012626 Si02
#       8
#     2   2   2   2   2   2   2   2
#     4  10  21  43  63  85 127 164 196 262 313 353
#     4  10  23  40  66  94 123 160 216 260 304 364
#     4  10  24  41  63  92 120 165 216 246 307 378
#     4  10  21  40  62  87 127 161 202 255 307 358
#     4  11  24  40  63  89 133 166 196 261 314 367
#     4  11  23  41  62  93 129 162 207 254 315 369
#     4  11  23  39  65  96 120 165 213 250 309 374
#     4  11  22  40  68  93 125 161 211 264 304 364
#
# _framework density 22.442578000000001
#
# number of rings (size 3 to 8) (size 9 to 14) (size 15 to 20)
#    0.000    1.500    2.500    2.625    7.000    0.500 
#    2.250    0.625    0.000    0.000    0.000    0.000 
#    0.000    0.000    0.000    0.000    0.000    0.000 
#
# Total GULP energy -198306.772928 kJ/mol
# GULP energy per Si atom -12394.173308 kJ/mol
# Density = 2.239150 g / cm^3
# Si number density = 22.442578 Si / 1000 Ang^3
#
#
#
# Elastic Constant Matrix: (Units=GPa)
#
#
# Indices 1 2 3 4 5 6 
#
# 1 54.3873 52.3597 45.5834 4.4258 4.7258 36.5348
# 2 52.3597 112.8618 62.5706 -24.0228 4.7078 40.4117
# 3 45.5834 62.5706 188.9492 -11.1311 16.4476 28.7348
# 4 4.4258 -24.0228 -11.1311 37.2744 4.9286 8.7924
# 5 4.7258 4.7078 16.4476 4.9286 35.0701 3.2789
# 6 36.5348 40.4117 28.7348 8.7924 3.2789 39.0127
#
#
#
# Elastic Compliance Matrix: (Units=1/GPa)
#
#
# Indices 1 2 3 4 5 6 
#
# 1 0.063447 -0.015389 -0.005210 -0.010307 0.000904 -0.037392
# 2 -0.015389 0.030161 -0.001147 0.026452 -0.003127 -0.021685
# 3 -0.005210 -0.001147 0.007252 0.002325 -0.002913 0.000446
# 4 -0.010307 0.026452 0.002325 0.054159 -0.007966 -0.030997
# 5 0.000904 -0.003127 -0.002913 -0.007966 0.030949 0.003733
# 6 -0.037392 -0.021685 0.000446 -0.030997 0.003733 0.089455
#
#
# Mechanical properties :
#
#
# Convention : Reuss Voigt Hill
#
# Bulk Modulus (GPa) = 17.43146 75.24726 46.33936
# Shear Modulus (GPa) = 14.79130 35.31707 25.05418
#
# Velocity S-wave (km/s) = 2.57003 3.97125 3.34483
# Velocity P-wave (km/s) = 4.07317 7.39116 5.96741
#
# Compressibility (1/GPa) = 0.05736755
#
# Stress axis : x y z
#
# Youngs Moduli (GPa) = 15.76126 33.15540 137.89841
#
# Poissons Ratio (x) = 0.51024 0.71839
# Poissons Ratio (y) = 0.24256 0.15817
# Poissons Ratio (z) = 0.08211 0.03803
#
# Static dielectric constant tensor:
#      x y z
#    x 3.832420 0.433300 0.516540 
#    y 0.433300 4.203120 0.229090 
#    z 0.516540 0.229090 4.468790 
# 
# 
# High freq. dielectric constant tensor:
#      x y z
#    x 1.857260 0.029470 0.027750 
#    y 0.029470 1.884590 -0.007780 
#    z 0.027750 -0.007780 1.907730 
# 
# From -- ./inp_files/467467.got.cif
#   From: 2010.06.25/outbox.cif.g09.slc.cpg/sg2_234_cif.got.tgz:467467.got - 2010.06.27 13:26:56.
