data_PCOD8012861
_publ_section_title
;
Structure prediction by ZEFSAII (Michael W. Deem and Ramdas Pophale) SiO2 
 PCOD8012861
Probable space group: P -1
;
_chemical_formula_sum "Si O2"
_cell_formula_units_Z 14
_cell_length_a 13.430904
_cell_length_b 9.535377
_cell_length_c 12.601258
_cell_angle_alpha 98.228688
_cell_angle_beta 148.117038
_cell_angle_gamma 61.118522
_cell_volume 609.433396
_symmetry_space_group_name_H-M "P -1"
_symmetry_group_IT_number 2
_symmetry_cell_setting 'triclinic'
loop_
_space_group_symop_operation_xyz
x,y,z
-x,-y,-z
loop_
_atom_site_type_symbol
_atom_site_label
_atom_site_fract_x
_atom_site_fract_y
_atom_site_fract_z
Si Si1 0.453824 0.048212 0.585056
Si Si2 0.729676 0.153728 0.517756
Si Si3 0.210523 0.760949 0.842612
Si Si4 0.238870 0.453848 0.441604
Si Si5 0.026280 0.749653 0.108419
Si Si6 0.807456 0.476793 0.358952
Si Si7 0.309594 0.586390 0.135276
O O1 0.359925 0.955064 0.544694
O O2 0.500000 0.000000 0.500000
O O3 0.241976 0.282369 0.437062
O O4 0.728920 0.953627 0.873615
O O5 0.788337 0.218765 0.681604
O O6 0.500339 0.351192 0.266463
O O7 0.996219 0.998654 0.673554
O O8 0.138660 0.696278 0.672842
O O9 0.500803 0.677005 0.085990
O O10 0.178146 0.687192 0.914297
O O11 0.059445 0.593450 0.195833
O O12 0.136780 0.577970 0.471865
O O13 0.529748 0.360465 0.673172
O O14 0.091331 0.672865 0.037299
O O15 0.000000 0.500000 0.500000
#
# Coordination Sequence:
#
# PCOD8012861 Si02
#       7
#     2   2   2   2   2   2   2
#     4  12  24  36  60  95 125 161 206 244 295 368
#     4  11  23  39  61  91 123 160 206 248 299 365
#     4  10  22  40  63  88 119 160 203 252 302 352
#     4  10  22  41  62  89 125 161 201 251 305 363
#     4  11  23  41  62  90 129 164 195 248 309 358
#     4  10  21  40  64  87 117 160 205 250 303 357
#     4  10  21  40  64  90 126 164 199 246 306 366
#
# _framework density 22.972155999999998
#
# number of rings (size 3 to 8) (size 9 to 14) (size 15 to 20)
#    0.000    1.429    0.000    6.857    0.000    6.286 
#    0.000   12.857    0.000   16.286    0.000    0.000 
#    0.000    0.000    0.000    0.000    0.000    0.000 
#
# Total GULP energy -173585.590839 kJ/mol
# GULP energy per Si atom -12398.970774 kJ/mol
# Density = 2.291987 g / cm^3
# Si number density = 22.972156 Si / 1000 Ang^3
#
#
#
# Elastic Constant Matrix: (Units=GPa)
#
#
# Indices 1 2 3 4 5 6 
#
# 1 94.0383 43.7877 37.8072 0.6781 3.3461 -7.9914
# 2 43.7877 122.7548 25.7209 -16.2738 -1.7292 -0.5526
# 3 37.8072 25.7209 54.8813 -8.0754 5.1503 -4.7190
# 4 0.6781 -16.2738 -8.0754 39.7058 -0.6579 5.6273
# 5 3.3461 -1.7292 5.1503 -0.6579 34.4543 2.3260
# 6 -7.9914 -0.5526 -4.7190 5.6273 2.3260 43.5623
#
#
#
# Elastic Compliance Matrix: (Units=1/GPa)
#
#
# Indices 1 2 3 4 5 6 
#
# 1 0.017074 -0.004603 -0.009994 -0.004593 -0.000660 0.002620
# 2 -0.004603 0.010688 -0.001451 0.004401 0.001386 -0.001508
# 3 -0.009994 -0.001451 0.026845 0.004902 -0.003061 0.000587
# 4 -0.004593 0.004401 0.004902 0.028643 0.000751 -0.003996
# 5 -0.000660 0.001386 -0.003061 0.000751 0.029773 -0.002122
# 6 0.002620 -0.001508 0.000587 -0.003996 -0.002122 0.024110
#
#
# Mechanical properties :
#
#
# Convention : Reuss Voigt Hill
#
# Bulk Modulus (GPa) = 44.41920 54.03401 49.22661
# Shear Modulus (GPa) = 28.29140 34.50173 31.39656
#
# Velocity S-wave (km/s) = 3.51315 3.87963 3.70093
# Velocity P-wave (km/s) = 5.98619 6.60616 6.30380
#
# Compressibility (1/GPa) = 0.02251279
#
# Stress axis : x y z
#
# Youngs Moduli (GPa) = 58.56717 93.55961 37.25152
#
# Poissons Ratio (x) = 0.43065 0.37228
# Poissons Ratio (y) = 0.26958 0.05403
# Poissons Ratio (z) = 0.58531 0.13571
#
# Static dielectric constant tensor:
#      x y z
#    x 4.108520 -0.046450 0.020280 
#    y -0.046450 4.130540 -0.141350 
#    z 0.020280 -0.141350 4.302520 
# 
# 
# High freq. dielectric constant tensor:
#      x y z
#    x 1.897960 -0.003310 0.007380 
#    y -0.003310 1.904140 0.003210 
#    z 0.007380 0.003210 1.910730 
# 
# From -- ./inp_files/504763.got.cif
#   From: 2010.06.25/outbox.cif.g09.slc.cpg/sg2_253_cif.got.tgz:504763.got - 2010.06.27 13:26:56.
