data_PCOD8012275
_publ_section_title
;
Structure prediction by ZEFSAII (Michael W. Deem and Ramdas Pophale) SiO2 
 PCOD8012275
Probable space group: P -1
;
_chemical_formula_sum "Si O2"
_cell_formula_units_Z 14
_cell_length_a 11.612651
_cell_length_b 14.714261
_cell_length_c 7.685134
_cell_angle_alpha 111.757611
_cell_angle_beta 40.192354
_cell_angle_gamma 131.918855
_cell_volume 603.334813
_symmetry_space_group_name_H-M "P -1"
_symmetry_group_IT_number 2
_symmetry_cell_setting 'triclinic'
loop_
_space_group_symop_operation_xyz
x,y,z
-x,-y,-z
loop_
_atom_site_type_symbol
_atom_site_label
_atom_site_fract_x
_atom_site_fract_y
_atom_site_fract_z
Si Si1 0.242626 0.637350 0.348014
Si Si2 0.634741 0.642681 0.018885
Si Si3 0.011647 0.212797 0.755640
Si Si4 0.010018 0.422877 0.077159
Si Si5 0.870199 0.202616 0.550577
Si Si6 0.001741 0.886595 0.949445
Si Si7 0.499108 0.435140 0.283866
O O1 0.472955 0.649165 0.074285
O O2 0.000000 0.500000 0.500000
O O3 0.218679 0.657676 0.594853
O O4 0.276129 0.749053 0.276516
O O5 0.740553 0.751310 0.123880
O O6 0.480900 0.501989 0.183734
O O7 0.855363 0.673062 0.685705
O O8 0.832524 0.145951 0.749930
O O9 0.926025 0.107199 0.928441
O O10 0.277413 0.283515 0.436478
O O11 0.018916 0.322174 0.905898
O O12 0.248880 0.530790 0.988708
O O13 0.000000 0.500000 0.000000
O O14 0.819882 0.103509 0.386925
O O15 0.000000 0.000000 0.000000
O O16 0.500000 0.500000 0.500000
#
# Coordination Sequence:
#
# PCOD8012275 Si02
#       7
#     2   2   2   2   2   2   2
#     4  12  22  35  59  92 132 164 196 240 310 379
#     4  10  21  39  59  89 128 163 201 246 311 356
#     4  11  21  38  62  87 123 161 197 256 308 365
#     4  11  20  31  52  89 127 160 192 237 296 374
#     4  10  22  41  60  88 125 159 204 254 298 365
#     4  10  22  44  65  86 119 164 214 259 300 348
#     4  10  16  33  54  84 124 154 189 242 300 366
#
# _framework density 23.204363000000001
#
# number of rings (size 3 to 8) (size 9 to 14) (size 15 to 20)
#    0.857    0.571    5.714    3.429    2.000    1.714 
#    0.000    0.714    0.000    0.857    0.000    0.000 
#    0.000    0.000    0.000    0.000    0.000    0.000 
#
# Total GULP energy -173486.580629 kJ/mol
# GULP energy per Si atom -12391.898616 kJ/mol
# Density = 2.315155 g / cm^3
# Si number density = 23.204363 Si / 1000 Ang^3
#
#
#
# Elastic Constant Matrix: (Units=GPa)
#
#
# Indices 1 2 3 4 5 6 
#
# 1 160.1127 34.8370 26.4038 1.4453 20.4475 -49.3459
# 2 34.8370 89.6831 15.3545 20.4416 3.5336 -37.3857
# 3 26.4038 15.3545 62.2176 11.5106 -3.9483 -15.8902
# 4 1.4453 20.4416 11.5106 20.9686 -13.6392 -3.7106
# 5 20.4475 3.5336 -3.9483 -13.6392 45.6392 -2.3806
# 6 -49.3459 -37.3857 -15.8902 -3.7106 -2.3806 43.6080
#
#
#
# Elastic Compliance Matrix: (Units=1/GPa)
#
#
# Indices 1 2 3 4 5 6 
#
# 1 0.010763 0.002763 -0.001464 -0.003935 -0.005641 0.013372
# 2 0.002763 0.027441 0.003518 -0.031868 -0.011298 0.024606
# 3 -0.001464 0.003518 0.020252 -0.014262 -0.001739 0.007430
# 4 -0.003935 -0.031868 -0.014262 0.103323 0.032497 -0.026404
# 5 -0.005641 -0.011298 -0.001739 0.032497 0.034245 -0.012069
# 6 0.013372 0.024606 0.007430 -0.026404 -0.012069 0.058959
#
#
# Mechanical properties :
#
#
# Convention : Reuss Voigt Hill
#
# Bulk Modulus (GPa) = 14.68662 51.68935 33.18798
# Shear Modulus (GPa) = 18.65363 37.73769 28.19566
#
# Velocity S-wave (km/s) = 2.83836 4.03714 3.48961
# Velocity P-wave (km/s) = 4.13337 6.63742 5.52902
#
# Compressibility (1/GPa) = 0.06808918
#
# Stress axis : x y z
#
# Youngs Moduli (GPa) = 92.91226 36.44224 49.37862
#
# Poissons Ratio (x) = -0.10070 0.07231
# Poissons Ratio (y) = -0.25673 -0.17373
# Poissons Ratio (z) = 0.13606 -0.12821
#
# Static dielectric constant tensor:
#      x y z
#    x 4.875150 -0.037400 -0.542240 
#    y -0.037400 3.597200 0.584190 
#    z -0.542240 0.584190 6.894130 
# 
# 
# High freq. dielectric constant tensor:
#      x y z
#    x 1.941950 -0.009550 0.029570 
#    y -0.009550 1.866310 0.028470 
#    z 0.029570 0.028470 1.918800 
# 
# From -- ./inp_files/259311.got.cif
#   From: 2010.06.25/outbox.cif.g09.slc.cpg/sg2_130_cif.got.tgz:259311.got - 2010.06.27 13:26:56.
