data_PCOD8012893
_publ_section_title
;
Structure prediction by ZEFSAII (Michael W. Deem and Ramdas Pophale) SiO2 
 PCOD8012893
Probable space group: P -1
;
_chemical_formula_sum "Si O2"
_cell_formula_units_Z 12
_cell_length_a 14.426427
_cell_length_b 12.241748
_cell_length_c 8.933958
_cell_angle_alpha 134.801128
_cell_angle_beta 123.486589
_cell_angle_gamma 30.540338
_cell_volume 562.185693
_symmetry_space_group_name_H-M "P -1"
_symmetry_group_IT_number 2
_symmetry_cell_setting 'triclinic'
loop_
_space_group_symop_operation_xyz
x,y,z
-x,-y,-z
loop_
_atom_site_type_symbol
_atom_site_label
_atom_site_fract_x
_atom_site_fract_y
_atom_site_fract_z
Si Si1 0.286755 0.417591 0.483365
Si Si2 0.417051 0.254304 0.130494
Si Si3 0.968163 0.251483 0.840722
Si Si4 0.275356 0.063694 0.117639
Si Si5 0.416401 0.748334 0.226710
Si Si6 0.082001 0.044665 0.418474
O O1 0.371715 0.392350 0.378818
O O2 0.281533 0.239823 0.306223
O O3 0.412374 0.334943 0.651615
O O4 0.079807 0.712109 0.598823
O O5 0.226906 0.445579 0.054555
O O6 0.500000 0.000000 0.000000
O O7 0.564116 0.179558 0.084535
O O8 0.071533 0.132204 0.657946
O O9 0.080220 0.228589 0.036639
O O10 0.937460 0.116506 0.747976
O O11 0.300101 0.963720 0.205155
O O12 0.280559 0.868210 0.359643
O O13 0.500000 0.500000 0.000000
#
# Coordination Sequence:
#
# PCOD8012893 Si02
#       6
#     2   2   2   2   2   2
#     4  10  23  41  61  88 119 157 199 242 294 348
#     4   9  20  38  63  90 118 151 193 244 292 348
#     4  10  21  40  64  90 117 154 200 243 292 348
#     4  11  23  38  63  92 120 154 194 245 298 350
#     4  12  25  40  60  86 122 161 197 242 295 352
#     4  10  23  41  62  87 120 158 198 243 291 351
#
# _framework density 21.345262000000002
#
# number of rings (size 3 to 8) (size 9 to 14) (size 15 to 20)
#    0.000    1.667    0.000    3.500    0.000   13.333 
#    0.000    6.667    0.000    0.000    0.000    0.000 
#    0.000    0.000    0.000    0.000    0.000    0.000 
#
# Total GULP energy -148826.355039 kJ/mol
# GULP energy per Si atom -12402.196253 kJ/mol
# Density = 2.129668 g / cm^3
# Si number density = 21.345262 Si / 1000 Ang^3
#
#
#
# Elastic Constant Matrix: (Units=GPa)
#
#
# Indices 1 2 3 4 5 6 
#
# 1 78.9757 39.5238 22.1608 0.8824 6.0232 9.9963
# 2 39.5238 172.0838 63.1150 -11.8616 15.5761 -1.3297
# 3 22.1608 63.1150 82.7467 -9.8287 25.2114 -0.2236
# 4 0.8824 -11.8616 -9.8287 44.1193 -7.6590 2.1386
# 5 6.0232 15.5761 25.2114 -7.6590 29.0473 -2.2277
# 6 9.9963 -1.3297 -0.2236 2.1386 -2.2277 27.2944
#
#
#
# Elastic Compliance Matrix: (Units=1/GPa)
#
#
# Indices 1 2 3 4 5 6 
#
# 1 0.015458 -0.002949 -0.001807 -0.001374 -0.000861 -0.005782
# 2 -0.002949 0.008718 -0.006260 0.001250 0.001815 0.001504
# 3 -0.001807 -0.006260 0.022089 0.000650 -0.015328 -0.000764
# 4 -0.001374 0.001250 0.000650 0.024146 0.005349 -0.000886
# 5 -0.000861 0.001815 -0.015328 0.005349 0.048640 0.003829
# 6 -0.005782 0.001504 -0.000764 -0.000886 0.003829 0.039204
#
#
# Mechanical properties :
#
#
# Convention : Reuss Voigt Hill
#
# Bulk Modulus (GPa) = 41.26632 64.82282 53.04457
# Shear Modulus (GPa) = 26.54419 34.02596 30.28508
#
# Velocity S-wave (km/s) = 3.53025 3.99692 3.77081
# Velocity P-wave (km/s) = 5.99930 7.19271 6.62294
#
# Compressibility (1/GPa) = 0.02423283
#
# Stress axis : x y z
#
# Youngs Moduli (GPa) = 64.69159 114.70415 45.27066
#
# Poissons Ratio (x) = 0.33827 0.08180
# Poissons Ratio (y) = 0.19078 0.28341
# Poissons Ratio (z) = 0.11689 0.71809
#
# Static dielectric constant tensor:
#      x y z
#    x 4.142910 0.072320 -0.370550 
#    y 0.072320 4.255690 0.005380 
#    z -0.370550 0.005380 3.804670 
# 
# 
# High freq. dielectric constant tensor:
#      x y z
#    x 1.836380 0.000410 -0.006720 
#    y 0.000410 1.858210 0.003840 
#    z -0.006720 0.003840 1.825640 
# 
# From -- ./inp_files/36869.got.cif
#   From: 2010.06.25/outbox.cif.g09.slc.cpg/sg2_19_cif.got.tgz:36869.got - 2010.06.27 13:26:56.
