data_PCOD8012783
_publ_section_title
;
Structure prediction by ZEFSAII (Michael W. Deem and Ramdas Pophale) SiO2 
 PCOD8012783
Probable space group: P -1
;
_chemical_formula_sum "Si O2"
_cell_formula_units_Z 12
_cell_length_a 9.410528
_cell_length_b 15.062404
_cell_length_c 12.713348
_cell_angle_alpha 152.458662
_cell_angle_beta 85.632746
_cell_angle_gamma 75.552904
_cell_volume 603.273469
_symmetry_space_group_name_H-M "P -1"
_symmetry_group_IT_number 2
_symmetry_cell_setting 'triclinic'
loop_
_space_group_symop_operation_xyz
x,y,z
-x,-y,-z
loop_
_atom_site_type_symbol
_atom_site_label
_atom_site_fract_x
_atom_site_fract_y
_atom_site_fract_z
Si Si1 0.214473 0.744908 0.685135
Si Si2 0.004652 0.505456 0.880662
Si Si3 0.478348 0.799178 0.818844
Si Si4 0.696927 0.067772 0.800844
Si Si5 0.715560 0.468719 0.770573
Si Si6 0.976599 0.970665 0.349628
O O1 0.352014 0.808129 0.745648
O O2 0.306883 0.498020 0.498579
O O3 0.200166 0.669400 0.491794
O O4 0.000000 0.000000 0.000000
O O5 0.821433 0.563786 0.902738
O O6 0.211442 0.225107 0.536943
O O7 0.989966 0.733827 0.078954
O O8 0.000000 0.500000 0.000000
O O9 0.368737 0.867705 0.007373
O O10 0.500000 0.000000 0.000000
O O11 0.858413 0.080999 0.785091
O O12 0.515840 0.276168 0.951622
O O13 0.764702 0.249037 0.617308
O O14 0.000000 0.000000 0.500000
#
# Coordination Sequence:
#
# PCOD8012783 Si02
#       6
#     2   2   2   2   2   2
#     4  10  21  40  63  92 126 159 205 253 302 368
#     4  11  22  41  60  87 125 161 207 255 300 357
#     4  10  23  41  64  93 128 160 202 252 308 362
#     4  10  23  41  62  93 124 160 206 251 305 366
#     4  10  23  39  61  94 122 161 211 246 304 370
#     4  11  22  42  62  86 124 163 202 258 306 352
#
# _framework density 19.891476999999998
#
# number of rings (size 3 to 8) (size 9 to 14) (size 15 to 20)
#    0.000    1.667    3.333    2.000    0.000   11.333 
#    0.000    0.000    0.000    0.000    0.000    0.000 
#    0.000    0.000    0.000    0.000    0.000    0.000 
#
# Total GULP energy -148800.798298 kJ/mol
# GULP energy per Si atom -12400.066525 kJ/mol
# Density = 1.984620 g / cm^3
# Si number density = 19.891477 Si / 1000 Ang^3
#
#
#
# Elastic Constant Matrix: (Units=GPa)
#
#
# Indices 1 2 3 4 5 6 
#
# 1 112.5897 51.9106 47.2877 17.6955 31.8251 5.6415
# 2 51.9106 87.3224 22.9227 12.8949 12.0812 -3.2184
# 3 47.2877 22.9227 107.7190 27.7213 15.0589 3.7503
# 4 17.6955 12.8949 27.7213 48.7034 2.6907 7.1046
# 5 31.8251 12.0812 15.0589 2.6907 43.8629 5.7530
# 6 5.6415 -3.2184 3.7503 7.1046 5.7530 41.1731
#
#
#
# Elastic Compliance Matrix: (Units=1/GPa)
#
#
# Indices 1 2 3 4 5 6 
#
# 1 0.016756 -0.007570 -0.004268 -0.001023 -0.008393 -0.001150
# 2 -0.007570 0.016190 0.000218 -0.002071 0.000753 0.002535
# 3 -0.004268 0.000218 0.012724 -0.005777 -0.001054 0.000587
# 4 -0.001023 -0.002071 -0.005777 0.025222 0.002295 -0.004168
# 5 -0.008393 0.000753 -0.001054 0.002295 0.029320 -0.003188
# 6 -0.001150 0.002535 0.000587 -0.004168 -0.003188 0.025755
#
#
# Mechanical properties :
#
#
# Convention : Reuss Voigt Hill
#
# Bulk Modulus (GPa) = 44.58649 61.31923 52.95286
# Shear Modulus (GPa) = 31.91129 39.11522 35.51326
#
# Velocity S-wave (km/s) = 4.00968 4.43926 4.22992
# Velocity P-wave (km/s) = 6.62573 7.56107 7.10880
#
# Compressibility (1/GPa) = 0.02242832
#
# Stress axis : x y z
#
# Youngs Moduli (GPa) = 59.68144 61.76582 78.58953
#
# Poissons Ratio (x) = 0.46760 0.33542
# Poissons Ratio (y) = 0.45182 -0.01709
# Poissons Ratio (z) = 0.25472 -0.01343
#
# Static dielectric constant tensor:
#      x y z
#    x 3.441080 -0.128350 -0.014170 
#    y -0.128350 3.958440 0.328160 
#    z -0.014170 0.328160 3.837300 
# 
# 
# High freq. dielectric constant tensor:
#      x y z
#    x 1.766980 -0.016930 0.009980 
#    y -0.016930 1.782550 0.008590 
#    z 0.009980 0.008590 1.794320 
# 
# From -- ./inp_files/138137.got.cif
#   From: 2010.06.25/outbox.cif.g09.slc.cpg/sg2_70_cif.got.tgz:138137.got - 2010.06.27 13:26:56.
