data_PCOD8012321
_publ_section_title
;
Structure prediction by ZEFSAII (Michael W. Deem and Ramdas Pophale) SiO2 
 PCOD8012321
Probable space group: P -1
;
_chemical_formula_sum "Si O2"
_cell_formula_units_Z 12
_cell_length_a 17.203969
_cell_length_b 6.816721
_cell_length_c 8.304818
_cell_angle_alpha 99.573985
_cell_angle_beta 125.793230
_cell_angle_gamma 46.163139
_cell_volume 520.231892
_symmetry_space_group_name_H-M "P -1"
_symmetry_group_IT_number 2
_symmetry_cell_setting 'triclinic'
loop_
_space_group_symop_operation_xyz
x,y,z
-x,-y,-z
loop_
_atom_site_type_symbol
_atom_site_label
_atom_site_fract_x
_atom_site_fract_y
_atom_site_fract_z
Si Si1 0.934830 0.402884 0.834442
Si Si2 0.182489 0.475731 0.637116
Si Si3 0.603965 0.572205 0.271128
Si Si4 0.343827 0.340569 0.336317
Si Si5 0.825381 0.200828 0.068660
Si Si6 0.298920 0.937974 0.887498
O O1 0.914755 0.434354 0.620149
O O2 0.786636 0.609063 0.779850
O O3 0.049192 0.043025 0.942765
O O4 0.000000 0.500000 0.000000
O O5 0.333588 0.335808 0.739864
O O6 0.113456 0.748585 0.709978
O O7 0.193745 0.257804 0.723259
O O8 0.665109 0.475622 0.513104
O O9 0.648409 0.292691 0.217134
O O10 0.432165 0.858537 0.107767
O O11 0.500000 0.000000 0.500000
O O12 0.313163 0.485007 0.144462
O O13 0.777090 0.063007 0.062037
#
# Coordination Sequence:
#
# PCOD8012321 Si02
#       6
#     2   2   2   2   2   2
#     4  11  27  46  69 104 138 183 227 280 345 405
#     4  10  22  44  69  93 139 181 230 273 342 403
#     4   9  21  39  64 100 137 177 226 285 336 395
#     4  11  25  46  72  97 142 182 227 283 344 399
#     4  11  25  44  70 103 140 176 228 285 341 404
#     4  10  21  39  69 103 132 180 231 278 337 407
#
# _framework density 23.066635000000002
#
# number of rings (size 3 to 8) (size 9 to 14) (size 15 to 20)
#    0.000    1.667    0.000    2.500    7.000    8.000 
#    3.000    0.000    0.000    0.000    0.000    0.000 
#    0.000    0.000    0.000    0.000    0.000    0.000 
#
# Total GULP energy -148735.859039 kJ/mol
# GULP energy per Si atom -12394.654920 kJ/mol
# Density = 2.301413 g / cm^3
# Si number density = 23.066635 Si / 1000 Ang^3
#
#
#
# Elastic Constant Matrix: (Units=GPa)
#
#
# Indices 1 2 3 4 5 6 
#
# 1 109.2412 57.4533 54.0842 -2.1309 3.7568 4.9020
# 2 57.4533 97.4930 55.2882 -7.6457 6.4586 4.4434
# 3 54.0842 55.2882 140.4377 11.8362 5.0031 12.2175
# 4 -2.1309 -7.6457 11.8362 43.5734 -0.8772 3.2146
# 5 3.7568 6.4586 5.0031 -0.8772 39.4165 -7.8237
# 6 4.9020 4.4434 12.2175 3.2146 -7.8237 34.3423
#
#
#
# Elastic Compliance Matrix: (Units=1/GPa)
#
#
# Indices 1 2 3 4 5 6 
#
# 1 0.014060 -0.006673 -0.002802 0.000291 0.000085 -0.000155
# 2 -0.006673 0.017114 -0.004400 0.003871 -0.001608 -0.000425
# 3 -0.002802 -0.004400 0.010498 -0.003585 -0.000950 -0.002646
# 4 0.000291 0.003871 -0.003585 0.024734 0.000031 -0.001575
# 5 0.000085 -0.001608 -0.000950 0.000031 0.027076 0.006699
# 6 -0.000155 -0.000425 -0.002646 -0.001575 0.006699 0.031811
#
#
# Mechanical properties :
#
#
# Convention : Reuss Voigt Hill
#
# Bulk Modulus (GPa) = 71.82075 75.64703 73.73389
# Shear Modulus (GPa) = 31.70921 35.48953 33.59937
#
# Velocity S-wave (km/s) = 3.71169 3.92671 3.82071
# Velocity P-wave (km/s) = 7.04078 7.30924 7.17627
#
# Compressibility (1/GPa) = 0.01392355
#
# Stress axis : x y z
#
# Youngs Moduli (GPa) = 71.12222 58.43205 95.25685
#
# Poissons Ratio (x) = 0.38989 0.26691
# Poissons Ratio (y) = 0.47457 0.41911
# Poissons Ratio (z) = 0.19928 0.25709
#
# Static dielectric constant tensor:
#      x y z
#    x 4.071480 -0.193150 0.087500 
#    y -0.193150 4.059330 0.175760 
#    z 0.087500 0.175760 4.427700 
# 
# 
# High freq. dielectric constant tensor:
#      x y z
#    x 1.903210 -0.008460 0.004710 
#    y -0.008460 1.912360 0.014940 
#    z 0.004710 0.014940 1.925210 
# 
# From -- ./inp_files/34383.got.cif
#   From: 2010.06.25/outbox.cif.g09.slc.cpg/sg2_18_cif.got.tgz:34383.got - 2010.06.27 13:26:56.
