data_PCOD8012432
_publ_section_title
;
Structure prediction by ZEFSAII (Michael W. Deem and Ramdas Pophale) SiO2 
 PCOD8012432
Probable space group: P -1
;
_chemical_formula_sum "Si O2"
_cell_formula_units_Z 14
_cell_length_a 18.414499
_cell_length_b 21.793454
_cell_length_c 9.206520
_cell_angle_alpha 37.153091
_cell_angle_beta 46.857299
_cell_angle_gamma 18.491514
_cell_volume 655.740396
_symmetry_space_group_name_H-M "P -1"
_symmetry_group_IT_number 2
_symmetry_cell_setting 'triclinic'
loop_
_space_group_symop_operation_xyz
x,y,z
-x,-y,-z
loop_
_atom_site_type_symbol
_atom_site_label
_atom_site_fract_x
_atom_site_fract_y
_atom_site_fract_z
Si Si1 0.358847 0.161073 0.035584
Si Si2 0.935994 0.211533 0.083851
Si Si3 0.054027 0.884037 0.443108
Si Si4 0.511732 0.372501 0.263806
Si Si5 0.280978 0.536358 0.564974
Si Si6 0.084986 0.273260 0.408164
Si Si7 0.357189 0.964495 0.906184
O O1 0.234520 0.179068 0.245275
O O2 0.561700 0.017515 0.138568
O O3 0.142245 0.443660 0.763275
O O4 0.500000 0.000000 0.000000
O O5 0.846491 0.250885 0.285314
O O6 0.041509 0.018454 0.207265
O O7 0.698604 0.485711 0.812519
O O8 0.136305 0.112478 0.010887
O O9 0.235446 0.678858 0.454841
O O10 0.789418 0.077127 0.408881
O O11 0.469157 0.394678 0.450428
O O12 0.500000 0.500000 0.000000
O O13 0.025589 0.732341 0.477115
O O14 0.408993 0.329415 0.878186
O O15 0.275698 0.081228 0.641096
#
# Coordination Sequence:
#
# PCOD8012432 Si02
#       7
#     2   2   2   2   2   2   2
#     4  10  24  44  70  90 120 162 199 255 318 376
#     4  10  21  40  60  90 127 168 205 259 300 356
#     4  10  23  40  60  88 131 169 211 247 302 360
#     4  10  21  40  58  84 125 168 212 255 296 350
#     4  11  23  39  64  92 126 169 207 253 304 363
#     4  10  23  44  63  94 127 153 204 258 309 372
#     4  11  22  42  64  93 131 155 205 259 309 365
#
# _framework density 21.349914999999999
#
# number of rings (size 3 to 8) (size 9 to 14) (size 15 to 20)
#    0.000    1.714    2.857    0.429    2.000    4.571 
#    2.571    0.000    0.000    0.000    0.000    0.000 
#    0.000    0.000    0.000    0.000    0.000    0.000 
#
# Total GULP energy -173598.667065 kJ/mol
# GULP energy per Si atom -12399.904790 kJ/mol
# Density = 2.130132 g / cm^3
# Si number density = 21.349915 Si / 1000 Ang^3
#
#
#
# Elastic Constant Matrix: (Units=GPa)
#
#
# Indices 1 2 3 4 5 6 
#
# 1 72.8294 19.7576 20.6097 -5.9270 8.0649 -4.8369
# 2 19.7576 80.2897 17.9053 6.0945 3.5732 3.5218
# 3 20.6097 17.9053 91.2787 1.5718 23.1721 8.4139
# 4 -5.9270 6.0945 1.5718 29.1455 -13.2761 -1.4050
# 5 8.0649 3.5732 23.1721 -13.2761 34.3699 2.2949
# 6 -4.8369 3.5218 8.4139 -1.4050 2.2949 33.6240
#
#
#
# Elastic Compliance Matrix: (Units=1/GPa)
#
#
# Indices 1 2 3 4 5 6 
#
# 1 0.016327 -0.003782 -0.003497 0.004702 0.000484 0.003783
# 2 -0.003782 0.014150 -0.001383 -0.004279 -0.001185 -0.001778
# 3 -0.003497 -0.001383 0.015491 -0.006846 -0.011877 -0.003710
# 4 0.004702 -0.004279 -0.006846 0.046590 0.021733 0.003301
# 5 0.000484 -0.001185 -0.011877 0.021733 0.045442 0.000972
# 6 0.003783 -0.001778 -0.003710 0.003301 0.000972 0.031471
#
#
# Mechanical properties :
#
#
# Convention : Reuss Voigt Hill
#
# Bulk Modulus (GPa) = 34.91274 40.10480 37.50877
# Shear Modulus (GPa) = 25.46567 31.83622 28.65094
#
# Velocity S-wave (km/s) = 3.45741 3.86575 3.66726
# Velocity P-wave (km/s) = 5.68563 6.22500 5.96142
#
# Compressibility (1/GPa) = 0.02864284
#
# Stress axis : x y z
#
# Youngs Moduli (GPa) = 61.24904 70.67338 64.55267
#
# Poissons Ratio (x) = 0.26730 0.22574
# Poissons Ratio (y) = 0.23166 0.08929
# Poissons Ratio (z) = 0.21418 0.09776
#
# Static dielectric constant tensor:
#      x y z
#    x 3.974060 -0.479470 0.337000 
#    y -0.479470 3.930360 -0.279870 
#    z 0.337000 -0.279870 4.238230 
# 
# 
# High freq. dielectric constant tensor:
#      x y z
#    x 1.828730 -0.025860 0.015840 
#    y -0.025860 1.832320 0.003010 
#    z 0.015840 0.003010 1.841620 
# 
# From -- ./inp_files/49456.got.cif
#   From: 2010.06.25/outbox.cif.g09.slc.cpg/sg2_25_cif.got.tgz:49456.got - 2010.06.27 13:26:56.
