data_PCOD8012077
_publ_section_title
;
Structure prediction by ZEFSAII (Michael W. Deem and Ramdas Pophale) SiO2 
 PCOD8012077
Probable space group: P -1
;
_chemical_formula_sum "Si O2"
_cell_formula_units_Z 16
_cell_length_a 9.559779
_cell_length_b 6.833935
_cell_length_c 17.199426
_cell_angle_alpha 124.466545
_cell_angle_beta 123.128407
_cell_angle_gamma 72.585685
_cell_volume 775.733741
_symmetry_space_group_name_H-M "P -1"
_symmetry_group_IT_number 2
_symmetry_cell_setting 'triclinic'
loop_
_space_group_symop_operation_xyz
x,y,z
-x,-y,-z
loop_
_atom_site_type_symbol
_atom_site_label
_atom_site_fract_x
_atom_site_fract_y
_atom_site_fract_z
Si Si1 0.318087 0.437093 0.103070
Si Si2 0.626375 0.217657 0.099179
Si Si3 0.328269 0.870009 0.407293
Si Si4 0.088675 0.998151 0.942173
Si Si5 0.238703 0.954180 0.223936
Si Si6 0.215623 0.654183 0.662188
Si Si7 0.934133 0.852361 0.517073
Si Si8 0.569437 0.634258 0.704095
O O1 0.493098 0.432611 0.105172
O O2 0.249900 0.698802 0.127840
O O3 0.360956 0.366885 0.188184
O O4 0.172673 0.246772 0.994747
O O5 0.724952 0.219826 0.211740
O O6 0.768137 0.205602 0.070963
O O7 0.500000 0.000000 0.000000
O O8 0.258923 0.921151 0.313001
O O9 0.354510 0.590700 0.368339
O O10 0.500000 0.000000 0.500000
O O11 0.204238 0.975009 0.454373
O O12 0.942272 0.937643 0.823232
O O13 0.000000 0.000000 0.000000
O O14 0.380493 0.126827 0.271626
O O15 0.141148 0.391870 0.595016
O O16 0.368849 0.625432 0.642243
O O17 0.075533 0.814593 0.616371
O O18 0.000000 0.000000 0.500000
#
# Coordination Sequence:
#
# PCOD8012077 Si02
#       8
#     2   2   2   2   2   2   2   2
#     4   9  20  40  61  91 128 165 206 250 311 375
#     4   9  20  39  67  90 127 167 202 259 316 373
#     4  11  24  42  61  94 124 160 211 258 311 376
#     4  11  20  38  65  94 127 163 209 258 309 371
#     4  11  23  38  67  91 127 168 206 260 316 365
#     4  10  22  42  65  92 131 166 209 261 317 380
#     4  11  25  42  64  94 127 168 212 261 317 372
#     4  10  21  39  66  92 123 163 210 257 311 375
#
# _framework density 20.625634999999999
#
# number of rings (size 3 to 8) (size 9 to 14) (size 15 to 20)
#    0.000    1.750    2.500    1.125    1.750    3.500 
#    0.000    0.625    5.500    0.000    0.000    0.000 
#    0.000    0.000    0.000    0.000    0.000    0.000 
#
# Total GULP energy -198281.249988 kJ/mol
# GULP energy per Si atom -12392.578124 kJ/mol
# Density = 2.057869 g / cm^3
# Si number density = 20.625635 Si / 1000 Ang^3
#
#
#
# Elastic Constant Matrix: (Units=GPa)
#
#
# Indices 1 2 3 4 5 6 
#
# 1 171.6542 52.2128 40.1345 0.2944 0.2119 -9.9152
# 2 52.2128 65.9402 20.1394 23.6611 0.3954 9.0988
# 3 40.1345 20.1394 109.5649 3.9780 9.5011 -0.8897
# 4 0.2944 23.6611 3.9780 17.9216 -2.3974 6.2520
# 5 0.2119 0.3954 9.5011 -2.3974 36.0411 4.8514
# 6 -9.9152 9.0988 -0.8897 6.2520 4.8514 30.0931
#
#
#
# Elastic Compliance Matrix: (Units=1/GPa)
#
#
# Indices 1 2 3 4 5 6 
#
# 1 0.011576 -0.016669 -0.002034 0.021006 0.001484 0.004191
# 2 -0.016669 0.054772 -0.001141 -0.069890 -0.003918 -0.006935
# 3 -0.002034 -0.001141 0.010391 -0.001416 -0.002909 0.000745
# 4 0.021006 -0.069890 -0.001416 0.151495 0.011816 -0.005368
# 5 0.001484 -0.003918 -0.002909 0.011816 0.030103 -0.005720
# 6 0.004191 -0.006935 0.000745 -0.005368 -0.005720 0.038767
#
#
# Mechanical properties :
#
#
# Convention : Reuss Voigt Hill
#
# Bulk Modulus (GPa) = 26.98939 63.57032 45.27986
# Shear Modulus (GPa) = 14.32085 32.45601 23.38843
#
# Velocity S-wave (km/s) = 2.63786 3.97114 3.37107
# Velocity P-wave (km/s) = 4.73197 7.20517 6.09533
#
# Compressibility (1/GPa) = 0.03705159
#
# Stress axis : x y z
#
# Youngs Moduli (GPa) = 86.38783 18.25762 96.23381
#
# Poissons Ratio (x) = 0.30434 0.19570
# Poissons Ratio (y) = 1.44002 0.10978
# Poissons Ratio (z) = 0.17567 0.02083
#
# Static dielectric constant tensor:
#      x y z
#    x 4.088840 -0.321580 0.089770 
#    y -0.321580 3.538460 0.093860 
#    z 0.089770 0.093860 3.884680 
# 
# 
# High freq. dielectric constant tensor:
#      x y z
#    x 1.823130 -0.020160 0.009560 
#    y -0.020160 1.785640 0.004740 
#    z 0.009560 0.004740 1.818000 
# 
# From -- ./inp_files/47856.got.cif
#   From: 2010.06.25/outbox.cif.g09.slc.cpg/sg2_24_cif.got.tgz:47856.got - 2010.06.27 13:26:56.
