data_PCOD8012071
_publ_section_title
;
Structure prediction by ZEFSAII (Michael W. Deem and Ramdas Pophale) SiO2 
 PCOD8012071
Probable space group: P -1
;
_chemical_formula_sum "Si O2"
_cell_formula_units_Z 14
_cell_length_a 17.311908
_cell_length_b 9.804446
_cell_length_c 14.458963
_cell_angle_alpha 79.159028
_cell_angle_beta 156.396409
_cell_angle_gamma 115.299914
_cell_volume 734.714335
_symmetry_space_group_name_H-M "P -1"
_symmetry_group_IT_number 2
_symmetry_cell_setting 'triclinic'
loop_
_space_group_symop_operation_xyz
x,y,z
-x,-y,-z
loop_
_atom_site_type_symbol
_atom_site_label
_atom_site_fract_x
_atom_site_fract_y
_atom_site_fract_z
Si Si1 0.631833 0.988638 0.231236
Si Si2 0.847589 0.382933 0.720086
Si Si3 0.759151 0.564804 0.737354
Si Si4 0.047706 0.278744 0.256007
Si Si5 0.447165 0.101685 0.170015
Si Si6 0.583910 0.659615 0.197410
Si Si7 0.219094 0.255029 0.796996
O O1 0.580655 0.051435 0.258567
O O2 0.931397 0.113023 0.531168
O O3 0.508410 0.778622 0.132366
O O4 0.500000 0.000000 0.000000
O O5 0.998969 0.576145 0.806421
O O6 0.717150 0.392267 0.666956
O O7 0.634661 0.215889 0.445176
O O8 0.042960 0.355192 0.970679
O O9 0.500000 0.500000 0.500000
O O10 0.867733 0.718835 0.757112
O O11 0.276477 0.352970 0.565806
O O12 0.805959 0.077660 0.041937
O O13 0.385952 0.212836 0.032747
O O14 0.768579 0.756799 0.298553
O O15 0.328941 0.456850 0.919356
#
# Coordination Sequence:
#
# PCOD8012071 Si02
#       7
#     2   2   2   2   2   2   2
#     4  12  25  39  61  94 129 171 214 258 308 366
#     4   9  22  42  63  93 126 160 208 259 318 375
#     4   9  20  44  68  90 127 162 199 268 321 373
#     4  10  21  39  66  91 122 167 202 259 318 363
#     4  12  23  40  65  94 130 166 212 258 311 377
#     4  11  22  42  65  88 130 171 213 259 312 368
#     4  11  23  42  62  89 131 172 210 264 307 362
#
# _framework density 19.055026000000002
#
# number of rings (size 3 to 8) (size 9 to 14) (size 15 to 20)
#    0.857    0.571    4.286    1.286    0.000    5.714 
#    0.000    0.714    0.000    0.000    0.000    0.000 
#    0.000    0.000    0.000    0.000    0.000    0.000 
#
# Total GULP energy -173567.946028 kJ/mol
# GULP energy per Si atom -12397.710431 kJ/mol
# Density = 1.901166 g / cm^3
# Si number density = 19.055026 Si / 1000 Ang^3
#
#
#
# Elastic Constant Matrix: (Units=GPa)
#
#
# Indices 1 2 3 4 5 6 
#
# 1 55.9434 22.2710 30.7397 -9.6953 -4.4474 -6.5833
# 2 22.2710 63.0150 30.9878 4.6420 1.0505 -6.6299
# 3 30.7397 30.9878 94.5556 -20.3604 -16.0577 -8.4231
# 4 -9.6953 4.6420 -20.3604 33.2333 3.5925 -5.4636
# 5 -4.4474 1.0505 -16.0577 3.5925 36.9259 -5.5863
# 6 -6.5833 -6.6299 -8.4231 -5.4636 -5.5863 33.4448
#
#
#
# Elastic Compliance Matrix: (Units=1/GPa)
#
#
# Indices 1 2 3 4 5 6 
#
# 1 0.024280 -0.006830 -0.003738 0.006204 0.001455 0.003740
# 2 -0.006830 0.023075 -0.008354 -0.010071 -0.004320 -0.001241
# 3 -0.003738 -0.008354 0.018849 0.011706 0.007685 0.005551
# 4 0.006204 -0.010071 0.011706 0.041672 0.003518 0.009568
# 5 0.001455 -0.004320 0.007685 0.003518 0.031468 0.007196
# 6 0.003740 -0.001241 0.005551 0.009568 0.007196 0.034553
#
#
# Mechanical properties :
#
#
# Convention : Reuss Voigt Hill
#
# Bulk Modulus (GPa) = 35.26411 42.39010 38.82711
# Shear Modulus (GPa) = 22.60442 29.35517 25.97980
#
# Velocity S-wave (km/s) = 3.44796 3.92924 3.69644
# Velocity P-wave (km/s) = 5.86497 6.54826 6.21601
#
# Compressibility (1/GPa) = 0.02835744
#
# Stress axis : x y z
#
# Youngs Moduli (GPa) = 41.18664 43.33722 53.05228
#
# Poissons Ratio (x) = 0.29601 0.19834
# Poissons Ratio (y) = 0.28132 0.44322
# Poissons Ratio (z) = 0.15398 0.36205
#
# Static dielectric constant tensor:
#      x y z
#    x 3.523180 0.018900 -0.223890 
#    y 0.018900 3.549610 -0.065820 
#    z -0.223890 -0.065820 3.461060 
# 
# 
# High freq. dielectric constant tensor:
#      x y z
#    x 1.735020 0.005030 -0.016320 
#    y 0.005030 1.742540 -0.005180 
#    z -0.016320 -0.005180 1.745540 
# 
# From -- ./inp_files/507159.got.cif
#   From: 2010.06.25/outbox.cif.g09.slc.cpg/sg2_254_cif.got.tgz:507159.got - 2010.06.27 13:26:56.
