data_PCOD8012435
_publ_section_title
;
Structure prediction by ZEFSAII (Michael W. Deem and Ramdas Pophale) SiO2 
 PCOD8012435
Probable space group: P -1
;
_chemical_formula_sum "Si O2"
_cell_formula_units_Z 14
_cell_length_a 11.541357
_cell_length_b 8.872110
_cell_length_c 13.271767
_cell_angle_alpha 95.308501
_cell_angle_beta 61.704719
_cell_angle_gamma 139.032798
_cell_volume 696.699884
_symmetry_space_group_name_H-M "P -1"
_symmetry_group_IT_number 2
_symmetry_cell_setting 'triclinic'
loop_
_space_group_symop_operation_xyz
x,y,z
-x,-y,-z
loop_
_atom_site_type_symbol
_atom_site_label
_atom_site_fract_x
_atom_site_fract_y
_atom_site_fract_z
Si Si1 0.083588 0.025988 0.358900
Si Si2 0.792267 0.984406 0.215042
Si Si3 0.198837 0.341172 0.725701
Si Si4 0.980748 0.719440 0.663682
Si Si5 0.366886 0.086763 0.365525
Si Si6 0.458753 0.851376 0.231738
Si Si7 0.086675 0.745874 0.007004
O O1 0.887385 0.760160 0.359266
O O2 0.149201 0.239567 0.284340
O O3 0.293496 0.109759 0.295634
O O4 0.000000 0.000000 0.500000
O O5 0.880217 0.164067 0.284192
O O6 0.790575 0.805249 0.226432
O O7 0.538396 0.806015 0.282883
O O8 0.955986 0.178905 0.065249
O O9 0.447773 0.643252 0.633731
O O10 0.030560 0.299091 0.848346
O O11 0.792280 0.413813 0.719617
O O12 0.150509 0.855856 0.509603
O O13 0.475335 0.032291 0.283856
O O14 0.640732 0.011869 0.074973
O O15 0.000000 0.500000 0.000000
#
# Coordination Sequence:
#
# PCOD8012435 Si02
#       7
#     2   2   2   2   2   2   2
#     4   9  22  39  60  90 120 155 201 243 291 359
#     4   9  22  38  62  87 117 159 200 249 292 354
#     4  11  20  41  63  90 119 161 199 242 304 344
#     4  10  21  40  58  89 120 158 202 242 302 348
#     4  11  22  36  63  90 123 159 195 247 298 359
#     4  10  22  38  57  88 124 156 199 247 292 352
#     4  10  21  42  60  87 123 155 205 244 294 359
#
# _framework density 20.094736000000001
#
# number of rings (size 3 to 8) (size 9 to 14) (size 15 to 20)
#    0.857    1.143    1.429    1.714    0.000   10.286 
#    2.571    2.857    0.000    0.000    0.000    0.000 
#    0.000    0.000    0.000    0.000    0.000    0.000 
#
# Total GULP energy -173493.804109 kJ/mol
# GULP energy per Si atom -12392.414579 kJ/mol
# Density = 2.004900 g / cm^3
# Si number density = 20.094736 Si / 1000 Ang^3
#
#
#
# Elastic Constant Matrix: (Units=GPa)
#
#
# Indices 1 2 3 4 5 6 
#
# 1 62.6779 31.8222 24.3359 8.9284 -18.6490 -0.6517
# 2 31.8222 128.9771 23.9013 -7.5974 -11.6606 2.3963
# 3 24.3359 23.9013 69.3315 -8.2580 -15.9822 -1.7007
# 4 8.9284 -7.5974 -8.2580 33.8683 -0.5829 -4.3427
# 5 -18.6490 -11.6606 -15.9822 -0.5829 22.7674 0.4185
# 6 -0.6517 2.3963 -1.7007 -4.3427 0.4185 29.6970
#
#
#
# Elastic Compliance Matrix: (Units=1/GPa)
#
#
# Indices 1 2 3 4 5 6 
#
# 1 0.026100 -0.004626 -0.005167 -0.009030 0.015167 -0.000884
# 2 -0.004626 0.009321 -0.001196 0.002960 0.000230 -0.000493
# 3 -0.005167 -0.001196 0.019509 0.006247 0.008975 0.001887
# 4 -0.009030 0.002960 0.006247 0.034724 -0.000699 0.005008
# 5 0.015167 0.000230 0.008975 -0.000699 0.062748 -0.000158
# 6 -0.000884 -0.000493 0.001887 0.005008 -0.000158 0.034536
#
#
# Mechanical properties :
#
#
# Convention : Reuss Voigt Hill
#
# Bulk Modulus (GPa) = 30.34928 46.78948 38.56938
# Shear Modulus (GPa) = 22.73757 29.32833 26.03295
#
# Velocity S-wave (km/s) = 3.36746 3.82449 3.60323
# Velocity P-wave (km/s) = 5.50051 6.54502 6.04536
#
# Compressibility (1/GPa) = 0.03294971
#
# Stress axis : x y z
#
# Youngs Moduli (GPa) = 38.31485 107.28919 51.25900
#
# Poissons Ratio (x) = 0.49634 0.26488
# Poissons Ratio (y) = 0.17725 0.06131
# Poissons Ratio (z) = 0.19799 0.12832
#
# Static dielectric constant tensor:
#      x y z
#    x 3.995380 -0.033210 -0.044790 
#    y -0.033210 3.586520 0.022870 
#    z -0.044790 0.022870 3.371480 
# 
# 
# High freq. dielectric constant tensor:
#      x y z
#    x 1.787700 -0.006080 -0.006130 
#    y -0.006080 1.790950 0.002060 
#    z -0.006130 0.002060 1.761040 
# 
# From -- ./inp_files/514428.got.cif
#   From: 2010.06.25/outbox.cif.g09.slc.cpg/sg2_258_cif.got.tgz:514428.got - 2010.06.27 13:26:56.
