data_PCOD8012613
_publ_section_title
;
Structure prediction by ZEFSAII (Michael W. Deem and Ramdas Pophale) SiO2 
 PCOD8012613
Probable space group: P -1
;
_chemical_formula_sum "Si O2"
_cell_formula_units_Z 16
_cell_length_a 15.471594
_cell_length_b 9.050962
_cell_length_c 11.872812
_cell_angle_alpha 36.778938
_cell_angle_beta 129.118242
_cell_angle_gamma 117.603241
_cell_volume 769.143359
_symmetry_space_group_name_H-M "P -1"
_symmetry_group_IT_number 2
_symmetry_cell_setting 'triclinic'
loop_
_space_group_symop_operation_xyz
x,y,z
-x,-y,-z
loop_
_atom_site_type_symbol
_atom_site_label
_atom_site_fract_x
_atom_site_fract_y
_atom_site_fract_z
Si Si1 0.837477 0.722476 0.216926
Si Si2 0.498257 0.335667 0.781786
Si Si3 0.310155 0.050987 0.845556
Si Si4 0.807841 0.227900 0.262255
Si Si5 0.805762 0.757155 0.911844
Si Si6 0.432774 0.143136 0.455015
Si Si7 0.567079 0.287705 0.113822
Si Si8 0.918292 0.155389 0.618643
O O1 0.742029 0.819361 0.166097
O O2 0.857093 0.426470 0.429246
O O3 0.949372 0.849573 0.259531
O O4 0.796382 0.808923 0.006226
O O5 0.377698 0.241303 0.708223
O O6 0.502878 0.626330 0.588681
O O7 0.500750 0.264227 0.959251
O O8 0.604257 0.183547 0.902065
O O9 0.213276 0.959874 0.741018
O O10 0.693164 0.348350 0.154028
O O11 0.887204 0.083119 0.508993
O O12 0.863074 0.474670 0.112973
O O13 0.686944 0.766968 0.747428
O O14 0.880143 0.955741 0.797023
O O15 0.500000 0.000000 0.500000
O O16 0.423436 0.974528 0.657683
O O17 0.500000 0.500000 0.000000
#
# Coordination Sequence:
#
# PCOD8012613 Si02
#       8
#     2   2   2   2   2   2   2   2
#     4  10  24  41  65  91 122 158 204 258 313 359
#     4  10  23  40  57  87 130 164 200 249 299 368
#     4  10  22  42  60  85 132 169 195 249 312 360
#     4  10  21  40  62  86 123 163 201 253 300 368
#     4  11  21  39  64  90 122 154 206 261 298 358
#     4  12  22  33  63  95 117 159 208 243 304 363
#     4  11  20  35  58  89 121 156 199 249 298 353
#     4  10  22  42  66  93 116 156 210 263 304 356
#
# _framework density 20.802364000000001
#
# number of rings (size 3 to 8) (size 9 to 14) (size 15 to 20)
#    0.000    1.500    5.000    0.375    7.000    0.500 
#    0.000   11.250    0.000    0.000    0.000    0.000 
#    0.000    0.000    0.000    0.000    0.000    0.000 
#
# Total GULP energy -198349.795227 kJ/mol
# GULP energy per Si atom -12396.862202 kJ/mol
# Density = 2.075502 g / cm^3
# Si number density = 20.802364 Si / 1000 Ang^3
#
#
#
# Elastic Constant Matrix: (Units=GPa)
#
#
# Indices 1 2 3 4 5 6 
#
# 1 63.4435 22.5848 29.0910 -14.2433 -9.5980 5.7952
# 2 22.5848 97.1776 34.7067 -8.2641 -9.3775 16.6470
# 3 29.0910 34.7067 103.0146 -11.3237 -28.9521 4.6364
# 4 -14.2433 -8.2641 -11.3237 38.8769 3.0416 -6.6004
# 5 -9.5980 -9.3775 -28.9521 3.0416 29.6928 -8.0125
# 6 5.7952 16.6470 4.6364 -6.6004 -8.0125 27.2272
#
#
#
# Elastic Compliance Matrix: (Units=1/GPa)
#
#
# Indices 1 2 3 4 5 6 
#
# 1 0.019870 -0.002646 -0.003737 0.005482 0.001312 -0.000260
# 2 -0.002646 0.013477 -0.004297 -0.000474 -0.002874 -0.007905
# 3 -0.003737 -0.004297 0.016312 0.002259 0.014589 0.005486
# 4 0.005482 -0.000474 0.002259 0.029202 0.002611 0.006585
# 5 0.001312 -0.002874 0.014589 0.002611 0.051110 0.014667
# 6 -0.000260 -0.007905 0.005486 0.006585 0.014667 0.046595
#
#
# Mechanical properties :
#
#
# Convention : Reuss Voigt Hill
#
# Bulk Modulus (GPa) = 35.33681 48.48899 41.91290
# Shear Modulus (GPa) = 24.11267 30.97626 27.54447
#
# Velocity S-wave (km/s) = 3.40830 3.86304 3.64277
# Velocity P-wave (km/s) = 5.70197 6.57704 6.15507
#
# Compressibility (1/GPa) = 0.02829910
#
# Stress axis : x y z
#
# Youngs Moduli (GPa) = 50.32589 74.20175 61.30461
#
# Poissons Ratio (x) = 0.19634 0.22908
# Poissons Ratio (y) = 0.13317 0.26344
# Poissons Ratio (z) = 0.18806 0.31886
#
# Static dielectric constant tensor:
#      x y z
#    x 3.521110 0.231530 -0.175810 
#    y 0.231530 4.058700 0.143140 
#    z -0.175810 0.143140 3.764590 
# 
# 
# High freq. dielectric constant tensor:
#      x y z
#    x 1.794610 0.013210 -0.010250 
#    y 0.013210 1.833900 0.001070 
#    z -0.010250 0.001070 1.807110 
# 
# From -- ./inp_files/460959.got.cif
#   From: 2010.06.25/outbox.cif.g09.slc.cpg/sg2_231_cif.got.tgz:460959.got - 2010.06.27 13:26:56.
