data_PCOD8012599
_publ_section_title
;
Structure prediction by ZEFSAII (Michael W. Deem and Ramdas Pophale) SiO2 
 PCOD8012599
Probable space group: P -1
;
_chemical_formula_sum "Si O2"
_cell_formula_units_Z 16
_cell_length_a 21.462829
_cell_length_b 18.128945
_cell_length_c 9.480925
_cell_angle_alpha 117.754179
_cell_angle_beta 50.982705
_cell_angle_gamma 161.330951
_cell_volume 780.452568
_symmetry_space_group_name_H-M "P -1"
_symmetry_group_IT_number 2
_symmetry_cell_setting 'triclinic'
loop_
_space_group_symop_operation_xyz
x,y,z
-x,-y,-z
loop_
_atom_site_type_symbol
_atom_site_label
_atom_site_fract_x
_atom_site_fract_y
_atom_site_fract_z
Si Si1 0.973363 0.318625 0.062210
Si Si2 0.511926 0.327516 0.619839
Si Si3 0.355728 0.844365 0.925769
Si Si4 0.931515 0.275320 0.781657
Si Si5 0.511472 0.138618 0.479635
Si Si6 0.013709 0.206435 0.425552
Si Si7 0.930466 0.735163 0.930819
Si Si8 0.495158 0.396898 0.415358
O O1 0.118148 0.547736 0.029011
O O2 0.107297 0.392381 0.054237
O O3 0.687249 0.064357 0.290353
O O4 0.961935 0.258054 0.874733
O O5 0.498271 0.216995 0.494943
O O6 0.726244 0.555689 0.640525
O O7 0.583981 0.452466 0.491773
O O8 0.215215 0.055623 0.851638
O O9 0.276363 0.858869 0.008837
O O10 0.544713 0.989570 0.668801
O O11 0.500000 0.000000 0.000000
O O12 0.197592 0.583923 0.626624
O O13 0.861927 0.138230 0.640578
O O14 0.098963 0.306185 0.232058
O O15 0.800726 0.922531 0.485619
O O16 0.702176 0.570568 0.159254
O O17 0.500000 0.500000 0.500000
#
# Coordination Sequence:
#
# PCOD8012599 Si02
#       8
#     2   2   2   2   2   2   2   2
#     4  10  21  40  62  82 114 162 201 246 294 351
#     4   9  21  42  63  88 127 159 201 254 296 355
#     4  11  24  34  52  86 125 154 195 252 297 341
#     4  10  22  38  59  83 116 157 200 249 300 344
#     4   9  19  39  59  79 112 160 203 241 296 343
#     4  10  23  41  65  92 123 158 204 253 298 360
#     4  10  22  40  66  89 120 158 207 244 304 359
#     4  11  24  41  65  94 125 159 195 243 306 370
#
# _framework density 20.500923
#
# number of rings (size 3 to 8) (size 9 to 14) (size 15 to 20)
#    0.000    2.000    0.000    3.750    7.000    9.000 
#    0.000    1.250    0.000    0.000    0.000    0.000 
#    0.000    0.000    0.000    0.000    0.000    0.000 
#
# Total GULP energy -198278.347301 kJ/mol
# GULP energy per Si atom -12392.396706 kJ/mol
# Density = 2.045426 g / cm^3
# Si number density = 20.500923 Si / 1000 Ang^3
#
#
#
# Elastic Constant Matrix: (Units=GPa)
#
#
# Indices 1 2 3 4 5 6 
#
# 1 102.1045 37.4169 45.2632 14.9611 10.7224 1.1168
# 2 37.4169 82.4394 33.6526 13.4330 11.9612 13.4860
# 3 45.2632 33.6526 130.5000 3.6292 15.9614 -0.1020
# 4 14.9611 13.4330 3.6292 28.4492 1.6582 -2.5742
# 5 10.7224 11.9612 15.9614 1.6582 27.1334 2.6119
# 6 1.1168 13.4860 -0.1020 -2.5742 2.6119 34.4102
#
#
#
# Elastic Compliance Matrix: (Units=1/GPa)
#
#
# Indices 1 2 3 4 5 6 
#
# 1 0.013566 -0.003947 -0.003382 -0.004678 -0.001428 0.000855
# 2 -0.003947 0.017687 -0.002573 -0.006369 -0.003660 -0.007010
# 3 -0.003382 -0.002573 0.009886 0.002086 -0.003624 0.001579
# 4 -0.004678 -0.006369 0.002086 0.040843 0.000386 0.005680
# 5 -0.001428 -0.003660 -0.003624 0.000386 0.041298 -0.001636
# 6 0.000855 -0.007010 0.001579 0.005680 -0.001636 0.032335
#
#
# Mechanical properties :
#
#
# Convention : Reuss Voigt Hill
#
# Bulk Modulus (GPa) = 46.87075 60.85659 53.86367
# Shear Modulus (GPa) = 27.39276 31.24596 29.31936
#
# Velocity S-wave (km/s) = 3.65933 3.90824 3.78583
# Velocity P-wave (km/s) = 6.38488 7.07920 6.74098
#
# Compressibility (1/GPa) = 0.02133527
#
# Stress axis : x y z
#
# Youngs Moduli (GPa) = 73.71605 56.53778 101.15517
#
# Poissons Ratio (x) = 0.22315 0.34210
# Poissons Ratio (y) = 0.29095 0.26026
# Poissons Ratio (z) = 0.24930 0.14546
#
# Static dielectric constant tensor:
#      x y z
#    x 3.425530 0.122880 0.147260 
#    y 0.122880 3.559230 -0.164620 
#    z 0.147260 -0.164620 3.848600 
# 
# 
# High freq. dielectric constant tensor:
#      x y z
#    x 1.791920 0.008290 0.006130 
#    y 0.008290 1.787900 -0.009110 
#    z 0.006130 -0.009110 1.814130 
# 
# From -- ./inp_files/348519.got.cif
#   From: 2010.06.25/outbox.cif.g09.slc.cpg/sg2_175_cif.got.tgz:348519.got - 2010.06.27 13:26:56.
