data_PCOD8012897
_publ_section_title
;
Structure prediction by ZEFSAII (Michael W. Deem and Ramdas Pophale) SiO2 
 PCOD8012897
Probable space group: P -1
;
_chemical_formula_sum "Si O2"
_cell_formula_units_Z 16
_cell_length_a 20.414853
_cell_length_b 23.711502
_cell_length_c 8.782940
_cell_angle_alpha 28.685602
_cell_angle_beta 30.741339
_cell_angle_gamma 22.469662
_cell_volume 751.840617
_symmetry_space_group_name_H-M "P -1"
_symmetry_group_IT_number 2
_symmetry_cell_setting 'triclinic'
loop_
_space_group_symop_operation_xyz
x,y,z
-x,-y,-z
loop_
_atom_site_type_symbol
_atom_site_label
_atom_site_fract_x
_atom_site_fract_y
_atom_site_fract_z
Si Si1 0.113021 0.316399 0.670373
Si Si2 0.694937 0.229070 0.350254
Si Si3 0.000868 0.852761 0.563658
Si Si4 0.194357 0.204066 0.443120
Si Si5 0.345374 0.340685 0.802627
Si Si6 0.482247 0.169212 0.260749
Si Si7 0.631455 0.314237 0.629253
Si Si8 0.900223 0.287505 0.621095
O O1 0.090191 0.310146 0.550646
O O2 0.313900 0.214443 0.569992
O O3 0.000000 0.500000 0.500000
O O4 0.036306 0.255621 0.057125
O O5 0.512849 0.290263 0.496963
O O6 0.654404 0.293236 0.451684
O O7 0.750915 0.307768 0.958644
O O8 0.844993 0.034895 0.502498
O O9 0.178691 0.788102 0.434701
O O10 0.022256 0.839594 0.370036
O O11 0.065422 0.208985 0.586042
O O12 0.357931 0.023683 0.604087
O O13 0.260245 0.278426 0.040640
O O14 0.192377 0.534794 0.673878
O O15 0.419455 0.243414 0.042586
O O16 0.548207 0.247261 0.023746
O O17 0.500000 0.500000 0.500000
#
# Coordination Sequence:
#
# PCOD8012897 Si02
#       8
#     2   2   2   2   2   2   2   2
#     4  11  21  38  65  95 122 160 210 262 309 364
#     4  11  23  41  63  90 123 167 208 257 312 368
#     4  12  23  40  61  92 129 166 209 257 307 372
#     4  11  22  42  65  91 124 164 206 256 313 371
#     4  10  21  40  64  90 122 162 207 257 308 365
#     4  10  21  40  65  91 119 160 207 255 308 368
#     4  11  22  40  65  94 122 160 211 261 308 369
#     4  12  25  41  61  93 132 169 205 253 312 371
#
# _framework density 21.281105
#
# number of rings (size 3 to 8) (size 9 to 14) (size 15 to 20)
#    0.000    1.000    0.000   10.500    0.000    0.000 
#    0.000    5.000    0.000    0.000    0.000    0.000 
#    0.000    0.000    0.000    0.000    0.000    0.000 
#
# Total GULP energy -198392.367300 kJ/mol
# GULP energy per Si atom -12399.522956 kJ/mol
# Density = 2.123267 g / cm^3
# Si number density = 21.281105 Si / 1000 Ang^3
#
#
#
# Elastic Constant Matrix: (Units=GPa)
#
#
# Indices 1 2 3 4 5 6 
#
# 1 47.8810 35.3834 62.5865 20.0414 3.5203 15.5513
# 2 35.3834 98.1028 -12.1660 -13.2230 2.7476 8.7123
# 3 62.5865 -12.1660 63.2208 0.3061 -23.0525 -5.5055
# 4 20.0414 -13.2230 0.3061 46.0213 -5.3538 -8.9443
# 5 3.5203 2.7476 -23.0525 -5.3538 27.5535 1.2869
# 6 15.5513 8.7123 -5.5055 -8.9443 1.2869 38.2683
#
#
#
# Elastic Compliance Matrix: (Units=1/GPa)
#
#
# Indices 1 2 3 4 5 6 
#
# 1 -0.008323 0.004977 0.014841 0.007719 0.014217 0.005710
# 2 0.004977 0.008036 -0.006260 -0.001552 -0.006748 -0.004889
# 3 0.014841 -0.006260 -0.002476 -0.010222 -0.004994 -0.007183
# 4 0.007719 -0.001552 -0.010222 0.017286 -0.006024 -0.000011
# 5 0.014217 -0.006748 -0.004994 -0.006024 0.030146 -0.007381
# 6 0.005710 -0.004889 -0.007183 -0.000011 -0.007381 0.024136
#
#
# Mechanical properties :
#
#
# Convention : Reuss Voigt Hill
#
# Bulk Modulus (GPa) = 41.06074 42.31247 41.68661
# Shear Modulus (GPa) = 100.38769 30.59533 65.49151
#
# Velocity S-wave (km/s) = 6.87565 3.79578 5.55349
# Velocity P-wave (km/s) = 9.07575 6.25591 7.79441
#
# Compressibility (1/GPa) = 0.02435416
#
# Stress axis : x y z
#
# Youngs Moduli (GPa) = -120.15499 124.44326 -403.91914
#
# Poissons Ratio (x) = -0.61940 5.99442
# Poissons Ratio (y) = 0.59806 -2.52841
# Poissons Ratio (z) = 1.78318 0.77898
#
# Static dielectric constant tensor:
#      x y z
#    x 3.835270 -0.156040 -0.576040 
#    y -0.156040 3.864010 0.221710 
#    z -0.576040 0.221710 4.504700 
# 
# 
# High freq. dielectric constant tensor:
#      x y z
#    x 1.819010 -0.006820 -0.029470 
#    y -0.006820 1.850120 -0.001510 
#    z -0.029470 -0.001510 1.854660 
# 
# From -- ./inp_files/294738.got.cif
#   From: 2010.06.25/outbox.cif.g09.slc.cpg/sg2_148_cif.got.tgz:294738.got - 2010.06.27 13:26:56.
