data_PCOD8012850
_publ_section_title
;
Structure prediction by ZEFSAII (Michael W. Deem and Ramdas Pophale) SiO2 
 PCOD8012850
Probable space group: P -1
;
_chemical_formula_sum "Si O2"
_cell_formula_units_Z 16
_cell_length_a 10.938936
_cell_length_b 9.816420
_cell_length_c 8.599528
_cell_angle_alpha 98.783137
_cell_angle_beta 117.261671
_cell_angle_gamma 65.442923
_cell_volume 745.797504
_symmetry_space_group_name_H-M "P -1"
_symmetry_group_IT_number 2
_symmetry_cell_setting 'triclinic'
loop_
_space_group_symop_operation_xyz
x,y,z
-x,-y,-z
loop_
_atom_site_type_symbol
_atom_site_label
_atom_site_fract_x
_atom_site_fract_y
_atom_site_fract_z
Si Si1 0.892681 0.444920 0.829084
Si Si2 0.430082 0.361232 0.803923
Si Si3 0.462833 0.887683 0.748736
Si Si4 0.409607 0.442862 0.158555
Si Si5 0.036067 0.101246 0.759129
Si Si6 0.345155 0.950051 0.037191
Si Si7 0.861046 0.618989 0.530987
Si Si8 0.842600 0.934820 0.524869
O O1 0.749147 0.454602 0.844926
O O2 0.839067 0.551320 0.667936
O O3 0.974917 0.274167 0.797272
O O4 0.000000 0.500000 0.000000
O O5 0.470602 0.480346 0.748268
O O6 0.580284 0.210663 0.865315
O O7 0.291345 0.335191 0.646950
O O8 0.379586 0.417425 0.958009
O O9 0.517890 0.710076 0.728495
O O10 0.604386 0.933505 0.818337
O O11 0.336244 0.970782 0.561893
O O12 0.396372 0.939884 0.888237
O O13 0.095787 0.086483 0.616955
O O14 0.913041 0.029198 0.685974
O O15 0.165801 0.010023 0.942233
O O16 0.886437 0.771809 0.599684
O O17 0.000000 0.500000 0.500000
#
# Coordination Sequence:
#
# PCOD8012850 Si02
#       8
#     2   2   2   2   2   2   2   2
#     4  12  26  44  65  99 140 179 217 276 345 397
#     4  10  22  42  67 100 125 175 231 274 324 399
#     4   9  17  33  62  89 127 168 214 264 322 391
#     4  10  23  40  66  95 136 176 220 274 333 399
#     4  10  22  39  67  96 134 176 219 273 333 397
#     4   9  17  34  63  91 123 165 220 266 315 389
#     4  12  24  41  70  98 134 170 225 280 333 400
#     4  10  21  40  64 102 127 169 229 275 326 396
#
# _framework density 21.453544999999998
#
# number of rings (size 3 to 8) (size 9 to 14) (size 15 to 20)
#    0.000    1.750    2.500    1.500    3.500    4.500 
#    0.000    4.375    0.000    0.000    0.000    0.000 
#    0.000    0.000    0.000    0.000    0.000    0.000 
#
# Total GULP energy -198423.586538 kJ/mol
# GULP energy per Si atom -12401.474159 kJ/mol
# Density = 2.140472 g / cm^3
# Si number density = 21.453545 Si / 1000 Ang^3
#
#
#
# Elastic Constant Matrix: (Units=GPa)
#
#
# Indices 1 2 3 4 5 6 
#
# 1 70.6031 31.9925 44.9263 2.5312 22.1321 3.4684
# 2 31.9925 141.2600 58.9420 -5.8643 24.1694 19.2436
# 3 44.9263 58.9420 84.0800 -8.2190 33.1200 3.4868
# 4 2.5312 -5.8643 -8.2190 30.1863 2.6923 12.5222
# 5 22.1321 24.1694 33.1200 2.6923 40.0724 0.9991
# 6 3.4684 19.2436 3.4868 12.5222 0.9991 29.4270
#
#
#
# Elastic Compliance Matrix: (Units=1/GPa)
#
#
# Indices 1 2 3 4 5 6 
#
# 1 0.022450 -0.000305 -0.011377 -0.005340 -0.002484 0.001258
# 2 -0.000305 0.011424 -0.006574 0.004029 -0.001351 -0.008324
# 3 -0.011377 -0.006574 0.029319 0.009541 -0.014590 -0.001399
# 4 -0.005340 0.004029 0.009541 0.047367 -0.009977 -0.022953
# 5 -0.002484 -0.001351 -0.014590 -0.009977 0.039726 0.005802
# 6 0.001258 -0.008324 -0.001399 -0.022953 0.005802 0.049014
#
#
# Mechanical properties :
#
#
# Convention : Reuss Voigt Hill
#
# Bulk Modulus (GPa) = 37.48171 63.07386 50.27779
# Shear Modulus (GPa) = 20.43274 30.60928 25.52101
#
# Velocity S-wave (km/s) = 3.08948 3.78136 3.45279
# Velocity P-wave (km/s) = 5.49868 6.96627 6.27553
#
# Compressibility (1/GPa) = 0.02667968
#
# Stress axis : x y z
#
# Youngs Moduli (GPa) = 44.54352 87.53721 34.10791
#
# Poissons Ratio (x) = 0.02672 0.38805
# Poissons Ratio (y) = 0.01360 0.22422
# Poissons Ratio (z) = 0.50678 0.57546
#
# Static dielectric constant tensor:
#      x y z
#    x 3.841860 0.082120 0.283220 
#    y 0.082120 3.974260 -0.021960 
#    z 0.283220 -0.021960 3.904920 
# 
# 
# High freq. dielectric constant tensor:
#      x y z
#    x 1.833420 0.006720 0.020290 
#    y 0.006720 1.855620 -0.005190 
#    z 0.020290 -0.005190 1.830820 
# 
# From -- ./inp_files/244718.got.cif
#   From: 2010.06.25/outbox.cif.g09.slc.cpg/sg2_123_cif.got.tgz:244718.got - 2010.06.27 13:26:56.
