data_PCOD8012531
_publ_section_title
;
Structure prediction by ZEFSAII (Michael W. Deem and Ramdas Pophale) SiO2 
 PCOD8012531
Probable space group: P -1
;
_chemical_formula_sum "Si O2"
_cell_formula_units_Z 16
_cell_length_a 5.432430
_cell_length_b 9.698049
_cell_length_c 19.255747
_cell_angle_alpha 85.884597
_cell_angle_beta 93.472444
_cell_angle_gamma 47.066169
_cell_volume 732.450848
_symmetry_space_group_name_H-M "P -1"
_symmetry_group_IT_number 2
_symmetry_cell_setting 'triclinic'
loop_
_space_group_symop_operation_xyz
x,y,z
-x,-y,-z
loop_
_atom_site_type_symbol
_atom_site_label
_atom_site_fract_x
_atom_site_fract_y
_atom_site_fract_z
Si Si1 0.696626 0.863424 0.572956
Si Si2 0.804539 0.709439 0.909363
Si Si3 0.565961 0.913443 0.185515
Si Si4 0.430622 0.389649 0.845200
Si Si5 0.812981 0.001244 0.690916
Si Si6 0.398476 0.697614 0.624139
Si Si7 0.781298 0.417251 0.951698
Si Si8 0.740993 0.323396 0.713192
O O1 0.591653 0.743301 0.583379
O O2 0.105106 0.730162 0.572968
O O3 0.500000 0.000000 0.500000
O O4 0.589565 0.989789 0.636114
O O5 0.685816 0.597424 0.905454
O O6 0.133384 0.592482 0.869037
O O7 0.515170 0.925520 0.870729
O O8 0.870680 0.714304 0.992698
O O9 0.622013 0.755612 0.144302
O O10 0.250328 0.010931 0.229215
O O11 0.893514 0.817133 0.240221
O O12 0.777452 0.299332 0.896254
O O13 0.450079 0.426909 0.763834
O O14 0.707974 0.201109 0.668592
O O15 0.213998 0.830134 0.685184
O O16 0.688692 0.478345 0.659856
O O17 0.500000 0.500000 0.000000
#
# Coordination Sequence:
#
# PCOD8012531 Si02
#       8
#     2   2   2   2   2   2   2   2
#     4  10  22  44  70  97 128 173 216 259 315 377
#     4  10  21  40  61  84 117 164 202 267 318 378
#     4  11  23  37  62  91 127 158 214 257 320 380
#     4  10  22  38  59  88 121 161 207 261 317 387
#     4   9  23  39  64  93 130 165 207 265 309 386
#     4  10  23  41  69  93 133 171 209 266 315 371
#     4   9  20  39  59  82 117 156 213 256 323 380
#     4  11  23  39  60  96 128 164 210 259 320 383
#
# _framework density 21.844470999999999
#
# number of rings (size 3 to 8) (size 9 to 14) (size 15 to 20)
#    0.750    1.250    0.000    2.625    3.500    7.500 
#    0.000   10.000    0.000    0.000    0.000    0.000 
#    0.000    0.000    0.000    0.000    0.000    0.000 
#
# Total GULP energy -198282.634651 kJ/mol
# GULP energy per Si atom -12392.664666 kJ/mol
# Density = 2.179475 g / cm^3
# Si number density = 21.844471 Si / 1000 Ang^3
#
#
#
# Elastic Constant Matrix: (Units=GPa)
#
#
# Indices 1 2 3 4 5 6 
#
# 1 117.0274 33.6713 30.2002 -26.3095 3.7970 24.9903
# 2 33.6713 96.3981 50.3701 -37.0739 5.2992 18.8623
# 3 30.2002 50.3701 77.3245 -36.3605 10.5771 19.6402
# 4 -26.3095 -37.0739 -36.3605 42.9898 6.4207 -5.5099
# 5 3.7970 5.2992 10.5771 6.4207 33.5182 -3.8414
# 6 24.9903 18.8623 19.6402 -5.5099 -3.8414 30.5460
#
#
#
# Elastic Compliance Matrix: (Units=1/GPa)
#
#
# Indices 1 2 3 4 5 6 
#
# 1 0.012524 0.000368 0.003450 0.010293 -0.005864 -0.011573
# 2 0.000368 0.019186 -0.003319 0.013745 -0.005605 -0.008240
# 3 0.003450 -0.003319 0.035423 0.029410 -0.019044 -0.020640
# 4 0.010293 0.013745 0.029410 0.067058 -0.028596 -0.027318
# 5 -0.005864 -0.005605 -0.019044 -0.028596 0.045283 0.021039
# 6 -0.011573 -0.008240 -0.020640 -0.027318 0.021039 0.058283
#
#
# Mechanical properties :
#
#
# Convention : Reuss Voigt Hill
#
# Bulk Modulus (GPa) = 14.67723 57.69257 36.18490
# Shear Modulus (GPa) = 19.27011 33.17803 26.22407
#
# Velocity S-wave (km/s) = 2.97332 3.90144 3.46857
# Velocity P-wave (km/s) = 4.30361 6.83835 5.71332
#
# Compressibility (1/GPa) = 0.06813273
#
# Stress axis : x y z
#
# Youngs Moduli (GPa) = 79.84495 52.12169 28.22995
#
# Poissons Ratio (x) = -0.01917 -0.09741
# Poissons Ratio (y) = -0.02936 0.09368
# Poissons Ratio (z) = -0.27550 0.17297
#
# Static dielectric constant tensor:
#      x y z
#    x 4.513760 0.187530 0.239440 
#    y 0.187530 3.721460 0.127290 
#    z 0.239440 0.127290 4.010280 
# 
# 
# High freq. dielectric constant tensor:
#      x y z
#    x 1.868150 0.016990 -0.004380 
#    y 0.016990 1.840390 0.004160 
#    z -0.004380 0.004160 1.843010 
# 
# From -- ./inp_files/55174.got.cif
#   From: 2010.06.25/outbox.cif.g09.slc.cpg/sg2_28_cif.got.tgz:55174.got - 2010.06.27 13:26:56.
