data_PCOD8012268
_publ_section_title
;
Structure prediction by ZEFSAII (Michael W. Deem and Ramdas Pophale) SiO2 
 PCOD8012268
Probable space group: P -1
;
_chemical_formula_sum "Si O2"
_cell_formula_units_Z 14
_cell_length_a 14.056145
_cell_length_b 11.880725
_cell_length_c 6.407438
_cell_angle_alpha 65.995190
_cell_angle_beta 103.247808
_cell_angle_gamma 140.407133
_cell_volume 616.406095
_symmetry_space_group_name_H-M "P -1"
_symmetry_group_IT_number 2
_symmetry_cell_setting 'triclinic'
loop_
_space_group_symop_operation_xyz
x,y,z
-x,-y,-z
loop_
_atom_site_type_symbol
_atom_site_label
_atom_site_fract_x
_atom_site_fract_y
_atom_site_fract_z
Si Si1 0.284779 0.768395 0.694786
Si Si2 0.209778 0.527911 0.185937
Si Si3 0.459825 0.794775 0.434333
Si Si4 0.839569 0.771672 0.825388
Si Si5 0.153992 0.046994 0.953616
Si Si6 0.080685 0.778630 0.466741
Si Si7 0.709918 0.860008 0.445422
O O1 0.349853 0.716433 0.632510
O O2 0.171102 0.736946 0.511819
O O3 0.421547 0.980056 0.695885
O O4 0.189144 0.626056 0.950908
O O5 0.372172 0.694839 0.249067
O O6 0.204368 0.409390 0.110220
O O7 0.090193 0.408780 0.405063
O O8 0.552158 0.755300 0.544274
O O9 0.754554 0.766488 0.608150
O O10 0.021745 0.962700 0.789369
O O11 0.785556 0.777810 0.015675
O O12 0.294495 0.140100 0.810203
O O13 0.092232 0.874488 0.194010
O O14 0.156882 0.919781 0.591658
#
# Coordination Sequence:
#
# PCOD8012268 Si02
#       7
#     2   2   2   2   2   2   2
#     4  10  24  47  63  89 128 168 209 261 308 376
#     4  12  24  39  65  96 130 160 209 264 308 365
#     4  10  25  43  66  87 126 169 215 248 320 369
#     4  10  23  37  65  99 125 162 209 254 314 371
#     4  10  21  39  68  93 130 163 203 259 312 371
#     4  10  23  39  67  98 121 162 216 254 313 367
#     4  10  21  43  65  92 128 169 204 252 313 378
#
# _framework density 22.712299000000002
#
# number of rings (size 3 to 8) (size 9 to 14) (size 15 to 20)
#    0.000    1.714    1.429    1.286    6.000    8.000 
#    0.000    1.429    0.000    0.000    0.000    0.000 
#    0.000    0.000    0.000    0.000    0.000    0.000 
#
# Total GULP energy -173482.849393 kJ/mol
# GULP energy per Si atom -12391.632100 kJ/mol
# Density = 2.266060 g / cm^3
# Si number density = 22.712299 Si / 1000 Ang^3
#
#
#
# Elastic Constant Matrix: (Units=GPa)
#
#
# Indices 1 2 3 4 5 6 
#
# 1 128.8199 36.0226 65.7237 -0.2958 -1.3624 9.1185
# 2 36.0226 81.7551 22.0314 15.7000 1.4025 -4.8722
# 3 65.7237 22.0314 79.4985 8.0801 -3.2529 -0.7746
# 4 -0.2958 15.7000 8.0801 25.7730 -1.4606 -1.7670
# 5 -1.3624 1.4025 -3.2529 -1.4606 33.0326 5.9090
# 6 9.1185 -4.8722 -0.7746 -1.7670 5.9090 16.8651
#
#
#
# Elastic Compliance Matrix: (Units=1/GPa)
#
#
# Indices 1 2 3 4 5 6 
#
# 1 0.017048 -0.006097 -0.013181 0.007368 0.002052 -0.011531
# 2 -0.006097 0.017111 0.001332 -0.010508 -0.002773 0.008171
# 3 -0.013181 0.001332 0.023992 -0.007950 0.000020 0.007773
# 4 0.007368 -0.010508 -0.007950 0.047702 0.002671 -0.003322
# 5 0.002052 -0.002773 0.000020 0.002671 0.032952 -0.013175
# 6 -0.011531 0.008171 0.007773 -0.003322 -0.013175 0.072514
#
#
# Mechanical properties :
#
#
# Convention : Reuss Voigt Hill
#
# Bulk Modulus (GPa) = 44.92483 59.73652 52.33067
# Shear Modulus (GPa) = 19.63630 26.22055 22.92842
#
# Velocity S-wave (km/s) = 2.94354 3.40143 3.18073
# Velocity P-wave (km/s) = 5.60138 6.46411 6.04815
#
# Compressibility (1/GPa) = 0.02225941
#
# Stress axis : x y z
#
# Youngs Moduli (GPa) = 58.65950 58.44056 41.68115
#
# Poissons Ratio (x) = 0.35629 0.54941
# Poissons Ratio (y) = 0.35762 -0.05553
# Poissons Ratio (z) = 0.77321 -0.07786
#
# Static dielectric constant tensor:
#      x y z
#    x 4.381620 -0.100790 0.041000 
#    y -0.100790 3.914820 0.186910 
#    z 0.041000 0.186910 3.827710 
# 
# 
# High freq. dielectric constant tensor:
#      x y z
#    x 1.907110 -0.009430 -0.002160 
#    y -0.009430 1.882850 0.015230 
#    z -0.002160 0.015230 1.881790 
# 
# From -- ./inp_files/94661.got.cif
#   From: 2010.06.25/outbox.cif.g09.slc.cpg/sg2_48_cif.got.tgz:94661.got - 2010.06.27 13:26:56.
