data_PCOD8012113
_publ_section_title
;
Structure prediction by ZEFSAII (Michael W. Deem and Ramdas Pophale) SiO2 
 PCOD8012113
Probable space group: P -1
;
_chemical_formula_sum "Si O2"
_cell_formula_units_Z 14
_cell_length_a 11.787777
_cell_length_b 18.003847
_cell_length_c 6.348445
_cell_angle_alpha 75.430703
_cell_angle_beta 57.997065
_cell_angle_gamma 35.294113
_cell_volume 613.433076
_symmetry_space_group_name_H-M "P -1"
_symmetry_group_IT_number 2
_symmetry_cell_setting 'triclinic'
loop_
_space_group_symop_operation_xyz
x,y,z
-x,-y,-z
loop_
_atom_site_type_symbol
_atom_site_label
_atom_site_fract_x
_atom_site_fract_y
_atom_site_fract_z
Si Si1 0.504057 0.920191 0.187684
Si Si2 0.716338 0.128476 0.652649
Si Si3 0.977615 0.334032 0.978178
Si Si4 0.230379 0.676684 0.509878
Si Si5 0.296297 0.761164 0.765027
Si Si6 0.079082 0.147537 0.695569
Si Si7 0.572518 0.607425 0.993024
O O1 0.375275 0.914097 0.184938
O O2 0.772004 0.762754 0.091375
O O3 0.364947 0.997101 0.494772
O O4 0.500000 0.000000 0.000000
O O5 0.675741 0.167898 0.415532
O O6 0.562618 0.256044 0.868344
O O7 0.000000 0.000000 0.500000
O O8 0.024325 0.244460 0.830204
O O9 0.792195 0.394897 0.302785
O O10 0.854175 0.465794 0.885812
O O11 0.258954 0.726414 0.624684
O O12 0.457758 0.579484 0.198661
O O13 0.993530 0.802074 0.512108
O O14 0.538335 0.628691 0.758598
O O15 0.062833 0.860459 0.075507
#
# Coordination Sequence:
#
# PCOD8012113 Si02
#       7
#     2   2   2   2   2   2   2
#     4  12  25  45  67  97 133 176 221 274 333 390
#     4  11  25  45  71  96 130 173 224 273 328 396
#     4  11  23  39  64  97 137 173 217 272 331 391
#     4   9  18  37  65  96 134 171 215 268 321 389
#     4   9  20  40  66  96 130 167 224 271 321 387
#     4  10  21  39  66  96 131 174 220 271 326 384
#     4  10  22  40  65  99 131 175 220 267 330 390
#
# _framework density 22.822375000000001
#
# number of rings (size 3 to 8) (size 9 to 14) (size 15 to 20)
#    0.000    1.714    1.429    3.429    2.000   10.286 
#    2.571    0.714    0.000    0.000    0.000    0.000 
#    0.000    0.000    0.000    0.000    0.000    0.000 
#
# Total GULP energy -173436.596575 kJ/mol
# GULP energy per Si atom -12388.328327 kJ/mol
# Density = 2.277043 g / cm^3
# Si number density = 22.822375 Si / 1000 Ang^3
#
#
#
# Elastic Constant Matrix: (Units=GPa)
#
#
# Indices 1 2 3 4 5 6 
#
# 1 103.2368 37.4842 21.6605 -4.4198 -8.0861 -10.9485
# 2 37.4842 116.7004 20.6988 -6.1667 -7.2001 -26.8263
# 3 21.6605 20.6988 64.5646 -25.4527 0.1226 -7.3808
# 4 -4.4198 -6.1667 -25.4527 35.0869 0.3434 10.0233
# 5 -8.0861 -7.2001 0.1226 0.3434 33.7017 -1.7660
# 6 -10.9485 -26.8263 -7.3808 10.0233 -1.7660 29.9136
#
#
#
# Elastic Compliance Matrix: (Units=1/GPa)
#
#
# Indices 1 2 3 4 5 6 
#
# 1 0.011727 -0.002630 -0.003783 -0.002299 0.002389 0.001911
# 2 -0.002630 0.012446 -0.003323 -0.003654 0.002641 0.010759
# 3 -0.003783 -0.003323 0.024382 0.017928 -0.002124 -0.004482
# 4 -0.002299 -0.003654 0.017928 0.044850 -0.002634 -0.014879
# 5 0.002389 0.002641 -0.002124 -0.002634 0.031129 0.005439
# 6 0.001911 0.010759 -0.004482 -0.014879 0.005439 0.047979
#
#
# Mechanical properties :
#
#
# Convention : Reuss Voigt Hill
#
# Bulk Modulus (GPa) = 34.38613 49.35432 41.87023
# Shear Modulus (GPa) = 24.79164 33.38433 29.08799
#
# Velocity S-wave (km/s) = 3.29946 3.82879 3.57394
# Velocity P-wave (km/s) = 5.44195 6.42017 5.95119
#
# Compressibility (1/GPa) = 0.02908150
#
# Stress axis : x y z
#
# Youngs Moduli (GPa) = 85.27580 80.34419 41.01357
#
# Poissons Ratio (x) = 0.21134 0.15516
# Poissons Ratio (y) = 0.22431 0.13630
# Poissons Ratio (z) = 0.32261 0.26701
#
# Static dielectric constant tensor:
#      x y z
#    x 3.860980 -0.183500 -0.132840 
#    y -0.183500 4.264500 -0.285530 
#    z -0.132840 -0.285530 4.546040 
# 
# 
# High freq. dielectric constant tensor:
#      x y z
#    x 1.876930 -0.014190 0.009130 
#    y -0.014190 1.902890 -0.009070 
#    z 0.009130 -0.009070 1.899700 
# 
# From -- ./inp_files/70587.got.cif
#   From: 2010.06.25/outbox.cif.g09.slc.cpg/sg2_36_cif.got.tgz:70587.got - 2010.06.27 13:26:56.
