data_PCOD8012947
_publ_section_title
;
Structure prediction by ZEFSAII (Michael W. Deem and Ramdas Pophale) SiO2 
 PCOD8012947
Probable space group: P -1
;
_chemical_formula_sum "Si O2"
_cell_formula_units_Z 16
_cell_length_a 11.377821
_cell_length_b 12.676684
_cell_length_c 8.200986
_cell_angle_alpha 69.270540
_cell_angle_beta 123.898357
_cell_angle_gamma 132.189329
_cell_volume 727.037709
_symmetry_space_group_name_H-M "P -1"
_symmetry_group_IT_number 2
_symmetry_cell_setting 'triclinic'
loop_
_space_group_symop_operation_xyz
x,y,z
-x,-y,-z
loop_
_atom_site_type_symbol
_atom_site_label
_atom_site_fract_x
_atom_site_fract_y
_atom_site_fract_z
Si Si1 0.821914 0.941098 0.098318
Si Si2 0.865760 0.063189 0.707634
Si Si3 0.018632 0.764858 0.842155
Si Si4 0.461654 0.687614 0.106538
Si Si5 0.831331 0.277160 0.705025
Si Si6 0.396224 0.421294 0.300137
Si Si7 0.470811 0.215873 0.520862
Si Si8 0.070708 0.574159 0.837628
O O1 0.619299 0.812516 0.050908
O O2 0.897843 0.070956 0.214884
O O3 0.828158 0.995633 0.894090
O O4 0.943262 0.888124 0.235932
O O5 0.709548 0.945061 0.532344
O O6 0.870143 0.201767 0.638400
O O7 0.031335 0.690227 0.732493
O O8 0.815958 0.679397 0.787369
O O9 0.137495 0.762358 0.073092
O O10 0.449161 0.545811 0.146119
O O11 0.489618 0.730638 0.293138
O O12 0.279067 0.655480 0.923472
O O13 0.627334 0.217797 0.563366
O O14 0.959744 0.448929 0.685783
O O15 0.500000 0.500000 0.500000
O O16 0.448508 0.320300 0.338947
O O17 0.000000 0.500000 0.000000
#
# Coordination Sequence:
#
# PCOD8012947 Si02
#       8
#     2   2   2   2   2   2   2   2
#     4  10  23  39  60  91 122 160 207 246 297 365
#     4  10  22  41  59  82 129 172 192 235 315 370
#     4  10  17  36  59  85 119 163 190 246 302 361
#     4  11  21  36  63 100 115 149 212 262 292 343
#     4  10  19  35  64  85 116 164 207 227 299 380
#     4  10  19  33  58  89 122 152 195 249 304 350
#     4  11  20  37  63  91 120 157 203 249 305 360
#     4  10  16  33  60  89 118 151 198 246 301 349
#
# _framework density 22.007111999999999
#
# number of rings (size 3 to 8) (size 9 to 14) (size 15 to 20)
#    0.000    1.750    6.250    1.125    0.000    1.000 
#    0.000    2.500    0.000    1.500    0.000    0.000 
#    0.000    0.000    0.000    0.000    0.000    0.000 
#
# Total GULP energy -198319.430387 kJ/mol
# GULP energy per Si atom -12394.964399 kJ/mol
# Density = 2.195702 g / cm^3
# Si number density = 22.007112 Si / 1000 Ang^3
#
#
#
# Elastic Constant Matrix: (Units=GPa)
#
#
# Indices 1 2 3 4 5 6 
#
# 1 118.1029 65.9119 20.3135 -4.8760 42.2189 -4.8636
# 2 65.9119 127.4523 8.3853 15.6320 16.7233 -6.9990
# 3 20.3135 8.3853 29.2178 7.0834 24.5229 1.4564
# 4 -4.8760 15.6320 7.0834 25.6464 1.0752 10.6977
# 5 42.2189 16.7233 24.5229 1.0752 34.0255 3.8534
# 6 -4.8636 -6.9990 1.4564 10.6977 3.8534 52.6931
#
#
#
# Elastic Compliance Matrix: (Units=1/GPa)
#
#
# Indices 1 2 3 4 5 6 
#
# 1 0.025381 -0.009963 0.015170 0.007529 -0.037977 0.001849
# 2 -0.009963 0.014131 0.003166 -0.012870 0.003173 0.003251
# 3 0.015170 0.003166 0.120641 -0.033326 -0.107762 0.013133
# 4 0.007529 -0.012870 -0.033326 0.062575 0.020645 -0.014307
# 5 -0.037977 0.003173 -0.107762 0.020645 0.153725 -0.015539
# 6 0.001849 0.003251 0.013133 -0.014307 -0.015539 0.023258
#
#
# Mechanical properties :
#
#
# Convention : Reuss Voigt Hill
#
# Bulk Modulus (GPa) = 5.65295 51.55493 28.60394
# Shear Modulus (GPa) = 11.31403 34.48381 22.89892
#
# Velocity S-wave (km/s) = 2.26985 3.96275 3.22921
# Velocity P-wave (km/s) = 3.07310 6.66447 5.18937
#
# Compressibility (1/GPa) = 0.17689886
#
# Stress axis : x y z
#
# Youngs Moduli (GPa) = 39.40009 70.76822 8.28908
#
# Poissons Ratio (x) = 0.70504 -0.12575
# Poissons Ratio (y) = 0.39253 -0.02624
# Poissons Ratio (z) = -0.59771 -0.22403
#
# Static dielectric constant tensor:
#      x y z
#    x 4.113830 -0.723790 0.416260 
#    y -0.723790 4.761560 0.180980 
#    z 0.416260 0.180980 3.665900 
# 
# 
# High freq. dielectric constant tensor:
#      x y z
#    x 1.851890 -0.025690 0.037540 
#    y -0.025690 1.882190 0.022990 
#    z 0.037540 0.022990 1.836840 
# 
# From -- ./inp_files/186960.got.cif
#   From: 2010.06.25/outbox.cif.g09.slc.cpg/sg2_94_cif.got.tgz:186960.got - 2010.06.27 13:26:56.
