data_PCOD8012463
_publ_section_title
;
Structure prediction by ZEFSAII (Michael W. Deem and Ramdas Pophale) SiO2 
 PCOD8012463
Probable space group: P -1
;
_chemical_formula_sum "Si O2"
_cell_formula_units_Z 14
_cell_length_a 22.002604
_cell_length_b 5.144655
_cell_length_c 5.402949
_cell_angle_alpha 100.933089
_cell_angle_beta 86.642778
_cell_angle_gamma 63.366139
_cell_volume 529.540131
_symmetry_space_group_name_H-M "P -1"
_symmetry_group_IT_number 2
_symmetry_cell_setting 'triclinic'
loop_
_space_group_symop_operation_xyz
x,y,z
-x,-y,-z
loop_
_atom_site_type_symbol
_atom_site_label
_atom_site_fract_x
_atom_site_fract_y
_atom_site_fract_z
Si Si1 0.324990 0.783840 0.258089
Si Si2 0.920172 0.253522 0.867695
Si Si3 0.954655 0.354710 0.383924
Si Si4 0.579611 0.908648 0.936505
Si Si5 0.787946 0.228728 0.990642
Si Si6 0.452456 0.844014 0.515134
Si Si7 0.715625 0.921401 0.177941
O O1 0.250525 0.787767 0.254917
O O2 0.332162 0.909348 0.544936
O O3 0.383045 0.442605 0.176447
O O4 0.328054 0.985307 0.056764
O O5 0.899006 0.422468 0.633838
O O6 0.868843 0.113295 0.906619
O O7 0.918391 0.465516 0.140736
O O8 0.997917 0.998327 0.748592
O O9 0.000000 0.500000 0.500000
O O10 0.587228 0.100665 0.732680
O O11 0.600991 0.993321 0.214230
O O12 0.500000 0.000000 0.000000
O O13 0.775696 0.024345 0.160795
O O14 0.752251 0.570074 0.155393
O O15 0.500000 0.500000 0.500000
O O16 0.500000 0.000000 0.500000
#
# Coordination Sequence:
#
# PCOD8012463 Si02
#       7
#     2   2   2   2   2   2   2
#     4  10  24  45  66  98 132 171 223 278 330 397
#     4  10  23  38  64  91 131 165 220 265 320 389
#     4  10  22  40  61  97 129 169 212 267 325 381
#     4  10  21  43  65  96 128 170 211 269 333 397
#     4  10  26  44  68  98 129 179 224 271 332 387
#     4  10  21  40  59  91 122 159 206 249 315 387
#     4  10  25  42  67  93 132 168 226 272 329 389
#
# _framework density 26.438033000000001
#
# number of rings (size 3 to 8) (size 9 to 14) (size 15 to 20)
#    0.857    1.143    0.000    1.714    6.000    1.143 
#   15.429    0.000    0.000    0.000    0.000    0.000 
#    0.000    0.000    0.000    0.000    0.000    0.000 
#
# Total GULP energy -173517.807294 kJ/mol
# GULP energy per Si atom -12394.129092 kJ/mol
# Density = 2.637786 g / cm^3
# Si number density = 26.438033 Si / 1000 Ang^3
#
#
#
# Elastic Constant Matrix: (Units=GPa)
#
#
# Indices 1 2 3 4 5 6 
#
# 1 130.1434 -2.7047 78.2954 -14.6523 10.8126 12.7278
# 2 -2.7047 71.6385 21.4177 -1.4145 6.0119 17.3276
# 3 78.2954 21.4177 250.5022 -24.8544 15.5865 13.4487
# 4 -14.6523 -1.4145 -24.8544 32.9797 10.8495 -3.3062
# 5 10.8126 6.0119 15.5865 10.8495 44.6073 -1.9091
# 6 12.7278 17.3276 13.4487 -3.3062 -1.9091 40.7553
#
#
#
# Elastic Compliance Matrix: (Units=1/GPa)
#
#
# Indices 1 2 3 4 5 6 
#
# 1 0.010278 0.002262 -0.002752 0.003177 -0.002742 -0.003134
# 2 0.002262 0.016498 -0.001477 0.000774 -0.002756 -0.007300
# 3 -0.002752 -0.001477 0.005440 0.003418 -0.001871 -0.000118
# 4 0.003177 0.000774 0.003418 0.038079 -0.011326 0.000109
# 5 -0.002742 -0.002756 -0.001871 -0.011326 0.026990 0.002991
# 6 -0.003134 -0.007300 -0.000118 0.000109 0.002991 0.028807
#
#
# Mechanical properties :
#
#
# Convention : Reuss Voigt Hill
#
# Bulk Modulus (GPa) = 35.35830 71.81120 53.58475
# Shear Modulus (GPa) = 35.85379 47.35350 41.60365
#
# Velocity S-wave (km/s) = 3.68658 4.23675 3.97120
# Velocity P-wave (km/s) = 5.61465 7.15223 6.42957
#
# Compressibility (1/GPa) = 0.02828190
#
# Stress axis : x y z
#
# Youngs Moduli (GPa) = 97.29174 60.61271 183.81570
#
# Poissons Ratio (x) = -0.13708 0.50583
# Poissons Ratio (y) = -0.22004 0.27155
# Poissons Ratio (z) = 0.26773 0.08954
#
# Static dielectric constant tensor:
#      x y z
#    x 5.267040 0.231830 0.587860 
#    y 0.231830 4.390290 -0.288390 
#    z 0.587860 -0.288390 6.617120 
# 
# 
# High freq. dielectric constant tensor:
#      x y z
#    x 2.108530 0.017760 0.005170 
#    y 0.017760 2.031780 -0.015270 
#    z 0.005170 -0.015270 2.089890 
# 
# From -- ./inp_files/125450.got.cif
#   From: 2010.06.25/outbox.cif.g09.slc.cpg/sg2_63_cif.got.tgz:125450.got - 2010.06.27 13:26:56.
