data_PCOD8012436
_publ_section_title
;
Structure prediction by ZEFSAII (Michael W. Deem and Ramdas Pophale) SiO2 
 PCOD8012436
Probable space group: P -1
;
_chemical_formula_sum "Si O2"
_cell_formula_units_Z 14
_cell_length_a 11.737991
_cell_length_b 17.393011
_cell_length_c 9.259655
_cell_angle_alpha 40.836837
_cell_angle_beta 76.907897
_cell_angle_gamma 44.748139
_cell_volume 641.959434
_symmetry_space_group_name_H-M "P -1"
_symmetry_group_IT_number 2
_symmetry_cell_setting 'triclinic'
loop_
_space_group_symop_operation_xyz
x,y,z
-x,-y,-z
loop_
_atom_site_type_symbol
_atom_site_label
_atom_site_fract_x
_atom_site_fract_y
_atom_site_fract_z
Si Si1 0.055493 0.324303 0.859775
Si Si2 0.440858 0.726784 0.101366
Si Si3 0.563878 0.371635 0.455202
Si Si4 0.272636 0.199908 0.699485
Si Si5 0.837226 0.294503 0.083007
Si Si6 0.470613 0.088054 0.229525
Si Si7 0.007371 0.940741 0.357132
O O1 0.099748 0.275145 0.743664
O O2 0.825403 0.585628 0.586319
O O3 0.252735 0.223382 0.026124
O O4 0.027526 0.219053 0.080704
O O5 0.536005 0.533830 0.264490
O O6 0.497057 0.660532 0.347909
O O7 0.554033 0.749746 0.976653
O O8 0.176676 0.963900 0.824330
O O9 0.818692 0.135329 0.680430
O O10 0.409523 0.459290 0.242749
O O11 0.314325 0.116480 0.643767
O O12 0.500000 0.000000 0.000000
O O13 0.857271 0.269081 0.286805
O O14 0.876599 0.135907 0.224466
O O15 0.500000 0.000000 0.500000
#
# Coordination Sequence:
#
# PCOD8012436 Si02
#       7
#     2   2   2   2   2   2   2
#     4  10  22  40  62  89 124 159 204 250 304 365
#     4  10  23  39  58  88 122 154 207 241 299 369
#     4  10  22  38  61  88 117 160 200 250 300 351
#     4   9  22  39  58  87 117 160 204 245 302 356
#     4  10  22  36  63  90 118 153 205 247 295 365
#     4  11  24  40  62  92 126 163 203 252 309 371
#     4  10  21  40  58  89 121 159 195 248 306 349
#
# _framework density 21.808233000000001
#
# number of rings (size 3 to 8) (size 9 to 14) (size 15 to 20)
#    0.000    2.000    0.000    1.714    8.000    4.000 
#    0.000    0.000    0.000    0.000    0.000    0.000 
#    0.000    0.000    0.000    0.000    0.000    0.000 
#
# Total GULP energy -173519.922585 kJ/mol
# GULP energy per Si atom -12394.280185 kJ/mol
# Density = 2.175860 g / cm^3
# Si number density = 21.808233 Si / 1000 Ang^3
#
#
#
# Elastic Constant Matrix: (Units=GPa)
#
#
# Indices 1 2 3 4 5 6 
#
# 1 87.6938 10.2116 34.3469 12.3462 -1.0492 -17.7434
# 2 10.2116 85.5601 27.7715 6.1497 -4.5057 -0.8484
# 3 34.3469 27.7715 106.0068 15.2216 6.7733 0.2642
# 4 12.3462 6.1497 15.2216 32.5388 -15.8814 -0.3055
# 5 -1.0492 -4.5057 6.7733 -15.8814 37.1480 3.4457
# 6 -17.7434 -0.8484 0.2642 -0.3055 3.4457 23.9614
#
#
#
# Elastic Compliance Matrix: (Units=1/GPa)
#
#
# Indices 1 2 3 4 5 6 
#
# 1 0.016338 -0.000133 -0.004449 -0.004958 -0.002010 0.012368
# 2 -0.000133 0.012957 -0.003569 0.000444 0.002403 0.000060
# 3 -0.004449 -0.003569 0.013089 -0.006438 -0.005432 -0.002866
# 4 -0.004958 0.000444 -0.006438 0.045858 0.021255 -0.006056
# 5 -0.002010 0.002403 -0.005432 0.021255 0.037835 -0.006513
# 6 0.012368 0.000060 -0.002866 -0.006056 -0.006513 0.051786
#
#
# Mechanical properties :
#
#
# Convention : Reuss Voigt Hill
#
# Bulk Modulus (GPa) = 38.34124 47.10231 42.72178
# Shear Modulus (GPa) = 24.64771 32.52502 28.58637
#
# Velocity S-wave (km/s) = 3.36549 3.86607 3.62443
# Velocity P-wave (km/s) = 5.72026 6.44779 6.09489
#
# Compressibility (1/GPa) = 0.02608158
#
# Stress axis : x y z
#
# Youngs Moduli (GPa) = 61.20749 77.17727 76.40222
#
# Poissons Ratio (x) = 0.01023 0.33994
# Poissons Ratio (y) = 0.00812 0.27268
# Poissons Ratio (z) = 0.27234 0.27545
#
# Static dielectric constant tensor:
#      x y z
#    x 3.700130 -0.009000 0.130960 
#    y -0.009000 4.131690 0.106640 
#    z 0.130960 0.106640 4.248110 
# 
# 
# High freq. dielectric constant tensor:
#      x y z
#    x 1.839750 -0.011370 0.007080 
#    y -0.011370 1.849800 0.008260 
#    z 0.007080 0.008260 1.867960 
# 
# From -- ./inp_files/69519.got.cif
#   From: 2010.06.25/outbox.cif.g09.slc.cpg/sg2_35_cif.got.tgz:69519.got - 2010.06.27 13:26:56.
