data_PCOD8012497
_publ_section_title
;
Structure prediction by ZEFSAII (Michael W. Deem and Ramdas Pophale) SiO2 
 PCOD8012497
Probable space group: P -1
;
_chemical_formula_sum "Si O2"
_cell_formula_units_Z 12
_cell_length_a 11.871723
_cell_length_b 8.508247
_cell_length_c 9.275023
_cell_angle_alpha 106.481778
_cell_angle_beta 95.801658
_cell_angle_gamma 132.803157
_cell_volume 598.865512
_symmetry_space_group_name_H-M "P -1"
_symmetry_group_IT_number 2
_symmetry_cell_setting 'triclinic'
loop_
_space_group_symop_operation_xyz
x,y,z
-x,-y,-z
loop_
_atom_site_type_symbol
_atom_site_label
_atom_site_fract_x
_atom_site_fract_y
_atom_site_fract_z
Si Si1 0.007549 0.716884 0.196313
Si Si2 0.076918 0.759532 0.619081
Si Si3 0.598166 0.266618 0.537073
Si Si4 0.782420 0.569544 0.374688
Si Si5 0.929393 0.588614 0.841534
Si Si6 0.704414 0.848160 0.463644
O O1 0.832869 0.540621 0.220592
O O2 0.084874 0.618628 0.181329
O O3 0.965683 0.725991 0.029373
O O4 0.155270 0.989903 0.349617
O O5 0.000000 0.500000 0.500000
O O6 0.956889 0.773018 0.540581
O O7 0.083805 0.785232 0.799593
O O8 0.255259 0.984560 0.622471
O O9 0.658565 0.321435 0.391319
O O10 0.756239 0.463608 0.714772
O O11 0.479399 0.298500 0.541891
O O12 0.500000 0.000000 0.500000
O O13 0.697437 0.653897 0.358343
#
# Coordination Sequence:
#
# PCOD8012497 Si02
#       6
#     2   2   2   2   2   2
#     4  10  19  36  56  83 110 138 184 229 271 308
#     4  10  16  33  56  81 103 143 187 216 255 323
#     4  11  21  37  57  82 107 144 189 221 267 327
#     4  10  21  35  56  82 112 146 179 221 274 330
#     4  10  20  34  57  84 108 139 183 235 262 312
#     4  11  20  36  58  82 112 145 179 222 274 326
#
# _framework density 20.037887999999999
#
# number of rings (size 3 to 8) (size 9 to 14) (size 15 to 20)
#    0.000    1.667    5.000    3.500    0.000    0.000 
#    0.000   10.833    0.000    0.000    0.000    0.000 
#    0.000    0.000    0.000    0.000    0.000    0.000 
#
# Total GULP energy -148710.841764 kJ/mol
# GULP energy per Si atom -12392.570147 kJ/mol
# Density = 1.999228 g / cm^3
# Si number density = 20.037888 Si / 1000 Ang^3
#
#
#
# Elastic Constant Matrix: (Units=GPa)
#
#
# Indices 1 2 3 4 5 6 
#
# 1 106.4492 16.6467 29.1322 -4.3290 -9.5573 7.9289
# 2 16.6467 69.0199 49.5297 -21.2001 -5.2305 10.9119
# 3 29.1322 49.5297 133.2868 -40.7377 -7.8741 16.5249
# 4 -4.3290 -21.2001 -40.7377 32.8032 5.6007 -8.7528
# 5 -9.5573 -5.2305 -7.8741 5.6007 20.6931 -4.2162
# 6 7.9289 10.9119 16.5249 -8.7528 -4.2162 34.6168
#
#
#
# Elastic Compliance Matrix: (Units=1/GPa)
#
#
# Indices 1 2 3 4 5 6 
#
# 1 0.010632 -0.001354 -0.002544 -0.003695 0.004356 -0.001198
# 2 -0.001354 0.020863 -0.005312 0.006043 0.000556 -0.002135
# 3 -0.002544 -0.005312 0.014385 0.013954 -0.001068 -0.001211
# 4 -0.003695 0.006043 0.013954 0.053987 -0.008483 0.004897
# 5 0.004356 0.000556 -0.001068 -0.008483 0.053113 0.003661
# 6 -0.001198 -0.002135 -0.001211 0.004897 0.003661 0.032097
#
#
# Mechanical properties :
#
#
# Convention : Reuss Voigt Hill
#
# Bulk Modulus (GPa) = 36.41788 55.48591 45.95189
# Shear Modulus (GPa) = 23.51253 31.85246 27.68249
#
# Velocity S-wave (km/s) = 3.42921 3.99132 3.72090
# Velocity P-wave (km/s) = 5.82180 6.99939 6.43758
#
# Compressibility (1/GPa) = 0.02745904
#
# Stress axis : x y z
#
# Youngs Moduli (GPa) = 94.05368 47.93138 69.51743
#
# Poissons Ratio (x) = 0.06490 0.17686
# Poissons Ratio (y) = 0.12736 0.36930
# Poissons Ratio (z) = 0.23929 0.25463
#
# Static dielectric constant tensor:
#      x y z
#    x 3.867800 0.235330 -0.109800 
#    y 0.235330 3.698490 -0.501630 
#    z -0.109800 -0.501630 3.574440 
# 
# 
# High freq. dielectric constant tensor:
#      x y z
#    x 1.791550 0.001100 -0.013720 
#    y 0.001100 1.775870 -0.040090 
#    z -0.013720 -0.040090 1.739400 
# 
# From -- ./inp_files/145934.got.cif
#   From: 2010.06.25/outbox.cif.g09.slc.cpg/sg2_73_cif.got.tgz:145934.got - 2010.06.27 13:26:56.
