data_PCOD8012708
_publ_section_title
;
Structure prediction by ZEFSAII (Michael W. Deem and Ramdas Pophale) SiO2 
 PCOD8012708
Probable space group: P -1
;
_chemical_formula_sum "Si O2"
_cell_formula_units_Z 14
_cell_length_a 17.050394
_cell_length_b 20.323701
_cell_length_c 8.222603
_cell_angle_alpha 134.237586
_cell_angle_beta 53.895257
_cell_angle_gamma 161.006321
_cell_volume 633.416908
_symmetry_space_group_name_H-M "P -1"
_symmetry_group_IT_number 2
_symmetry_cell_setting 'triclinic'
loop_
_space_group_symop_operation_xyz
x,y,z
-x,-y,-z
loop_
_atom_site_type_symbol
_atom_site_label
_atom_site_fract_x
_atom_site_fract_y
_atom_site_fract_z
Si Si1 0.118952 0.831755 0.222031
Si Si2 0.389585 0.230802 0.419477
Si Si3 0.299182 0.335767 0.823324
Si Si4 0.881309 0.651560 0.758741
Si Si5 0.887545 0.489325 0.705856
Si Si6 0.359717 0.062298 0.668586
Si Si7 0.561118 0.411337 0.168487
O O1 0.843747 0.630109 0.247325
O O2 0.270205 0.027415 0.247145
O O3 0.266474 0.951859 0.415478
O O4 0.093139 0.707882 0.959582
O O5 0.203893 0.147842 0.580608
O O6 0.670181 0.482013 0.586751
O O7 0.398056 0.261484 0.271707
O O8 0.436000 0.487349 0.748835
O O9 0.500000 0.500000 0.000000
O O10 0.096502 0.236199 0.959633
O O11 0.810252 0.502458 0.697524
O O12 0.149097 0.859054 0.710695
O O13 0.618988 0.230514 0.676069
O O14 0.000000 0.500000 0.500000
O O15 0.433027 0.233760 0.883147
#
# Coordination Sequence:
#
# PCOD8012708 Si02
#       7
#     2   2   2   2   2   2   2
#     4  11  22  43  68  94 127 171 213 264 327 379
#     4  11  22  40  66  94 134 175 216 261 316 378
#     4  10  21  40  62  96 134 173 219 261 310 376
#     4  11  21  43  65  95 133 173 212 269 316 378
#     4  11  25  46  70  95 126 166 215 270 329 388
#     4  11  22  42  68  93 133 167 212 268 322 381
#     4  11  22  40  63  96 130 177 218 257 317 379
#
# _framework density 22.102347999999999
#
# number of rings (size 3 to 8) (size 9 to 14) (size 15 to 20)
#    0.000    1.143    5.714    2.143    0.000    1.714 
#    2.571    2.857    0.000    0.000    0.000    0.000 
#    0.000    0.000    0.000    0.000    0.000    0.000 
#
# Total GULP energy -173486.735035 kJ/mol
# GULP energy per Si atom -12391.909645 kJ/mol
# Density = 2.205204 g / cm^3
# Si number density = 22.102348 Si / 1000 Ang^3
#
#
#
# Elastic Constant Matrix: (Units=GPa)
#
#
# Indices 1 2 3 4 5 6 
#
# 1 45.2640 17.8563 37.2178 -17.4125 4.0684 -1.5956
# 2 17.8563 131.8211 49.5244 -13.7611 -5.8306 3.4690
# 3 37.2178 49.5244 153.3234 -16.3720 -2.5403 8.2984
# 4 -17.4125 -13.7611 -16.3720 34.1203 4.7030 2.7541
# 5 4.0684 -5.8306 -2.5403 4.7030 36.5373 -10.8822
# 6 -1.5956 3.4690 8.2984 2.7541 -10.8822 31.3448
#
#
#
# Elastic Compliance Matrix: (Units=1/GPa)
#
#
# Indices 1 2 3 4 5 6 
#
# 1 0.034032 -0.000908 -0.006503 0.014737 -0.006257 0.000087
# 2 -0.000908 0.008859 -0.002420 0.001817 0.001060 -0.000178
# 3 -0.006503 -0.002420 0.009037 0.000204 0.000227 -0.002395
# 4 0.014737 0.001817 0.000204 0.039242 -0.008106 -0.005767
# 5 -0.006257 0.001060 0.000227 -0.008106 0.032745 0.011585
# 6 0.000087 -0.000178 -0.002395 -0.005767 0.011585 0.037090
#
#
# Mechanical properties :
#
#
# Convention : Reuss Voigt Hill
#
# Bulk Modulus (GPa) = 30.99033 59.95615 45.47324
# Shear Modulus (GPa) = 26.12033 35.45448 30.78740
#
# Velocity S-wave (km/s) = 3.44145 4.00947 3.73627
# Velocity P-wave (km/s) = 5.46289 6.97280 6.26351
#
# Compressibility (1/GPa) = 0.03226813
#
# Stress axis : x y z
#
# Youngs Moduli (GPa) = 29.38433 112.87387 110.65032
#
# Poissons Ratio (x) = 0.10244 0.71951
# Poissons Ratio (y) = 0.02667 0.26779
# Poissons Ratio (z) = 0.19107 0.27317
#
# Static dielectric constant tensor:
#      x y z
#    x 3.755610 0.112320 0.117070 
#    y 0.112320 4.303320 0.041040 
#    z 0.117070 0.041040 4.381490 
# 
# 
# High freq. dielectric constant tensor:
#      x y z
#    x 1.842330 -0.000790 0.021160 
#    y -0.000790 1.873790 0.003110 
#    z 0.021160 0.003110 1.885100 
# 
# From -- ./inp_files/313502.got.cif
#   From: 2010.06.25/outbox.cif.g09.slc.cpg/sg2_157_cif.got.tgz:313502.got - 2010.06.27 13:26:56.
