data_PCOD8012387
_publ_section_title
;
Structure prediction by ZEFSAII (Michael W. Deem and Ramdas Pophale) SiO2 
 PCOD8012387
Probable space group: P -1
;
_chemical_formula_sum "Si O2"
_cell_formula_units_Z 12
_cell_length_a 15.126864
_cell_length_b 8.359327
_cell_length_c 10.575443
_cell_angle_alpha 107.394197
_cell_angle_beta 154.400224
_cell_angle_gamma 73.089677
_cell_volume 550.652683
_symmetry_space_group_name_H-M "P -1"
_symmetry_group_IT_number 2
_symmetry_cell_setting 'triclinic'
loop_
_space_group_symop_operation_xyz
x,y,z
-x,-y,-z
loop_
_atom_site_type_symbol
_atom_site_label
_atom_site_fract_x
_atom_site_fract_y
_atom_site_fract_z
Si Si1 0.305885 0.207409 0.734205
Si Si2 0.012155 0.357646 0.875942
Si Si3 0.122136 0.536988 0.537361
Si Si4 0.610200 0.152237 0.338442
Si Si5 0.891864 0.128250 0.296418
Si Si6 0.379733 0.102514 0.262926
O O1 0.301447 0.392336 0.706410
O O2 0.064903 0.192018 0.443748
O O3 0.375188 0.051081 0.699450
O O4 0.437817 0.219102 0.034076
O O5 0.021282 0.441510 0.767968
O O6 0.820894 0.238816 0.606544
O O7 0.000000 0.500000 0.000000
O O8 0.215884 0.241183 0.138844
O O9 0.219459 0.718044 0.730717
O O10 0.000000 0.500000 0.500000
O O11 0.535707 0.196527 0.394788
O O12 0.000000 0.000000 0.500000
O O13 0.720727 0.040638 0.979604
O O14 0.500000 0.000000 0.500000
#
# Coordination Sequence:
#
# PCOD8012387 Si02
#       6
#     2   2   2   2   2   2
#     4  10  21  39  71 108 132 175 241 297 346 415
#     4  12  28  48  70 103 151 191 233 299 364 430
#     4  10  22  40  73 104 135 182 244 290 349 413
#     4  11  24  44  72 101 143 185 238 291 358 425
#     4  11  18  43  72  96 141 181 236 292 351 414
#     4  12  27  44  70 106 144 192 236 291 364 431
#
# _framework density 21.79232
#
# number of rings (size 3 to 8) (size 9 to 14) (size 15 to 20)
#    0.000    1.000    5.000    1.000    4.667    6.000 
#    0.000    0.000    0.000    0.000    0.000    0.000 
#    0.000    0.000    0.000    0.000    0.000    0.000 
#
# Total GULP energy -148720.239475 kJ/mol
# GULP energy per Si atom -12393.353290 kJ/mol
# Density = 2.174272 g / cm^3
# Si number density = 21.792320 Si / 1000 Ang^3
#
#
#
# Elastic Constant Matrix: (Units=GPa)
#
#
# Indices 1 2 3 4 5 6 
#
# 1 103.4557 32.5905 48.2938 -9.3182 -8.9894 -4.1745
# 2 32.5905 182.4380 61.5788 -19.3442 -15.5097 -16.8542
# 3 48.2938 61.5788 116.7053 -21.6639 -22.2947 0.8660
# 4 -9.3182 -19.3442 -21.6639 39.5312 -5.0276 -2.0982
# 5 -8.9894 -15.5097 -22.2947 -5.0276 33.8554 0.8173
# 6 -4.1745 -16.8542 0.8660 -2.0982 0.8173 27.0503
#
#
#
# Elastic Compliance Matrix: (Units=1/GPa)
#
#
# Indices 1 2 3 4 5 6 
#
# 1 0.012110 -0.000365 -0.004848 0.000093 -0.000174 0.001809
# 2 -0.000365 0.007397 -0.003078 0.002290 0.001490 0.004784
# 3 -0.004848 -0.003078 0.014984 0.006452 0.008198 -0.002893
# 4 0.000093 0.002290 0.006452 0.031414 0.009906 0.003372
# 5 -0.000174 0.001490 0.008198 0.009906 0.037036 0.000288
# 6 0.001809 0.004784 -0.002893 0.003372 0.000288 0.040573
#
#
# Mechanical properties :
#
#
# Convention : Reuss Voigt Hill
#
# Bulk Modulus (GPa) = 55.83614 76.39168 66.11391
# Shear Modulus (GPa) = 30.10858 37.42980 33.76919
#
# Velocity S-wave (km/s) = 3.72104 4.14885 3.94076
# Velocity P-wave (km/s) = 6.64372 7.62110 7.14913
#
# Compressibility (1/GPa) = 0.01790955
#
# Stress axis : x y z
#
# Youngs Moduli (GPa) = 82.57388 135.19591 66.73778
#
# Poissons Ratio (x) = 0.04930 0.32357
# Poissons Ratio (y) = 0.03011 0.20540
# Poissons Ratio (z) = 0.40035 0.41609
#
# Static dielectric constant tensor:
#      x y z
#    x 3.458790 -0.220990 0.124290 
#    y -0.220990 4.811500 -0.052280 
#    z 0.124290 -0.052280 3.711270 
# 
# 
# High freq. dielectric constant tensor:
#      x y z
#    x 1.853440 -0.004060 0.003480 
#    y -0.004060 1.881660 -0.006930 
#    z 0.003480 -0.006930 1.842920 
# 
# From -- ./inp_files/152244.got.cif
#   From: 2010.06.25/outbox.cif.g09.slc.cpg/sg2_77_cif.got.tgz:152244.got - 2010.06.27 13:26:56.
