data_PCOD8012620
_publ_section_title
;
Structure prediction by ZEFSAII (Michael W. Deem and Ramdas Pophale) SiO2 
 PCOD8012620
Probable space group: P -1
;
_chemical_formula_sum "Si O2"
_cell_formula_units_Z 14
_cell_length_a 9.492579
_cell_length_b 15.277448
_cell_length_c 9.295022
_cell_angle_alpha 100.805581
_cell_angle_beta 53.145630
_cell_angle_gamma 135.847932
_cell_volume 676.245069
_symmetry_space_group_name_H-M "P -1"
_symmetry_group_IT_number 2
_symmetry_cell_setting 'triclinic'
loop_
_space_group_symop_operation_xyz
x,y,z
-x,-y,-z
loop_
_atom_site_type_symbol
_atom_site_label
_atom_site_fract_x
_atom_site_fract_y
_atom_site_fract_z
Si Si1 0.429506 0.072213 0.016236
Si Si2 0.805732 0.859863 0.377762
Si Si3 0.397258 0.408005 0.672956
Si Si4 0.605048 0.282912 0.175236
Si Si5 0.838604 0.538328 0.973058
Si Si6 0.730414 0.444594 0.700886
Si Si7 0.327480 0.129383 0.825631
O O1 0.642234 0.218621 0.015878
O O2 0.453711 0.096443 0.834056
O O3 0.134740 0.997482 0.221967
O O4 0.500000 0.000000 0.000000
O O5 0.766083 0.741805 0.323717
O O6 0.684187 0.836134 0.600111
O O7 0.642320 0.861274 0.364058
O O8 0.500000 0.500000 0.500000
O O9 0.664556 0.486862 0.626145
O O10 0.195082 0.383450 0.894977
O O11 0.851929 0.376499 0.168076
O O12 0.614053 0.380836 0.120430
O O13 0.790015 0.528720 0.829683
O O14 0.475966 0.277599 0.836574
O O15 0.000000 0.500000 0.500000
O O16 0.000000 0.000000 0.000000
#
# Coordination Sequence:
#
# PCOD8012620 Si02
#       7
#     2   2   2   2   2   2   2
#     4  11  22  39  63  88 117 159 210 255 301 362
#     4  10  21  40  62  87 120 164 202 245 309 370
#     4  11  22  38  62  95 123 156 206 257 302 364
#     4  11  22  38  61  89 123 162 203 252 308 362
#     4  11  22  38  60  90 128 160 203 252 308 364
#     4  11  23  39  64  91 126 164 203 251 314 370
#     4   9  20  39  60  83 118 161 199 241 305 365
#
# _framework density 20.702553999999999
#
# number of rings (size 3 to 8) (size 9 to 14) (size 15 to 20)
#    0.000    1.429    2.857    3.429    2.000    1.143 
#    0.000    0.714    0.000    0.000    0.000    0.000 
#    0.000    0.000    0.000    0.000    0.000    0.000 
#
# Total GULP energy -173484.774427 kJ/mol
# GULP energy per Si atom -12391.769602 kJ/mol
# Density = 2.065543 g / cm^3
# Si number density = 20.702554 Si / 1000 Ang^3
#
#
#
# Elastic Constant Matrix: (Units=GPa)
#
#
# Indices 1 2 3 4 5 6 
#
# 1 135.5199 26.0204 33.5243 3.2329 29.6189 -5.4255
# 2 26.0204 74.9513 17.3649 5.1667 9.7631 2.2154
# 3 33.5243 17.3649 86.1375 4.2046 9.3570 0.5443
# 4 3.2329 5.1667 4.2046 34.1499 -0.4678 -0.5801
# 5 29.6189 9.7631 9.3570 -0.4678 32.9034 -0.6989
# 6 -5.4255 2.2154 0.5443 -0.5801 -0.6989 33.5766
#
#
#
# Elastic Compliance Matrix: (Units=1/GPa)
#
#
# Indices 1 2 3 4 5 6 
#
# 1 0.010205 -0.001913 -0.002727 -0.000420 -0.007814 0.001649
# 2 -0.001913 0.014909 -0.001920 -0.001891 -0.002211 -0.001340
# 3 -0.002727 -0.001920 0.013197 -0.001096 -0.000756 -0.000563
# 4 -0.000420 -0.001891 -0.001096 0.029777 0.001687 0.000624
# 5 -0.007814 -0.002211 -0.000756 0.001687 0.038315 -0.000278
# 6 0.001649 -0.001340 -0.000563 0.000624 -0.000278 0.030152
#
#
# Mechanical properties :
#
#
# Convention : Reuss Voigt Hill
#
# Bulk Modulus (GPa) = 39.69760 50.04756 44.87258
# Shear Modulus (GPa) = 31.63124 34.77259 33.20192
#
# Velocity S-wave (km/s) = 3.91307 4.10277 4.00904
# Velocity P-wave (km/s) = 6.29547 6.83160 6.56901
#
# Compressibility (1/GPa) = 0.02519044
#
# Stress axis : x y z
#
# Youngs Moduli (GPa) = 97.99389 67.07383 75.77495
#
# Poissons Ratio (x) = 0.12830 0.20665
# Poissons Ratio (y) = 0.18745 0.14550
# Poissons Ratio (z) = 0.26724 0.12879
#
# Static dielectric constant tensor:
#      x y z
#    x 3.990260 0.141250 0.490540 
#    y 0.141250 3.791340 -0.073900 
#    z 0.490540 -0.073900 3.481580 
# 
# 
# High freq. dielectric constant tensor:
#      x y z
#    x 1.816870 0.019680 0.021030 
#    y 0.019680 1.808290 -0.008580 
#    z 0.021030 -0.008580 1.800050 
# 
# From -- ./inp_files/159951.got.cif
#   From: 2010.06.25/outbox.cif.g09.slc.cpg/sg2_80_cif.got.tgz:159951.got - 2010.06.27 13:26:56.
