data_PCOD8012339
_publ_section_title
;
Structure prediction by ZEFSAII (Michael W. Deem and Ramdas Pophale) SiO2 
 PCOD8012339
Probable space group: P -1
;
_chemical_formula_sum "Si O2"
_cell_formula_units_Z 12
_cell_length_a 9.977309
_cell_length_b 15.856025
_cell_length_c 13.460658
_cell_angle_alpha 37.237058
_cell_angle_beta 44.502168
_cell_angle_gamma 26.435532
_cell_volume 573.663190
_symmetry_space_group_name_H-M "P -1"
_symmetry_group_IT_number 2
_symmetry_cell_setting 'triclinic'
loop_
_space_group_symop_operation_xyz
x,y,z
-x,-y,-z
loop_
_atom_site_type_symbol
_atom_site_label
_atom_site_fract_x
_atom_site_fract_y
_atom_site_fract_z
Si Si1 0.588855 0.681246 0.803147
Si Si2 0.221256 0.705391 0.845417
Si Si3 0.741323 0.336365 0.775475
Si Si4 0.074993 0.507107 0.564996
Si Si5 0.422991 0.979990 0.165045
Si Si6 0.372770 0.903234 0.915780
O O1 0.283628 0.794738 0.806793
O O2 0.489807 0.829010 0.810604
O O3 0.780215 0.667156 0.639558
O O4 0.792422 0.435503 0.959406
O O5 0.492262 0.558675 0.761393
O O6 0.903776 0.908885 0.768527
O O7 0.824412 0.386757 0.590577
O O8 0.618210 0.253044 0.887852
O O9 0.032232 0.152692 0.865042
O O10 0.342306 0.268505 0.694158
O O11 0.000000 0.500000 0.500000
O O12 0.411816 0.113230 0.124257
O O13 0.500000 0.000000 0.000000
#
# Coordination Sequence:
#
# PCOD8012339 Si02
#       6
#     2   2   2   2   2   2
#     4  10  21  39  69  95 128 174 217 259 318 396
#     4  10  21  40  66  95 128 174 217 256 326 392
#     4  10  22  41  68  90 130 168 219 257 319 382
#     4  12  22  44  67  98 130 173 215 266 323 387
#     4  12  25  42  69  97 130 172 218 267 324 385
#     4  10  23  42  68  95 126 177 218 260 322 389
#
# _framework density 20.918198
#
# number of rings (size 3 to 8) (size 9 to 14) (size 15 to 20)
#    0.000    1.333    5.000    0.000    7.000    4.000 
#    0.000    0.833    0.000    0.000    0.000    0.000 
#    0.000    0.000    0.000    0.000    0.000    0.000 
#
# Total GULP energy -148815.460795 kJ/mol
# GULP energy per Si atom -12401.288400 kJ/mol
# Density = 2.087059 g / cm^3
# Si number density = 20.918198 Si / 1000 Ang^3
#
#
#
# Elastic Constant Matrix: (Units=GPa)
#
#
# Indices 1 2 3 4 5 6 
#
# 1 137.5861 60.6575 37.7855 0.6453 5.8400 -2.9157
# 2 60.6575 115.3019 42.8030 15.4204 9.4812 -7.4975
# 3 37.7855 42.8030 132.0133 14.5643 -9.3149 -4.2925
# 4 0.6453 15.4204 14.5643 40.1060 -5.8727 6.0386
# 5 5.8400 9.4812 -9.3149 -5.8727 23.6433 -4.5152
# 6 -2.9157 -7.4975 -4.2925 6.0386 -4.5152 29.3764
#
#
#
# Elastic Compliance Matrix: (Units=1/GPa)
#
#
# Indices 1 2 3 4 5 6 
#
# 1 0.009874 -0.004944 -0.001571 0.002377 -0.000696 -0.001107
# 2 -0.004944 0.013737 -0.002778 -0.005524 -0.006221 0.002789
# 3 -0.001571 -0.002778 0.009550 -0.001881 0.005122 0.001705
# 4 0.002377 -0.005524 -0.001881 0.029707 0.007029 -0.006475
# 5 -0.000696 -0.006221 0.005122 0.007029 0.049736 0.005291
# 6 -0.001107 0.002789 0.001705 -0.006475 0.005291 0.037036
#
#
# Mechanical properties :
#
#
# Convention : Reuss Voigt Hill
#
# Bulk Modulus (GPa) = 68.60695 74.15481 71.38088
# Shear Modulus (GPa) = 28.88782 34.86882 31.87832
#
# Velocity S-wave (km/s) = 3.72020 4.08721 3.90802
# Velocity P-wave (km/s) = 7.16395 7.60267 7.38657
#
# Compressibility (1/GPa) = 0.01457578
#
# Stress axis : x y z
#
# Youngs Moduli (GPa) = 101.27418 72.79755 104.71752
#
# Poissons Ratio (x) = 0.35993 0.16446
# Poissons Ratio (y) = 0.50072 0.29086
# Poissons Ratio (z) = 0.15905 0.20220
#
# Static dielectric constant tensor:
#      x y z
#    x 3.833720 -0.131140 -0.128570 
#    y -0.131140 3.758000 0.058390 
#    z -0.128570 0.058390 4.001450 
# 
# 
# High freq. dielectric constant tensor:
#      x y z
#    x 1.805680 -0.002640 -0.009350 
#    y -0.002640 1.822260 0.011660 
#    z -0.009350 0.011660 1.813020 
# 
# From -- ./inp_files/145946.got.cif
#   From: 2010.06.25/outbox.cif.g09.slc.cpg/sg2_73_cif.got.tgz:145946.got - 2010.06.27 13:26:56.
