data_PCOD8012172
_publ_section_title
;
Structure prediction by ZEFSAII (Michael W. Deem and Ramdas Pophale) SiO2 
 PCOD8012172
Probable space group: P -1
;
_chemical_formula_sum "Si O2"
_cell_formula_units_Z 14
_cell_length_a 8.979075
_cell_length_b 9.266609
_cell_length_c 15.456299
_cell_angle_alpha 136.425207
_cell_angle_beta 134.148866
_cell_angle_gamma 61.134959
_cell_volume 635.453091
_symmetry_space_group_name_H-M "P -1"
_symmetry_group_IT_number 2
_symmetry_cell_setting 'triclinic'
loop_
_space_group_symop_operation_xyz
x,y,z
-x,-y,-z
loop_
_atom_site_type_symbol
_atom_site_label
_atom_site_fract_x
_atom_site_fract_y
_atom_site_fract_z
Si Si1 0.148252 0.808880 0.486187
Si Si2 0.311482 0.888778 0.772564
Si Si3 0.044275 0.094079 0.232973
Si Si4 0.546025 0.670803 0.913022
Si Si5 0.152539 0.591842 0.825066
Si Si6 0.486906 0.062014 0.422599
Si Si7 0.755809 0.302943 0.898196
O O1 0.285719 0.824568 0.635240
O O2 0.307879 0.809294 0.470129
O O3 0.015991 0.594141 0.338897
O O4 0.000000 0.000000 0.500000
O O5 0.485015 0.745582 0.824547
O O6 0.091416 0.852011 0.715437
O O7 0.386219 0.130564 0.914511
O O8 0.277899 0.195102 0.385611
O O9 0.945071 0.190258 0.148867
O O10 0.050971 0.838936 0.113907
O O11 0.352692 0.550617 0.830104
O O12 0.727575 0.502409 0.909413
O O13 0.216992 0.606156 0.956271
O O14 0.500000 0.000000 0.500000
O O15 0.452474 0.850438 0.258853
#
# Coordination Sequence:
#
# PCOD8012172 Si02
#       7
#     2   2   2   2   2   2   2
#     4  12  24  39  68  92 128 165 215 261 311 384
#     4  10  22  42  63  97 125 169 214 258 314 372
#     4   9  23  40  65  89 134 164 209 263 314 372
#     4  10  21  39  67  93 128 168 216 259 309 374
#     4  11  22  40  64  97 125 170 212 260 315 371
#     4  10  23  42  62  91 127 163 202 263 319 373
#     4  10  21  40  65  87 127 168 208 260 313 375
#
# _framework density 22.031524000000001
#
# number of rings (size 3 to 8) (size 9 to 14) (size 15 to 20)
#    0.857    0.857    0.000    4.286    0.000    4.571 
#    2.571    0.000    0.000    0.000    0.000    0.000 
#    0.000    0.000    0.000    0.000    0.000    0.000 
#
# Total GULP energy -173534.297096 kJ/mol
# GULP energy per Si atom -12395.306935 kJ/mol
# Density = 2.198138 g / cm^3
# Si number density = 22.031524 Si / 1000 Ang^3
#
#
#
# Elastic Constant Matrix: (Units=GPa)
#
#
# Indices 1 2 3 4 5 6 
#
# 1 79.8097 35.6724 22.4197 -1.9998 8.7097 11.8807
# 2 35.6724 156.1564 33.8598 -6.5161 -5.9619 -16.9053
# 3 22.4197 33.8598 118.9530 -7.7695 -0.7509 15.8694
# 4 -1.9998 -6.5161 -7.7695 34.5438 7.6725 1.6338
# 5 8.7097 -5.9619 -0.7509 7.6725 32.0871 0.1867
# 6 11.8807 -16.9053 15.8694 1.6338 0.1867 33.8484
#
#
#
# Elastic Compliance Matrix: (Units=1/GPa)
#
#
# Indices 1 2 3 4 5 6 
#
# 1 0.016647 -0.004660 -0.000692 0.001575 -0.005731 -0.007891
# 2 -0.004660 0.008935 -0.002635 -0.000158 0.002859 0.007325
# 3 -0.000692 -0.002635 0.010221 0.002165 -0.000546 -0.005967
# 4 0.001575 -0.000158 0.002165 0.031398 -0.007896 -0.003119
# 5 -0.005731 0.002859 -0.000546 -0.007896 0.035105 0.003883
# 6 -0.007891 0.007325 -0.005967 -0.003119 0.003883 0.038898
#
#
# Mechanical properties :
#
#
# Convention : Reuss Voigt Hill
#
# Bulk Modulus (GPa) = 50.42848 59.86920 55.14884
# Shear Modulus (GPa) = 30.52752 37.62702 34.07727
#
# Velocity S-wave (km/s) = 3.72644 4.13712 3.93714
# Velocity P-wave (km/s) = 6.43849 7.07491 6.76419
#
# Compressibility (1/GPa) = 0.01983006
#
# Stress axis : x y z
#
# Youngs Moduli (GPa) = 60.07252 111.91645 97.83826
#
# Poissons Ratio (x) = 0.52154 0.06767
# Poissons Ratio (y) = 0.27994 0.25777
# Poissons Ratio (z) = 0.04155 0.29486
#
# Static dielectric constant tensor:
#      x y z
#    x 3.759990 -0.063100 0.256870 
#    y -0.063100 4.194870 -0.103770 
#    z 0.256870 -0.103770 3.907410 
# 
# 
# High freq. dielectric constant tensor:
#      x y z
#    x 1.848330 -0.001810 0.011740 
#    y -0.001810 1.881170 -0.012930 
#    z 0.011740 -0.012930 1.862050 
# 
# From -- ./inp_files/493989.got.cif
#   From: 2010.06.25/outbox.cif.g09.slc.cpg/sg2_247_cif.got.tgz:493989.got - 2010.06.27 13:26:56.
