data_PCOD8012870
_publ_section_title
;
Structure prediction by ZEFSAII (Michael W. Deem and Ramdas Pophale) SiO2 
 PCOD8012870
Probable space group: P -1
;
_chemical_formula_sum "Si O2"
_cell_formula_units_Z 16
_cell_length_a 8.170816
_cell_length_b 8.265085
_cell_length_c 17.604430
_cell_angle_alpha 95.529356
_cell_angle_beta 116.637387
_cell_angle_gamma 127.827345
_cell_volume 713.915821
_symmetry_space_group_name_H-M "P -1"
_symmetry_group_IT_number 2
_symmetry_cell_setting 'triclinic'
loop_
_space_group_symop_operation_xyz
x,y,z
-x,-y,-z
loop_
_atom_site_type_symbol
_atom_site_label
_atom_site_fract_x
_atom_site_fract_y
_atom_site_fract_z
Si Si1 0.821272 0.490094 0.016740
Si Si2 0.304455 0.787392 0.315004
Si Si3 0.884856 0.989601 0.662962
Si Si4 0.372262 0.326256 0.275152
Si Si5 0.296742 0.216536 0.540937
Si Si6 0.638270 0.015239 0.813177
Si Si7 0.702628 0.318114 0.145080
Si Si8 0.476991 0.453798 0.829558
O O1 0.700604 0.302106 0.052081
O O2 0.573225 0.396788 0.912356
O O3 0.030448 0.771200 0.099542
O O4 0.000000 0.500000 0.000000
O O5 0.517767 0.818293 0.405052
O O6 0.012760 0.507571 0.245943
O O7 0.274096 0.945120 0.353462
O O8 0.413391 0.874861 0.254016
O O9 0.887200 0.884040 0.736490
O O10 0.729164 0.788719 0.555904
O O11 0.199341 0.218721 0.719857
O O12 0.591344 0.545180 0.388402
O O13 0.482826 0.230345 0.257971
O O14 0.312547 0.401661 0.192472
O O15 0.000000 0.000000 0.500000
O O16 0.478177 0.934805 0.857149
O O17 0.563609 0.400545 0.133067
#
# Coordination Sequence:
#
# PCOD8012870 Si02
#       8
#     2   2   2   2   2   2   2   2
#     4  11  24  38  63  96 129 156 205 257 308 364
#     4   9  21  41  63  89 125 164 202 255 306 364
#     4  10  21  42  63  90 123 167 208 252 306 362
#     4  10  22  40  63  91 122 159 212 252 301 367
#     4  12  23  40  64  92 129 161 204 260 311 359
#     4   9  21  43  64  89 125 164 204 250 307 370
#     4   9  20  40  64  88 120 164 207 243 306 371
#     4  10  21  40  64  88 125 166 203 251 306 363
#
# _framework density 22.411605999999999
#
# number of rings (size 3 to 8) (size 9 to 14) (size 15 to 20)
#    0.000    2.000    1.250    1.875    3.500    3.500 
#    6.750    1.250    0.000    0.000    0.000    0.000 
#    0.000    0.000    0.000    0.000    0.000    0.000 
#
# Total GULP energy -198214.683239 kJ/mol
# GULP energy per Si atom -12388.417702 kJ/mol
# Density = 2.236060 g / cm^3
# Si number density = 22.411606 Si / 1000 Ang^3
#
#
#
# Elastic Constant Matrix: (Units=GPa)
#
#
# Indices 1 2 3 4 5 6 
#
# 1 66.6990 22.8375 37.9366 -10.6389 2.7950 13.7636
# 2 22.8375 91.6231 19.4404 -21.1147 -6.4980 28.7803
# 3 37.9366 19.4404 105.0544 -18.4157 -7.6163 4.3998
# 4 -10.6389 -21.1147 -18.4157 31.7972 3.9185 -18.3588
# 5 2.7950 -6.4980 -7.6163 3.9185 37.9599 -4.4715
# 6 13.7636 28.7803 4.3998 -18.3588 -4.4715 33.0413
#
#
#
# Elastic Compliance Matrix: (Units=1/GPa)
#
#
# Indices 1 2 3 4 5 6 
#
# 1 0.021632 -0.002070 -0.007919 -0.003072 -0.004212 -0.008430
# 2 -0.002070 0.015879 -0.001201 0.002523 0.001042 -0.011266
# 3 -0.007919 -0.001201 0.014049 0.008794 0.003207 0.007795
# 4 -0.003072 0.002523 0.008794 0.052969 0.000178 0.027366
# 5 -0.004212 0.001042 0.003207 0.000178 0.027964 0.004303
# 6 -0.008430 -0.011266 0.007795 0.027366 0.004303 0.058340
#
#
# Mechanical properties :
#
#
# Convention : Reuss Voigt Hill
#
# Bulk Modulus (GPa) = 34.27179 47.08950 40.68064
# Shear Modulus (GPa) = 22.42756 32.77048 27.59902
#
# Velocity S-wave (km/s) = 3.16683 3.82803 3.51302
# Velocity P-wave (km/s) = 5.35696 6.37144 5.88610
#
# Compressibility (1/GPa) = 0.02917852
#
# Stress axis : x y z
#
# Youngs Moduli (GPa) = 46.22800 62.97440 71.18171
#
# Poissons Ratio (x) = 0.13037 0.56371
# Poissons Ratio (y) = 0.09570 0.08551
# Poissons Ratio (z) = 0.36609 0.07565
#
# Static dielectric constant tensor:
#      x y z
#    x 4.050850 0.277680 -0.276980 
#    y 0.277680 4.545480 0.108190 
#    z -0.276980 0.108190 4.556240 
# 
# 
# High freq. dielectric constant tensor:
#      x y z
#    x 1.867160 0.018130 -0.028390 
#    y 0.018130 1.891830 -0.007040 
#    z -0.028390 -0.007040 1.877990 
# 
# From -- ./inp_files/215194.got.cif
#   From: 2010.06.25/outbox.cif.g09.slc.cpg/sg2_108_cif.got.tgz:215194.got - 2010.06.27 13:26:56.
