data_PCOD8012949
_publ_section_title
;
Structure prediction by ZEFSAII (Michael W. Deem and Ramdas Pophale) SiO2 
 PCOD8012949
Probable space group: P -1
;
_chemical_formula_sum "Si O2"
_cell_formula_units_Z 16
_cell_length_a 8.641798
_cell_length_b 15.388670
_cell_length_c 12.740663
_cell_angle_alpha 131.619410
_cell_angle_beta 117.717179
_cell_angle_gamma 101.620662
_cell_volume 713.864679
_symmetry_space_group_name_H-M "P -1"
_symmetry_group_IT_number 2
_symmetry_cell_setting 'triclinic'
loop_
_space_group_symop_operation_xyz
x,y,z
-x,-y,-z
loop_
_atom_site_type_symbol
_atom_site_label
_atom_site_fract_x
_atom_site_fract_y
_atom_site_fract_z
Si Si1 0.300675 0.117693 0.957701
Si Si2 0.016074 0.806198 0.330208
Si Si3 0.802824 0.568554 0.868637
Si Si4 0.385781 0.199414 0.806063
Si Si5 0.015569 0.571839 0.264151
Si Si6 0.229602 0.299980 0.219284
Si Si7 0.156475 0.671255 0.616335
Si Si8 0.154841 0.255641 0.390865
O O1 0.337348 0.248776 0.145008
O O2 0.539471 0.150541 0.096820
O O3 0.332395 0.165971 0.886104
O O4 0.995177 0.914646 0.719469
O O5 0.777472 0.771887 0.266506
O O6 0.063755 0.728433 0.367009
O O7 0.945991 0.708083 0.120792
O O8 0.287353 0.027277 0.583609
O O9 0.931962 0.693257 0.903226
O O10 0.475403 0.417662 0.648245
O O11 0.863815 0.461970 0.805816
O O12 0.697652 0.380408 0.022438
O O13 0.179784 0.638773 0.478097
O O14 0.500000 0.500000 0.500000
O O15 0.072311 0.187217 0.187313
O O16 0.000000 0.500000 0.500000
O O17 0.965414 0.684328 0.564502
#
# Coordination Sequence:
#
# PCOD8012949 Si02
#       8
#     2   2   2   2   2   2   2   2
#     4  12  23  43  67 103 136 171 228 282 341 407
#     4  11  25  47  70  99 138 180 237 282 336 405
#     4  11  23  46  67  97 139 183 224 277 346 406
#     4  11  25  46  72 103 134 181 231 286 341 401
#     4  12  25  44  72 102 138 181 229 280 346 408
#     4  10  21  40  64  93 134 177 215 265 343 404
#     4  12  22  41  70  98 137 173 222 280 347 405
#     4  11  24  40  69 103 134 179 223 281 342 407
#
# _framework density 22.413209999999999
#
# number of rings (size 3 to 8) (size 9 to 14) (size 15 to 20)
#    0.000    0.750    2.500    6.750    0.000    2.500 
#    2.250    0.000    0.000    0.000    0.000    0.000 
#    0.000    0.000    0.000    0.000    0.000    0.000 
#
# Total GULP energy -198368.155218 kJ/mol
# GULP energy per Si atom -12398.009701 kJ/mol
# Density = 2.236220 g / cm^3
# Si number density = 22.413210 Si / 1000 Ang^3
#
#
#
# Elastic Constant Matrix: (Units=GPa)
#
#
# Indices 1 2 3 4 5 6 
#
# 1 93.9298 21.3622 24.5877 8.5051 -24.5327 -13.8852
# 2 21.3622 83.7341 24.9993 4.8965 -15.4518 -19.1801
# 3 24.5877 24.9993 77.1485 -4.3048 -20.4453 -1.6371
# 4 8.5051 4.8965 -4.3048 32.1464 3.6413 -2.8616
# 5 -24.5327 -15.4518 -20.4453 3.6413 38.8661 0.5958
# 6 -13.8852 -19.1801 -1.6371 -2.8616 0.5958 29.9169
#
#
#
# Elastic Compliance Matrix: (Units=1/GPa)
#
#
# Indices 1 2 3 4 5 6 
#
# 1 0.014850 0.000301 -0.002734 -0.004730 0.008401 0.006316
# 2 0.000301 0.016430 -0.004126 -0.002764 0.004656 0.010090
# 3 -0.002734 -0.004126 0.016633 0.002740 0.005171 -0.002845
# 4 -0.004730 -0.002764 0.002740 0.033762 -0.005799 -0.000473
# 5 0.008401 0.004656 0.005171 -0.005799 0.036056 0.005894
# 6 0.006316 0.010090 -0.002845 -0.000473 0.005894 0.042508
#
#
# Mechanical properties :
#
#
# Convention : Reuss Voigt Hill
#
# Bulk Modulus (GPa) = 28.73963 44.07897 36.40930
# Shear Modulus (GPa) = 27.03375 32.44343 29.73859
#
# Velocity S-wave (km/s) = 3.47674 3.80875 3.64652
# Velocity P-wave (km/s) = 5.38214 6.24910 5.83175
#
# Compressibility (1/GPa) = 0.03479516
#
# Stress axis : x y z
#
# Youngs Moduli (GPa) = 67.34222 60.86572 60.12083
#
# Poissons Ratio (x) = -0.01835 0.16436
# Poissons Ratio (y) = -0.02030 0.24807
# Poissons Ratio (z) = 0.18410 0.25114
#
# Static dielectric constant tensor:
#      x y z
#    x 4.155670 0.249360 -0.055570 
#    y 0.249360 5.055200 -0.132730 
#    z -0.055570 -0.132730 4.100470 
# 
# 
# High freq. dielectric constant tensor:
#      x y z
#    x 1.882240 -0.008680 -0.014150 
#    y -0.008680 1.891230 -0.005500 
#    z -0.014150 -0.005500 1.887810 
# 
# From -- ./inp_files/399645.got.cif
#   From: 2010.06.25/outbox.cif.g09.slc.cpg/sg2_200_cif.got.tgz:399645.got - 2010.06.27 13:26:56.
