data_PCOD8012345
_publ_section_title
;
Structure prediction by ZEFSAII (Michael W. Deem and Ramdas Pophale) SiO2 
 PCOD8012345
Probable space group: P -1
;
_chemical_formula_sum "Si O2"
_cell_formula_units_Z 16
_cell_length_a 18.042782
_cell_length_b 15.482498
_cell_length_c 24.651425
_cell_angle_alpha 19.818274
_cell_angle_beta 20.186250
_cell_angle_gamma 31.125165
_cell_volume 783.988082
_symmetry_space_group_name_H-M "P -1"
_symmetry_group_IT_number 2
_symmetry_cell_setting 'triclinic'
loop_
_space_group_symop_operation_xyz
x,y,z
-x,-y,-z
loop_
_atom_site_type_symbol
_atom_site_label
_atom_site_fract_x
_atom_site_fract_y
_atom_site_fract_z
Si Si1 0.911296 0.986865 0.508648
Si Si2 0.070530 0.425576 0.577748
Si Si3 0.077189 0.275597 0.046717
Si Si4 0.404042 0.639623 0.532223
Si Si5 0.186809 0.948861 0.941338
Si Si6 0.208108 0.230601 0.495291
Si Si7 0.240305 0.917220 0.231325
Si Si8 0.596643 0.451275 0.019920
O O1 0.725037 0.726021 0.790865
O O2 0.123430 0.977560 0.331295
O O3 0.784606 0.212594 0.445473
O O4 0.000000 0.000000 0.500000
O O5 0.236572 0.315479 0.489097
O O6 0.189657 0.604843 0.439388
O O7 0.953136 0.609602 0.515020
O O8 0.901826 0.174345 0.867065
O O9 0.145861 0.073999 0.158614
O O10 0.283119 0.402421 0.793155
O O11 0.880798 0.086605 0.258877
O O12 0.000000 0.500000 0.000000
O O13 0.500000 0.500000 0.500000
O O14 0.603060 0.816600 0.326378
O O15 0.249053 0.741093 0.981742
O O16 0.000000 0.000000 0.000000
O O17 0.434274 0.312461 0.259935
O O18 0.500000 0.000000 0.000000
O O19 0.500000 0.500000 0.000000
#
# Coordination Sequence:
#
# PCOD8012345 Si02
#       8
#     2   2   2   2   2   2   2   2
#     4  12  27  45  71 103 138 178 234 286 337 416
#     4  10  21  42  65  95 130 166 231 271 327 399
#     4  11  22  42  67  95 137 180 227 271 347 408
#     4  12  27  44  69 101 141 182 221 285 350 402
#     4  12  26  43  68  99 136 181 226 279 339 403
#     4  10  21  39  69  98 124 176 225 281 324 401
#     4  11  25  43  68  94 134 183 221 279 340 403
#     4  12  21  45  73  95 131 182 235 271 337 402
#
# _framework density 20.408473999999998
#
# number of rings (size 3 to 8) (size 9 to 14) (size 15 to 20)
#    0.000    0.750    5.000    2.250    7.000    1.000 
#    0.000    0.625    0.000    0.000    0.000    0.000 
#    0.000    0.000    0.000    0.000    0.000    0.000 
#
# Total GULP energy -198232.501213 kJ/mol
# GULP energy per Si atom -12389.531326 kJ/mol
# Density = 2.036202 g / cm^3
# Si number density = 20.408474 Si / 1000 Ang^3
#
#
#
# Elastic Constant Matrix: (Units=GPa)
#
#
# Indices 1 2 3 4 5 6 
#
# 1 86.1672 100.9827 83.9858 14.6098 -26.9783 55.9870
# 2 100.9827 -62.7455 -96.6548 -29.9000 84.6777 -96.2436
# 3 83.9858 -96.6548 52.7365 -21.5639 71.4095 -66.9439
# 4 14.6098 -29.9000 -21.5639 32.5354 24.1595 -19.9922
# 5 -26.9783 84.6777 71.4095 24.1595 0.2949 65.0826
# 6 55.9870 -96.2436 -66.9439 -19.9922 65.0826 -43.2680
#
#
#
# Elastic Compliance Matrix: (Units=1/GPa)
#
#
# Indices 1 2 3 4 5 6 
#
# 1 0.008258 -0.000793 -0.000721 0.001900 -0.005400 0.004565
# 2 -0.000793 0.009644 -0.002046 -0.002324 0.005613 -0.009793
# 3 -0.000721 -0.002046 0.007372 -0.000948 0.001310 -0.005379
# 4 0.001900 -0.002324 -0.000948 0.025292 -0.001290 -0.004531
# 5 -0.005400 0.005613 0.001310 -0.001290 0.017080 0.004788
# 6 0.004565 -0.009793 -0.005379 -0.004531 0.004788 0.022196
#
#
# Mechanical properties :
#
#
# Convention : Reuss Voigt Hill
#
# Bulk Modulus (GPa) = 55.08564 28.08730 41.58647
# Shear Modulus (GPa) = 48.53776 -2.89791 22.81992
#
# Velocity S-wave (km/s) = 4.88209 -1.19291 3.34752
# Velocity P-wave (km/s) = 7.67006 3.44892 5.94663
#
# Compressibility (1/GPa) = 0.01815355
#
# Stress axis : x y z
#
# Youngs Moduli (GPa) = 121.08960 103.69600 135.65712
#
# Poissons Ratio (x) = 0.08219 0.09784
# Poissons Ratio (y) = 0.09598 0.27757
# Poissons Ratio (z) = 0.08733 0.21217
#
# Static dielectric constant tensor:
#      x y z
#    x 3.718080 0.291120 -0.013210 
#    y 0.291120 3.836950 -0.366870 
#    z -0.013210 -0.366870 4.134740 
# 
# 
# High freq. dielectric constant tensor:
#      x y z
#    x 1.789010 0.019210 0.006540 
#    y 0.019210 1.810000 -0.002990 
#    z 0.006540 -0.002990 1.817240 
# 
# From -- ./inp_files/436327.got.cif
#   From: 2010.06.25/outbox.cif.g09.slc.cpg/sg2_219_cif.got.tgz:436327.got - 2010.06.27 13:26:56.
