data_PCOD8012404
_publ_section_title
;
Structure prediction by ZEFSAII (Michael W. Deem and Ramdas Pophale) SiO2 
 PCOD8012404
Probable space group: P -1
;
_chemical_formula_sum "Si O2"
_cell_formula_units_Z 14
_cell_length_a 12.536585
_cell_length_b 15.551496
_cell_length_c 9.184735
_cell_angle_alpha 53.436481
_cell_angle_beta 29.005438
_cell_angle_gamma 45.255166
_cell_volume 615.665454
_symmetry_space_group_name_H-M "P -1"
_symmetry_group_IT_number 2
_symmetry_cell_setting 'triclinic'
loop_
_space_group_symop_operation_xyz
x,y,z
-x,-y,-z
loop_
_atom_site_type_symbol
_atom_site_label
_atom_site_fract_x
_atom_site_fract_y
_atom_site_fract_z
Si Si1 0.221156 0.683871 0.903124
Si Si2 0.053786 0.225614 0.134178
Si Si3 0.518246 0.021501 0.123385
Si Si4 0.250477 0.417546 0.683421
Si Si5 0.308177 0.789742 0.200027
Si Si6 0.241231 0.452933 0.981590
Si Si7 0.004778 0.883376 0.189536
O O1 0.505157 0.649900 0.638783
O O2 0.158048 0.749746 0.756434
O O3 0.200921 0.561014 0.031090
O O4 0.037201 0.776328 0.148325
O O5 0.936823 0.210385 0.439569
O O6 0.127709 0.332000 0.955566
O O7 0.295531 0.108950 0.902519
O O8 0.257508 0.075700 0.461602
O O9 0.649209 0.105581 0.886947
O O10 0.500000 0.000000 0.000000
O O11 0.039764 0.531412 0.727273
O O12 0.328759 0.458236 0.702637
O O13 0.240423 0.822016 0.079076
O O14 0.564687 0.666351 0.045345
O O15 0.000000 0.000000 0.000000
#
# Coordination Sequence:
#
# PCOD8012404 Si02
#       7
#     2   2   2   2   2   2   2
#     4  11  24  43  68 102 146 182 224 285 348 405
#     4  11  23  40  73 104 133 180 237 283 337 409
#     4  12  26  45  74 102 133 181 236 288 340 411
#     4  10  21  39  72 104 139 178 230 285 339 403
#     4  12  26  43  71 103 138 179 235 283 338 412
#     4  10  23  39  69 106 137 182 235 277 335 415
#     4  12  29  47  70 102 143 182 226 289 354 403
#
# _framework density 22.739625
#
# number of rings (size 3 to 8) (size 9 to 14) (size 15 to 20)
#    0.000    0.857    2.857    3.429    6.000    5.143 
#    0.000    1.429    0.000    0.000    0.000    0.000 
#    0.000    0.000    0.000    0.000    0.000    0.000 
#
# Total GULP energy -173454.698613 kJ/mol
# GULP energy per Si atom -12389.621329 kJ/mol
# Density = 2.268787 g / cm^3
# Si number density = 22.739625 Si / 1000 Ang^3
#
#
#
# Elastic Constant Matrix: (Units=GPa)
#
#
# Indices 1 2 3 4 5 6 
#
# 1 132.1827 75.5023 41.9942 7.9655 -7.0882 -5.7420
# 2 75.5023 126.0010 32.1769 29.8170 -3.6795 -0.0780
# 3 41.9942 32.1769 113.8278 23.3710 -7.6968 3.5323
# 4 7.9655 29.8170 23.3710 42.7653 -0.6602 -8.3727
# 5 -7.0882 -3.6795 -7.6968 -0.6602 32.9524 9.6959
# 6 -5.7420 -0.0780 3.5323 -8.3727 9.6959 56.1547
#
#
#
# Elastic Compliance Matrix: (Units=1/GPa)
#
#
# Indices 1 2 3 4 5 6 
#
# 1 0.013358 -0.008423 -0.003811 0.005945 0.000455 0.002402
# 2 -0.008423 0.015109 0.001011 -0.009999 0.000649 -0.002507
# 3 -0.003811 0.001011 0.011553 -0.006773 0.002614 -0.002576
# 4 0.005945 -0.009999 -0.006773 0.034196 -0.002670 0.006580
# 5 0.000455 0.000649 0.002614 -0.002670 0.032897 -0.006195
# 6 0.002402 -0.002507 -0.002576 0.006580 -0.006195 0.020263
#
#
# Mechanical properties :
#
#
# Convention : Reuss Voigt Hill
#
# Bulk Modulus (GPa) = 56.90597 74.59537 65.75067
# Shear Modulus (GPa) = 32.11732 41.19702 36.65717
#
# Velocity S-wave (km/s) = 3.76226 4.26101 4.01938
# Velocity P-wave (km/s) = 6.62964 7.55537 7.10759
#
# Compressibility (1/GPa) = 0.01757285
#
# Stress axis : x y z
#
# Youngs Moduli (GPa) = 74.86257 66.18590 86.55959
#
# Poissons Ratio (x) = 0.55748 0.32991
# Poissons Ratio (y) = 0.63056 -0.08751
# Poissons Ratio (z) = 0.28533 -0.06692
#
# Static dielectric constant tensor:
#      x y z
#    x 4.332780 -0.244620 -0.310650 
#    y -0.244620 4.413890 0.417420 
#    z -0.310650 0.417420 3.991220 
# 
# 
# High freq. dielectric constant tensor:
#      x y z
#    x 1.904170 -0.001030 -0.023550 
#    y -0.001030 1.913100 0.026530 
#    z -0.023550 0.026530 1.880700 
# 
# From -- ./inp_files/229863.got.cif
#   From: 2010.06.25/outbox.cif.g09.slc.cpg/sg2_115_cif.got.tgz:229863.got - 2010.06.27 13:26:56.
