data_PCOD8012272
_publ_section_title
;
Structure prediction by ZEFSAII (Michael W. Deem and Ramdas Pophale) SiO2 
 PCOD8012272
Probable space group: P -1
;
_chemical_formula_sum "Si O2"
_cell_formula_units_Z 16
_cell_length_a 14.833670
_cell_length_b 9.292658
_cell_length_c 8.916981
_cell_angle_alpha 86.790895
_cell_angle_beta 140.916779
_cell_angle_gamma 84.412690
_cell_volume 754.094546
_symmetry_space_group_name_H-M "P -1"
_symmetry_group_IT_number 2
_symmetry_cell_setting 'triclinic'
loop_
_space_group_symop_operation_xyz
x,y,z
-x,-y,-z
loop_
_atom_site_type_symbol
_atom_site_label
_atom_site_fract_x
_atom_site_fract_y
_atom_site_fract_z
Si Si1 0.726115 0.355967 0.356077
Si Si2 0.292195 0.943477 0.087497
Si Si3 0.847751 0.054955 0.385068
Si Si4 0.980740 0.355778 0.905536
Si Si5 0.506941 0.635447 0.393085
Si Si6 0.720949 0.739639 0.846964
Si Si7 0.997932 0.909461 0.853031
Si Si8 0.421733 0.426254 0.074249
O O1 0.816313 0.228815 0.372767
O O2 0.822209 0.374981 0.624091
O O3 0.572787 0.317952 0.218489
O O4 0.689755 0.510776 0.208054
O O5 0.395911 0.789658 0.280550
O O6 0.336703 0.083603 0.216294
O O7 0.283210 0.970822 0.892856
O O8 0.133313 0.926239 0.928420
O O9 0.854059 0.968270 0.558222
O O10 0.000000 0.000000 0.500000
O O11 0.000000 0.500000 0.000000
O O12 0.102891 0.298212 0.937592
O O13 0.996508 0.254760 0.079085
O O14 0.500000 0.500000 0.500000
O O15 0.662658 0.680747 0.619585
O O16 0.474982 0.573939 0.193906
O O17 0.664140 0.655692 0.916657
O O18 0.000000 0.000000 0.000000
#
# Coordination Sequence:
#
# PCOD8012272 Si02
#       8
#     2   2   2   2   2   2   2   2
#     4  11  22  44  68  92 131 179 214 269 328 399
#     4  11  22  41  65  94 131 174 216 270 329 389
#     4  10  21  39  68  94 126 171 222 262 322 399
#     4  12  26  40  66  99 131 168 222 280 330 381
#     4  10  22  39  64  92 125 173 215 262 325 392
#     4  11  24  41  62 101 133 167 223 277 327 384
#     4  11  22  40  65  93 129 173 218 267 332 390
#     4  10  24  42  68  94 132 175 222 262 333 395
#
# _framework density 21.217497999999999
#
# number of rings (size 3 to 8) (size 9 to 14) (size 15 to 20)
#    0.000    1.250    3.750    1.875    7.000    1.500 
#    2.250    0.625    0.000    0.000    0.000    0.000 
#    0.000    0.000    0.000    0.000    0.000    0.000 
#
# Total GULP energy -198229.099360 kJ/mol
# GULP energy per Si atom -12389.318710 kJ/mol
# Density = 2.116921 g / cm^3
# Si number density = 21.217498 Si / 1000 Ang^3
#
#
#
# Elastic Constant Matrix: (Units=GPa)
#
#
# Indices 1 2 3 4 5 6 
#
# 1 87.7193 28.8113 34.1514 -12.7690 -5.9570 7.9103
# 2 28.8113 139.8227 45.0603 -9.0268 -5.9280 0.5942
# 3 34.1514 45.0603 116.1752 -20.9725 -8.3859 9.3540
# 4 -12.7690 -9.0268 -20.9725 32.9238 -0.2568 -1.0194
# 5 -5.9570 -5.9280 -8.3859 -0.2568 26.4691 -3.7766
# 6 7.9103 0.5942 9.3540 -1.0194 -3.7766 36.2999
#
#
#
# Elastic Compliance Matrix: (Units=1/GPa)
#
#
# Indices 1 2 3 4 5 6 
#
# 1 0.013703 -0.001735 -0.002494 0.003200 0.001643 -0.002054
# 2 -0.001735 0.008436 -0.002811 -0.000113 0.000755 0.001040
# 3 -0.002494 -0.002811 0.011798 0.005732 0.002310 -0.002049
# 4 0.003200 -0.000113 0.005732 0.035228 0.002724 -0.000900
# 5 0.001643 0.000755 0.002310 0.002724 0.039537 0.003224
# 6 -0.002054 0.001040 -0.002049 -0.000900 0.003224 0.028817
#
#
# Mechanical properties :
#
#
# Convention : Reuss Voigt Hill
#
# Bulk Modulus (GPa) = 50.36166 62.19590 56.27878
# Shear Modulus (GPa) = 31.60193 34.85151 33.22672
#
# Velocity S-wave (km/s) = 3.86350 4.05728 3.96157
# Velocity P-wave (km/s) = 6.60981 7.16420 6.89258
#
# Compressibility (1/GPa) = 0.01985637
#
# Stress axis : x y z
#
# Youngs Moduli (GPa) = 72.97493 118.54232 84.76224
#
# Poissons Ratio (x) = 0.20568 0.21137
# Poissons Ratio (y) = 0.12662 0.23831
# Poissons Ratio (z) = 0.18198 0.33328
#
# Static dielectric constant tensor:
#      x y z
#    x 3.605960 -0.245490 -0.127140 
#    y -0.245490 3.968390 0.035170 
#    z -0.127140 0.035170 4.446370 
# 
# 
# High freq. dielectric constant tensor:
#      x y z
#    x 1.815520 -0.016410 -0.012240 
#    y -0.016410 1.832750 -0.009100 
#    z -0.012240 -0.009100 1.847990 
# 
# From -- ./inp_files/298615.got.cif
#   From: 2010.06.25/outbox.cif.g09.slc.cpg/sg2_150_cif.got.tgz:298615.got - 2010.06.27 13:26:56.
