data_PCOD8012719
_publ_section_title
;
Structure prediction by ZEFSAII (Michael W. Deem and Ramdas Pophale) SiO2 
 PCOD8012719
Probable space group: P -1
;
_chemical_formula_sum "Si O2"
_cell_formula_units_Z 16
_cell_length_a 6.410594
_cell_length_b 11.950178
_cell_length_c 17.529613
_cell_angle_alpha 48.178155
_cell_angle_beta 63.999744
_cell_angle_gamma 51.288016
_cell_volume 780.367494
_symmetry_space_group_name_H-M "P -1"
_symmetry_group_IT_number 2
_symmetry_cell_setting 'triclinic'
loop_
_space_group_symop_operation_xyz
x,y,z
-x,-y,-z
loop_
_atom_site_type_symbol
_atom_site_label
_atom_site_fract_x
_atom_site_fract_y
_atom_site_fract_z
Si Si1 0.022338 0.332560 0.900879
Si Si2 0.310994 0.245210 0.606973
Si Si3 0.397691 0.418304 0.262843
Si Si4 0.510414 0.787598 0.237088
Si Si5 0.291970 0.533293 0.390788
Si Si6 0.955092 0.362075 0.169881
Si Si7 0.476005 0.128202 0.279497
Si Si8 0.973687 0.143784 0.129787
O O1 0.291602 0.232327 0.853973
O O2 0.033078 0.462404 0.902742
O O3 0.767238 0.435461 0.840366
O O4 0.985426 0.190132 0.018415
O O5 0.361641 0.205660 0.706472
O O6 0.423572 0.368547 0.502094
O O7 0.001228 0.329088 0.595948
O O8 0.451957 0.064359 0.621336
O O9 0.248967 0.471383 0.343056
O O10 0.687134 0.396294 0.239565
O O11 0.425587 0.236630 0.315630
O O12 0.478104 0.618623 0.318893
O O13 0.231117 0.961623 0.191168
O O14 0.206712 0.203647 0.240563
O O15 0.953382 0.303161 0.110253
O O16 0.710159 0.128640 0.191111
#
# Coordination Sequence:
#
# PCOD8012719 Si02
#       8
#     2   2   2   2   2   2   2   2
#     4  11  23  38  62  91 124 162 202 242 299 359
#     4  11  23  42  66  89 117 161 202 250 308 356
#     4  10  22  41  62  91 125 156 201 253 294 355
#     4  12  22  42  62  92 124 156 202 250 298 360
#     4  11  23  42  66  89 117 161 202 250 308 356
#     4  10  21  40  63  84 126 164 203 244 299 346
#     4  10  22  41  62  91 125 156 201 253 294 355
#     4  11  23  38  62  91 124 162 202 242 299 359
#
# _framework density 20.503160999999999
#
# number of rings (size 3 to 8) (size 9 to 14) (size 15 to 20)
#    0.000    1.250    5.000    1.125    0.000    6.000 
#    0.000    1.875    0.000    0.000    0.000    0.000 
#    0.000    0.000    0.000    0.000    0.000    0.000 
#
# Total GULP energy -198419.073335 kJ/mol
# GULP energy per Si atom -12401.192083 kJ/mol
# Density = 2.045649 g / cm^3
# Si number density = 20.503161 Si / 1000 Ang^3
#
#
#
# Elastic Constant Matrix: (Units=GPa)
#
#
# Indices 1 2 3 4 5 6 
#
# 1 74.6522 17.5827 9.9745 -4.7384 4.9859 -14.0238
# 2 17.5827 79.1161 24.4531 -8.8037 1.6920 -4.6791
# 3 9.9745 24.4531 77.5184 -7.8404 4.7198 2.3086
# 4 -4.7384 -8.8037 -7.8404 24.1616 -1.4932 0.2150
# 5 4.9859 1.6920 4.7198 -1.4932 19.8247 -2.3780
# 6 -14.0238 -4.6791 2.3086 0.2150 -2.3780 34.7322
#
#
#
# Elastic Compliance Matrix: (Units=1/GPa)
#
#
# Indices 1 2 3 4 5 6 
#
# 1 0.015498 -0.002549 -0.001046 0.001558 -0.002619 0.005795
# 2 -0.002549 0.014939 -0.004101 0.003649 0.000771 0.001286
# 3 -0.001046 -0.004101 0.014874 0.002963 -0.002967 -0.002185
# 4 0.001558 0.003649 0.002963 0.044102 0.002008 0.000788
# 5 -0.002619 0.000771 -0.002967 0.002008 0.052229 0.002807
# 6 0.005795 0.001286 -0.002185 0.000788 0.002807 0.031637
#
#
# Mechanical properties :
#
#
# Convention : Reuss Voigt Hill
#
# Bulk Modulus (GPa) = 33.42247 37.25638 35.33942
# Shear Modulus (GPa) = 25.17075 27.69545 26.43310
#
# Velocity S-wave (km/s) = 3.50759 3.67930 3.59447
# Velocity P-wave (km/s) = 5.72195 6.02164 5.87371
#
# Compressibility (1/GPa) = 0.02991999
#
# Stress axis : x y z
#
# Youngs Moduli (GPa) = 64.52504 66.93792 67.23259
#
# Poissons Ratio (x) = 0.17062 0.07030
# Poissons Ratio (y) = 0.16447 0.27571
# Poissons Ratio (z) = 0.06747 0.27450
#
# Static dielectric constant tensor:
#      x y z
#    x 3.651670 0.041750 -0.001360 
#    y 0.041750 3.924870 -0.077110 
#    z -0.001360 -0.077110 3.529240 
# 
# 
# High freq. dielectric constant tensor:
#      x y z
#    x 1.802110 -0.001440 0.002090 
#    y -0.001440 1.816940 -0.006940 
#    z 0.002090 -0.006940 1.786720 
# 
# From -- ./inp_files/37247.got.cif
#   From: 2010.06.25/outbox.cif.g09.slc.cpg/sg2_19_cif.got.tgz:37247.got - 2010.06.27 13:26:56.
