data_PCOD8012802
_publ_section_title
;
Structure prediction by ZEFSAII (Michael W. Deem and Ramdas Pophale) SiO2 
 PCOD8012802
Probable space group: P -1
;
_chemical_formula_sum "Si O2"
_cell_formula_units_Z 16
_cell_length_a 14.002056
_cell_length_b 11.782902
_cell_length_c 14.415801
_cell_angle_alpha 29.433201
_cell_angle_beta 137.890159
_cell_angle_gamma 135.064573
_cell_volume 769.812618
_symmetry_space_group_name_H-M "P -1"
_symmetry_group_IT_number 2
_symmetry_cell_setting 'triclinic'
loop_
_space_group_symop_operation_xyz
x,y,z
-x,-y,-z
loop_
_atom_site_type_symbol
_atom_site_label
_atom_site_fract_x
_atom_site_fract_y
_atom_site_fract_z
Si Si1 0.501966 0.642630 0.994663
Si Si2 0.309576 0.859881 0.203054
Si Si3 0.789422 0.900004 0.667938
Si Si4 0.865212 0.411459 0.027140
Si Si5 0.596740 0.230110 0.866566
Si Si6 0.172418 0.678227 0.735636
Si Si7 0.505150 0.370485 0.374960
Si Si8 0.020078 0.169463 0.979494
O O1 0.544782 0.496587 0.216130
O O2 0.500000 0.500000 0.000000
O O3 0.344206 0.702790 0.856577
O O4 0.627539 0.870285 0.919591
O O5 0.389419 0.777335 0.229184
O O6 0.349685 0.707419 0.426909
O O7 0.135381 0.818806 0.094158
O O8 0.613981 0.870392 0.561752
O O9 0.874154 0.941231 0.796717
O O10 0.861851 0.110342 0.502575
O O11 0.796168 0.639945 0.826232
O O12 0.900692 0.306107 0.227014
O O13 0.754935 0.217318 0.030444
O O14 0.000000 0.500000 0.000000
O O15 0.540612 0.459436 0.699425
O O16 0.500000 0.000000 0.000000
O O17 0.099593 0.427205 0.818345
O O18 0.000000 0.000000 0.000000
#
# Coordination Sequence:
#
# PCOD8012802 Si02
#       8
#     2   2   2   2   2   2   2   2
#     4  12  24  42  69  96 127 173 222 268 320 390
#     4  12  25  41  67 102 133 169 218 273 331 381
#     4  10  22  41  69  87 129 174 213 259 323 389
#     4  10  21  40  63  93 128 169 214 257 316 393
#     4  11  20  40  65  95 137 166 205 274 333 379
#     4  11  21  44  65  90 128 174 217 258 321 391
#     4  11  23  43  68  99 131 173 221 265 326 398
#     4  11  25  44  64  94 136 168 216 280 325 375
#
# _framework density 20.784276999999999
#
# number of rings (size 3 to 8) (size 9 to 14) (size 15 to 20)
#    0.000    1.000    6.250    2.625    0.000    3.500 
#    2.250    0.000    0.000    0.000    0.000    0.000 
#    0.000    0.000    0.000    0.000    0.000    0.000 
#
# Total GULP energy -198303.071314 kJ/mol
# GULP energy per Si atom -12393.941957 kJ/mol
# Density = 2.073697 g / cm^3
# Si number density = 20.784277 Si / 1000 Ang^3
#
#
#
# Elastic Constant Matrix: (Units=GPa)
#
#
# Indices 1 2 3 4 5 6 
#
# 1 70.0156 18.8420 26.3757 4.7832 -14.1619 -6.7611
# 2 18.8420 125.5498 41.9961 1.7015 -13.3705 3.2187
# 3 26.3757 41.9961 109.2621 5.1300 -39.3900 -5.6789
# 4 4.7832 1.7015 5.1300 29.4719 8.5434 -6.1023
# 5 -14.1619 -13.3705 -39.3900 8.5434 25.7617 3.6850
# 6 -6.7611 3.2187 -5.6789 -6.1023 3.6850 42.6634
#
#
#
# Elastic Compliance Matrix: (Units=1/GPa)
#
#
# Indices 1 2 3 4 5 6 
#
# 1 0.017333 -0.001655 0.001476 -0.006515 0.012942 0.001018
# 2 -0.001655 0.009378 -0.004372 0.001101 -0.002929 -0.001141
# 3 0.001476 -0.004372 0.029848 -0.020692 0.051453 -0.002867
# 4 -0.006515 0.001101 -0.020692 0.056177 -0.054548 0.008877
# 5 0.012942 -0.002929 0.051453 -0.054548 0.142748 -0.011011
# 6 0.001018 -0.001141 -0.002867 0.008877 -0.011011 0.025526
#
#
# Mechanical properties :
#
#
# Convention : Reuss Voigt Hill
#
# Bulk Modulus (GPa) = 21.07122 53.25057 37.16090
# Shear Modulus (GPa) = 16.34360 34.08697 25.21528
#
# Velocity S-wave (km/s) = 2.80723 4.05413 3.48687
# Velocity P-wave (km/s) = 4.54614 6.89861 5.84201
#
# Compressibility (1/GPa) = 0.04745809
#
# Stress axis : x y z
#
# Youngs Moduli (GPa) = 57.69392 106.63070 33.50303
#
# Poissons Ratio (x) = 0.17644 -0.04947
# Poissons Ratio (y) = 0.09546 0.14648
# Poissons Ratio (z) = -0.08518 0.46622
#
# Static dielectric constant tensor:
#      x y z
#    x 3.659830 0.032560 -0.207690 
#    y 0.032560 4.283120 0.256950 
#    z -0.207690 0.256950 3.834080 
# 
# 
# High freq. dielectric constant tensor:
#      x y z
#    x 1.804450 0.004230 -0.016080 
#    y 0.004230 1.835190 0.004090 
#    z -0.016080 0.004090 1.804810 
# 
# From -- ./inp_files/447561.got.cif
#   From: 2010.06.25/outbox.cif.g09.slc.cpg/sg2_224_cif.got.tgz:447561.got - 2010.06.27 13:26:56.
