data_PCOD8012979
_publ_section_title
;
Structure prediction by ZEFSAII (Michael W. Deem and Ramdas Pophale) SiO2 
 PCOD8012979
Probable space group: P -1
;
_chemical_formula_sum "Si O2"
_cell_formula_units_Z 16
_cell_length_a 17.534311
_cell_length_b 8.630376
_cell_length_c 5.905659
_cell_angle_alpha 49.332029
_cell_angle_beta 83.842769
_cell_angle_gamma 88.327534
_cell_volume 672.969420
_symmetry_space_group_name_H-M "P -1"
_symmetry_group_IT_number 2
_symmetry_cell_setting 'triclinic'
loop_
_space_group_symop_operation_xyz
x,y,z
-x,-y,-z
loop_
_atom_site_type_symbol
_atom_site_label
_atom_site_fract_x
_atom_site_fract_y
_atom_site_fract_z
Si Si1 0.916850 0.093315 0.945136
Si Si2 0.728605 0.418271 0.007999
Si Si3 0.169225 0.212548 0.469515
Si Si4 0.811190 0.137755 0.553179
Si Si5 0.326294 0.858613 0.091498
Si Si6 0.959774 0.481959 0.784760
Si Si7 0.451952 0.178459 0.748523
Si Si8 0.413209 0.564523 0.655855
O O1 0.847835 0.920860 0.172489
O O2 0.888842 0.193530 0.623338
O O3 0.916504 0.256836 0.996505
O O4 0.000000 0.000000 0.000000
O O5 0.792619 0.350712 0.231424
O O6 0.724737 0.235592 0.004886
O O7 0.643553 0.440074 0.110538
O O8 0.755452 0.634687 0.678950
O O9 0.095166 0.337803 0.343906
O O10 0.174113 0.061431 0.403768
O O11 0.733237 0.068517 0.775268
O O12 0.375149 0.059662 0.788012
O O13 0.378914 0.683444 0.339620
O O14 0.000000 0.500000 0.500000
O O15 0.000000 0.500000 0.000000
O O16 0.427971 0.332478 0.806979
O O17 0.505223 0.311208 0.424450
O O18 0.500000 0.000000 0.000000
#
# Coordination Sequence:
#
# PCOD8012979 Si02
#       8
#     2   2   2   2   2   2   2   2
#     4  12  27  48  71 102 135 181 236 297 368 443
#     4  11  25  43  66 101 137 184 236 293 358 431
#     4  12  26  42  70  96 136 181 233 293 365 434
#     4  11  25  44  70  97 138 180 236 296 357 438
#     4  10  21  40  64  95 137 177 234 287 352 424
#     4  12  28  48  75 106 144 185 238 305 377 449
#     4   9  18  38  66  96 134 183 224 286 348 417
#     4   9  20  39  64  95 136 178 232 285 351 421
#
# _framework density 23.775226
#
# number of rings (size 3 to 8) (size 9 to 14) (size 15 to 20)
#    0.000    1.250    1.250    3.750    3.500    5.500 
#    0.000    5.625    0.000    0.000    0.000    0.000 
#    0.000    0.000    0.000    0.000    0.000    0.000 
#
# Total GULP energy -198212.583795 kJ/mol
# GULP energy per Si atom -12388.286487 kJ/mol
# Density = 2.372111 g / cm^3
# Si number density = 23.775226 Si / 1000 Ang^3
#
#
#
# Elastic Constant Matrix: (Units=GPa)
#
#
# Indices 1 2 3 4 5 6 
#
# 1 78.3295 43.1108 42.9968 -3.8271 -16.0801 -6.5108
# 2 43.1108 143.7310 42.1161 -15.4027 -11.5984 -7.2063
# 3 42.9968 42.1161 93.6613 -7.9513 -25.7313 8.3083
# 4 -3.8271 -15.4027 -7.9513 36.3605 2.0162 -1.4116
# 5 -16.0801 -11.5984 -25.7313 2.0162 45.3428 -8.1194
# 6 -6.5108 -7.2063 8.3083 -1.4116 -8.1194 58.6452
#
#
#
# Elastic Compliance Matrix: (Units=1/GPa)
#
#
# Indices 1 2 3 4 5 6 
#
# 1 0.019199 -0.003487 -0.006885 -0.000989 0.002594 0.003014
# 2 -0.003487 0.009060 -0.002371 0.003006 -0.000200 0.001107
# 3 -0.006885 -0.002371 0.016917 0.001536 0.006022 -0.002582
# 4 -0.000989 0.003006 0.001536 0.029030 0.000135 0.000760
# 5 0.002594 -0.000200 0.006022 0.000135 0.026896 0.003137
# 6 0.003014 0.001107 -0.002582 0.000760 0.003137 0.018341
#
#
# Mechanical properties :
#
#
# Convention : Reuss Voigt Hill
#
# Bulk Modulus (GPa) = 50.78438 63.57434 57.17936
# Shear Modulus (GPa) = 33.00529 40.56958 36.78744
#
# Velocity S-wave (km/s) = 3.72993 4.13532 3.93784
# Velocity P-wave (km/s) = 6.32111 7.04265 6.69161
#
# Compressibility (1/GPa) = 0.01969109
#
# Stress axis : x y z
#
# Youngs Moduli (GPa) = 52.08486 110.38071 59.11167
#
# Poissons Ratio (x) = 0.38489 0.40696
# Poissons Ratio (y) = 0.18162 0.14015
# Poissons Ratio (z) = 0.35858 0.26171
#
# Static dielectric constant tensor:
#      x y z
#    x 4.641160 -0.024350 -0.406270 
#    y -0.024350 4.488380 -0.144490 
#    z -0.406270 -0.144490 5.067970 
# 
# 
# High freq. dielectric constant tensor:
#      x y z
#    x 1.961090 -0.016850 -0.013910 
#    y -0.016850 1.944720 -0.021120 
#    z -0.013910 -0.021120 1.937780 
# 
# From -- ./inp_files/106099.got.cif
#   From: 2010.06.25/outbox.cif.g09.slc.cpg/sg2_54_cif.got.tgz:106099.got - 2010.06.27 13:26:56.
