data_PCOD8012361
_publ_section_title
;
Structure prediction by ZEFSAII (Michael W. Deem and Ramdas Pophale) SiO2 
 PCOD8012361
Probable space group: P -1
;
_chemical_formula_sum "Si O2"
_cell_formula_units_Z 16
_cell_length_a 9.713213
_cell_length_b 14.575161
_cell_length_c 7.245275
_cell_angle_alpha 65.168091
_cell_angle_beta 93.212736
_cell_angle_gamma 51.094870
_cell_volume 645.887099
_symmetry_space_group_name_H-M "P -1"
_symmetry_group_IT_number 2
_symmetry_cell_setting 'triclinic'
loop_
_space_group_symop_operation_xyz
x,y,z
-x,-y,-z
loop_
_atom_site_type_symbol
_atom_site_label
_atom_site_fract_x
_atom_site_fract_y
_atom_site_fract_z
Si Si1 0.103589 0.052201 0.291509
Si Si2 0.417587 0.016608 0.181643
Si Si3 0.325891 0.730186 0.530765
Si Si4 0.594783 0.759185 0.033588
Si Si5 0.209617 0.858030 0.040100
Si Si6 0.223027 0.296172 0.515965
Si Si7 0.262917 0.444232 0.116977
Si Si8 0.955529 0.283496 0.344320
O O1 0.219166 0.053006 0.137889
O O2 0.110039 0.116273 0.423711
O O3 0.203461 0.890200 0.471863
O O4 0.869787 0.164354 0.122095
O O5 0.580895 0.860119 0.425849
O O6 0.386209 0.144333 0.158987
O O7 0.500000 0.000000 0.000000
O O8 0.331862 0.730618 0.308133
O O9 0.547872 0.611659 0.718085
O O10 0.234090 0.671172 0.623991
O O11 0.361888 0.864831 0.978961
O O12 0.734657 0.685944 0.289521
O O13 0.674410 0.630985 0.014701
O O14 0.000000 0.000000 0.000000
O O15 0.157876 0.419036 0.266356
O O16 0.053021 0.299964 0.499104
O O17 0.106924 0.615500 0.921911
#
# Coordination Sequence:
#
# PCOD8012361 Si02
#       8
#     2   2   2   2   2   2   2   2
#     4  11  23  43  69 103 132 176 224 284 337 391
#     4  10  21  39  70 104 129 169 224 278 337 396
#     4  11  23  44  70  94 139 176 223 282 336 393
#     4  11  24  42  73  98 136 183 217 279 344 399
#     4  10  21  41  69 102 136 166 226 285 331 394
#     4  11  24  45  66 101 138 173 223 283 335 393
#     4  12  25  49  66  99 139 180 229 271 335 407
#     4  12  28  41  67 101 136 177 230 275 326 414
#
# _framework density 24.772129
#
# number of rings (size 3 to 8) (size 9 to 14) (size 15 to 20)
#    0.000    1.000    2.500    4.875    8.750    1.500 
#    2.250    1.250    0.000    0.000    0.000    0.000 
#    0.000    0.000    0.000    0.000    0.000    0.000 
#
# Total GULP energy -198316.693784 kJ/mol
# GULP energy per Si atom -12394.793361 kJ/mol
# Density = 2.471575 g / cm^3
# Si number density = 24.772129 Si / 1000 Ang^3
#
#
#
# Elastic Constant Matrix: (Units=GPa)
#
#
# Indices 1 2 3 4 5 6 
#
# 1 157.8051 9.1801 33.5076 11.8656 5.9167 26.3062
# 2 9.1801 27.9395 -4.5027 7.2012 0.9212 1.2638
# 3 33.5076 -4.5027 81.4953 3.7178 -1.3774 11.0121
# 4 11.8656 7.2012 3.7178 32.6220 7.8272 -2.2844
# 5 5.9167 0.9212 -1.3774 7.8272 45.3258 -1.4196
# 6 26.3062 1.2638 11.0121 -2.2844 -1.4196 16.8299
#
#
#
# Elastic Compliance Matrix: (Units=1/GPa)
#
#
# Indices 1 2 3 4 5 6 
#
# 1 0.009505 -0.001860 -0.001977 -0.003540 -0.001090 -0.013997
# 2 -0.001860 0.039478 0.003876 -0.008979 0.000992 -0.003728
# 3 -0.001977 0.003876 0.014349 -0.002450 0.000824 -0.006854
# 4 -0.003540 -0.008979 -0.002450 0.036340 -0.005320 0.012294
# 5 -0.001090 0.000992 0.000824 -0.005320 0.023201 0.002325
# 6 -0.013997 -0.003728 -0.006854 0.012294 0.002325 0.087925
#
#
# Mechanical properties :
#
#
# Convention : Reuss Voigt Hill
#
# Bulk Modulus (GPa) = 15.77019 38.17889 26.97454
# Shear Modulus (GPa) = 21.56507 34.22587 27.89547
#
# Velocity S-wave (km/s) = 2.95369 3.72106 3.35936
# Velocity P-wave (km/s) = 4.24409 5.82299 5.09507
#
# Compressibility (1/GPa) = 0.06341076
#
# Stress axis : x y z
#
# Youngs Moduli (GPa) = 105.20645 25.33083 69.69000
#
# Poissons Ratio (x) = 0.04712 0.13774
# Poissons Ratio (y) = 0.19571 -0.27013
# Poissons Ratio (z) = 0.20794 -0.09819
#
# Static dielectric constant tensor:
#      x y z
#    x 4.960550 0.416270 0.124500 
#    y 0.416270 4.269020 0.064190 
#    z 0.124500 0.064190 4.665580 
# 
# 
# High freq. dielectric constant tensor:
#      x y z
#    x 2.010420 0.009190 0.003650 
#    y 0.009190 1.955360 0.009350 
#    z 0.003650 0.009350 1.983580 
# 
# From -- ./inp_files/205990.got.cif
#   From: 2010.06.25/outbox.cif.g09.slc.cpg/sg2_103_cif.got.tgz:205990.got - 2010.06.27 13:26:56.
