data_PCOD8012372
_publ_section_title
;
Structure prediction by ZEFSAII (Michael W. Deem and Ramdas Pophale) SiO2 
 PCOD8012372
Probable space group: P -1
;
_chemical_formula_sum "Si O2"
_cell_formula_units_Z 16
_cell_length_a 15.583567
_cell_length_b 9.837068
_cell_length_c 5.358230
_cell_angle_alpha 112.036840
_cell_angle_beta 102.051570
_cell_angle_gamma 87.311697
_cell_volume 744.160566
_symmetry_space_group_name_H-M "P -1"
_symmetry_group_IT_number 2
_symmetry_cell_setting 'triclinic'
loop_
_space_group_symop_operation_xyz
x,y,z
-x,-y,-z
loop_
_atom_site_type_symbol
_atom_site_label
_atom_site_fract_x
_atom_site_fract_y
_atom_site_fract_z
Si Si1 0.805539 0.622732 0.938174
Si Si2 0.297238 0.190911 0.607744
Si Si3 0.129634 0.116240 0.149590
Si Si4 0.949400 0.182441 0.280222
Si Si5 0.927714 0.371934 0.897949
Si Si6 0.632449 0.591244 0.563903
Si Si7 0.508433 0.375309 0.116072
Si Si8 0.531802 0.927787 0.221980
O O1 0.874360 0.741926 0.939269
O O2 0.841576 0.467516 0.937668
O O3 0.735008 0.573619 0.654528
O O4 0.759678 0.702117 0.190812
O O5 0.226085 0.105145 0.326663
O O6 0.372457 0.289973 0.578832
O O7 0.360371 0.081015 0.719580
O O8 0.051747 0.137289 0.319022
O O9 0.111500 0.966312 0.878416
O O10 0.926672 0.266517 0.580310
O O11 0.934486 0.280627 0.093294
O O12 0.000000 0.500000 0.000000
O O13 0.588211 0.430260 0.379797
O O14 0.583100 0.657451 0.816109
O O15 0.500000 0.500000 0.000000
O O16 0.527102 0.222536 0.898003
O O17 0.500000 0.000000 0.500000
O O18 0.500000 0.000000 0.000000
#
# Coordination Sequence:
#
# PCOD8012372 Si02
#       8
#     2   2   2   2   2   2   2   2
#     4  11  23  41  73  94 134 185 230 279 346 406
#     4  11  23  45  70 100 135 183 238 275 348 428
#     4  10  25  43  75  96 136 195 224 281 340 426
#     4  11  26  47  68 106 145 178 237 281 349 408
#     4  12  25  44  70 106 142 179 228 296 342 401
#     4  10  21  39  70  97 127 175 234 280 325 419
#     4  11  21  42  71  94 129 177 231 280 337 419
#     4  12  27  46  68 100 138 180 222 289 351 403
#
# _framework density 21.500734999999999
#
# number of rings (size 3 to 8) (size 9 to 14) (size 15 to 20)
#    0.000    1.000    3.750    1.875    8.750    1.000 
#    4.500    0.000    0.000    0.000    0.000    0.000 
#    0.000    0.000    0.000    0.000    0.000    0.000 
#
# Total GULP energy -198260.610446 kJ/mol
# GULP energy per Si atom -12391.288153 kJ/mol
# Density = 2.145180 g / cm^3
# Si number density = 21.500735 Si / 1000 Ang^3
#
#
#
# Elastic Constant Matrix: (Units=GPa)
#
#
# Indices 1 2 3 4 5 6 
#
# 1 99.0034 38.3573 44.6299 10.7749 1.7991 -2.0014
# 2 38.3573 112.5131 53.2480 6.9843 8.7319 -4.2696
# 3 44.6299 53.2480 134.3272 14.6006 -11.8260 -9.2446
# 4 10.7749 6.9843 14.6006 46.2122 2.8247 1.2578
# 5 1.7991 8.7319 -11.8260 2.8247 39.3949 2.6278
# 6 -2.0014 -4.2696 -9.2446 1.2578 2.6278 35.1365
#
#
#
# Elastic Compliance Matrix: (Units=1/GPa)
#
#
# Indices 1 2 3 4 5 6 
#
# 1 0.012717 -0.002746 -0.003058 -0.001529 -0.000761 -0.000302
# 2 -0.002746 0.012132 -0.004248 0.000374 -0.003897 0.000478
# 3 -0.003058 -0.004248 0.010929 -0.002420 0.004406 0.001942
# 4 -0.001529 0.000374 -0.002420 0.022880 -0.002292 -0.001326
# 5 -0.000761 -0.003897 0.004406 -0.002292 0.027860 -0.001359
# 6 -0.000302 0.000478 0.001942 -0.001326 -0.001359 0.029161
#
#
# Mechanical properties :
#
#
# Convention : Reuss Voigt Hill
#
# Bulk Modulus (GPa) = 63.79786 68.70157 66.24971
# Shear Modulus (GPa) = 35.45902 38.12261 36.79081
#
# Velocity S-wave (km/s) = 4.06544 4.21537 4.14108
# Velocity P-wave (km/s) = 7.19541 7.46424 7.33106
#
# Compressibility (1/GPa) = 0.01567451
#
# Stress axis : x y z
#
# Youngs Moduli (GPa) = 78.63325 82.43003 91.49903
#
# Poissons Ratio (x) = 0.22632 0.27985
# Poissons Ratio (y) = 0.21589 0.38865
# Poissons Ratio (z) = 0.24050 0.35013
#
# Static dielectric constant tensor:
#      x y z
#    x 4.235360 0.056220 0.471920 
#    y 0.056220 5.016240 0.782640 
#    z 0.471920 0.782640 4.839560 
# 
# 
# High freq. dielectric constant tensor:
#      x y z
#    x 1.841920 0.004800 0.011830 
#    y 0.004800 1.840050 0.000940 
#    z 0.011830 0.000940 1.862760 
# 
# From -- ./inp_files/91010.got.cif
#   From: 2010.06.25/outbox.cif.g09.slc.cpg/sg2_46_cif.got.tgz:91010.got - 2010.06.27 13:26:56.
