data_PCOD8012478
_publ_section_title
;
Structure prediction by ZEFSAII (Michael W. Deem and Ramdas Pophale) SiO2 
 PCOD8012478
Probable space group: P -1
;
_chemical_formula_sum "Si O2"
_cell_formula_units_Z 16
_cell_length_a 18.616651
_cell_length_b 6.094171
_cell_length_c 21.705147
_cell_angle_alpha 66.053264
_cell_angle_beta 18.184349
_cell_angle_gamma 62.326219
_cell_volume 674.988506
_symmetry_space_group_name_H-M "P -1"
_symmetry_group_IT_number 2
_symmetry_cell_setting 'triclinic'
loop_
_space_group_symop_operation_xyz
x,y,z
-x,-y,-z
loop_
_atom_site_type_symbol
_atom_site_label
_atom_site_fract_x
_atom_site_fract_y
_atom_site_fract_z
Si Si1 0.242360 0.049213 0.675617
Si Si2 0.179006 0.659413 0.852631
Si Si3 0.128280 0.518533 0.638103
Si Si4 0.587971 0.231430 0.229105
Si Si5 0.597071 0.218610 0.545011
Si Si6 0.390588 0.785100 0.040358
Si Si7 0.754924 0.096137 0.725365
Si Si8 0.652164 0.428768 0.022563
O O1 0.087873 0.935280 0.863358
O O2 0.252545 0.886950 0.624960
O O3 0.500000 0.000000 0.500000
O O4 0.137147 0.338081 0.711338
O O5 0.226508 0.699963 0.881534
O O6 0.435159 0.502888 0.633846
O O7 0.000000 0.500000 0.000000
O O8 0.312038 0.385062 0.450079
O O9 0.200725 0.767712 0.570488
O O10 0.851466 0.584289 0.834604
O O11 0.673866 0.285573 0.085804
O O12 0.582462 0.942986 0.269279
O O13 0.202096 0.910437 0.234332
O O14 0.500000 0.500000 0.000000
O O15 0.285634 0.786998 0.056509
O O16 0.604046 0.911352 0.849693
O O17 0.610390 0.378322 0.791390
O O18 0.000000 0.000000 0.500000
#
# Coordination Sequence:
#
# PCOD8012478 Si02
#       8
#     2   2   2   2   2   2   2   2
#     4  11  20  39  60  84 118 173 228 275 333 385
#     4  11  24  36  58  91 122 170 228 285 325 391
#     4  10  24  41  60  91 130 173 222 273 333 391
#     4  10  24  42  57  95 132 169 227 272 336 387
#     4  10  21  40  60  80 123 175 222 273 337 383
#     4   9  22  44  69 103 135 169 215 258 323 398
#     4  10  23  45  74 104 133 172 215 258 324 401
#     4  11  25  42  68  99 138 172 214 273 328 399
#
# _framework density 23.704108000000002
#
# number of rings (size 3 to 8) (size 9 to 14) (size 15 to 20)
#    0.000    1.750    3.750    0.375    3.500   10.500 
#    0.000    1.250    0.000    0.000    0.000    0.000 
#    0.000    0.000    0.000    0.000    0.000    0.000 
#
# Total GULP energy -198253.283626 kJ/mol
# GULP energy per Si atom -12390.830227 kJ/mol
# Density = 2.365016 g / cm^3
# Si number density = 23.704108 Si / 1000 Ang^3
#
#
#
# Elastic Constant Matrix: (Units=GPa)
#
#
# Indices 1 2 3 4 5 6 
#
# 1 155.5135 40.7882 57.3488 -18.3893 15.1260 32.2421
# 2 40.7882 76.5821 24.2799 -13.7614 0.1274 21.6387
# 3 57.3488 24.2799 132.5298 -8.7626 6.8393 26.2184
# 4 -18.3893 -13.7614 -8.7626 41.2564 1.0063 -1.9704
# 5 15.1260 0.1274 6.8393 1.0063 35.4294 -8.0726
# 6 32.2421 21.6387 26.2184 -1.9704 -8.0726 36.2845
#
#
#
# Elastic Compliance Matrix: (Units=1/GPa)
#
#
# Indices 1 2 3 4 5 6 
#
# 1 0.010222 -0.002103 -0.002056 0.003203 -0.005748 -0.007448
# 2 -0.002103 0.017421 -0.000282 0.004444 -0.001134 -0.008328
# 3 -0.002056 -0.000282 0.009752 0.000853 -0.002284 -0.005513
# 4 0.003203 0.004444 0.000853 0.027157 -0.003556 -0.005429
# 5 -0.005748 -0.001134 -0.002284 -0.003556 0.034630 0.014946
# 6 -0.007448 -0.008328 -0.005513 -0.005429 0.014946 0.046159
#
#
# Mechanical properties :
#
#
# Convention : Reuss Voigt Hill
#
# Bulk Modulus (GPa) = 35.07174 67.71766 51.39470
# Shear Modulus (GPa) = 30.53867 38.74129 34.63998
#
# Velocity S-wave (km/s) = 3.59322 4.04712 3.82691
# Velocity P-wave (km/s) = 5.66063 7.10414 6.42307
#
# Compressibility (1/GPa) = 0.02851299
#
# Stress axis : x y z
#
# Youngs Moduli (GPa) = 97.82714 57.40303 102.54516
#
# Poissons Ratio (x) = 0.12071 0.21086
# Poissons Ratio (y) = 0.20572 0.02889
# Poissons Ratio (z) = 0.20116 0.01617
#
# Static dielectric constant tensor:
#      x y z
#    x 4.453520 0.528560 -0.333290 
#    y 0.528560 4.590980 0.114860 
#    z -0.333290 0.114860 3.826300 
# 
# 
# High freq. dielectric constant tensor:
#      x y z
#    x 1.934330 0.016360 -0.001840 
#    y 0.016360 1.945190 -0.005720 
#    z -0.001840 -0.005720 1.936950 
# 
# From -- ./inp_files/598987.got.cif
#   From: 2010.06.25/outbox.cif.g09.slc.cpg/sg2_300_cif.got.tgz:598987.got - 2010.06.27 13:26:56.
