data_PCOD8012239
_publ_section_title
;
Structure prediction by ZEFSAII (Michael W. Deem and Ramdas Pophale) SiO2 
 PCOD8012239
Probable space group: P -1
;
_chemical_formula_sum "Si O2"
_cell_formula_units_Z 16
_cell_length_a 20.952210
_cell_length_b 8.672775
_cell_length_c 9.713712
_cell_angle_alpha 56.356733
_cell_angle_beta 46.035496
_cell_angle_gamma 91.879539
_cell_volume 758.847046
_symmetry_space_group_name_H-M "P -1"
_symmetry_group_IT_number 2
_symmetry_cell_setting 'triclinic'
loop_
_space_group_symop_operation_xyz
x,y,z
-x,-y,-z
loop_
_atom_site_type_symbol
_atom_site_label
_atom_site_fract_x
_atom_site_fract_y
_atom_site_fract_z
Si Si1 0.937565 0.915240 0.455313
Si Si2 0.781673 0.145940 0.276729
Si Si3 0.410263 0.849602 0.335459
Si Si4 0.996810 0.311484 0.356320
Si Si5 0.763707 0.689780 0.572459
Si Si6 0.414955 0.884056 0.814953
Si Si7 0.218761 0.296729 0.774375
Si Si8 0.213644 0.877735 0.035841
O O1 0.869397 0.788907 0.474659
O O2 0.910328 0.697394 0.699372
O O3 0.907830 0.066416 0.504043
O O4 0.083681 0.125986 0.117657
O O5 0.661146 0.067568 0.557813
O O6 0.755271 0.898065 0.482085
O O7 0.804898 0.219198 0.043798
O O8 0.913712 0.418810 0.999282
O O9 0.309247 0.550908 0.602113
O O10 0.498050 0.915860 0.294070
O O11 0.500000 0.000000 0.000000
O O12 0.912176 0.301900 0.596532
O O13 0.791148 0.660055 0.392229
O O14 0.637514 0.401334 0.945487
O O15 0.500000 0.000000 0.500000
O O16 0.306113 0.874856 0.975237
O O17 0.269063 0.163674 0.792662
#
# Coordination Sequence:
#
# PCOD8012239 Si02
#       8
#     2   2   2   2   2   2   2   2
#     4  10  21  39  68  99 137 171 217 280 340 397
#     4  11  23  43  68  97 138 179 219 278 338 399
#     4  12  25  45  70  94 139 182 222 278 335 397
#     4  10  21  39  68 101 136 171 218 280 343 397
#     4  11  25  41  67  97 131 179 227 276 335 400
#     4  12  26  44  69  97 133 180 230 277 324 403
#     4  10  22  44  66  99 135 177 220 276 341 398
#     4  10  23  41  68 101 132 174 226 276 331 401
#
# _framework density 21.084617999999999
#
# number of rings (size 3 to 8) (size 9 to 14) (size 15 to 20)
#    0.000    1.250    3.750    1.500    0.000    6.500 
#    0.000    0.000    0.000    0.000    0.000    0.000 
#    0.000    0.000    0.000    0.000    0.000    0.000 
#
# Total GULP energy -198300.808733 kJ/mol
# GULP energy per Si atom -12393.800546 kJ/mol
# Density = 2.103663 g / cm^3
# Si number density = 21.084618 Si / 1000 Ang^3
#
#
#
# Elastic Constant Matrix: (Units=GPa)
#
#
# Indices 1 2 3 4 5 6 
#
# 1 97.0381 48.7298 31.1294 -7.3189 -1.4947 16.6092
# 2 48.7298 115.7273 48.6292 -6.2736 -2.5010 4.9955
# 3 31.1294 48.6292 106.1867 -0.6340 4.9339 -5.2619
# 4 -7.3189 -6.2736 -0.6340 47.1036 -0.7189 -7.3942
# 5 -1.4947 -2.5010 4.9339 -0.7189 30.9369 0.4535
# 6 16.6092 4.9955 -5.2619 -7.3942 0.4535 34.6941
#
#
#
# Elastic Compliance Matrix: (Units=1/GPa)
#
#
# Indices 1 2 3 4 5 6 
#
# 1 0.014704 -0.004821 -0.002465 0.000585 0.000824 -0.006605
# 2 -0.004821 0.012614 -0.004429 0.000893 0.001514 -0.000009
# 3 -0.002465 -0.004429 0.012466 -0.000265 -0.002525 0.003685
# 4 0.000585 0.000893 -0.000265 0.022113 0.000594 0.004256
# 5 0.000824 0.001514 -0.002525 0.000594 0.032922 -0.001299
# 6 -0.006605 -0.000009 0.003685 0.004256 -0.001299 0.033470
#
#
# Mechanical properties :
#
#
# Convention : Reuss Voigt Hill
#
# Bulk Modulus (GPa) = 61.14340 63.99210 62.56775
# Shear Modulus (GPa) = 31.81260 35.24448 33.52854
#
# Velocity S-wave (km/s) = 3.88855 4.09292 3.99204
# Velocity P-wave (km/s) = 7.01592 7.26306 7.14056
#
# Compressibility (1/GPa) = 0.01635500
#
# Stress axis : x y z
#
# Youngs Moduli (GPa) = 68.00658 79.27992 80.21538
#
# Poissons Ratio (x) = 0.38223 0.19772
# Poissons Ratio (y) = 0.32788 0.35524
# Poissons Ratio (z) = 0.16763 0.35110
#
# Static dielectric constant tensor:
#      x y z
#    x 3.762120 -0.337660 0.594430 
#    y -0.337660 -0.105300 5.305730 
#    z 0.594430 5.305730 -2.880550 
# 
# 
# High freq. dielectric constant tensor:
#      x y z
#    x 1.809680 0.006140 0.010370 
#    y 0.006140 1.845730 -0.003100 
#    z 0.010370 -0.003100 1.833350 
# 
# From -- ./inp_files/217536.got.cif
#   From: 2010.06.25/outbox.cif.g09.slc.cpg/sg2_109_cif.got.tgz:217536.got - 2010.06.27 13:26:56.
