data_PCOD8012182
_publ_section_title
;
Structure prediction by ZEFSAII (Michael W. Deem and Ramdas Pophale) SiO2 
 PCOD8012182
Probable space group: P -1
;
_chemical_formula_sum "Si O2"
_cell_formula_units_Z 16
_cell_length_a 8.529147
_cell_length_b 14.272297
_cell_length_c 12.012214
_cell_angle_alpha 30.369150
_cell_angle_beta 95.213434
_cell_angle_gamma 94.353279
_cell_volume 736.202936
_symmetry_space_group_name_H-M "P -1"
_symmetry_group_IT_number 2
_symmetry_cell_setting 'triclinic'
loop_
_space_group_symop_operation_xyz
x,y,z
-x,-y,-z
loop_
_atom_site_type_symbol
_atom_site_label
_atom_site_fract_x
_atom_site_fract_y
_atom_site_fract_z
Si Si1 0.320823 0.098606 0.990581
Si Si2 0.836104 0.253478 0.058288
Si Si3 0.294013 0.050423 0.515633
Si Si4 0.322729 0.482841 0.049447
Si Si5 0.628482 0.928532 0.739761
Si Si6 0.825236 0.572428 0.117026
Si Si7 0.832494 0.519843 0.413376
Si Si8 0.669994 0.222357 0.845625
O O1 0.192415 0.259772 0.813864
O O2 0.487082 0.201467 0.880827
O O3 0.319144 0.987988 0.222705
O O4 0.274760 0.956806 0.036816
O O5 0.717714 0.388987 0.979714
O O6 0.773757 0.234274 0.949665
O O7 0.012442 0.322346 0.997176
O O8 0.848147 0.050819 0.325815
O O9 0.288821 0.271147 0.301811
O O10 0.288799 0.984897 0.453014
O O11 0.443489 0.959126 0.681410
O O12 0.500000 0.500000 0.000000
O O13 0.208361 0.546931 0.874074
O O14 0.674519 0.711234 0.971630
O O15 0.832673 0.450719 0.355034
O O16 0.699026 0.407857 0.585600
O O17 0.000000 0.500000 0.500000
#
# Coordination Sequence:
#
# PCOD8012182 Si02
#       8
#     2   2   2   2   2   2   2   2
#     4  10  23  43  65  95 127 164 228 263 318 379
#     4  12  23  43  65  93 139 164 214 269 318 383
#     4  10  21  39  67  94 124 167 215 258 331 373
#     4  11  25  42  69  98 127 169 215 268 322 387
#     4   9  18  39  63  90 126 162 207 266 307 385
#     4  10  23  43  65  96 131 170 215 263 323 385
#     4  11  23  44  67  94 132 175 213 265 326 376
#     4  11  24  42  66  95 126 176 213 274 313 377
#
# _framework density 21.733136999999999
#
# number of rings (size 3 to 8) (size 9 to 14) (size 15 to 20)
#    0.000    1.500    2.500    3.000    1.750    5.500 
#    0.000    1.250    0.000    0.000    0.000    0.000 
#    0.000    0.000    0.000    0.000    0.000    0.000 
#
# Total GULP energy -198298.169678 kJ/mol
# GULP energy per Si atom -12393.635605 kJ/mol
# Density = 2.168367 g / cm^3
# Si number density = 21.733137 Si / 1000 Ang^3
#
#
#
# Elastic Constant Matrix: (Units=GPa)
#
#
# Indices 1 2 3 4 5 6 
#
# 1 50.8498 43.8738 29.1395 8.6550 5.4401 5.3055
# 2 43.8738 152.2274 58.6646 25.4739 1.5586 7.5468
# 3 29.1395 58.6646 120.3761 25.3282 -9.1392 2.9921
# 4 8.6550 25.4739 25.3282 40.5407 0.6649 4.5915
# 5 5.4401 1.5586 -9.1392 0.6649 36.4752 1.1649
# 6 5.3055 7.5468 2.9921 4.5915 1.1649 28.4870
#
#
#
# Elastic Compliance Matrix: (Units=1/GPa)
#
#
# Indices 1 2 3 4 5 6 
#
# 1 0.028384 -0.006538 -0.004216 0.001114 -0.004932 -0.003089
# 2 -0.006538 0.010030 -0.002619 -0.003196 -0.000031 -0.000648
# 3 -0.004216 -0.002619 0.011938 -0.005076 0.003796 0.000888
# 4 0.001114 -0.003196 -0.005076 0.030044 -0.001734 -0.003599
# 5 -0.004932 -0.000031 0.003796 -0.001734 0.029148 -0.000384
# 6 -0.003089 -0.000648 0.000888 -0.003599 -0.000384 0.036353
#
#
# Mechanical properties :
#
#
# Convention : Reuss Voigt Hill
#
# Bulk Modulus (GPa) = 42.36459 65.20102 53.78281
# Shear Modulus (GPa) = 27.69867 33.88560 30.79214
#
# Velocity S-wave (km/s) = 3.57387 3.95291 3.76816
# Velocity P-wave (km/s) = 6.04694 7.13442 6.61307
#
# Compressibility (1/GPa) = 0.02360462
#
# Stress axis : x y z
#
# Youngs Moduli (GPa) = 35.23143 99.69867 83.76277
#
# Poissons Ratio (x) = 0.65187 0.35318
# Poissons Ratio (y) = 0.23036 0.21938
# Poissons Ratio (z) = 0.14855 0.26112
#
# Static dielectric constant tensor:
#      x y z
#    x 3.877300 -0.078100 -0.121210 
#    y -0.078100 4.230260 0.365700 
#    z -0.121210 0.365700 4.078880 
# 
# 
# High freq. dielectric constant tensor:
#      x y z
#    x 1.849030 -0.000300 -0.006710 
#    y -0.000300 1.859180 0.023680 
#    z -0.006710 0.023680 1.855100 
# 
# From -- ./inp_files/398272.got.cif
#   From: 2010.06.25/outbox.cif.g09.slc.cpg/sg2_200_cif.got.tgz:398272.got - 2010.06.27 13:26:56.
