data_PCOD8012029
_publ_section_title
;
Structure prediction by ZEFSAII (Michael W. Deem and Ramdas Pophale) SiO2 
 PCOD8012029
Probable space group: P -1
;
_chemical_formula_sum "Si O2"
_cell_formula_units_Z 14
_cell_length_a 25.867010
_cell_length_b 9.242953
_cell_length_c 9.170542
_cell_angle_alpha 47.069281
_cell_angle_beta 29.626242
_cell_angle_gamma 34.261332
_cell_volume 604.674514
_symmetry_space_group_name_H-M "P -1"
_symmetry_group_IT_number 2
_symmetry_cell_setting 'triclinic'
loop_
_space_group_symop_operation_xyz
x,y,z
-x,-y,-z
loop_
_atom_site_type_symbol
_atom_site_label
_atom_site_fract_x
_atom_site_fract_y
_atom_site_fract_z
Si Si1 0.691281 0.180919 0.879236
Si Si2 0.475869 0.907940 0.830925
Si Si3 0.100004 0.690762 0.464109
Si Si4 0.479404 0.660232 0.255987
Si Si5 0.931605 0.599829 0.758070
Si Si6 0.357911 0.443135 0.805364
Si Si7 0.786794 0.463560 0.385001
O O1 0.773093 0.244148 0.537318
O O2 0.795676 0.896819 0.881871
O O3 0.567406 0.223875 0.071592
O O4 0.623284 0.393148 0.028602
O O5 0.637925 0.747977 0.534155
O O6 0.389581 0.208863 0.791044
O O7 0.429809 0.902003 0.111647
O O8 0.157378 0.567614 0.566966
O O9 0.030681 0.578454 0.647862
O O10 0.216083 0.605591 0.123054
O O11 0.000000 0.000000 0.500000
O O12 0.360990 0.636508 0.565947
O O13 0.509590 0.708262 0.308804
O O14 0.000000 0.500000 0.500000
O O15 0.890483 0.433284 0.033944
#
# Coordination Sequence:
#
# PCOD8012029 Si02
#       7
#     2   2   2   2   2   2   2
#     4  11  23  45  66  97 136 173 214 276 341 402
#     4  11  23  40  71 102 130 164 222 278 344 389
#     4  12  24  48  69  95 139 185 224 266 328 407
#     4  10  21  39  65  98 131 165 210 273 345 384
#     4  12  27  45  67  99 135 181 233 268 325 400
#     4  11  22  40  66  99 131 164 218 282 322 389
#     4  11  24  46  73  94 136 179 223 277 338 395
#
# _framework density 23.152950000000001
#
# number of rings (size 3 to 8) (size 9 to 14) (size 15 to 20)
#    0.000    0.857    4.286    4.286    0.000    7.429 
#    5.143    0.000    0.000    0.000    0.000    0.000 
#    0.000    0.000    0.000    0.000    0.000    0.000 
#
# Total GULP energy -173579.606157 kJ/mol
# GULP energy per Si atom -12398.543297 kJ/mol
# Density = 2.310025 g / cm^3
# Si number density = 23.152950 Si / 1000 Ang^3
#
#
#
# Elastic Constant Matrix: (Units=GPa)
#
#
# Indices 1 2 3 4 5 6 
#
# 1 94.3716 11.0825 41.9258 3.6575 -17.5108 9.0256
# 2 11.0825 66.0580 33.3040 -0.6173 -13.5653 6.0804
# 3 41.9258 33.3040 172.5321 -25.0080 -7.8893 -6.0186
# 4 3.6575 -0.6173 -25.0080 35.0307 1.4677 -6.3271
# 5 -17.5108 -13.5653 -7.8893 1.4677 31.2405 -3.8302
# 6 9.0256 6.0804 -6.0186 -6.3271 -3.8302 28.3127
#
#
#
# Elastic Compliance Matrix: (Units=1/GPa)
#
#
# Indices 1 2 3 4 5 6 
#
# 1 0.014746 0.002013 -0.004794 -0.006426 0.007424 -0.006584
# 2 0.002013 0.019272 -0.004721 -0.004608 0.007815 -0.005757
# 3 -0.004794 -0.004721 0.009168 0.008137 -0.002065 0.006030
# 4 -0.006426 -0.004608 0.008137 0.037381 -0.003758 0.012613
# 5 0.007424 0.007815 -0.002065 -0.003758 0.039217 -0.000018
# 6 -0.006584 -0.005757 0.006030 0.012613 -0.000018 0.042753
#
#
# Mechanical properties :
#
#
# Convention : Reuss Voigt Hill
#
# Bulk Modulus (GPa) = 35.48162 56.17625 45.82894
# Shear Modulus (GPa) = 26.74749 35.36006 31.05378
#
# Velocity S-wave (km/s) = 3.40259 3.91223 3.66627
# Velocity P-wave (km/s) = 5.54932 6.68754 6.14484
#
# Compressibility (1/GPa) = 0.02818361
#
# Stress axis : x y z
#
# Youngs Moduli (GPa) = 67.81596 51.88821 109.08026
#
# Poissons Ratio (x) = -0.10447 0.52289
# Poissons Ratio (y) = -0.13653 0.51493
# Poissons Ratio (z) = 0.32508 0.24495
#
# Static dielectric constant tensor:
#      x y z
#    x 4.345860 0.067000 -0.240620 
#    y 0.067000 3.957380 -0.317670 
#    z -0.240620 -0.317670 4.470440 
# 
# 
# High freq. dielectric constant tensor:
#      x y z
#    x 1.916680 0.004050 -0.010890 
#    y 0.004050 1.900490 -0.018980 
#    z -0.010890 -0.018980 1.928370 
# 
# From -- ./inp_files/199234.got.cif
#   From: 2010.06.25/outbox.cif.g09.slc.cpg/sg2_100_cif.got.tgz:199234.got - 2010.06.27 13:26:56.
