data_PCOD8012398
_publ_section_title
;
Structure prediction by ZEFSAII (Michael W. Deem and Ramdas Pophale) SiO2 
 PCOD8012398
Probable space group: P -1
;
_chemical_formula_sum "Si O2"
_cell_formula_units_Z 16
_cell_length_a 11.884702
_cell_length_b 8.668178
_cell_length_c 15.071843
_cell_angle_alpha 107.939491
_cell_angle_beta 37.993215
_cell_angle_gamma 126.676816
_cell_volume 723.725336
_symmetry_space_group_name_H-M "P -1"
_symmetry_group_IT_number 2
_symmetry_cell_setting 'triclinic'
loop_
_space_group_symop_operation_xyz
x,y,z
-x,-y,-z
loop_
_atom_site_type_symbol
_atom_site_label
_atom_site_fract_x
_atom_site_fract_y
_atom_site_fract_z
Si Si1 0.164476 0.292857 0.599019
Si Si2 0.863140 0.762093 0.029197
Si Si3 0.011877 0.859336 0.595782
Si Si4 0.078874 0.640464 0.371066
Si Si5 0.274561 0.789305 0.715843
Si Si6 0.700739 0.208016 0.500780
Si Si7 0.576693 0.462106 0.854400
Si Si8 0.322444 0.475313 0.716678
O O1 0.179499 0.308838 0.698524
O O2 0.417596 0.450802 0.427371
O O3 0.991574 0.338326 0.680043
O O4 0.052729 0.068644 0.592522
O O5 0.639748 0.685912 0.099068
O O6 0.802355 0.639614 0.136413
O O7 0.017873 0.716517 0.871667
O O8 0.000000 0.000000 0.000000
O O9 0.742167 0.678963 0.740547
O O10 0.121595 0.817452 0.438211
O O11 0.149579 0.878246 0.602686
O O12 0.298577 0.643131 0.224715
O O13 0.847882 0.415022 0.507108
O O14 0.317817 0.744701 0.581452
O O15 0.324668 0.670544 0.732371
O O16 0.449935 0.035181 0.666937
O O17 0.500000 0.500000 0.000000
#
# Coordination Sequence:
#
# PCOD8012398 Si02
#       8
#     2   2   2   2   2   2   2   2
#     4  11  24  43  71 108 134 185 232 305 351 413
#     4  12  29  42  72 101 143 188 236 283 353 429
#     4  11  23  41  71 101 141 178 238 292 350 412
#     4  11  23  43  71 100 143 176 240 292 346 414
#     4  11  23  43  68  99 139 184 223 290 352 420
#     4  10  21  39  72 100 128 178 236 280 349 406
#     4  11  26  47  70 101 142 189 234 287 350 429
#     4  11  25  44  69 101 149 175 235 291 358 417
#
# _framework density 22.107834
#
# number of rings (size 3 to 8) (size 9 to 14) (size 15 to 20)
#    0.000    1.000    2.500    4.500    8.750    0.000 
#    0.000    1.875    0.000    0.000    0.000    0.000 
#    0.000    0.000    0.000    0.000    0.000    0.000 
#
# Total GULP energy -198386.793929 kJ/mol
# GULP energy per Si atom -12399.174621 kJ/mol
# Density = 2.205752 g / cm^3
# Si number density = 22.107834 Si / 1000 Ang^3
#
#
#
# Elastic Constant Matrix: (Units=GPa)
#
#
# Indices 1 2 3 4 5 6 
#
# 1 139.2311 53.6903 61.5757 -11.0465 -18.1231 -5.0388
# 2 53.6903 129.9156 54.2078 -3.5031 -2.5962 6.2150
# 3 61.5757 54.2078 123.4712 -0.8069 -8.6924 0.9942
# 4 -11.0465 -3.5031 -0.8069 31.2459 -2.5671 -4.0455
# 5 -18.1231 -2.5962 -8.6924 -2.5671 39.4716 -4.3749
# 6 -5.0388 6.2150 0.9942 -4.0455 -4.3749 36.1058
#
#
#
# Elastic Compliance Matrix: (Units=1/GPa)
#
#
# Indices 1 2 3 4 5 6 
#
# 1 0.011104 -0.002890 -0.003937 0.004299 0.004676 0.003204
# 2 -0.002890 0.010284 -0.003172 -0.000386 -0.001632 -0.002327
# 3 -0.003937 -0.003172 0.011475 -0.001478 0.000366 -0.000441
# 4 0.004299 -0.000386 -0.001478 0.034468 0.004430 0.005106
# 5 0.004676 -0.001632 0.000366 0.004430 0.028280 0.004846
# 6 0.003204 -0.002327 -0.000441 0.005106 0.004846 0.029716
#
#
# Mechanical properties :
#
#
# Convention : Reuss Voigt Hill
#
# Bulk Modulus (GPa) = 77.74049 81.28505 79.51277
# Shear Modulus (GPa) = 33.41989 36.24093 34.83041
#
# Velocity S-wave (km/s) = 3.89225 4.05319 3.97354
# Velocity P-wave (km/s) = 7.44580 7.66498 7.55619
#
# Compressibility (1/GPa) = 0.01286331
#
# Stress axis : x y z
#
# Youngs Moduli (GPa) = 90.06142 97.24261 87.14662
#
# Poissons Ratio (x) = 0.28102 0.34311
# Poissons Ratio (y) = 0.26027 0.27646
# Poissons Ratio (z) = 0.35459 0.30848
#
# Static dielectric constant tensor:
#      x y z
#    x 4.255090 -0.007540 -0.143630 
#    y -0.007540 4.044740 -0.101750 
#    z -0.143630 -0.101750 3.810490 
# 
# 
# High freq. dielectric constant tensor:
#      x y z
#    x 1.891030 0.002040 -0.007990 
#    y 0.002040 1.879250 -0.002660 
#    z -0.007990 -0.002660 1.844760 
# 
# From -- ./inp_files/419423.got.cif
#   From: 2010.06.25/outbox.cif.g09.slc.cpg/sg2_210_cif.got.tgz:419423.got - 2010.06.27 13:26:56.
