data_PCOD8012060
_publ_section_title
;
Structure prediction by ZEFSAII (Michael W. Deem and Ramdas Pophale) SiO2 
 PCOD8012060
Probable space group: P -1
;
_chemical_formula_sum "Si O2"
_cell_formula_units_Z 16
_cell_length_a 13.683689
_cell_length_b 12.081793
_cell_length_c 9.238745
_cell_angle_alpha 125.282318
_cell_angle_beta 108.084067
_cell_angle_gamma 39.878813
_cell_volume 773.243940
_symmetry_space_group_name_H-M "P -1"
_symmetry_group_IT_number 2
_symmetry_cell_setting 'triclinic'
loop_
_space_group_symop_operation_xyz
x,y,z
-x,-y,-z
loop_
_atom_site_type_symbol
_atom_site_label
_atom_site_fract_x
_atom_site_fract_y
_atom_site_fract_z
Si Si1 0.163854 0.523861 0.287622
Si Si2 0.056105 0.114626 0.745967
Si Si3 0.195710 0.191689 0.081692
Si Si4 0.472011 0.810280 0.769029
Si Si5 0.924055 0.172500 0.299878
Si Si6 0.603993 0.361044 0.203559
Si Si7 0.657989 0.158598 0.541970
Si Si8 0.232518 0.980153 0.198036
O O1 0.108325 0.422396 0.195450
O O2 0.349925 0.343953 0.226372
O O3 0.099234 0.663747 0.503432
O O4 0.099245 0.657981 0.214677
O O5 0.014495 0.007183 0.701804
O O6 0.183075 0.967840 0.566844
O O7 0.109733 0.153798 0.933700
O O8 0.207387 0.144963 0.222325
O O9 0.370468 0.027021 0.967232
O O10 0.415084 0.716523 0.723414
O O11 0.443899 0.842960 0.606312
O O12 0.757894 0.301868 0.248050
O O13 0.068819 0.057866 0.171354
O O14 0.444896 0.605074 0.294650
O O15 0.629482 0.244523 0.984934
O O16 0.710190 0.040385 0.629172
#
# Coordination Sequence:
#
# PCOD8012060 Si02
#       8
#     2   2   2   2   2   2   2   2
#     4  12  23  39  69  93 119 163 212 248 307 361
#     4  11  23  41  65  95 122 154 210 264 302 350
#     4  10  24  45  61  89 129 166 199 251 305 370
#     4  10  21  39  66  89 121 160 207 258 299 356
#     4  12  22  39  65  95 123 155 207 256 308 356
#     4  11  21  39  62  91 128 159 199 258 315 350
#     4  11  20  38  61  93 123 159 201 256 304 359
#     4  11  24  39  61  90 130 164 199 249 309 369
#
# _framework density 20.692048
#
# number of rings (size 3 to 8) (size 9 to 14) (size 15 to 20)
#    0.000    1.000    6.250    3.000    1.750    0.500 
#    0.000    0.625    0.000    0.000    0.000    0.000 
#    0.000    0.000    0.000    0.000    0.000    0.000 
#
# Total GULP energy -198370.686224 kJ/mol
# GULP energy per Si atom -12398.167889 kJ/mol
# Density = 2.064495 g / cm^3
# Si number density = 20.692048 Si / 1000 Ang^3
#
#
#
# Elastic Constant Matrix: (Units=GPa)
#
#
# Indices 1 2 3 4 5 6 
#
# 1 54.5595 31.2964 38.7199 4.9802 1.7749 3.4602
# 2 31.2964 104.8833 39.0051 -5.5393 6.2839 0.7464
# 3 38.7199 39.0051 83.8203 -2.9225 -0.1242 19.1993
# 4 4.9802 -5.5393 -2.9225 37.9278 10.7776 5.2309
# 5 1.7749 6.2839 -0.1242 10.7776 16.3543 4.6582
# 6 3.4602 0.7464 19.1993 5.2309 4.6582 31.8935
#
#
#
# Elastic Compliance Matrix: (Units=1/GPa)
#
#
# Indices 1 2 3 4 5 6 
#
# 1 0.030961 -0.004593 -0.013784 -0.006962 0.001174 0.006016
# 2 -0.004593 0.013387 -0.004812 0.004073 -0.008403 0.003641
# 3 -0.013784 -0.004812 0.023894 0.003384 0.005315 -0.014107
# 4 -0.006962 0.004073 0.003384 0.035159 -0.022871 -0.003803
# 5 0.001174 -0.008403 0.005315 -0.022871 0.082620 -0.011446
# 6 0.006016 0.003641 -0.014107 -0.003803 -0.011446 0.041404
#
#
# Mechanical properties :
#
#
# Convention : Reuss Voigt Hill
#
# Bulk Modulus (GPa) = 45.73797 51.25621 48.49709
# Shear Modulus (GPa) = 17.78774 26.18457 21.98615
#
# Velocity S-wave (km/s) = 2.93514 3.56116 3.26320
# Velocity P-wave (km/s) = 5.79990 6.46018 6.13893
#
# Compressibility (1/GPa) = 0.02186367
#
# Stress axis : x y z
#
# Youngs Moduli (GPa) = 32.29833 74.69730 41.85152
#
# Poissons Ratio (x) = 0.34312 0.57687
# Poissons Ratio (y) = 0.14836 0.20140
# Poissons Ratio (z) = 0.44519 0.35946
#
# Static dielectric constant tensor:
#      x y z
#    x 3.552450 -0.081820 -0.101500 
#    y -0.081820 3.911320 0.095850 
#    z -0.101500 0.095850 3.836500 
# 
# 
# High freq. dielectric constant tensor:
#      x y z
#    x 1.786240 -0.011260 -0.004140 
#    y -0.011260 1.816090 0.004850 
#    z -0.004140 0.004850 1.814760 
# 
# From -- ./inp_files/271768.got.cif
#   From: 2010.06.25/outbox.cif.g09.slc.cpg/sg2_136_cif.got.tgz:271768.got - 2010.06.27 13:26:56.
