data_PCOD8012920
_publ_section_title
;
Structure prediction by ZEFSAII (Michael W. Deem and Ramdas Pophale) SiO2 
 PCOD8012920
Probable space group: P -1
;
_chemical_formula_sum "Si O2"
_cell_formula_units_Z 14
_cell_length_a 5.488651
_cell_length_b 20.788606
_cell_length_c 5.002071
_cell_angle_alpha 85.088343
_cell_angle_beta 80.612171
_cell_angle_gamma 85.588339
_cell_volume 559.879681
_symmetry_space_group_name_H-M "P -1"
_symmetry_group_IT_number 2
_symmetry_cell_setting 'triclinic'
loop_
_space_group_symop_operation_xyz
x,y,z
-x,-y,-z
loop_
_atom_site_type_symbol
_atom_site_label
_atom_site_fract_x
_atom_site_fract_y
_atom_site_fract_z
Si Si1 0.790868 0.947469 0.738964
Si Si2 0.018235 0.706621 0.649330
Si Si3 0.639595 0.208361 0.708591
Si Si4 0.035044 0.375246 0.795262
Si Si5 0.631723 0.814739 0.739779
Si Si6 0.517967 0.454118 0.763081
Si Si7 0.899963 0.075510 0.807597
O O1 0.606255 0.889253 0.826805
O O2 0.869722 0.948172 0.414616
O O3 0.692648 0.021461 0.811527
O O4 0.025686 0.927516 0.894875
O O5 0.271459 0.725281 0.454958
O O6 0.872579 0.670727 0.453167
O O7 0.893867 0.775554 0.743591
O O8 0.059512 0.662218 0.916044
O O9 0.421830 0.187036 0.563906
O O10 0.839753 0.148253 0.699053
O O11 0.552688 0.222934 0.022915
O O12 0.278311 0.411339 0.821584
O O13 0.790317 0.417126 0.724093
O O14 0.500000 0.500000 0.500000
O O15 0.500000 0.500000 0.000000
#
# Coordination Sequence:
#
# PCOD8012920 Si02
#       7
#     2   2   2   2   2   2   2
#     4  10  21  40  64  91 128 176 236 306 376 435
#     4  12  28  47  67 108 154 190 243 292 365 432
#     4  12  26  42  69  97 137 188 242 303 365 440
#     4  12  28  47  82 114 159 200 243 304 357 434
#     4  12  26  42  69  97 137 188 242 303 365 440
#     4  12  26  52  82 118 154 196 247 298 359 424
#     4  10  21  40  64  91 128 176 236 306 376 435
#
# _framework density 25.005372000000001
#
# number of rings (size 3 to 8) (size 9 to 14) (size 15 to 20)
#    0.000    0.571    1.429    6.000    8.000    1.143 
#    0.000    0.000    0.000    0.000    0.000    0.000 
#    0.000    0.000    0.000    0.000    0.000    0.000 
#
# Total GULP energy -173465.403738 kJ/mol
# GULP energy per Si atom -12390.385981 kJ/mol
# Density = 2.494846 g / cm^3
# Si number density = 25.005372 Si / 1000 Ang^3
#
#
#
# Elastic Constant Matrix: (Units=GPa)
#
#
# Indices 1 2 3 4 5 6 
#
# 1 83.9749 33.1579 4.5164 -7.6505 9.0126 5.2457
# 2 33.1579 117.8494 39.2282 -8.4268 5.6898 11.5015
# 3 4.5164 39.2282 136.7229 -18.2779 14.2895 -4.7893
# 4 -7.6505 -8.4268 -18.2779 52.2135 4.8992 0.2994
# 5 9.0126 5.6898 14.2895 4.8992 30.3322 -1.1753
# 6 5.2457 11.5015 -4.7893 0.2994 -1.1753 26.0050
#
#
#
# Elastic Compliance Matrix: (Units=1/GPa)
#
#
# Indices 1 2 3 4 5 6 
#
# 1 0.014171 -0.003967 0.001426 0.002370 -0.004563 -0.001075
# 2 -0.003967 0.011131 -0.003265 0.000058 0.000437 -0.004705
# 3 0.001426 -0.003265 0.009220 0.003325 -0.004591 0.002609
# 4 0.002370 0.000058 0.003325 0.021212 -0.005723 -0.000394
# 5 -0.004563 0.000437 -0.004591 -0.005723 0.037392 0.001637
# 6 -0.001075 -0.004705 0.002609 -0.000394 0.001637 0.041311
#
#
# Mechanical properties :
#
#
# Convention : Reuss Voigt Hill
#
# Bulk Modulus (GPa) = 43.65230 54.70580 49.17905
# Shear Modulus (GPa) = 32.53414 39.15314 35.84364
#
# Velocity S-wave (km/s) = 3.61097 3.96130 3.79018
# Velocity P-wave (km/s) = 5.90598 6.54581 6.23411
#
# Compressibility (1/GPa) = 0.02290830
#
# Stress axis : x y z
#
# Youngs Moduli (GPa) = 70.56780 89.84146 108.46555
#
# Poissons Ratio (x) = 0.35642 -0.15469
# Poissons Ratio (y) = 0.27995 0.35418
# Poissons Ratio (z) = -0.10064 0.29336
#
# Static dielectric constant tensor:
#      x y z
#    x 4.167700 0.191120 0.037800 
#    y 0.191120 4.951390 -0.029420 
#    z 0.037800 -0.029420 4.719680 
# 
# 
# High freq. dielectric constant tensor:
#      x y z
#    x 1.970170 0.011330 0.005300 
#    y 0.011330 2.010170 -0.005790 
#    z 0.005300 -0.005790 2.024860 
# 
# From -- ./inp_files/7838.got.cif
#   From: 2010.06.25/outbox.cif.g09.slc.cpg/sg2_4_cif.got.tgz:7838.got - 2010.06.27 13:26:56.
