data_PCOD8012422
_publ_section_title
;
Structure prediction by ZEFSAII (Michael W. Deem and Ramdas Pophale) SiO2 
 PCOD8012422
Probable space group: P -1
;
_chemical_formula_sum "Si O2"
_cell_formula_units_Z 16
_cell_length_a 23.210390
_cell_length_b 12.532302
_cell_length_c 8.400588
_cell_angle_alpha 95.947857
_cell_angle_beta 65.752493
_cell_angle_gamma 152.437227
_cell_volume 811.051386
_symmetry_space_group_name_H-M "P -1"
_symmetry_group_IT_number 2
_symmetry_cell_setting 'triclinic'
loop_
_space_group_symop_operation_xyz
x,y,z
-x,-y,-z
loop_
_atom_site_type_symbol
_atom_site_label
_atom_site_fract_x
_atom_site_fract_y
_atom_site_fract_z
Si Si1 0.629352 0.504902 0.209169
Si Si2 0.064096 0.870032 0.956054
Si Si3 0.272904 0.034215 0.528298
Si Si4 0.818857 0.174981 0.717705
Si Si5 0.456266 0.098914 0.086726
Si Si6 0.426152 0.865902 0.309075
Si Si7 0.971431 0.528734 0.187174
Si Si8 0.725309 0.438922 0.245521
O O1 0.467879 0.326598 0.417679
O O2 0.588872 0.390691 0.065427
O O3 0.669033 0.473308 0.286587
O O4 0.797176 0.844256 0.056492
O O5 0.167809 0.961338 0.724326
O O6 0.945598 0.608601 0.165298
O O7 0.925294 0.732361 0.013177
O O8 0.263336 0.041512 0.348403
O O9 0.192584 0.785480 0.589843
O O10 0.000000 0.500000 0.500000
O O11 0.856227 0.189300 0.854363
O O12 0.692346 0.075506 0.867210
O O13 0.368923 0.885290 0.288778
O O14 0.566378 0.210196 0.849095
O O15 0.292804 0.614837 0.554352
O O16 0.611893 0.178301 0.228872
O O17 0.000000 0.500000 0.000000
#
# Coordination Sequence:
#
# PCOD8012422 Si02
#       8
#     2   2   2   2   2   2   2   2
#     4  10  21  40  55  82 119 156 186 231 283 345
#     4  11  22  36  57  85 119 152 187 234 285 335
#     4   9  20  37  58  81 113 150 194 230 285 330
#     4   9  18  31  54  81 111 138 182 236 281 328
#     4   9  19  36  57  79 116 147 186 232 289 331
#     4   9  20  35  57  86 106 148 190 242 279 331
#     4   9  20  33  53  85 109 141 188 238 276 327
#     4  10  22  34  60  82 115 144 200 233 281 333
#
# _framework density 19.72748
#
# number of rings (size 3 to 8) (size 9 to 14) (size 15 to 20)
#    0.000    2.500    0.000    0.750   14.000    1.000 
#    0.000    4.375    0.000    0.000    0.000    0.000 
#    0.000    0.000    0.000    0.000    0.000    0.000 
#
# Total GULP energy -198218.306606 kJ/mol
# GULP energy per Si atom -12388.644163 kJ/mol
# Density = 1.968258 g / cm^3
# Si number density = 19.727480 Si / 1000 Ang^3
#
#
#
# Elastic Constant Matrix: (Units=GPa)
#
#
# Indices 1 2 3 4 5 6 
#
# 1 67.8790 28.5930 25.0635 5.2444 -16.9864 15.6918
# 2 28.5930 79.8791 25.0746 -0.2013 -3.9580 2.4939
# 3 25.0635 25.0746 49.4665 5.0043 -12.7506 4.1146
# 4 5.2444 -0.2013 5.0043 34.8407 5.3179 -1.1068
# 5 -16.9864 -3.9580 -12.7506 5.3179 34.1747 -3.7385
# 6 15.6918 2.4939 4.1146 -1.1068 -3.7385 32.7158
#
#
#
# Elastic Compliance Matrix: (Units=1/GPa)
#
#
# Indices 1 2 3 4 5 6 
#
# 1 0.024175 -0.006176 -0.005575 -0.004533 0.008880 -0.009562
# 2 -0.006176 0.016586 -0.006714 0.002643 -0.003825 0.002195
# 3 -0.005575 -0.006714 0.028941 -0.004567 0.007993 0.000305
# 4 -0.004533 0.002643 -0.004567 0.031399 -0.008245 0.002667
# 5 0.008880 -0.003825 0.007993 -0.008245 0.037390 -0.000979
# 6 -0.009562 0.002195 0.000305 0.002667 -0.000979 0.034925
#
#
# Mechanical properties :
#
#
# Convention : Reuss Voigt Hill
#
# Bulk Modulus (GPa) = 30.51507 39.40967 34.96237
# Shear Modulus (GPa) = 22.59664 28.24579 25.42121
#
# Velocity S-wave (km/s) = 3.38811 3.78802 3.59363
# Velocity P-wave (km/s) = 5.55046 6.25720 5.91439
#
# Compressibility (1/GPa) = 0.03277069
#
# Stress axis : x y z
#
# Youngs Moduli (GPa) = 41.36433 60.29201 34.55323
#
# Poissons Ratio (x) = 0.37239 0.19265
# Poissons Ratio (y) = 0.25548 0.23199
# Poissons Ratio (z) = 0.23062 0.40480
#
# Static dielectric constant tensor:
#      x y z
#    x 1.515250 -1.110770 0.356520 
#    y -1.110770 2.965460 0.268120 
#    z 0.356520 0.268120 3.531790 
# 
# 
# High freq. dielectric constant tensor:
#      x y z
#    x 1.767600 0.014990 -0.016710 
#    y 0.014990 1.767090 0.012140 
#    z -0.016710 0.012140 1.748150 
# 
# From -- ./inp_files/304150.got.cif
#   From: 2010.06.25/outbox.cif.g09.slc.cpg/sg2_153_cif.got.tgz:304150.got - 2010.06.27 13:26:56.
