data_PCOD8012859
_publ_section_title
;
Structure prediction by ZEFSAII (Michael W. Deem and Ramdas Pophale) SiO2 
 PCOD8012859
Probable space group: P -1
;
_chemical_formula_sum "Si O2"
_cell_formula_units_Z 16
_cell_length_a 9.266049
_cell_length_b 6.674207
_cell_length_c 15.784438
_cell_angle_alpha 109.013254
_cell_angle_beta 115.750881
_cell_angle_gamma 75.687207
_cell_volume 824.830851
_symmetry_space_group_name_H-M "P -1"
_symmetry_group_IT_number 2
_symmetry_cell_setting 'triclinic'
loop_
_space_group_symop_operation_xyz
x,y,z
-x,-y,-z
loop_
_atom_site_type_symbol
_atom_site_label
_atom_site_fract_x
_atom_site_fract_y
_atom_site_fract_z
Si Si1 0.458111 0.638364 0.091173
Si Si2 0.602922 0.506140 0.764675
Si Si3 0.961130 0.415077 0.848749
Si Si4 0.441679 0.114955 0.585707
Si Si5 0.355010 0.828301 0.667046
Si Si6 0.891610 0.209662 0.972296
Si Si7 0.203869 0.256607 0.745346
Si Si8 0.168679 0.443861 0.579098
O O1 0.404307 0.500101 0.136379
O O2 0.617567 0.738180 0.170853
O O3 0.500000 0.500000 0.000000
O O4 0.298087 0.811161 0.059721
O O5 0.786755 0.518085 0.783638
O O6 0.540023 0.301066 0.673843
O O7 0.500472 0.734332 0.752443
O O8 0.064314 0.590461 0.935421
O O9 0.061420 0.300239 0.781686
O O10 0.929321 0.240109 0.886994
O O11 0.257790 0.219717 0.536132
O O12 0.500000 0.000000 0.500000
O O13 0.445804 0.921308 0.625061
O O14 0.264469 0.628663 0.593572
O O15 0.215397 0.006998 0.691012
O O16 0.000000 0.000000 0.000000
O O17 0.167458 0.419558 0.678668
O O18 0.000000 0.500000 0.500000
#
# Coordination Sequence:
#
# PCOD8012859 Si02
#       8
#     2   2   2   2   2   2   2   2
#     4  11  20  40  65  85 128 163 201 259 297 359
#     4  10  22  40  60  90 126 162 203 257 300 367
#     4  10  23  38  57  89 127 159 204 259 304 356
#     4  10  22  39  62  90 122 159 208 252 305 369
#     4  10  21  40  64  86 123 161 203 249 315 359
#     4  10  23  39  57  88 125 164 208 253 305 362
#     4  11  22  40  61  94 123 161 208 250 303 371
#     4  10  23  41  62  91 125 155 202 260 301 363
#
# _framework density 19.397915000000001
#
# number of rings (size 3 to 8) (size 9 to 14) (size 15 to 20)
#    0.000    1.750    5.000    0.000    1.750    9.000 
#    0.000    1.250    0.000    0.000    0.000    0.000 
#    0.000    0.000    0.000    0.000    0.000    0.000 
#
# Total GULP energy -198237.260974 kJ/mol
# GULP energy per Si atom -12389.828811 kJ/mol
# Density = 1.935376 g / cm^3
# Si number density = 19.397915 Si / 1000 Ang^3
#
#
#
# Elastic Constant Matrix: (Units=GPa)
#
#
# Indices 1 2 3 4 5 6 
#
# 1 136.8426 30.7800 51.3756 -11.8240 -5.4773 -21.8608
# 2 30.7800 85.0522 31.9414 -18.4139 -4.0771 -8.3568
# 3 51.3756 31.9414 97.0319 -7.5646 -9.1960 -14.3808
# 4 -11.8240 -18.4139 -7.5646 20.8129 -14.0534 7.2972
# 5 -5.4773 -4.0771 -9.1960 -14.0534 50.0979 -0.3497
# 6 -21.8608 -8.3568 -14.3808 7.2972 -0.3497 30.2678
#
#
#
# Elastic Compliance Matrix: (Units=1/GPa)
#
#
# Indices 1 2 3 4 5 6 
#
# 1 0.010016 -0.001142 -0.003995 0.002294 0.000944 0.004478
# 2 -0.001142 0.017480 -0.003486 0.018097 0.005721 -0.001952
# 3 -0.003995 -0.003486 0.014187 0.000092 0.001930 0.002893
# 4 0.002294 0.018097 0.000092 0.088212 0.026386 -0.014265
# 5 0.000944 0.005721 0.001930 0.026386 0.028266 -0.002857
# 6 0.004478 -0.001952 0.002893 -0.014265 -0.002857 0.040515
#
#
# Mechanical properties :
#
#
# Convention : Reuss Voigt Hill
#
# Bulk Modulus (GPa) = 40.92089 60.79119 50.85604
# Shear Modulus (GPa) = 22.31461 33.89103 28.10282
#
# Velocity S-wave (km/s) = 3.39538 4.18442 3.81038
# Velocity P-wave (km/s) = 6.04258 7.39952 6.75521
#
# Compressibility (1/GPa) = 0.02443740
#
# Stress axis : x y z
#
# Youngs Moduli (GPa) = 99.84089 57.20715 70.48499
#
# Poissons Ratio (x) = 0.06535 0.28159
# Poissons Ratio (y) = 0.11406 0.24569
# Poissons Ratio (z) = 0.39887 0.19941
#
# Static dielectric constant tensor:
#      x y z
#    x 3.790490 -0.157350 0.189860 
#    y -0.157350 3.647760 -0.193500 
#    z 0.189860 -0.193500 3.564000 
# 
# 
# High freq. dielectric constant tensor:
#      x y z
#    x 1.767760 -0.009490 0.006380 
#    y -0.009490 1.751890 -0.010150 
#    z 0.006380 -0.010150 1.750520 
# 
# From -- ./inp_files/39445.got.cif
#   From: 2010.06.25/outbox.cif.g09.slc.cpg/sg2_20_cif.got.tgz:39445.got - 2010.06.27 13:26:56.
