data_PCOD8012618
_publ_section_title
;
Structure prediction by ZEFSAII (Michael W. Deem and Ramdas Pophale) SiO2 
 PCOD8012618
Probable space group: P -1
;
_chemical_formula_sum "Si O2"
_cell_formula_units_Z 16
_cell_length_a 13.846098
_cell_length_b 12.205191
_cell_length_c 8.572606
_cell_angle_alpha 97.225138
_cell_angle_beta 34.640742
_cell_angle_gamma 106.060580
_cell_volume 777.478023
_symmetry_space_group_name_H-M "P -1"
_symmetry_group_IT_number 2
_symmetry_cell_setting 'triclinic'
loop_
_space_group_symop_operation_xyz
x,y,z
-x,-y,-z
loop_
_atom_site_type_symbol
_atom_site_label
_atom_site_fract_x
_atom_site_fract_y
_atom_site_fract_z
Si Si1 0.963392 0.075941 0.199371
Si Si2 0.621177 0.919586 0.804064
Si Si3 0.366698 0.683830 0.024666
Si Si4 0.015513 0.685890 0.314532
Si Si5 0.009242 0.302160 0.003767
Si Si6 0.786627 0.436742 0.488880
Si Si7 0.597522 0.550786 0.535789
Si Si8 0.129779 0.122014 0.298909
O O1 0.927200 0.188289 0.195352
O O2 0.127901 0.122262 0.112234
O O3 0.792279 0.994259 0.497740
O O4 0.000000 0.000000 0.000000
O O5 0.677196 0.871904 0.885187
O O6 0.509781 0.809365 0.833356
O O7 0.500000 0.000000 0.000000
O O8 0.194760 0.678292 0.151882
O O9 0.311005 0.661052 0.275225
O O10 0.457752 0.590201 0.831531
O O11 0.870922 0.558702 0.487703
O O12 0.935899 0.773269 0.530031
O O13 0.060840 0.728623 0.084674
O O14 0.942516 0.403292 0.184655
O O15 0.224480 0.343929 0.721659
O O16 0.644750 0.449940 0.551648
O O17 0.500000 0.500000 0.500000
O O18 0.000000 0.000000 0.500000
#
# Coordination Sequence:
#
# PCOD8012618 Si02
#       8
#     2   2   2   2   2   2   2   2
#     4  11  23  42  65  89 119 162 207 247 300 369
#     4  11  23  41  62  91 122 153 200 258 303 349
#     4  12  23  39  62  91 121 157 203 258 304 350
#     4  11  22  40  64  90 123 165 203 244 301 372
#     4  11  22  41  63  88 123 166 204 245 302 372
#     4  11  23  40  61  90 124 165 205 243 302 375
#     4  11  23  39  59  90 126 158 199 255 304 353
#     4  10  21  40  62  87 119 162 201 242 299 364
#
# _framework density 20.579360999999999
#
# number of rings (size 3 to 8) (size 9 to 14) (size 15 to 20)
#    0.000    1.000    0.000   10.500    0.000    2.000 
#    0.000    5.000    0.000    0.000    0.000    0.000 
#    0.000    0.000    0.000    0.000    0.000    0.000 
#
# Total GULP energy -198404.539722 kJ/mol
# GULP energy per Si atom -12400.283733 kJ/mol
# Density = 2.053252 g / cm^3
# Si number density = 20.579361 Si / 1000 Ang^3
#
#
#
# Elastic Constant Matrix: (Units=GPa)
#
#
# Indices 1 2 3 4 5 6 
#
# 1 171.2807 54.7880 65.9295 5.6080 -1.8462 -4.6591
# 2 54.7880 105.6056 32.2128 16.9787 2.7899 -2.3504
# 3 65.9295 32.2128 92.1104 16.3288 0.3843 -3.6451
# 4 5.6080 16.9787 16.3288 49.0719 -5.1952 4.1340
# 5 -1.8462 2.7899 0.3843 -5.1952 37.8820 5.7006
# 6 -4.6591 -2.3504 -3.6451 4.1340 5.7006 34.4217
#
#
#
# Elastic Compliance Matrix: (Units=1/GPa)
#
#
# Indices 1 2 3 4 5 6 
#
# 1 0.009029 -0.003320 -0.005683 0.002120 0.001038 -0.000033
# 2 -0.003320 0.012220 -0.001192 -0.003716 -0.001708 0.000988
# 3 -0.005683 -0.001192 0.016227 -0.004605 -0.001230 0.001624
# 4 0.002120 -0.003716 -0.004605 0.023746 0.004285 -0.004016
# 5 0.001038 -0.001708 -0.001230 0.004285 0.027965 -0.005252
# 6 -0.000033 0.000988 0.001624 -0.004016 -0.005252 0.030639
#
#
# Mechanical properties :
#
#
# Convention : Reuss Voigt Hill
#
# Bulk Modulus (GPa) = 58.53049 74.98416 66.75733
# Shear Modulus (GPa) = 34.26795 38.67955 36.47375
#
# Velocity S-wave (km/s) = 4.08507 4.34006 4.21449
# Velocity P-wave (km/s) = 7.12415 7.85051 7.49613
#
# Compressibility (1/GPa) = 0.01708511
#
# Stress axis : x y z
#
# Youngs Moduli (GPa) = 110.75956 81.83542 61.62604
#
# Poissons Ratio (x) = 0.27166 0.35022
# Poissons Ratio (y) = 0.36768 0.07349
# Poissons Ratio (z) = 0.62944 0.09759
#
# Static dielectric constant tensor:
#      x y z
#    x 4.482760 -0.044400 0.045100 
#    y -0.044400 3.914170 0.056880 
#    z 0.045100 0.056880 3.536340 
# 
# 
# High freq. dielectric constant tensor:
#      x y z
#    x 1.823570 -0.004140 0.000130 
#    y -0.004140 1.819610 0.005790 
#    z 0.000130 0.005790 1.794830 
# 
# From -- ./inp_files/217851.got.cif
#   From: 2010.06.25/outbox.cif.g09.slc.cpg/sg2_109_cif.got.tgz:217851.got - 2010.06.27 13:26:56.
