data_PCOD8012633
_publ_section_title
;
Structure prediction by ZEFSAII (Michael W. Deem and Ramdas Pophale) SiO2 
 PCOD8012633
Probable space group: P -1
;
_chemical_formula_sum "Si O2"
_cell_formula_units_Z 16
_cell_length_a 7.152494
_cell_length_b 16.094328
_cell_length_c 14.657017
_cell_angle_alpha 33.867729
_cell_angle_beta 108.187521
_cell_angle_gamma 129.231213
_cell_volume 633.471428
_symmetry_space_group_name_H-M "P -1"
_symmetry_group_IT_number 2
_symmetry_cell_setting 'triclinic'
loop_
_space_group_symop_operation_xyz
x,y,z
-x,-y,-z
loop_
_atom_site_type_symbol
_atom_site_label
_atom_site_fract_x
_atom_site_fract_y
_atom_site_fract_z
Si Si1 0.673870 0.227068 0.961876
Si Si2 0.028399 0.846867 0.028984
Si Si3 0.586565 0.588399 0.040078
Si Si4 0.503222 0.860788 0.708716
Si Si5 0.963765 0.135319 0.784665
Si Si6 0.611511 0.805225 0.577512
Si Si7 0.064003 0.778445 0.819608
Si Si8 0.106682 0.695254 0.545068
O O1 0.724958 0.138947 0.966583
O O2 0.841289 0.473385 0.753483
O O3 0.747206 0.179355 0.108697
O O4 0.350574 0.091488 0.040611
O O5 0.915815 0.753498 0.199391
O O6 0.802537 0.690626 0.060576
O O7 0.123799 0.072337 0.829623
O O8 0.489593 0.702994 0.909529
O O9 0.736144 0.593036 0.965926
O O10 0.338459 0.342430 0.256361
O O11 0.535508 0.858527 0.608338
O O12 0.189834 0.760122 0.767958
O O13 0.761927 0.096403 0.568977
O O14 0.990291 0.290643 0.580179
O O15 0.345515 0.694936 0.571880
O O16 0.885381 0.015727 0.377609
#
# Coordination Sequence:
#
# PCOD8012633 Si02
#       8
#     2   2   2   2   2   2   2   2
#     4  11  21  41  64  93 126 166 202 249 313 369
#     4  10  22  41  66  92 125 160 207 260 298 374
#     4  11  22  44  61  93 126 158 208 260 305 367
#     4  11  23  43  63  90 128 164 206 261 301 365
#     4  11  22  43  66  90 126 165 202 255 317 357
#     4  11  22  42  64  91 125 163 212 254 307 367
#     4  10  21  40  62  88 124 163 198 254 310 355
#     4  11  21  40  63  93 127 160 208 251 304 370
#
# _framework density 25.257650999999999
#
# number of rings (size 3 to 8) (size 9 to 14) (size 15 to 20)
#    0.000    1.250    6.250    2.250    0.000    1.500 
#    6.750    3.750    0.000    0.000    0.000    0.000 
#    0.000    0.000    0.000    0.000    0.000    0.000 
#
# Total GULP energy -198262.481101 kJ/mol
# GULP energy per Si atom -12391.405069 kJ/mol
# Density = 2.520016 g / cm^3
# Si number density = 25.257651 Si / 1000 Ang^3
#
#
#
# Elastic Constant Matrix: (Units=GPa)
#
#
# Indices 1 2 3 4 5 6 
#
# 1 76.8957 11.8322 38.3706 -13.2113 11.4216 -9.2651
# 2 11.8322 43.9628 42.0557 4.7051 8.7995 -3.3799
# 3 38.3706 42.0557 201.2810 -2.1709 24.9201 4.8682
# 4 -13.2113 4.7051 -2.1709 37.1633 8.5328 1.3334
# 5 11.4216 8.7995 24.9201 8.5328 41.6802 -6.4145
# 6 -9.2651 -3.3799 4.8682 1.3334 -6.4145 33.8830
#
#
#
# Elastic Compliance Matrix: (Units=1/GPa)
#
#
# Indices 1 2 3 4 5 6 
#
# 1 0.016596 -0.001951 -0.002337 0.006686 -0.003530 0.003748
# 2 -0.001951 0.029832 -0.005901 -0.004764 -0.000747 0.003336
# 3 -0.002337 -0.005901 0.007104 0.001131 -0.003034 -0.002867
# 4 0.006686 -0.004764 0.001131 0.031916 -0.008288 -0.001634
# 5 -0.003530 -0.000747 -0.003034 -0.008288 0.029443 0.005296
# 6 0.003748 0.003336 -0.002867 -0.001634 0.005296 0.032350
#
#
# Mechanical properties :
#
#
# Convention : Reuss Voigt Hill
#
# Bulk Modulus (GPa) = 30.16342 56.29517 43.22929
# Shear Modulus (GPa) = 27.98440 37.87070 32.92755
#
# Velocity S-wave (km/s) = 3.33221 3.87638 3.61455
# Velocity P-wave (km/s) = 5.17427 6.50936 5.87983
#
# Compressibility (1/GPa) = 0.03315274
#
# Stress axis : x y z
#
# Youngs Moduli (GPa) = 60.25551 33.52072 140.76948
#
# Poissons Ratio (x) = 0.06542 0.32904
# Poissons Ratio (y) = 0.11759 0.83065
# Poissons Ratio (z) = 0.14084 0.19780
#
# Static dielectric constant tensor:
#      x y z
#    x 4.745070 -0.068950 0.187380 
#    y -0.068950 4.703760 0.251510 
#    z 0.187380 0.251510 4.872670 
# 
# 
# High freq. dielectric constant tensor:
#      x y z
#    x 2.000630 0.008990 0.026710 
#    y 0.008990 2.003690 0.017910 
#    z 0.026710 0.017910 2.021240 
# 
# From -- ./inp_files/507253.got.cif
#   From: 2010.06.25/outbox.cif.g09.slc.cpg/sg2_254_cif.got.tgz:507253.got - 2010.06.27 13:26:56.
