data_PCOD8012022
_publ_section_title
;
Structure prediction by ZEFSAII (Michael W. Deem and Ramdas Pophale) SiO2 
 PCOD8012022
Probable space group: P -1
;
_chemical_formula_sum "Si O2"
_cell_formula_units_Z 14
_cell_length_a 12.173817
_cell_length_b 6.556822
_cell_length_c 17.757089
_cell_angle_alpha 135.712120
_cell_angle_beta 142.100089
_cell_angle_gamma 53.228316
_cell_volume 606.080932
_symmetry_space_group_name_H-M "P -1"
_symmetry_group_IT_number 2
_symmetry_cell_setting 'triclinic'
loop_
_space_group_symop_operation_xyz
x,y,z
-x,-y,-z
loop_
_atom_site_type_symbol
_atom_site_label
_atom_site_fract_x
_atom_site_fract_y
_atom_site_fract_z
Si Si1 0.677333 0.323731 0.382145
Si Si2 0.858613 0.732763 0.313203
Si Si3 0.621080 0.646380 0.666382
Si Si4 0.841593 0.743090 0.678810
Si Si5 0.717589 0.711087 0.074555
Si Si6 0.053141 0.647816 0.145519
Si Si7 0.361009 0.628268 0.798594
O O1 0.518373 0.178538 0.305339
O O2 0.699570 0.646542 0.514193
O O3 0.618632 0.396326 0.285752
O O4 0.857414 0.089891 0.420949
O O5 0.711792 0.710158 0.161594
O O6 0.790986 0.576832 0.310044
O O7 0.037614 0.567415 0.332241
O O8 0.500000 0.500000 0.500000
O O9 0.749879 0.834268 0.734125
O O10 0.750155 0.443462 0.738262
O O11 0.953137 0.003522 0.779784
O O12 0.905484 0.569930 0.106087
O O13 0.693293 0.041672 0.116584
O O14 0.556230 0.524648 0.910327
O O15 0.000000 0.500000 0.000000
#
# Coordination Sequence:
#
# PCOD8012022 Si02
#       7
#     2   2   2   2   2   2   2
#     4  10  24  40  66  99 130 170 221 268 329 399
#     4  11  21  41  68  99 129 173 212 276 334 391
#     4  10  24  46  67  96 137 177 221 272 328 397
#     4  11  24  44  68  96 133 174 220 275 333 389
#     4  10  21  40  62  97 133 169 216 270 325 394
#     4  12  25  43  70  96 134 177 226 272 328 394
#     4  10  21  39  65  97 133 168 216 269 332 390
#
# _framework density 23.099226999999999
#
# number of rings (size 3 to 8) (size 9 to 14) (size 15 to 20)
#    0.000    1.429    2.857    1.714    0.000    8.000 
#    2.571    0.000    0.000    0.000    0.000    0.000 
#    0.000    0.000    0.000    0.000    0.000    0.000 
#
# Total GULP energy -173452.588762 kJ/mol
# GULP energy per Si atom -12389.470626 kJ/mol
# Density = 2.304665 g / cm^3
# Si number density = 23.099227 Si / 1000 Ang^3
#
#
#
# Elastic Constant Matrix: (Units=GPa)
#
#
# Indices 1 2 3 4 5 6 
#
# 1 122.5328 -0.2360 5.0157 -0.4490 -6.5821 1.7093
# 2 -0.2360 43.8414 14.4676 -8.5357 -9.6295 -7.5613
# 3 5.0157 14.4676 63.8654 -0.6366 -16.3387 -1.4085
# 4 -0.4490 -8.5357 -0.6366 36.6303 1.4693 3.1173
# 5 -6.5821 -9.6295 -16.3387 1.4693 35.4384 -7.5312
# 6 1.7093 -7.5613 -1.4085 3.1173 -7.5312 32.7707
#
#
#
# Elastic Compliance Matrix: (Units=1/GPa)
#
#
# Indices 1 2 3 4 5 6 
#
# 1 0.008259 0.000531 -0.000385 0.000158 0.001495 0.000004
# 2 0.000531 0.028175 -0.004399 0.005584 0.007062 0.007376
# 3 -0.000385 -0.004399 0.018697 -0.001161 0.007763 0.001703
# 4 0.000158 0.005584 -0.001161 0.028742 -0.000525 -0.001624
# 5 0.001495 0.007062 0.007763 -0.000525 0.036195 0.010253
# 6 0.000004 0.007376 0.001703 -0.001624 0.010253 0.034801
#
#
# Mechanical properties :
#
#
# Convention : Reuss Voigt Hill
#
# Bulk Modulus (GPa) = 21.44784 29.85937 25.65361
# Shear Modulus (GPa) = 27.94631 35.03405 31.49018
#
# Velocity S-wave (km/s) = 3.48205 3.89868 3.69624
# Velocity P-wave (km/s) = 5.04692 5.76376 5.41721
#
# Compressibility (1/GPa) = 0.04662474
#
# Stress axis : x y z
#
# Youngs Moduli (GPa) = 121.08457 35.49299 53.48519
#
# Poissons Ratio (x) = -0.01886 0.02058
# Poissons Ratio (y) = -0.06433 0.23529
# Poissons Ratio (z) = 0.04659 0.15614
#
# Static dielectric constant tensor:
#      x y z
#    x 4.389680 -0.102120 -0.036180 
#    y -0.102120 3.893320 -0.256000 
#    z -0.036180 -0.256000 4.112550 
# 
# 
# High freq. dielectric constant tensor:
#      x y z
#    x 1.928480 -0.001450 -0.003330 
#    y -0.001450 1.891370 -0.023640 
#    z -0.003330 -0.023640 1.912080 
# 
# From -- ./inp_files/68278.got.cif
#   From: 2010.06.25/outbox.cif.g09.slc.cpg/sg2_35_cif.got.tgz:68278.got - 2010.06.27 13:26:56.
