data_PCOD8012592
_publ_section_title
;
Structure prediction by ZEFSAII (Michael W. Deem and Ramdas Pophale) SiO2 
 PCOD8012592
Probable space group: P -1
;
_chemical_formula_sum "Si O2"
_cell_formula_units_Z 16
_cell_length_a 13.746963
_cell_length_b 7.606832
_cell_length_c 16.971332
_cell_angle_alpha 71.105626
_cell_angle_beta 156.382280
_cell_angle_gamma 101.168656
_cell_volume 647.380366
_symmetry_space_group_name_H-M "P -1"
_symmetry_group_IT_number 2
_symmetry_cell_setting 'triclinic'
loop_
_space_group_symop_operation_xyz
x,y,z
-x,-y,-z
loop_
_atom_site_type_symbol
_atom_site_label
_atom_site_fract_x
_atom_site_fract_y
_atom_site_fract_z
Si Si1 0.226078 0.716757 0.338466
Si Si2 0.185808 0.974099 0.531396
Si Si3 0.073217 0.569128 0.393719
Si Si4 0.205018 0.446435 0.228095
Si Si5 0.242802 0.725616 0.752732
Si Si6 0.930560 0.906189 0.747277
Si Si7 0.475384 0.244277 0.780503
Si Si8 0.335712 0.213966 0.848390
O O1 0.038173 0.641665 0.267730
O O2 0.179971 0.647723 0.226854
O O3 0.517784 0.628668 0.592152
O O4 0.148719 0.949643 0.257485
O O5 0.187566 0.973706 0.436465
O O6 0.394982 0.086174 0.691503
O O7 0.906179 0.077229 0.341197
O O8 0.268109 0.769267 0.671185
O O9 0.373566 0.460873 0.637505
O O10 0.912859 0.424833 0.321017
O O11 0.949658 0.757529 0.331125
O O12 0.171413 0.280053 0.286935
O O13 0.000000 0.500000 0.000000
O O14 0.521795 0.662461 0.008596
O O15 0.230714 0.822213 0.975116
O O16 0.308407 0.288096 0.729447
O O17 0.500000 0.000000 0.000000
#
# Coordination Sequence:
#
# PCOD8012592 Si02
#       8
#     2   2   2   2   2   2   2   2
#     4  11  27  48  74 110 140 181 242 298 357 435
#     4  10  22  39  66 101 145 188 238 285 339 416
#     4  11  25  42  65 101 144 189 239 292 345 417
#     4  11  26  52  79 106 143 177 231 306 374 432
#     4  10  21  40  61  96 144 197 236 282 340 404
#     4  12  25  47  79 105 145 189 234 297 362 424
#     4  11  23  40  66 101 144 193 239 287 347 416
#     4  12  22  39  64  95 143 193 241 288 339 410
#
# _framework density 24.71499
#
# number of rings (size 3 to 8) (size 9 to 14) (size 15 to 20)
#    0.000    1.000    2.500    4.125    0.000    3.500 
#    0.000    0.000    0.000    0.000    0.000    0.000 
#    0.000    0.000    0.000    0.000    0.000    0.000 
#
# Total GULP energy -198234.766020 kJ/mol
# GULP energy per Si atom -12389.672876 kJ/mol
# Density = 2.465874 g / cm^3
# Si number density = 24.714990 Si / 1000 Ang^3
#
#
#
# Elastic Constant Matrix: (Units=GPa)
#
#
# Indices 1 2 3 4 5 6 
#
# 1 93.3253 28.1590 27.0059 10.1830 8.8052 -3.9732
# 2 28.1590 82.6445 18.3896 5.0126 3.0628 -5.1393
# 3 27.0059 18.3896 97.5622 23.3144 1.3524 -14.8470
# 4 10.1830 5.0126 23.3144 25.1773 -8.4168 5.9592
# 5 8.8052 3.0628 1.3524 -8.4168 36.1671 -5.0922
# 6 -3.9732 -5.1393 -14.8470 5.9592 -5.0922 41.9518
#
#
#
# Elastic Compliance Matrix: (Units=1/GPa)
#
#
# Indices 1 2 3 4 5 6 
#
# 1 0.013186 -0.003667 -0.001857 -0.004211 -0.003770 0.000283
# 2 -0.003667 0.013730 -0.001389 -0.000216 -0.000148 0.000856
# 3 -0.001857 -0.001389 0.016171 -0.016657 -0.002870 0.007395
# 4 -0.004211 -0.000216 -0.016657 0.065122 0.014884 -0.013764
# 5 -0.003770 -0.000148 -0.002870 0.014884 0.032208 0.000404
# 6 0.000283 0.000856 0.007395 -0.013764 0.000404 0.028590
#
#
# Mechanical properties :
#
#
# Convention : Reuss Voigt Hill
#
# Bulk Modulus (GPa) = 34.17464 46.73790 40.45627
# Shear Modulus (GPa) = 25.96207 33.99104 29.97656
#
# Velocity S-wave (km/s) = 3.24459 3.71256 3.48643
# Velocity P-wave (km/s) = 5.28148 6.10976 5.71066
#
# Compressibility (1/GPa) = 0.02926147
#
# Stress axis : x y z
#
# Youngs Moduli (GPa) = 75.83620 72.83141 61.83731
#
# Poissons Ratio (x) = 0.26707 0.11486
# Poissons Ratio (y) = 0.27808 0.08589
# Poissons Ratio (z) = 0.14086 0.10116
#
# Static dielectric constant tensor:
#      x y z
#    x 4.203490 -0.088520 0.219870 
#    y -0.088520 5.087190 -0.300220 
#    z 0.219870 -0.300220 4.888200 
# 
# 
# High freq. dielectric constant tensor:
#      x y z
#    x 1.971220 -0.001090 0.002030 
#    y -0.001090 2.000060 -0.000970 
#    z 0.002030 -0.000970 1.992770 
# 
# From -- ./inp_files/515456.got.cif
#   From: 2010.06.25/outbox.cif.g09.slc.cpg/sg2_258_cif.got.tgz:515456.got - 2010.06.27 13:26:56.
