data_PCOD8012382
_publ_section_title
;
Structure prediction by ZEFSAII (Michael W. Deem and Ramdas Pophale) SiO2 
 PCOD8012382
Probable space group: P -1
;
_chemical_formula_sum "Si O2"
_cell_formula_units_Z 16
_cell_length_a 11.580268
_cell_length_b 16.527997
_cell_length_c 9.065759
_cell_angle_alpha 116.673484
_cell_angle_beta 73.374246
_cell_angle_gamma 50.550381
_cell_volume 671.279655
_symmetry_space_group_name_H-M "P -1"
_symmetry_group_IT_number 2
_symmetry_cell_setting 'triclinic'
loop_
_space_group_symop_operation_xyz
x,y,z
-x,-y,-z
loop_
_atom_site_type_symbol
_atom_site_label
_atom_site_fract_x
_atom_site_fract_y
_atom_site_fract_z
Si Si1 0.287555 0.694478 0.140592
Si Si2 0.839878 0.908334 0.655261
Si Si3 0.644174 0.877072 0.544160
Si Si4 0.222125 0.303689 0.934180
Si Si5 0.777264 0.332419 0.182735
Si Si6 0.262392 0.985622 0.908977
Si Si7 0.573359 0.683814 0.956830
Si Si8 0.743152 0.549721 0.471924
O O1 0.013404 0.864432 0.465162
O O2 0.500000 0.500000 0.000000
O O3 0.253290 0.673259 0.978071
O O4 0.368610 0.744754 0.136810
O O5 0.853158 0.794607 0.502304
O O6 0.913432 0.862353 0.763055
O O7 0.546403 0.146794 0.941148
O O8 0.821063 0.693202 0.220533
O O9 0.450080 0.943319 0.761844
O O10 0.468451 0.072081 0.690464
O O11 0.293933 0.362141 0.981581
O O12 0.964147 0.471675 0.271315
O O13 0.500000 0.500000 0.500000
O O14 0.838075 0.397038 0.226930
O O15 0.040204 0.105419 0.967075
O O16 0.445637 0.776309 0.711198
O O17 0.757513 0.523066 0.623014
#
# Coordination Sequence:
#
# PCOD8012382 Si02
#       8
#     2   2   2   2   2   2   2   2
#     4  12  26  44  68  99 134 185 228 282 351 405
#     4  10  23  43  67 101 137 180 232 283 341 414
#     4  10  21  41  70 101 138 183 227 286 352 398
#     4  10  21  39  71 100 140 180 229 289 343 407
#     4  12  25  47  71  98 143 179 227 291 337 409
#     4  11  25  43  73 103 137 185 228 285 348 411
#     4  10  23  42  66  99 139 182 229 286 342 409
#     4  11  23  44  69 107 134 183 233 280 351 407
#
# _framework density 23.835073999999999
#
# number of rings (size 3 to 8) (size 9 to 14) (size 15 to 20)
#    0.000    1.250    2.500    2.625    3.500    3.000 
#    2.250    0.000    0.000    0.000    0.000    0.000 
#    0.000    0.000    0.000    0.000    0.000    0.000 
#
# Total GULP energy -198269.759980 kJ/mol
# GULP energy per Si atom -12391.859999 kJ/mol
# Density = 2.378082 g / cm^3
# Si number density = 23.835074 Si / 1000 Ang^3
#
#
#
# Elastic Constant Matrix: (Units=GPa)
#
#
# Indices 1 2 3 4 5 6 
#
# 1 126.4113 24.7497 51.8585 -29.0177 8.0218 -10.5320
# 2 24.7497 67.6728 32.0592 -14.0517 17.3405 -19.4109
# 3 51.8585 32.0592 120.8663 -28.4440 -2.2485 -8.7288
# 4 -29.0177 -14.0517 -28.4440 51.8514 6.6474 -0.8325
# 5 8.0218 17.3405 -2.2485 6.6474 47.8268 -9.0031
# 6 -10.5320 -19.4109 -8.7288 -0.8325 -9.0031 34.8221
#
#
#
# Elastic Compliance Matrix: (Units=1/GPa)
#
#
# Indices 1 2 3 4 5 6 
#
# 1 0.010625 -0.000373 -0.003363 0.004294 -0.002076 0.001728
# 2 -0.000373 0.022415 -0.004124 0.004668 -0.007095 0.009626
# 3 -0.003363 -0.004124 0.011594 0.003079 0.002221 0.000238
# 4 0.004294 0.004668 0.003079 0.025353 -0.005043 0.003975
# 5 -0.002076 -0.007095 0.002221 -0.005043 0.025075 0.002336
# 6 0.001728 0.009626 0.000238 0.003975 0.002336 0.035364
#
#
# Mechanical properties :
#
#
# Convention : Reuss Voigt Hill
#
# Bulk Modulus (GPa) = 34.58575 59.14279 46.86427
# Shear Modulus (GPa) = 32.09575 40.65227 36.37401
#
# Velocity S-wave (km/s) = 3.67355 4.13433 3.91073
# Velocity P-wave (km/s) = 5.70397 6.90344 6.33217
#
# Compressibility (1/GPa) = 0.02891365
#
# Stress axis : x y z
#
# Youngs Moduli (GPa) = 94.11959 44.61239 86.25517
#
# Poissons Ratio (x) = 0.01665 0.29007
# Poissons Ratio (y) = 0.03513 0.35570
# Poissons Ratio (z) = 0.31652 0.18397
#
# Static dielectric constant tensor:
#      x y z
#    x 4.563060 -0.178750 0.103480 
#    y -0.178750 4.284060 -0.095760 
#    z 0.103480 -0.095760 4.609270 
# 
# 
# High freq. dielectric constant tensor:
#      x y z
#    x 1.948270 -0.002660 0.005630 
#    y -0.002660 1.942520 -0.003580 
#    z 0.005630 -0.003580 1.952650 
# 
# From -- ./inp_files/278248.got.cif
#   From: 2010.06.25/outbox.cif.g09.slc.cpg/sg2_140_cif.got.tgz:278248.got - 2010.06.27 13:26:56.
