data_PCOD8012425
_publ_section_title
;
Structure prediction by ZEFSAII (Michael W. Deem and Ramdas Pophale) SiO2 
 PCOD8012425
Probable space group: P -1
;
_chemical_formula_sum "Si O2"
_cell_formula_units_Z 16
_cell_length_a 9.537636
_cell_length_b 13.726283
_cell_length_c 11.240630
_cell_angle_alpha 51.018012
_cell_angle_beta 134.106254
_cell_angle_gamma 108.529464
_cell_volume 802.176032
_symmetry_space_group_name_H-M "P -1"
_symmetry_group_IT_number 2
_symmetry_cell_setting 'triclinic'
loop_
_space_group_symop_operation_xyz
x,y,z
-x,-y,-z
loop_
_atom_site_type_symbol
_atom_site_label
_atom_site_fract_x
_atom_site_fract_y
_atom_site_fract_z
Si Si1 0.567033 0.736403 0.390862
Si Si2 0.445286 0.827565 0.659370
Si Si3 0.434564 0.954963 0.313993
Si Si4 0.781173 0.388410 0.642082
Si Si5 0.181687 0.212595 0.950346
Si Si6 0.050101 0.455975 0.195270
Si Si7 0.381477 0.351195 0.771785
Si Si8 0.342802 0.607007 0.893487
O O1 0.511319 0.882500 0.292868
O O2 0.426551 0.653618 0.434029
O O3 0.793744 0.679926 0.608083
O O4 0.542184 0.729547 0.239676
O O5 0.407902 0.851269 0.478703
O O6 0.405273 0.964067 0.602818
O O7 0.676706 0.754574 0.882693
O O8 0.299528 0.737467 0.688279
O O9 0.225885 0.056691 0.084666
O O10 0.849107 0.435928 0.771018
O O11 0.749766 0.506764 0.440730
O O12 0.948282 0.266625 0.792247
O O13 0.241077 0.274104 0.817168
O O14 0.000000 0.500000 0.000000
O O15 0.860213 0.441159 0.172478
O O16 0.575430 0.362355 0.953362
O O17 0.500000 0.500000 0.000000
#
# Coordination Sequence:
#
# PCOD8012425 Si02
#       8
#     2   2   2   2   2   2   2   2
#     4  11  24  39  59  86 133 163 192 241 319 363
#     4   8  19  39  61  91 120 148 213 262 282 348
#     4   9  20  40  62  86 123 165 200 251 297 351
#     4  11  22  38  59  91 121 160 196 256 301 361
#     4   9  19  37  65  81 114 158 207 241 298 343
#     4  11  23  37  61  93 124 159 199 245 315 367
#     4  10  21  40  56  93 128 148 190 263 309 363
#     4  11  22  38  68  96 114 157 208 254 305 350
#
# _framework density 19.945746
#
# number of rings (size 3 to 8) (size 9 to 14) (size 15 to 20)
#    0.750    1.250    0.000    4.875    5.250    2.000 
#    0.000    0.625    2.750    0.000    0.000    0.000 
#    0.000    0.000    0.000    0.000    0.000    0.000 
#
# Total GULP energy -198329.977392 kJ/mol
# GULP energy per Si atom -12395.623587 kJ/mol
# Density = 1.990035 g / cm^3
# Si number density = 19.945746 Si / 1000 Ang^3
#
#
#
# Elastic Constant Matrix: (Units=GPa)
#
#
# Indices 1 2 3 4 5 6 
#
# 1 105.7259 33.2799 52.7143 -15.0315 5.0604 -1.1805
# 2 33.2799 74.5790 24.3057 -12.6460 2.2478 -14.6324
# 3 52.7143 24.3057 101.0137 -16.9185 -7.6176 -8.2708
# 4 -15.0315 -12.6460 -16.9185 28.4342 0.2419 3.6749
# 5 5.0604 2.2478 -7.6176 0.2419 36.9528 -3.4613
# 6 -1.1805 -14.6324 -8.2708 3.6749 -3.4613 38.1066
#
#
#
# Elastic Compliance Matrix: (Units=1/GPa)
#
#
# Indices 1 2 3 4 5 6 
#
# 1 0.014678 -0.004521 -0.006732 0.002195 -0.003443 -0.003267
# 2 -0.004521 0.017547 -0.000662 0.004240 -0.000047 0.006041
# 3 -0.006732 -0.000662 0.014888 0.004619 0.004255 0.002710
# 4 0.002195 0.004240 0.004619 0.041127 0.000006 -0.001267
# 5 -0.003443 -0.000047 0.004255 0.000006 0.028732 0.003408
# 6 -0.003267 0.006041 0.002710 -0.001267 0.003408 0.029481
#
#
# Mechanical properties :
#
#
# Convention : Reuss Voigt Hill
#
# Bulk Modulus (GPa) = 42.94556 55.76870 49.35713
# Shear Modulus (GPa) = 28.08298 32.09997 30.09148
#
# Velocity S-wave (km/s) = 3.75636 4.01604 3.88837
# Velocity P-wave (km/s) = 6.35544 7.03745 6.70512
#
# Compressibility (1/GPa) = 0.02328529
#
# Stress axis : x y z
#
# Youngs Moduli (GPa) = 68.12798 56.98867 67.16774
#
# Poissons Ratio (x) = 0.25765 0.45214
# Poissons Ratio (y) = 0.30801 0.04444
# Poissons Ratio (z) = 0.45861 0.03770
#
# Static dielectric constant tensor:
#      x y z
#    x 3.499860 -0.042690 -0.069380 
#    y -0.042690 3.622060 -0.040850 
#    z -0.069380 -0.040850 3.655820 
# 
# 
# High freq. dielectric constant tensor:
#      x y z
#    x 1.763520 -0.003640 -0.012330 
#    y -0.003640 1.774960 -0.002400 
#    z -0.012330 -0.002400 1.777250 
# 
# From -- ./inp_files/395553.got.cif
#   From: 2010.06.25/outbox.cif.g09.slc.cpg/sg2_198_cif.got.tgz:395553.got - 2010.06.27 13:26:56.
