data_PCOD8012004
_publ_section_title
;
Structure prediction by ZEFSAII (Michael W. Deem and Ramdas Pophale) SiO2 
 PCOD8012004
Probable space group: P -1
;
_chemical_formula_sum "Si O2"
_cell_formula_units_Z 16
_cell_length_a 10.061344
_cell_length_b 12.159356
_cell_length_c 8.673635
_cell_angle_alpha 78.535863
_cell_angle_beta 75.326525
_cell_angle_gamma 47.202354
_cell_volume 752.685363
_symmetry_space_group_name_H-M "P -1"
_symmetry_group_IT_number 2
_symmetry_cell_setting 'triclinic'
loop_
_space_group_symop_operation_xyz
x,y,z
-x,-y,-z
loop_
_atom_site_type_symbol
_atom_site_label
_atom_site_fract_x
_atom_site_fract_y
_atom_site_fract_z
Si Si1 0.934221 0.429335 0.941419
Si Si2 0.211994 0.874053 0.487409
Si Si3 0.427102 0.898125 0.197458
Si Si4 0.185262 0.447519 0.384647
Si Si5 0.461116 0.381455 0.932454
Si Si6 0.643235 0.415416 0.620487
Si Si7 0.421537 0.802408 0.745015
Si Si8 0.726632 0.910912 0.107658
O O1 0.869482 0.522988 0.781749
O O2 0.072892 0.252919 0.910572
O O3 0.753600 0.470269 0.054766
O O4 0.000000 0.500000 0.000000
O O5 0.305322 0.934370 0.371132
O O6 0.232070 0.756815 0.405151
O O7 0.292340 0.812419 0.652956
O O8 0.000000 0.000000 0.500000
O O9 0.517705 0.738512 0.146708
O O10 0.589205 0.889440 0.209824
O O11 0.305778 0.029859 0.072352
O O12 0.231533 0.542178 0.420869
O O13 0.381106 0.271651 0.374259
O O14 0.000000 0.500000 0.500000
O O15 0.559064 0.436517 0.810554
O O16 0.540438 0.309350 0.099452
O O17 0.500000 0.500000 0.500000
O O18 0.303943 0.971348 0.795587
#
# Coordination Sequence:
#
# PCOD8012004 Si02
#       8
#     2   2   2   2   2   2   2   2
#     4  11  23  39  68 101 132 175 230 277 325 405
#     4  11  25  43  65  94 133 176 229 269 339 405
#     4   9  20  40  63  89 129 174 216 271 330 398
#     4  11  27  45  67 103 136 173 228 276 336 405
#     4   9  21  43  66  91 133 174 228 276 335 392
#     4  11  24  46  70  95 133 184 221 281 342 392
#     4  10  23  44  64  97 137 176 219 287 329 398
#     4  10  21  39  65  95 132 173 214 273 343 381
#
# _framework density 21.25722
#
# number of rings (size 3 to 8) (size 9 to 14) (size 15 to 20)
#    0.000    1.750    2.500    0.000    7.000    4.500 
#    2.250    1.875    0.000    0.000    0.000    0.000 
#    0.000    0.000    0.000    0.000    0.000    0.000 
#
# Total GULP energy -198211.618502 kJ/mol
# GULP energy per Si atom -12388.226156 kJ/mol
# Density = 2.120884 g / cm^3
# Si number density = 21.257220 Si / 1000 Ang^3
#
#
#
# Elastic Constant Matrix: (Units=GPa)
#
#
# Indices 1 2 3 4 5 6 
#
# 1 142.0739 58.5610 69.2954 4.0092 -2.7228 -8.2311
# 2 58.5610 144.8375 28.8434 19.6207 -8.7915 -20.4001
# 3 69.2954 28.8434 100.5901 4.1663 -8.1382 -15.0329
# 4 4.0092 19.6207 4.1663 24.7548 -0.1304 0.7530
# 5 -2.7228 -8.7915 -8.1382 -0.1304 36.0476 0.7026
# 6 -8.2311 -20.4001 -15.0329 0.7530 0.7026 43.3903
#
#
#
# Elastic Compliance Matrix: (Units=1/GPa)
#
#
# Indices 1 2 3 4 5 6 
#
# 1 0.012429 -0.004269 -0.007965 0.002775 -0.001843 -0.002427
# 2 -0.004269 0.010215 0.001193 -0.007731 0.002322 0.004503
# 3 -0.007965 0.001193 0.016144 -0.002496 0.003235 0.004634
# 4 0.002775 -0.007731 -0.002496 0.046628 -0.001978 -0.004750
# 5 -0.001843 0.002322 0.003235 -0.001978 0.028864 0.001430
# 6 -0.002427 0.004503 0.004634 -0.004750 0.001430 0.026368
#
#
# Mechanical properties :
#
#
# Convention : Reuss Voigt Hill
#
# Bulk Modulus (GPa) = 59.85930 77.87791 68.86861
# Shear Modulus (GPa) = 29.70933 36.22530 32.96731
#
# Velocity S-wave (km/s) = 3.74252 4.13260 3.94239
# Velocity P-wave (km/s) = 6.84806 7.71276 7.29324
#
# Compressibility (1/GPa) = 0.01670584
#
# Stress axis : x y z
#
# Youngs Moduli (GPa) = 80.46007 97.89408 61.94352
#
# Poissons Ratio (x) = 0.41788 0.49336
# Poissons Ratio (y) = 0.34346 -0.07387
# Poissons Ratio (z) = 0.64083 -0.11674
#
# Static dielectric constant tensor:
#      x y z
#    x 3.757410 -0.573430 0.044410 
#    y -0.573430 5.293390 -0.550110 
#    z 0.044410 -0.550110 3.217030 
# 
# 
# High freq. dielectric constant tensor:
#      x y z
#    x 1.831100 -0.001570 0.006430 
#    y -0.001570 1.843750 0.009060 
#    z 0.006430 0.009060 1.838580 
# 
# From -- ./inp_files/186610.got.cif
#   From: 2010.06.25/outbox.cif.g09.slc.cpg/sg2_94_cif.got.tgz:186610.got - 2010.06.27 13:26:56.
