data_PCOD8012559
_publ_section_title
;
Structure prediction by ZEFSAII (Michael W. Deem and Ramdas Pophale) SiO2 
 PCOD8012559
Probable space group: P -1
;
_chemical_formula_sum "Si O2"
_cell_formula_units_Z 14
_cell_length_a 12.208233
_cell_length_b 4.977719
_cell_length_c 12.649362
_cell_angle_alpha 55.571744
_cell_angle_beta 71.809085
_cell_angle_gamma 68.194594
_cell_volume 583.415027
_symmetry_space_group_name_H-M "P -1"
_symmetry_group_IT_number 2
_symmetry_cell_setting 'triclinic'
loop_
_space_group_symop_operation_xyz
x,y,z
-x,-y,-z
loop_
_atom_site_type_symbol
_atom_site_label
_atom_site_fract_x
_atom_site_fract_y
_atom_site_fract_z
Si Si1 0.348859 0.922557 0.476619
Si Si2 0.536294 0.609062 0.851868
Si Si3 0.541356 0.461895 0.658241
Si Si4 0.784831 0.415817 0.900488
Si Si5 0.056371 0.194936 0.128605
Si Si6 0.815552 0.190391 0.295077
Si Si7 0.297420 0.060293 0.807155
O O1 0.420614 0.607345 0.597044
O O2 0.373407 0.850965 0.360453
O O3 0.213469 0.925004 0.551986
O O4 0.382796 0.260704 0.420311
O O5 0.516251 0.377910 0.808372
O O6 0.676986 0.590340 0.815940
O O7 0.444665 0.983017 0.775280
O O8 0.500000 0.500000 0.000000
O O9 0.836874 0.719122 0.857909
O O10 0.891670 0.149027 0.872138
O O11 0.734797 0.237917 0.050966
O O12 0.956549 0.119080 0.253481
O O13 0.000000 0.500000 0.000000
O O14 0.756725 0.960648 0.287378
O O15 0.758471 0.585242 0.200567
#
# Coordination Sequence:
#
# PCOD8012559 Si02
#       7
#     2   2   2   2   2   2   2
#     4  10  22  37  62  91 121 161 209 254 310 354
#     4  10  24  41  65  94 134 163 200 251 322 388
#     4  10  21  40  61  89 126 161 201 255 308 374
#     4  11  23  40  57  91 124 170 202 243 319 378
#     4  12  22  39  62  85 126 167 210 261 301 358
#     4  12  22  36  63  90 124 154 209 261 306 354
#     4  11  21  36  59  92 126 158 192 255 316 368
#
# _framework density 23.996641
#
# number of rings (size 3 to 8) (size 9 to 14) (size 15 to 20)
#    0.000    1.143    4.286    2.143    4.000    2.286 
#    0.000    6.429    0.000    5.143    0.000    0.000 
#    0.000    0.000    0.000    0.000    0.000    0.000 
#
# Total GULP energy -173544.216716 kJ/mol
# GULP energy per Si atom -12396.015480 kJ/mol
# Density = 2.394202 g / cm^3
# Si number density = 23.996641 Si / 1000 Ang^3
#
#
#
# Elastic Constant Matrix: (Units=GPa)
#
#
# Indices 1 2 3 4 5 6 
#
# 1 97.1703 21.7010 22.3195 22.0722 -0.2226 -14.2586
# 2 21.7010 74.8666 20.3079 17.6406 -1.1509 -5.7651
# 3 22.3195 20.3079 103.6976 36.5153 -10.6875 -8.8664
# 4 22.0722 17.6406 36.5153 42.4214 -3.6933 -1.9851
# 5 -0.2226 -1.1509 -10.6875 -3.6933 39.9732 11.2339
# 6 -14.2586 -5.7651 -8.8664 -1.9851 11.2339 33.4929
#
#
#
# Elastic Compliance Matrix: (Units=1/GPa)
#
#
# Indices 1 2 3 4 5 6 
#
# 1 0.012846 -0.001961 -0.000126 -0.005685 -0.002078 0.005458
# 2 -0.001961 0.015356 -0.000917 -0.004562 -0.000662 0.001517
# 3 -0.000126 -0.000917 0.014345 -0.011614 0.002121 0.002186
# 4 -0.005685 -0.004562 -0.011614 0.038348 0.001547 -0.004526
# 5 -0.002078 -0.000662 0.002121 0.001547 0.028477 -0.009897
# 6 0.005458 0.001517 0.002186 -0.004526 -0.009897 0.036072
#
#
# Mechanical properties :
#
#
# Convention : Reuss Voigt Hill
#
# Bulk Modulus (GPa) = 27.36924 44.93236 36.15080
# Shear Modulus (GPa) = 30.55614 37.27125 33.91369
#
# Velocity S-wave (km/s) = 3.57228 3.94532 3.76342
# Velocity P-wave (km/s) = 5.33339 6.28643 5.82942
#
# Compressibility (1/GPa) = 0.03653737
#
# Stress axis : x y z
#
# Youngs Moduli (GPa) = 77.84743 65.12085 69.70846
#
# Poissons Ratio (x) = 0.12773 0.00882
# Poissons Ratio (y) = 0.15269 0.06393
# Poissons Ratio (z) = 0.00985 0.05972
#
# Static dielectric constant tensor:
#      x y z
#    x 4.611580 -0.076170 -0.086280 
#    y -0.076170 4.391230 0.373900 
#    z -0.086280 0.373900 4.505950 
# 
# 
# High freq. dielectric constant tensor:
#      x y z
#    x 1.944390 0.011460 -0.023900 
#    y 0.011460 1.957960 0.020310 
#    z -0.023900 0.020310 1.948190 
# 
# From -- ./inp_files/409807.got.cif
#   From: 2010.06.25/outbox.cif.g09.slc.cpg/sg2_205_cif.got.tgz:409807.got - 2010.06.27 13:26:56.
