data_PCOD8012791
_publ_section_title
;
Structure prediction by ZEFSAII (Michael W. Deem and Ramdas Pophale) SiO2 
 PCOD8012791
Probable space group: P -1
;
_chemical_formula_sum "Si O2"
_cell_formula_units_Z 16
_cell_length_a 26.015991
_cell_length_b 6.707344
_cell_length_c 11.901182
_cell_angle_alpha 47.771227
_cell_angle_beta 30.553033
_cell_angle_gamma 59.383290
_cell_volume 768.260166
_symmetry_space_group_name_H-M "P -1"
_symmetry_group_IT_number 2
_symmetry_cell_setting 'triclinic'
loop_
_space_group_symop_operation_xyz
x,y,z
-x,-y,-z
loop_
_atom_site_type_symbol
_atom_site_label
_atom_site_fract_x
_atom_site_fract_y
_atom_site_fract_z
Si Si1 0.936942 0.365985 0.324890
Si Si2 0.358937 0.087308 0.226908
Si Si3 0.319082 0.073536 0.567044
Si Si4 0.561985 0.452633 0.694876
Si Si5 0.095648 0.175242 0.945597
Si Si6 0.386455 0.506174 0.668495
Si Si7 0.776835 0.854331 0.740935
Si Si8 0.044483 0.394906 0.566886
O O1 0.955537 0.391907 0.413043
O O2 0.045824 0.329085 0.080696
O O3 0.849545 0.105216 0.567697
O O4 0.896902 0.631896 0.251265
O O5 0.319076 0.090414 0.426868
O O6 0.264223 0.051459 0.334501
O O7 0.408534 0.823364 0.207492
O O8 0.438057 0.372708 0.943812
O O9 0.407037 0.307742 0.364033
O O10 0.347236 0.787914 0.664141
O O11 0.206123 0.118069 0.801338
O O12 0.617421 0.545561 0.437986
O O13 0.021931 0.892972 0.159425
O O14 0.500000 0.500000 0.500000
O O15 0.312338 0.256104 0.961366
O O16 0.839192 0.620334 0.677886
O O17 0.000000 0.500000 0.500000
#
# Coordination Sequence:
#
# PCOD8012791 Si02
#       8
#     2   2   2   2   2   2   2   2
#     4  10  23  42  67  94 125 167 208 262 317 379
#     4  10  21  40  63  92 128 158 213 268 312 365
#     4  11  23  39  65  94 123 171 212 256 319 380
#     4  10  22  41  64  90 125 168 211 263 315 374
#     4  10  22  41  65  96 128 161 214 258 316 374
#     4  11  24  43  60  88 131 169 210 265 312 370
#     4  11  23  41  65  91 126 168 211 258 319 374
#     4  11  24  41  63  95 131 164 206 261 313 381
#
# _framework density 20.826277000000001
#
# number of rings (size 3 to 8) (size 9 to 14) (size 15 to 20)
#    0.000    1.500    1.250    3.000    0.000    9.500 
#    4.500    0.000    0.000    0.000    0.000    0.000 
#    0.000    0.000    0.000    0.000    0.000    0.000 
#
# Total GULP energy -198446.432557 kJ/mol
# GULP energy per Si atom -12402.902035 kJ/mol
# Density = 2.077888 g / cm^3
# Si number density = 20.826277 Si / 1000 Ang^3
#
#
#
# Elastic Constant Matrix: (Units=GPa)
#
#
# Indices 1 2 3 4 5 6 
#
# 1 128.6859 57.0290 30.2523 3.3056 5.6891 6.4992
# 2 57.0290 98.3513 31.6803 1.3772 -1.5119 0.4871
# 3 30.2523 31.6803 100.8615 1.6538 3.3375 -2.0889
# 4 3.3056 1.3772 1.6538 27.0790 -6.6822 -9.0217
# 5 5.6891 -1.5119 3.3375 -6.6822 30.3723 3.4166
# 6 6.4992 0.4871 -2.0889 -9.0217 3.4166 42.1730
#
#
#
# Elastic Compliance Matrix: (Units=1/GPa)
#
#
# Indices 1 2 3 4 5 6 
#
# 1 0.010982 -0.005929 -0.001354 -0.002221 -0.002471 -0.001966
# 2 -0.005929 0.014549 -0.002869 0.000929 0.002285 0.000617
# 3 -0.001354 -0.002869 0.011290 -0.000431 -0.001316 0.000815
# 4 -0.002221 0.000929 -0.000431 0.042233 0.008831 0.008629
# 5 -0.002471 0.002285 -0.001316 0.008831 0.035669 -0.000711
# 6 -0.001966 0.000617 0.000815 0.008629 -0.000711 0.025952
#
#
# Mechanical properties :
#
#
# Convention : Reuss Voigt Hill
#
# Bulk Modulus (GPa) = 60.54990 62.86911 61.70950
# Shear Modulus (GPa) = 30.03263 33.85401 31.94332
#
# Velocity S-wave (km/s) = 3.80156 4.03618 3.92062
# Velocity P-wave (km/s) = 6.95745 7.20929 7.08449
#
# Compressibility (1/GPa) = 0.01651530
#
# Stress axis : x y z
#
# Youngs Moduli (GPa) = 91.05522 68.73351 88.57699
#
# Poissons Ratio (x) = 0.40752 0.11996
# Poissons Ratio (y) = 0.53987 0.25417
# Poissons Ratio (z) = 0.12331 0.19723
#
# Static dielectric constant tensor:
#      x y z
#    x 3.657860 -0.107590 0.009390 
#    y -0.107590 3.853740 0.044810 
#    z 0.009390 0.044810 3.855940 
# 
# 
# High freq. dielectric constant tensor:
#      x y z
#    x 1.819020 -0.002920 -0.001550 
#    y -0.002920 1.815250 0.003130 
#    z -0.001550 0.003130 1.823180 
# 
# From -- ./inp_files/37303.got.cif
#   From: 2010.06.25/outbox.cif.g09.slc.cpg/sg2_19_cif.got.tgz:37303.got - 2010.06.27 13:26:56.
