data_PCOD8012905
_publ_section_title
;
Structure prediction by ZEFSAII (Michael W. Deem and Ramdas Pophale) SiO2 
 PCOD8012905
Probable space group: P -1
;
_chemical_formula_sum "Si O2"
_cell_formula_units_Z 14
_cell_length_a 24.194945
_cell_length_b 8.585882
_cell_length_c 9.270150
_cell_angle_alpha 45.963378
_cell_angle_beta 151.519825
_cell_angle_gamma 133.649016
_cell_volume 642.279104
_symmetry_space_group_name_H-M "P -1"
_symmetry_group_IT_number 2
_symmetry_cell_setting 'triclinic'
loop_
_space_group_symop_operation_xyz
x,y,z
-x,-y,-z
loop_
_atom_site_type_symbol
_atom_site_label
_atom_site_fract_x
_atom_site_fract_y
_atom_site_fract_z
Si Si1 0.560597 0.727787 0.418783
Si Si2 0.509995 0.848707 0.915692
Si Si3 0.779899 0.586605 0.918123
Si Si4 0.004707 0.867753 0.382371
Si Si5 0.067084 0.711540 0.929296
Si Si6 0.699910 0.319051 0.642696
Si Si7 0.740539 0.096300 0.147541
O O1 0.500000 0.500000 0.500000
O O2 0.700254 0.736396 0.714662
O O3 0.543775 0.931263 0.347638
O O4 0.497716 0.733592 0.116495
O O5 0.427385 0.680534 0.722051
O O6 0.648641 0.911834 0.146384
O O7 0.744686 0.546193 0.693391
O O8 0.917471 0.711837 0.169622
O O9 0.758360 0.342519 0.102508
O O10 0.020729 0.716629 0.654808
O O11 0.130989 0.965164 0.530271
O O12 0.946382 0.068488 0.161898
O O13 0.204976 0.698729 0.251563
O O14 0.000000 0.500000 0.000000
O O15 0.686563 0.106358 0.856235
#
# Coordination Sequence:
#
# PCOD8012905 Si02
#       7
#     2   2   2   2   2   2   2
#     4  11  23  40  60  90 122 162 210 255 306 364
#     4  11  22  41  64  89 124 164 209 252 312 364
#     4  10  21  40  64  90 126 163 202 253 315 360
#     4  10  21  42  64  89 128 162 199 262 309 356
#     4  10  22  40  63  93 121 164 210 248 309 368
#     4   9  21  39  63  91 126 159 203 258 304 369
#     4   9  20  38  66  90 123 165 206 252 308 365
#
# _framework density 21.797377999999998
#
# number of rings (size 3 to 8) (size 9 to 14) (size 15 to 20)
#    0.857    1.143    1.429    1.714    0.000    2.857 
#    2.571    1.429    0.000    0.000    0.000    0.000 
#    0.000    0.000    0.000    0.000    0.000    0.000 
#
# Total GULP energy -173544.910851 kJ/mol
# GULP energy per Si atom -12396.065061 kJ/mol
# Density = 2.174777 g / cm^3
# Si number density = 21.797378 Si / 1000 Ang^3
#
#
#
# Elastic Constant Matrix: (Units=GPa)
#
#
# Indices 1 2 3 4 5 6 
#
# 1 112.6992 49.4315 47.1493 10.2848 20.6384 12.3059
# 2 49.4315 85.2757 54.9726 20.2772 -5.9607 11.7998
# 3 47.1493 54.9726 87.4079 27.8303 13.4897 7.1880
# 4 10.2848 20.2772 27.8303 44.2082 -1.9082 -4.7924
# 5 20.6384 -5.9607 13.4897 -1.9082 41.7686 -2.1603
# 6 12.3059 11.7998 7.1880 -4.7924 -2.1603 31.3153
#
#
#
# Elastic Compliance Matrix: (Units=1/GPa)
#
#
# Indices 1 2 3 4 5 6 
#
# 1 0.014696 -0.007582 -0.001894 0.000594 -0.007857 -0.002934
# 2 -0.007582 0.026588 -0.013607 -0.001726 0.011682 -0.003374
# 3 -0.001894 -0.013607 0.026089 -0.010436 -0.010033 -0.002406
# 4 0.000594 -0.001726 -0.010436 0.030896 0.004649 0.007861
# 5 -0.007857 0.011682 -0.010033 0.004649 0.033149 0.003987
# 6 -0.002934 -0.003374 -0.002406 0.007861 0.003987 0.036388
#
#
# Mechanical properties :
#
#
# Convention : Reuss Voigt Hill
#
# Bulk Modulus (GPa) = 47.15676 65.38776 56.27226
# Shear Modulus (GPa) = 22.62005 32.38038 27.50021
#
# Velocity S-wave (km/s) = 3.22489 3.85842 3.55580
# Velocity P-wave (km/s) = 5.96219 7.06491 6.53685
#
# Compressibility (1/GPa) = 0.02120587
#
# Stress axis : x y z
#
# Youngs Moduli (GPa) = 68.04452 37.61137 38.33015
#
# Poissons Ratio (x) = 0.28518 0.07260
# Poissons Ratio (y) = 0.51594 0.52157
# Poissons Ratio (z) = 0.12888 0.51179
#
# Static dielectric constant tensor:
#      x y z
#    x 3.922980 -0.153200 0.220250 
#    y -0.153200 3.647760 -0.108210 
#    z 0.220250 -0.108210 3.866370 
# 
# 
# High freq. dielectric constant tensor:
#      x y z
#    x 1.853770 -0.005220 0.018380 
#    y -0.005220 1.839390 -0.003570 
#    z 0.018380 -0.003570 1.854910 
# 
# From -- ./inp_files/351641.got.cif
#   From: 2010.06.25/outbox.cif.g09.slc.cpg/sg2_176_cif.got.tgz:351641.got - 2010.06.27 13:26:56.
