data_PCOD8012695
_publ_section_title
;
Structure prediction by ZEFSAII (Michael W. Deem and Ramdas Pophale) SiO2 
 PCOD8012695
Probable space group: P -1
;
_chemical_formula_sum "Si O2"
_cell_formula_units_Z 16
_cell_length_a 11.252324
_cell_length_b 18.446553
_cell_length_c 16.918013
_cell_angle_alpha 33.762501
_cell_angle_beta 32.295923
_cell_angle_gamma 22.648019
_cell_volume 699.719509
_symmetry_space_group_name_H-M "P -1"
_symmetry_group_IT_number 2
_symmetry_cell_setting 'triclinic'
loop_
_space_group_symop_operation_xyz
x,y,z
-x,-y,-z
loop_
_atom_site_type_symbol
_atom_site_label
_atom_site_fract_x
_atom_site_fract_y
_atom_site_fract_z
Si Si1 0.496177 0.045234 0.718666
Si Si2 0.062430 0.436060 0.930681
Si Si3 0.293581 0.980810 0.032311
Si Si4 0.832636 0.326309 0.399411
Si Si5 0.255269 0.396686 0.610214
Si Si6 0.740821 0.772104 0.474973
Si Si7 0.908881 0.914651 0.373815
Si Si8 0.822903 0.411423 0.946860
O O1 0.505465 0.172121 0.650749
O O2 0.254424 0.175301 0.663546
O O3 0.320512 0.004993 0.902259
O O4 0.872531 0.849727 0.663351
O O5 0.191393 0.507810 0.747168
O O6 0.758419 0.500369 0.991760
O O7 0.331807 0.203217 0.981524
O O8 0.000000 0.500000 0.000000
O O9 0.126593 0.915133 0.198399
O O10 0.092545 0.178831 0.012509
O O11 0.478880 0.419784 0.491056
O O12 0.891495 0.259380 0.517323
O O13 0.035976 0.539848 0.528851
O O14 0.986227 0.464195 0.763339
O O15 0.765460 0.882203 0.419160
O O16 0.373393 0.877490 0.609307
O O17 0.500000 0.500000 0.000000
#
# Coordination Sequence:
#
# PCOD8012695 Si02
#       8
#     2   2   2   2   2   2   2   2
#     4  10  23  41  61  96 139 175 221 285 345 403
#     4  12  25  47  72 103 141 184 232 289 347 412
#     4  11  23  45  67 104 136 185 228 284 347 416
#     4  11  23  44  69  97 132 179 232 286 333 410
#     4  11  22  42  69  97 133 179 234 276 345 406
#     4  10  21  40  62  95 132 176 225 284 338 406
#     4  10  22  40  68  93 130 178 230 276 342 409
#     4  11  26  47  72 104 145 185 230 285 352 418
#
# _framework density 22.866304
#
# number of rings (size 3 to 8) (size 9 to 14) (size 15 to 20)
#    0.000    1.250    1.250    4.125    0.000    5.000 
#   15.750    0.000    0.000    0.000    0.000    0.000 
#    0.000    0.000    0.000    0.000    0.000    0.000 
#
# Total GULP energy -198209.804675 kJ/mol
# GULP energy per Si atom -12388.112792 kJ/mol
# Density = 2.281426 g / cm^3
# Si number density = 22.866304 Si / 1000 Ang^3
#
#
#
# Elastic Constant Matrix: (Units=GPa)
#
#
# Indices 1 2 3 4 5 6 
#
# 1 139.3031 44.2192 51.1774 9.6778 -0.5319 -11.0117
# 2 44.2192 109.8610 45.5493 -15.9325 8.9916 -5.3124
# 3 51.1774 45.5493 154.1632 -2.9791 12.8660 -7.6962
# 4 9.6778 -15.9325 -2.9791 38.6451 -2.9933 3.9160
# 5 -0.5319 8.9916 12.8660 -2.9933 27.2493 2.0180
# 6 -11.0117 -5.3124 -7.6962 3.9160 2.0180 31.9541
#
#
#
# Elastic Compliance Matrix: (Units=1/GPa)
#
#
# Indices 1 2 3 4 5 6 
#
# 1 0.009641 -0.003578 -0.002243 -0.004187 0.001776 0.002588
# 2 -0.003578 0.012471 -0.002189 0.005697 -0.002509 -0.000227
# 3 -0.002243 -0.002189 0.008203 -0.000069 -0.003280 0.001054
# 4 -0.004187 0.005697 -0.000069 0.029830 0.001664 -0.004273
# 5 0.001776 -0.002509 -0.003280 0.001664 0.039536 -0.003296
# 6 0.002588 -0.000227 0.001054 -0.004273 -0.003296 0.033135
#
#
# Mechanical properties :
#
#
# Convention : Reuss Voigt Hill
#
# Bulk Modulus (GPa) = 69.95533 76.13545 73.04539
# Shear Modulus (GPa) = 32.55199 37.06179 34.80689
#
# Velocity S-wave (km/s) = 3.77713 4.03029 3.90576
# Velocity P-wave (km/s) = 7.04854 7.41794 7.23560
#
# Compressibility (1/GPa) = 0.01429484
#
# Stress axis : x y z
#
# Youngs Moduli (GPa) = 103.72732 80.18911 121.90542
#
# Poissons Ratio (x) = 0.28690 0.27347
# Poissons Ratio (y) = 0.37111 0.26681
# Poissons Ratio (z) = 0.23269 0.17551
#
# Static dielectric constant tensor:
#      x y z
#    x 4.041580 0.019470 0.206830 
#    y 0.019470 4.430250 -0.061300 
#    z 0.206830 -0.061300 4.257140 
# 
# 
# High freq. dielectric constant tensor:
#      x y z
#    x 1.897210 0.002980 0.010040 
#    y 0.002980 1.913230 -0.013990 
#    z 0.010040 -0.013990 1.906060 
# 
# From -- ./inp_files/419104.got.cif
#   From: 2010.06.25/outbox.cif.g09.slc.cpg/sg2_210_cif.got.tgz:419104.got - 2010.06.27 13:26:56.
