data_PCOD8012726
_publ_section_title
;
Structure prediction by ZEFSAII (Michael W. Deem and Ramdas Pophale) SiO2 
 PCOD8012726
Probable space group: P -1
;
_chemical_formula_sum "Si O2"
_cell_formula_units_Z 14
_cell_length_a 25.518318
_cell_length_b 19.306482
_cell_length_c 9.352187
_cell_angle_alpha 145.193856
_cell_angle_beta 153.077400
_cell_angle_gamma 17.957408
_cell_volume 630.971669
_symmetry_space_group_name_H-M "P -1"
_symmetry_group_IT_number 2
_symmetry_cell_setting 'triclinic'
loop_
_space_group_symop_operation_xyz
x,y,z
-x,-y,-z
loop_
_atom_site_type_symbol
_atom_site_label
_atom_site_fract_x
_atom_site_fract_y
_atom_site_fract_z
Si Si1 0.584540 0.093213 0.920540
Si Si2 0.252699 0.299045 0.249961
Si Si3 0.568520 0.558246 0.681861
Si Si4 0.040603 0.647778 0.794361
Si Si5 0.725990 0.733918 0.071056
Si Si6 0.118828 0.071946 0.865736
Si Si7 0.338124 0.626646 0.695108
O O1 0.362468 0.293955 0.623057
O O2 0.605904 0.949753 0.815312
O O3 0.581885 0.200336 0.215120
O O4 0.797760 0.916307 0.038667
O O5 0.281121 0.323377 0.198994
O O6 0.000000 0.500000 0.000000
O O7 0.500000 0.500000 0.500000
O O8 0.534485 0.561164 0.436139
O O9 0.824512 0.372114 0.003914
O O10 0.219750 0.415208 0.931046
O O11 0.916822 0.666466 0.419733
O O12 0.862567 0.873040 0.844690
O O13 0.500000 0.000000 0.000000
O O14 0.865883 0.265875 0.556451
O O15 0.264982 0.821943 0.789374
O O16 0.500000 0.500000 0.000000
#
# Coordination Sequence:
#
# PCOD8012726 Si02
#       7
#     2   2   2   2   2   2   2
#     4  11  23  41  65  94 132 170 209 270 323 385
#     4  11  24  40  64  98 129 165 216 266 330 380
#     4  11  22  43  65  92 135 173 208 265 325 379
#     4  10  23  40  66  94 131 170 215 267 328 384
#     4  11  22  41  66  97 126 167 220 272 321 387
#     4  10  21  40  63  86 128 166 211 262 314 374
#     4  10  23  42  64  90 121 170 223 256 308 382
#
# _framework density 22.188001
#
# number of rings (size 3 to 8) (size 9 to 14) (size 15 to 20)
#    0.000    1.429    1.429    3.429    0.000   11.429 
#    2.571    2.143    0.000    0.000    0.000    0.000 
#    0.000    0.000    0.000    0.000    0.000    0.000 
#
# Total GULP energy -173574.928887 kJ/mol
# GULP energy per Si atom -12398.209206 kJ/mol
# Density = 2.213750 g / cm^3
# Si number density = 22.188001 Si / 1000 Ang^3
#
#
#
# Elastic Constant Matrix: (Units=GPa)
#
#
# Indices 1 2 3 4 5 6 
#
# 1 97.3273 28.5664 47.1324 -8.9262 9.5994 -16.3313
# 2 28.5664 79.9888 37.4644 7.4490 -10.3829 -17.9175
# 3 47.1324 37.4644 118.7011 0.2914 -8.8274 6.0561
# 4 -8.9262 7.4490 0.2914 39.9834 0.9548 -3.7447
# 5 9.5994 -10.3829 -8.8274 0.9548 41.7782 3.9217
# 6 -16.3313 -17.9175 6.0561 -3.7447 3.9217 32.1988
#
#
#
# Elastic Compliance Matrix: (Units=1/GPa)
#
#
# Indices 1 2 3 4 5 6 
#
# 1 0.017407 -0.001750 -0.007453 0.005445 -0.007144 0.010760
# 2 -0.001750 0.018503 -0.005410 -0.002960 0.003013 0.009715
# 3 -0.007453 -0.005410 0.013934 -0.001811 0.004306 -0.010146
# 4 0.005445 -0.002960 -0.001811 0.027347 -0.003469 0.005058
# 5 -0.007144 0.003013 0.004306 -0.003469 0.027931 -0.006562
# 6 0.010760 0.009715 -0.010146 0.005058 -0.006562 0.045217
#
#
# Mechanical properties :
#
#
# Convention : Reuss Voigt Hill
#
# Bulk Modulus (GPa) = 48.49883 58.03818 53.26851
# Shear Modulus (GPa) = 26.81875 34.98235 30.90055
#
# Velocity S-wave (km/s) = 3.48042 3.97499 3.73590
# Velocity P-wave (km/s) = 6.16901 6.87617 6.53216
#
# Compressibility (1/GPa) = 0.02061905
#
# Stress axis : x y z
#
# Youngs Moduli (GPa) = 57.44828 54.04437 71.76900
#
# Poissons Ratio (x) = 0.09457 0.53490
# Poissons Ratio (y) = 0.10052 0.38824
# Poissons Ratio (z) = 0.42817 0.29236
#
# Static dielectric constant tensor:
#      x y z
#    x 4.161220 -0.132560 0.021700 
#    y -0.132560 7.343380 0.081240 
#    z 0.021700 0.081240 4.243040 
# 
# 
# High freq. dielectric constant tensor:
#      x y z
#    x 1.873490 -0.017800 0.009770 
#    y -0.017800 1.865110 0.017010 
#    z 0.009770 0.017010 1.879850 
# 
# From -- ./inp_files/27471.got.cif
#   From: 2010.06.25/outbox.cif.g09.slc.cpg/sg2_14_cif.got.tgz:27471.got - 2010.06.27 13:26:56.
