data_PCOD8012297
_publ_section_title
;
Structure prediction by ZEFSAII (Michael W. Deem and Ramdas Pophale) SiO2 
 PCOD8012297
Probable space group: P -1
;
_chemical_formula_sum "Si O2"
_cell_formula_units_Z 16
_cell_length_a 18.164562
_cell_length_b 9.083467
_cell_length_c 14.440683
_cell_angle_alpha 38.416469
_cell_angle_beta 142.492668
_cell_angle_gamma 149.959978
_cell_volume 688.643865
_symmetry_space_group_name_H-M "P -1"
_symmetry_group_IT_number 2
_symmetry_cell_setting 'triclinic'
loop_
_space_group_symop_operation_xyz
x,y,z
-x,-y,-z
loop_
_atom_site_type_symbol
_atom_site_label
_atom_site_fract_x
_atom_site_fract_y
_atom_site_fract_z
Si Si1 0.041996 0.786758 0.672252
Si Si2 0.051699 0.457394 0.670833
Si Si3 0.322808 0.423613 0.929563
Si Si4 0.624920 0.906715 0.111471
Si Si5 0.265904 0.055579 0.329647
Si Si6 0.445969 0.908074 0.678140
Si Si7 0.240542 0.861071 0.203176
Si Si8 0.474534 0.743811 0.229560
O O1 0.065321 0.677001 0.653841
O O2 0.912032 0.494977 0.753650
O O3 0.206846 0.003651 0.787365
O O4 0.000000 0.000000 0.500000
O O5 0.209396 0.499994 0.804675
O O6 0.000000 0.500000 0.500000
O O7 0.910698 0.104842 0.735632
O O8 0.395823 0.578798 0.823825
O O9 0.471890 0.597379 0.062906
O O10 0.228635 0.052060 0.017038
O O11 0.608465 0.868650 0.224937
O O12 0.644076 0.203377 0.952213
O O13 0.379641 0.384565 0.330268
O O14 0.312748 0.845312 0.508774
O O15 0.281296 0.080270 0.222689
O O16 0.614154 0.124940 0.686700
O O17 0.446560 0.079990 0.682996
#
# Coordination Sequence:
#
# PCOD8012297 Si02
#       8
#     2   2   2   2   2   2   2   2
#     4  11  27  45  69  99 140 181 222 279 344 404
#     4  11  24  44  68 102 136 173 224 282 340 393
#     4  11  23  47  74  98 135 182 231 279 332 407
#     4  10  22  43  71  98 131 179 230 274 335 400
#     4  11  23  39  69  99 136 176 223 281 339 400
#     4  11  23  41  65 101 139 177 227 274 340 400
#     4  11  26  43  66 101 136 181 222 279 341 403
#     4  10  21  39  68  98 127 180 227 277 324 406
#
# _framework density 23.234069999999999
#
# number of rings (size 3 to 8) (size 9 to 14) (size 15 to 20)
#    0.000    1.250    2.500    3.375    3.500    4.000 
#    4.500    2.500    0.000    0.000    0.000    0.000 
#    0.000    0.000    0.000    0.000    0.000    0.000 
#
# Total GULP energy -198299.358726 kJ/mol
# GULP energy per Si atom -12393.709920 kJ/mol
# Density = 2.318119 g / cm^3
# Si number density = 23.234070 Si / 1000 Ang^3
#
#
#
# Elastic Constant Matrix: (Units=GPa)
#
#
# Indices 1 2 3 4 5 6 
#
# 1 78.4463 28.0130 16.1881 5.5075 5.5079 32.3630
# 2 28.0130 106.3518 63.4506 -11.8314 11.2205 30.9977
# 3 16.1881 63.4506 92.6249 -9.5370 8.5752 28.0285
# 4 5.5075 -11.8314 -9.5370 40.7719 6.9763 5.5030
# 5 5.5079 11.2205 8.5752 6.9763 33.6845 3.2324
# 6 32.3630 30.9977 28.0285 5.5030 3.2324 33.7437
#
#
#
# Elastic Compliance Matrix: (Units=1/GPa)
#
#
# Indices 1 2 3 4 5 6 
#
# 1 0.022188 -0.001155 0.004531 0.001371 -0.002380 -0.023978
# 2 -0.001155 0.018739 -0.008918 0.005438 -0.004026 -0.009200
# 3 0.004531 -0.008918 0.021016 0.004056 -0.002615 -0.014020
# 4 0.001371 0.005438 0.004056 0.030099 -0.007975 -0.013824
# 5 -0.002380 -0.004026 -0.002615 -0.007975 0.033132 0.006280
# 6 -0.023978 -0.009200 -0.014020 -0.013824 0.006280 0.074381
#
#
# Mechanical properties :
#
#
# Convention : Reuss Voigt Hill
#
# Bulk Modulus (GPa) = 19.66281 54.74739 37.20510
# Shear Modulus (GPa) = 21.96908 32.95811 27.46359
#
# Velocity S-wave (km/s) = 3.07832 3.77042 3.44181
# Velocity P-wave (km/s) = 4.59522 6.52451 5.64293
#
# Compressibility (1/GPa) = 0.05085742
#
# Stress axis : x y z
#
# Youngs Moduli (GPa) = 45.06935 53.36509 47.58323
#
# Poissons Ratio (x) = 0.06164 -0.21559
# Poissons Ratio (y) = 0.05206 0.42436
# Poissons Ratio (z) = -0.20420 0.47592
#
# Static dielectric constant tensor:
#      x y z
#    x 4.283240 0.287720 -0.124740 
#    y 0.287720 4.094560 -0.101310 
#    z -0.124740 -0.101310 4.223300 
# 
# 
# High freq. dielectric constant tensor:
#      x y z
#    x 1.923820 0.018030 -0.004660 
#    y 0.018030 1.912630 -0.008190 
#    z -0.004660 -0.008190 1.920870 
# 
# From -- ./inp_files/537584.got.cif
#   From: 2010.06.25/outbox.cif.g09.slc.cpg/sg2_269_cif.got.tgz:537584.got - 2010.06.27 13:26:56.
