data_PCOD8012608
_publ_section_title
;
Structure prediction by ZEFSAII (Michael W. Deem and Ramdas Pophale) SiO2 
 PCOD8012608
Probable space group: P -1
;
_chemical_formula_sum "Si O2"
_cell_formula_units_Z 16
_cell_length_a 20.243438
_cell_length_b 9.032528
_cell_length_c 8.665970
_cell_angle_alpha 87.011409
_cell_angle_beta 107.560057
_cell_angle_gamma 36.381634
_cell_volume 764.490088
_symmetry_space_group_name_H-M "P -1"
_symmetry_group_IT_number 2
_symmetry_cell_setting 'triclinic'
loop_
_space_group_symop_operation_xyz
x,y,z
-x,-y,-z
loop_
_atom_site_type_symbol
_atom_site_label
_atom_site_fract_x
_atom_site_fract_y
_atom_site_fract_z
Si Si1 0.752148 0.738431 0.924516
Si Si2 0.761882 0.828099 0.586239
Si Si3 0.505868 0.978249 0.320570
Si Si4 0.895620 0.801155 0.486987
Si Si5 0.316774 0.887319 0.921475
Si Si6 0.809589 0.439748 0.475823
Si Si7 0.505077 0.304774 0.199518
Si Si8 0.046269 0.803059 0.716082
O O1 0.786420 0.731729 0.780328
O O2 0.600169 0.950495 0.815018
O O3 0.871008 0.401067 0.064391
O O4 0.771513 0.836861 0.052909
O O5 0.848345 0.815945 0.615054
O O6 0.807059 0.617739 0.507316
O O7 0.603149 0.157329 0.422599
O O8 0.660696 0.645238 0.401040
O O9 0.500000 0.000000 0.500000
O O10 0.461226 0.213503 0.190882
O O11 0.000000 0.500000 0.500000
O O12 0.955767 0.848618 0.561708
O O13 0.770040 0.046849 0.265840
O O14 0.424441 0.792654 0.911210
O O15 0.379655 0.651440 0.098417
O O16 0.840169 0.355444 0.320720
O O17 0.936658 0.129627 0.674476
#
# Coordination Sequence:
#
# PCOD8012608 Si02
#       8
#     2   2   2   2   2   2   2   2
#     4  12  23  39  64  97 125 165 208 255 317 383
#     4  10  21  40  62  85 132 161 196 264 320 365
#     4  11  22  42  63  89 130 171 198 255 322 370
#     4  11  20  42  62  82 126 166 201 259 309 362
#     4  10  22  38  64  92 119 161 215 256 305 370
#     4  10  22  43  63  90 126 168 206 261 311 366
#     4   9  20  41  61  88 123 166 205 256 312 364
#     4  11  24  40  66  95 120 164 219 255 308 373
#
# _framework density 20.928985000000001
#
# number of rings (size 3 to 8) (size 9 to 14) (size 15 to 20)
#    0.000    1.500    5.000    1.500    0.000    8.500 
#    2.250    0.000    0.000    0.000    0.000    0.000 
#    0.000    0.000    0.000    0.000    0.000    0.000 
#
# Total GULP energy -198329.770979 kJ/mol
# GULP energy per Si atom -12395.610686 kJ/mol
# Density = 2.088135 g / cm^3
# Si number density = 20.928985 Si / 1000 Ang^3
#
#
#
# Elastic Constant Matrix: (Units=GPa)
#
#
# Indices 1 2 3 4 5 6 
#
# 1 76.7816 25.9750 37.3890 -1.6540 -3.8608 -15.2088
# 2 25.9750 61.6908 35.1806 -23.0905 -7.7498 -8.2512
# 3 37.3890 35.1806 133.8413 -21.9307 -22.2469 -8.5077
# 4 -1.6540 -23.0905 -21.9307 35.2159 5.6588 -0.4665
# 5 -3.8608 -7.7498 -22.2469 5.6588 36.0918 -1.2427
# 6 -15.2088 -8.2512 -8.5077 -0.4665 -1.2427 21.9961
#
#
#
# Elastic Compliance Matrix: (Units=1/GPa)
#
#
# Indices 1 2 3 4 5 6 
#
# 1 0.018826 -0.006725 -0.003994 -0.005787 -0.000682 0.008788
# 2 -0.006725 0.027064 -0.002039 0.015986 0.001506 0.005138
# 3 -0.003994 -0.002039 0.010753 0.004363 0.005114 0.001014
# 4 -0.005787 0.015986 0.004363 0.041520 -0.000851 0.004516
# 5 -0.000682 0.001506 0.005114 -0.000851 0.031375 0.003825
# 6 0.008788 0.005138 0.001014 0.004516 0.003825 0.054170
#
#
# Mechanical properties :
#
#
# Convention : Reuss Voigt Hill
#
# Bulk Modulus (GPa) = 32.12770 52.15587 42.14178
# Shear Modulus (GPa) = 22.76875 30.24536 26.50706
#
# Velocity S-wave (km/s) = 3.30192 3.80563 3.56269
# Velocity P-wave (km/s) = 5.47001 6.65469 6.09122
#
# Compressibility (1/GPa) = 0.03112579
#
# Stress axis : x y z
#
# Youngs Moduli (GPa) = 53.11864 36.94950 92.99982
#
# Poissons Ratio (x) = 0.24849 0.37148
# Poissons Ratio (y) = 0.35722 0.18962
# Poissons Ratio (z) = 0.21218 0.07534
#
# Static dielectric constant tensor:
#      x y z
#    x 109.815260 92.903560 -7.835450 
#    y 92.903560 85.284210 -7.098960 
#    z -7.835450 -7.098960 5.669510 
# 
# 
# High freq. dielectric constant tensor:
#      x y z
#    x 1.820390 -0.003980 -0.010200 
#    y -0.003980 1.804060 -0.020630 
#    z -0.010200 -0.020630 1.820000 
# 
# From -- ./inp_files/342694.got.cif
#   From: 2010.06.25/outbox.cif.g09.slc.cpg/sg2_172_cif.got.tgz:342694.got - 2010.06.27 13:26:56.
