data_PCOD8012377
_publ_section_title
;
Structure prediction by ZEFSAII (Michael W. Deem and Ramdas Pophale) SiO2 
 PCOD8012377
Probable space group: P -1
;
_chemical_formula_sum "Si O2"
_cell_formula_units_Z 16
_cell_length_a 16.218548
_cell_length_b 10.099453
_cell_length_c 11.046541
_cell_angle_alpha 115.271471
_cell_angle_beta 74.130932
_cell_angle_gamma 153.698822
_cell_volume 697.518398
_symmetry_space_group_name_H-M "P -1"
_symmetry_group_IT_number 2
_symmetry_cell_setting 'triclinic'
loop_
_space_group_symop_operation_xyz
x,y,z
-x,-y,-z
loop_
_atom_site_type_symbol
_atom_site_label
_atom_site_fract_x
_atom_site_fract_y
_atom_site_fract_z
Si Si1 0.359155 0.265394 0.348120
Si Si2 0.620049 0.900967 0.136593
Si Si3 0.375742 0.789503 0.846755
Si Si4 0.774622 0.832325 0.991377
Si Si5 0.003391 0.218914 0.283555
Si Si6 0.326898 0.915394 0.321854
Si Si7 0.315962 0.081871 0.626131
Si Si8 0.040556 0.965587 0.244576
O O1 0.500000 0.500000 0.500000
O O2 0.504594 0.526487 0.280106
O O3 0.281160 0.978489 0.269967
O O4 0.173920 0.090239 0.341937
O O5 0.691279 0.867733 0.023491
O O6 0.711330 0.049192 0.291274
O O7 0.695516 0.158030 0.137649
O O8 0.388159 0.541928 0.102834
O O9 0.186911 0.399885 0.782139
O O10 0.496608 0.906504 0.732984
O O11 0.500000 0.000000 0.000000
O O12 0.859269 0.932586 0.129421
O O13 0.927921 0.051676 0.908136
O O14 0.149948 0.536333 0.266739
O O15 0.886718 0.140874 0.397749
O O16 0.093809 0.221081 0.322182
O O17 0.373059 0.056206 0.488629
#
# Coordination Sequence:
#
# PCOD8012377 Si02
#       8
#     2   2   2   2   2   2   2   2
#     4  10  24  46  68  97 137 184 228 281 342 406
#     4  10  22  41  68 100 131 184 225 282 340 409
#     4  12  27  43  67 104 144 177 234 282 342 408
#     4  10  21  39  70  97 137 175 226 278 346 408
#     4  11  23  42  70 107 132 177 231 286 341 413
#     4  11  25  45  69  98 143 178 224 292 338 404
#     4  10  22  46  70  94 138 181 230 283 346 404
#     4  12  24  42  72 100 139 183 228 281 345 407
#
# _framework density 22.938464
#
# number of rings (size 3 to 8) (size 9 to 14) (size 15 to 20)
#    0.000    1.250    1.250    3.750    5.250    1.000 
#    2.250    5.000    0.000    0.000    0.000    0.000 
#    0.000    0.000    0.000    0.000    0.000    0.000 
#
# Total GULP energy -198315.993824 kJ/mol
# GULP energy per Si atom -12394.749614 kJ/mol
# Density = 2.288625 g / cm^3
# Si number density = 22.938464 Si / 1000 Ang^3
#
#
#
# Elastic Constant Matrix: (Units=GPa)
#
#
# Indices 1 2 3 4 5 6 
#
# 1 140.6245 51.7307 27.4924 7.8439 0.9208 -16.3033
# 2 51.7307 130.9568 14.6684 -1.5408 -12.6326 5.0661
# 3 27.4924 14.6684 79.3668 -11.9996 -9.4863 10.5168
# 4 7.8439 -1.5408 -11.9996 29.1393 8.7540 -5.6065
# 5 0.9208 -12.6326 -9.4863 8.7540 34.4780 -4.4895
# 6 -16.3033 5.0661 10.5168 -5.6065 -4.4895 49.7679
#
#
#
# Elastic Compliance Matrix: (Units=1/GPa)
#
#
# Indices 1 2 3 4 5 6 
#
# 1 0.009936 -0.003811 -0.003931 -0.003314 -0.001384 0.003975
# 2 -0.003811 0.009513 0.000257 0.000258 0.003340 -0.001941
# 3 -0.003931 0.000257 0.015615 0.006044 0.002478 -0.003709
# 4 -0.003314 0.000258 0.006044 0.040463 -0.008242 0.001426
# 5 -0.001384 0.003340 0.002478 -0.008242 0.033136 0.000744
# 6 0.003975 -0.001941 -0.003709 0.001426 0.000744 0.022605
#
#
# Mechanical properties :
#
#
# Convention : Reuss Voigt Hill
#
# Bulk Modulus (GPa) = 49.76224 59.85899 54.81062
# Shear Modulus (GPa) = 32.69338 39.81414 36.25376
#
# Velocity S-wave (km/s) = 3.77936 4.17069 3.97984
# Velocity P-wave (km/s) = 6.38637 7.02460 6.71307
#
# Compressibility (1/GPa) = 0.02009556
#
# Stress axis : x y z
#
# Youngs Moduli (GPa) = 100.63977 105.11889 64.03961
#
# Poissons Ratio (x) = 0.40062 0.25173
# Poissons Ratio (y) = 0.38355 -0.01648
# Poissons Ratio (z) = 0.39561 -0.02706
#
# Static dielectric constant tensor:
#      x y z
#    x 4.326160 -0.185500 -0.030950 
#    y -0.185500 4.559360 -0.079140 
#    z -0.030950 -0.079140 3.851160 
# 
# 
# High freq. dielectric constant tensor:
#      x y z
#    x 1.911630 -0.006400 -0.001880 
#    y -0.006400 1.918120 -0.008590 
#    z -0.001880 -0.008590 1.885690 
# 
# From -- ./inp_files/447837.got.cif
#   From: 2010.06.25/outbox.cif.g09.slc.cpg/sg2_224_cif.got.tgz:447837.got - 2010.06.27 13:26:56.
