data_PCOD8012453
_publ_section_title
;
Structure prediction by ZEFSAII (Michael W. Deem and Ramdas Pophale) SiO2 
 PCOD8012453
Probable space group: P -1
;
_chemical_formula_sum "Si O2"
_cell_formula_units_Z 14
_cell_length_a 10.608779
_cell_length_b 15.219827
_cell_length_c 14.833122
_cell_angle_alpha 160.199805
_cell_angle_beta 126.907423
_cell_angle_gamma 52.185624
_cell_volume 638.408202
_symmetry_space_group_name_H-M "P -1"
_symmetry_group_IT_number 2
_symmetry_cell_setting 'triclinic'
loop_
_space_group_symop_operation_xyz
x,y,z
-x,-y,-z
loop_
_atom_site_type_symbol
_atom_site_label
_atom_site_fract_x
_atom_site_fract_y
_atom_site_fract_z
Si Si1 0.399824 0.773943 0.641197
Si Si2 0.258477 0.432363 0.371226
Si Si3 0.984404 0.154574 0.998715
Si Si4 0.442475 0.276017 0.050860
Si Si5 0.288552 0.818591 0.224291
Si Si6 0.799013 0.273823 0.203496
Si Si7 0.378666 0.258261 0.802128
O O1 0.263092 0.714016 0.595078
O O2 0.567280 0.748478 0.745132
O O3 0.356403 0.068900 0.869204
O O4 0.410199 0.560124 0.358656
O O5 0.237848 0.457149 0.494961
O O6 0.111191 0.306425 0.150350
O O7 0.868893 0.337038 0.197562
O O8 0.874093 0.069129 0.790719
O O9 0.071426 0.909368 0.856288
O O10 0.362348 0.300163 0.942014
O O11 0.633051 0.162148 0.014158
O O12 0.435998 0.812583 0.213968
O O13 0.295462 0.015396 0.500831
O O14 0.287102 0.524113 0.973405
#
# Coordination Sequence:
#
# PCOD8012453 Si02
#       7
#     2   2   2   2   2   2   2
#     4  10  23  36  64  86 121 162 202 240 294 343
#     4  10  22  37  56  88 126 158 199 239 293 369
#     4  11  21  38  57  92 125 159 187 246 306 370
#     4  11  20  41  62  90 118 155 202 255 285 354
#     4  10  22  37  61  86 119 159 193 242 298 353
#     4  10  22  35  59  92 123 157 186 247 312 362
#     4  10  21  40  59  87 117 155 203 244 288 350
#
# _framework density 21.929545000000001
#
# number of rings (size 3 to 8) (size 9 to 14) (size 15 to 20)
#    0.000    1.714    2.857    1.286    4.000    1.714 
#    0.000    0.000    0.000    5.143    0.000    0.000 
#    0.000    0.000    0.000    0.000    0.000    0.000 
#
# Total GULP energy -173569.395640 kJ/mol
# GULP energy per Si atom -12397.813974 kJ/mol
# Density = 2.187963 g / cm^3
# Si number density = 21.929545 Si / 1000 Ang^3
#
#
#
# Elastic Constant Matrix: (Units=GPa)
#
#
# Indices 1 2 3 4 5 6 
#
# 1 67.8501 19.1975 19.4013 -13.0715 17.9258 4.6651
# 2 19.1975 90.2610 23.1325 -24.0661 12.3477 -1.8865
# 3 19.4013 23.1325 83.9856 -8.5886 11.7177 -6.9701
# 4 -13.0715 -24.0661 -8.5886 33.6809 5.4179 1.1117
# 5 17.9258 12.3477 11.7177 5.4179 33.4085 -2.7482
# 6 4.6651 -1.8865 -6.9701 1.1117 -2.7482 24.1570
#
#
#
# Elastic Compliance Matrix: (Units=1/GPa)
#
#
# Indices 1 2 3 4 5 6 
#
# 1 0.021191 0.000527 -0.002777 0.010175 -0.012799 -0.006777
# 2 0.000527 0.015762 -0.002277 0.012099 -0.007347 -0.000920
# 3 -0.002777 -0.002277 0.013962 0.001110 -0.002412 0.004062
# 4 0.010175 0.012099 0.001110 0.045643 -0.018122 -0.004862
# 5 -0.012799 -0.007347 -0.002412 -0.018122 0.043878 0.007028
# 6 -0.006777 -0.000920 0.004062 -0.004862 0.007028 0.044828
#
#
# Mechanical properties :
#
#
# Convention : Reuss Voigt Hill
#
# Bulk Modulus (GPa) = 23.88832 40.61770 32.25301
# Shear Modulus (GPa) = 24.00703 30.27363 27.14033
#
# Velocity S-wave (km/s) = 3.31227 3.71953 3.52179
# Velocity P-wave (km/s) = 5.05421 6.08348 5.59257
#
# Compressibility (1/GPa) = 0.04186146
#
# Stress axis : x y z
#
# Youngs Moduli (GPa) = 47.19037 63.44246 71.62076
#
# Poissons Ratio (x) = -0.03341 0.19886
# Poissons Ratio (y) = -0.02485 0.16309
# Poissons Ratio (z) = 0.13102 0.14447
#
# Static dielectric constant tensor:
#      x y z
#    x 4.235640 0.121170 -0.027540 
#    y 0.121170 3.662530 -0.158330 
#    z -0.027540 -0.158330 3.863850 
# 
# 
# High freq. dielectric constant tensor:
#      x y z
#    x 1.855220 0.012060 -0.000710 
#    y 0.012060 1.837400 -0.010580 
#    z -0.000710 -0.010580 1.865260 
# 
# From -- ./inp_files/64168.got.cif
#   From: 2010.06.25/outbox.cif.g09.slc.cpg/sg2_33_cif.got.tgz:64168.got - 2010.06.27 13:26:56.
