data_PCOD8012649
_publ_section_title
;
Structure prediction by ZEFSAII (Michael W. Deem and Ramdas Pophale) SiO2 
 PCOD8012649
Probable space group: P -1
;
_chemical_formula_sum "Si O2"
_cell_formula_units_Z 14
_cell_length_a 9.324679
_cell_length_b 13.164668
_cell_length_c 7.857057
_cell_angle_alpha 50.913362
_cell_angle_beta 65.725367
_cell_angle_gamma 81.167815
_cell_volume 674.798084
_symmetry_space_group_name_H-M "P -1"
_symmetry_group_IT_number 2
_symmetry_cell_setting 'triclinic'
loop_
_space_group_symop_operation_xyz
x,y,z
-x,-y,-z
loop_
_atom_site_type_symbol
_atom_site_label
_atom_site_fract_x
_atom_site_fract_y
_atom_site_fract_z
Si Si1 0.131750 0.336000 0.383664
Si Si2 0.104399 0.855834 0.759936
Si Si3 0.822380 0.273191 0.816887
Si Si4 0.557736 0.599527 0.612935
Si Si5 0.200573 0.135830 0.294941
Si Si6 0.503667 0.302474 0.817097
Si Si7 0.761681 0.393493 0.053444
O O1 0.274574 0.355661 0.427916
O O2 0.129574 0.200505 0.425544
O O3 0.966427 0.332892 0.564546
O O4 0.150307 0.457510 0.108092
O O5 0.153822 0.724337 0.781611
O O6 0.919317 0.861160 0.808674
O O7 0.214178 0.984626 0.495689
O O8 0.132522 0.847347 0.960076
O O9 0.664992 0.235057 0.818443
O O10 0.775533 0.385616 0.849172
O O11 0.529181 0.448608 0.727460
O O12 0.549686 0.694855 0.354792
O O13 0.421826 0.623282 0.787714
O O14 0.372731 0.209972 0.087198
#
# Coordination Sequence:
#
# PCOD8012649 Si02
#       7
#     2   2   2   2   2   2   2
#     4  12  22  38  68  92 122 160 205 245 308 356
#     4   9  24  43  63  85 129 155 208 247 306 356
#     4  10  23  39  61  92 127 154 202 253 298 359
#     4  11  22  39  61  95 126 157 200 255 300 363
#     4  11  23  43  65  88 120 168 199 250 305 365
#     4  11  23  38  63  93 126 158 202 250 309 352
#     4  10  21  40  62  90 122 157 198 258 289 363
#
# _framework density 20.746948
#
# number of rings (size 3 to 8) (size 9 to 14) (size 15 to 20)
#    0.857    0.571    2.857    2.571    2.000    2.857 
#    0.000    0.714    0.000    0.000    0.000    0.000 
#    0.000    0.000    0.000    0.000    0.000    0.000 
#
# Total GULP energy -173520.053456 kJ/mol
# GULP energy per Si atom -12394.289533 kJ/mol
# Density = 2.069973 g / cm^3
# Si number density = 20.746948 Si / 1000 Ang^3
#
#
#
# Elastic Constant Matrix: (Units=GPa)
#
#
# Indices 1 2 3 4 5 6 
#
# 1 110.4324 32.5901 65.6365 -12.5307 -1.7563 -12.7573
# 2 32.5901 63.8067 37.8743 2.1327 4.9881 -6.8586
# 3 65.6365 37.8743 105.7939 5.0477 -6.2422 -7.4527
# 4 -12.5307 2.1327 5.0477 36.5674 -18.1559 -4.3507
# 5 -1.7563 4.9881 -6.2422 -18.1559 37.3101 0.1663
# 6 -12.7573 -6.8586 -7.4527 -4.3507 0.1663 23.6984
#
#
#
# Elastic Compliance Matrix: (Units=1/GPa)
#
#
# Indices 1 2 3 4 5 6 
#
# 1 0.018042 -0.003426 -0.009657 0.011157 0.005086 0.007696
# 2 -0.003426 0.021595 -0.005625 -0.004512 -0.006193 0.001852
# 3 -0.009657 -0.005625 0.017590 -0.005363 0.000641 -0.002284
# 4 0.011157 -0.004512 -0.005363 0.044266 0.021723 0.010988
# 5 0.005086 -0.006193 0.000641 0.021723 0.038526 0.004865
# 6 0.007696 0.001852 -0.002284 0.010988 0.004865 0.048141
#
#
# Mechanical properties :
#
#
# Convention : Reuss Voigt Hill
#
# Bulk Modulus (GPa) = 50.47731 61.35941 55.91836
# Shear Modulus (GPa) = 21.53486 29.11066 25.32276
#
# Velocity S-wave (km/s) = 3.22526 3.74990 3.49743
# Velocity P-wave (km/s) = 6.18486 6.95617 6.58183
#
# Compressibility (1/GPa) = 0.01981088
#
# Stress axis : x y z
#
# Youngs Moduli (GPa) = 55.42575 46.30629 56.84916
#
# Poissons Ratio (x) = 0.15866 0.54900
# Poissons Ratio (y) = 0.18990 0.31979
# Poissons Ratio (z) = 0.53525 0.26048
#
# Static dielectric constant tensor:
#      x y z
#    x 3.815330 -0.059670 0.144820 
#    y -0.059670 3.560640 -0.038270 
#    z 0.144820 -0.038270 3.710330 
# 
# 
# High freq. dielectric constant tensor:
#      x y z
#    x 1.820680 -0.010280 0.003480 
#    y -0.010280 1.787430 0.000890 
#    z 0.003480 0.000890 1.813800 
# 
# From -- ./inp_files/178164.got.cif
#   From: 2010.06.25/outbox.cif.g09.slc.cpg/sg2_90_cif.got.tgz:178164.got - 2010.06.27 13:26:56.
