data_PCOD8012646
_publ_section_title
;
Structure prediction by ZEFSAII (Michael W. Deem and Ramdas Pophale) SiO2 
 PCOD8012646
Probable space group: P -1
;
_chemical_formula_sum "Si O2"
_cell_formula_units_Z 16
_cell_length_a 11.709342
_cell_length_b 17.254054
_cell_length_c 23.209132
_cell_angle_alpha 158.983809
_cell_angle_beta 149.296378
_cell_angle_gamma 26.630874
_cell_volume 744.329586
_symmetry_space_group_name_H-M "P -1"
_symmetry_group_IT_number 2
_symmetry_cell_setting 'triclinic'
loop_
_space_group_symop_operation_xyz
x,y,z
-x,-y,-z
loop_
_atom_site_type_symbol
_atom_site_label
_atom_site_fract_x
_atom_site_fract_y
_atom_site_fract_z
Si Si1 0.254318 0.285812 0.431606
Si Si2 0.886962 0.068116 0.920535
Si Si3 0.349675 0.631942 0.277852
Si Si4 0.091249 0.567827 0.442770
Si Si5 0.721422 0.720558 0.914546
Si Si6 0.293879 0.585948 0.822948
Si Si7 0.865580 0.961311 0.230803
Si Si8 0.731679 0.738987 0.806657
O O1 0.503096 0.230383 0.538411
O O2 0.273314 0.379568 0.440906
O O3 0.000000 0.500000 0.500000
O O4 0.250443 0.023547 0.249276
O O5 0.662921 0.315495 0.028129
O O6 0.027165 0.825340 0.853242
O O7 0.107381 0.116441 0.024429
O O8 0.383912 0.428036 0.197588
O O9 0.468503 0.499963 0.176390
O O10 0.051123 0.833417 0.277380
O O11 0.088340 0.825791 0.628379
O O12 0.203737 0.458174 0.352608
O O13 0.794758 0.622371 0.354738
O O14 0.808678 0.594380 0.801626
O O15 0.500000 0.000000 0.000000
O O16 0.935658 0.748975 0.064364
O O17 0.571997 0.062529 0.193539
#
# Coordination Sequence:
#
# PCOD8012646 Si02
#       8
#     2   2   2   2   2   2   2   2
#     4  11  21  36  64  94 118 155 204 257 291 370
#     4   9  18  34  63  88 110 152 204 248 295 337
#     4  12  23  40  58  95 128 153 202 252 315 353
#     4  10  21  40  62  90 118 161 209 249 299 356
#     4  10  22  38  62  87 116 165 204 245 290 367
#     4   9  18  35  58  86 118 152 195 254 292 357
#     4  11  24  37  62  91 126 163 191 257 310 356
#     4  10  21  41  65  87 120 161 214 244 290 374
#
# _framework density 21.495854000000001
#
# number of rings (size 3 to 8) (size 9 to 14) (size 15 to 20)
#    0.000    1.750    2.500    4.500    1.750    0.500 
#    0.000    3.750    0.000    3.000    0.000    0.000 
#    0.000    0.000    0.000    0.000    0.000    0.000 
#
# Total GULP energy -198256.496447 kJ/mol
# GULP energy per Si atom -12391.031028 kJ/mol
# Density = 2.144693 g / cm^3
# Si number density = 21.495854 Si / 1000 Ang^3
#
#
#
# Elastic Constant Matrix: (Units=GPa)
#
#
# Indices 1 2 3 4 5 6 
#
# 1 141.5836 32.5311 54.1191 -8.4437 -3.6401 -5.0980
# 2 32.5311 71.7498 34.5683 -21.5316 4.7368 4.7354
# 3 54.1191 34.5683 147.9314 -25.7794 7.2459 -10.7466
# 4 -8.4437 -21.5316 -25.7794 24.7008 6.9649 -3.9694
# 5 -3.6401 4.7368 7.2459 6.9649 37.6121 -0.3533
# 6 -5.0980 4.7354 -10.7466 -3.9694 -0.3533 12.8145
#
#
#
# Elastic Compliance Matrix: (Units=1/GPa)
#
#
# Indices 1 2 3 4 5 6 
#
# 1 0.009094 -0.004208 -0.003181 -0.004496 0.002867 0.001191
# 2 -0.004208 0.022451 -0.000448 0.018788 -0.006672 -0.004710
# 3 -0.003181 -0.000448 0.011697 0.014230 -0.005018 0.012979
# 4 -0.004496 0.018788 0.014230 0.080281 -0.020150 0.027515
# 5 0.002867 -0.006672 -0.005018 -0.020150 0.032347 -0.005952
# 6 0.001191 -0.004710 0.012979 0.027515 -0.005952 0.099494
#
#
# Mechanical properties :
#
#
# Convention : Reuss Voigt Hill
#
# Bulk Modulus (GPa) = 36.27413 67.07798 51.67606
# Shear Modulus (GPa) = 17.84270 31.02856 24.43563
#
# Velocity S-wave (km/s) = 2.88419 3.80342 3.37524
# Velocity P-wave (km/s) = 5.29178 7.11061 6.26753
#
# Compressibility (1/GPa) = 0.02756786
#
# Stress axis : x y z
#
# Youngs Moduli (GPa) = 109.96042 44.54238 85.49300
#
# Poissons Ratio (x) = 0.18742 0.27196
# Poissons Ratio (y) = 0.46268 0.03830
# Poissons Ratio (z) = 0.34980 0.01996
#
# Static dielectric constant tensor:
#      x y z
#    x 4.140720 0.248070 -0.318690 
#    y 0.248070 3.440720 -0.327710 
#    z -0.318690 -0.327710 4.559070 
# 
# 
# High freq. dielectric constant tensor:
#      x y z
#    x 1.845670 0.008330 -0.000700 
#    y 0.008330 1.788650 -0.017830 
#    z -0.000700 -0.017830 1.868730 
# 
# From -- ./inp_files/559164.got.cif
#   From: 2010.06.25/outbox.cif.g09.slc.cpg/sg2_280_cif.got.tgz:559164.got - 2010.06.27 13:26:56.
