data_PCOD8012178
_publ_section_title
;
Structure prediction by ZEFSAII (Michael W. Deem and Ramdas Pophale) SiO2 
 PCOD8012178
Probable space group: P -1
;
_chemical_formula_sum "Si O2"
_cell_formula_units_Z 14
_cell_length_a 8.417691
_cell_length_b 11.868076
_cell_length_c 7.988608
_cell_angle_alpha 55.569544
_cell_angle_beta 82.146278
_cell_angle_gamma 59.140197
_cell_volume 551.653293
_symmetry_space_group_name_H-M "P -1"
_symmetry_group_IT_number 2
_symmetry_cell_setting 'triclinic'
loop_
_space_group_symop_operation_xyz
x,y,z
-x,-y,-z
loop_
_atom_site_type_symbol
_atom_site_label
_atom_site_fract_x
_atom_site_fract_y
_atom_site_fract_z
Si Si1 0.005735 0.083030 0.202770
Si Si2 0.725130 0.812466 0.975355
Si Si3 0.564160 0.600417 0.123881
Si Si4 0.206574 0.783559 0.224230
Si Si5 0.924505 0.682919 0.390026
Si Si6 0.343069 0.731058 0.702106
Si Si7 0.553426 0.891145 0.422310
O O1 0.866515 0.113563 0.353701
O O2 0.100492 0.187484 0.141884
O O3 0.888597 0.125155 0.011616
O O4 0.173664 0.896416 0.297983
O O5 0.527954 0.982123 0.827649
O O6 0.712716 0.659039 0.051034
O O7 0.777354 0.798814 0.172829
O O8 0.430748 0.671710 0.248578
O O9 0.672681 0.405464 0.281478
O O10 0.443063 0.658148 0.925093
O O11 0.115552 0.681915 0.377766
O O12 0.782220 0.765435 0.498383
O O13 0.000000 0.500000 0.500000
O O14 0.459115 0.785134 0.529392
O O15 0.500000 0.000000 0.500000
#
# Coordination Sequence:
#
# PCOD8012178 Si02
#       7
#     2   2   2   2   2   2   2
#     4   9  20  37  63  91 129 165 220 264 322 385
#     4  11  25  43  70 101 130 176 226 275 322 396
#     4  10  21  39  67  93 132 172 219 266 333 389
#     4   9  19  37  64  90 124 174 212 266 323 388
#     4  11  25  46  68  97 136 176 223 274 331 391
#     4  10  21  41  62  94 134 176 208 270 337 392
#     4  12  24  43  71 100 134 174 223 272 331 395
#
# _framework density 25.378259
#
# number of rings (size 3 to 8) (size 9 to 14) (size 15 to 20)
#    0.000    1.714    1.429    2.143    8.000    2.286 
#    5.143    1.429    0.000    0.000    0.000    0.000 
#    0.000    0.000    0.000    0.000    0.000    0.000 
#
# Total GULP energy -173515.952161 kJ/mol
# GULP energy per Si atom -12393.996583 kJ/mol
# Density = 2.532050 g / cm^3
# Si number density = 25.378259 Si / 1000 Ang^3
#
#
#
# Elastic Constant Matrix: (Units=GPa)
#
#
# Indices 1 2 3 4 5 6 
#
# 1 93.0992 46.3659 14.9531 -3.7871 -23.8215 7.5882
# 2 46.3659 155.9290 35.0204 -5.0098 -18.2503 -0.0997
# 3 14.9531 35.0204 46.1049 -14.4967 -16.7634 -2.7280
# 4 -3.7871 -5.0098 -14.4967 34.2786 7.4890 -11.5939
# 5 -23.8215 -18.2503 -16.7634 7.4890 41.1579 -10.8983
# 6 7.5882 -0.0997 -2.7280 -11.5939 -10.8983 43.1337
#
#
#
# Elastic Compliance Matrix: (Units=1/GPa)
#
#
# Indices 1 2 3 4 5 6 
#
# 1 0.014204 -0.003519 0.000205 -0.000637 0.006596 -0.000999
# 2 -0.003519 0.008752 -0.006257 -0.001771 -0.000475 -0.000353
# 3 0.000205 -0.006257 0.035806 0.014794 0.011654 0.009135
# 4 -0.000637 -0.001771 0.014794 0.038866 0.000902 0.011719
# 5 0.006596 -0.000475 0.011654 0.000902 0.034764 0.008602
# 6 -0.000999 -0.000353 0.009135 0.011719 0.008602 0.029260
#
#
# Mechanical properties :
#
#
# Convention : Reuss Voigt Hill
#
# Bulk Modulus (GPa) = 25.24034 54.20131 39.72082
# Shear Modulus (GPa) = 25.77310 36.96695 31.37003
#
# Velocity S-wave (km/s) = 3.19024 3.82073 3.51963
# Velocity P-wave (km/s) = 4.85154 6.39279 5.67473
#
# Compressibility (1/GPa) = 0.03961912
#
# Stress axis : x y z
#
# Youngs Moduli (GPa) = 70.40337 114.25914 27.92824
#
# Poissons Ratio (x) = 0.40204 -0.00571
# Poissons Ratio (y) = 0.24773 0.17476
# Poissons Ratio (z) = -0.01441 0.71496
#
# Static dielectric constant tensor:
#      x y z
#    x -2.154940 0.404910 13.968180 
#    y 0.404910 4.623000 -0.967270 
#    z 13.968180 -0.967270 -23.746860 
# 
# 
# High freq. dielectric constant tensor:
#      x y z
#    x 2.017890 0.003400 -0.000660 
#    y 0.003400 2.008800 0.000770 
#    z -0.000660 0.000770 2.016060 
# 
# From -- ./inp_files/185034.got.cif
#   From: 2010.06.25/outbox.cif.g09.slc.cpg/sg2_93_cif.got.tgz:185034.got - 2010.06.27 13:26:56.
