data_PCOD8012452
_publ_section_title
;
Structure prediction by ZEFSAII (Michael W. Deem and Ramdas Pophale) SiO2 
 PCOD8012452
Probable space group: P -1
;
_chemical_formula_sum "Si O2"
_cell_formula_units_Z 16
_cell_length_a 33.324235
_cell_length_b 13.222044
_cell_length_c 5.112838
_cell_angle_alpha 93.423649
_cell_angle_beta 83.607379
_cell_angle_gamma 160.540600
_cell_volume 738.822442
_symmetry_space_group_name_H-M "P -1"
_symmetry_group_IT_number 2
_symmetry_cell_setting 'triclinic'
loop_
_space_group_symop_operation_xyz
x,y,z
-x,-y,-z
loop_
_atom_site_type_symbol
_atom_site_label
_atom_site_fract_x
_atom_site_fract_y
_atom_site_fract_z
Si Si1 0.106036 0.265804 0.669971
Si Si2 0.245774 0.296295 0.134541
Si Si3 0.716569 0.146631 0.407628
Si Si4 0.556810 0.445432 0.508901
Si Si5 0.952380 0.056684 0.059910
Si Si6 0.600903 0.321165 0.419534
Si Si7 0.287707 0.166707 0.044402
Si Si8 0.825489 0.305498 0.846589
O O1 0.228566 0.610679 0.528559
O O2 0.139626 0.232735 0.749305
O O3 0.000000 0.000000 0.500000
O O4 0.055449 0.223280 0.915106
O O5 0.346575 0.569613 0.892142
O O6 0.120415 0.059535 0.135721
O O7 0.288435 0.426012 0.414213
O O8 0.221604 0.119040 0.101782
O O9 0.769346 0.193283 0.586235
O O10 0.571419 0.804178 0.485624
O O11 0.750539 0.190311 0.100232
O O12 0.536537 0.277124 0.484140
O O13 0.605986 0.591997 0.780394
O O14 0.652266 0.708482 0.262648
O O15 0.029838 0.323444 0.207738
O O16 0.500000 0.000000 0.500000
O O17 0.184318 0.837436 0.112006
#
# Coordination Sequence:
#
# PCOD8012452 Si02
#       8
#     2   2   2   2   2   2   2   2
#     4  10  21  40  59  86 126 152 190 251 291 350
#     4  10  23  39  62  87 118 157 196 239 297 343
#     4  11  23  37  61  91 115 158 197 238 303 354
#     4  10  22  39  59  87 122 152 199 243 293 349
#     4  10  23  39  60  90 119 156 197 241 296 354
#     4  10  22  40  58  89 119 156 198 242 284 352
#     4  10  22  42  59  85 122 154 197 253 283 343
#     4  11  23  39  61  87 119 155 202 243 292 348
#
# _framework density 21.656081
#
# number of rings (size 3 to 8) (size 9 to 14) (size 15 to 20)
#    0.000    1.750    1.250    1.875    3.500    3.500 
#    0.000    0.000    0.000    6.750    0.000    0.000 
#    0.000    0.000    0.000    0.000    0.000    0.000 
#
# Total GULP energy -198393.139808 kJ/mol
# GULP energy per Si atom -12399.571238 kJ/mol
# Density = 2.160679 g / cm^3
# Si number density = 21.656081 Si / 1000 Ang^3
#
#
#
# Elastic Constant Matrix: (Units=GPa)
#
#
# Indices 1 2 3 4 5 6 
#
# 1 81.3371 50.2149 11.7268 -7.1420 29.0741 -14.6124
# 2 50.2149 69.4699 -0.3329 -6.5221 21.8594 -20.5613
# 3 11.7268 -0.3329 77.0473 2.7626 16.4399 -5.6042
# 4 -7.1420 -6.5221 2.7626 29.0973 -1.3168 17.0367
# 5 29.0741 21.8594 16.4399 -1.3168 36.9736 -0.8839
# 6 -14.6124 -20.5613 -5.6042 17.0367 -0.8839 40.0942
#
#
#
# Elastic Compliance Matrix: (Units=1/GPa)
#
#
# Indices 1 2 3 4 5 6 
#
# 1 0.025929 -0.015191 -0.001866 0.002634 -0.010484 0.000049
# 2 -0.015191 0.031868 0.005630 -0.005601 -0.009269 0.013769
# 3 -0.001866 0.005630 0.015814 -0.004755 -0.008913 0.006242
# 4 0.002634 -0.005601 -0.004755 0.047743 0.004511 -0.022765
# 5 -0.010484 -0.009269 -0.008913 0.004511 0.044637 -0.010753
# 6 0.000049 0.013769 0.006242 -0.022765 -0.010753 0.042329
#
#
# Mechanical properties :
#
#
# Convention : Reuss Voigt Hill
#
# Bulk Modulus (GPa) = 19.70169 39.00801 29.35485
# Shear Modulus (GPa) = 20.15377 32.31606 26.23492
#
# Velocity S-wave (km/s) = 3.05393 3.86714 3.48434
# Velocity P-wave (km/s) = 4.64248 6.16371 5.45637
#
# Compressibility (1/GPa) = 0.05075706
#
# Stress axis : x y z
#
# Youngs Moduli (GPa) = 38.56632 31.37910 63.23664
#
# Poissons Ratio (x) = 0.47668 0.11801
# Poissons Ratio (y) = 0.58586 -0.35602
# Poissons Ratio (z) = 0.07197 -0.17666
#
# Static dielectric constant tensor:
#      x y z
#    x 4.202390 -0.545050 0.037500 
#    y -0.545050 4.026160 0.087810 
#    z 0.037500 0.087810 4.128070 
# 
# 
# High freq. dielectric constant tensor:
#      x y z
#    x 1.846320 -0.020320 0.014290 
#    y -0.020320 1.843540 0.004680 
#    z 0.014290 0.004680 1.858450 
# 
# From -- ./inp_files/70003.got.cif
#   From: 2010.06.25/outbox.cif.g09.slc.cpg/sg2_36_cif.got.tgz:70003.got - 2010.06.27 13:26:56.
