data_PCOD8012943
_publ_section_title
;
Structure prediction by ZEFSAII (Michael W. Deem and Ramdas Pophale) SiO2 
 PCOD8012943
Probable space group: P -1
;
_chemical_formula_sum "Si O2"
_cell_formula_units_Z 16
_cell_length_a 8.683548
_cell_length_b 9.199935
_cell_length_c 15.077394
_cell_angle_alpha 39.612026
_cell_angle_beta 107.301394
_cell_angle_gamma 96.656905
_cell_volume 720.440427
_symmetry_space_group_name_H-M "P -1"
_symmetry_group_IT_number 2
_symmetry_cell_setting 'triclinic'
loop_
_space_group_symop_operation_xyz
x,y,z
-x,-y,-z
loop_
_atom_site_type_symbol
_atom_site_label
_atom_site_fract_x
_atom_site_fract_y
_atom_site_fract_z
Si Si1 0.813556 0.742299 0.429159
Si Si2 0.154759 0.718092 0.443820
Si Si3 0.627592 0.442292 0.149558
Si Si4 0.226302 0.499956 0.280308
Si Si5 0.047718 0.469679 0.917693
Si Si6 0.488692 0.885198 0.840265
Si Si7 0.561296 0.239721 0.408496
Si Si8 0.190985 0.946628 0.168924
O O1 0.807317 0.556486 0.437824
O O2 0.764477 0.660701 0.555130
O O3 0.998195 0.791228 0.446877
O O4 0.694034 0.968921 0.264774
O O5 0.315538 0.798052 0.470566
O O6 0.104551 0.846811 0.282859
O O7 0.797002 0.411334 0.135787
O O8 0.495964 0.303140 0.148190
O O9 0.666873 0.321193 0.308138
O O10 0.538211 0.715551 0.014427
O O11 0.409221 0.449343 0.297102
O O12 0.179603 0.775165 0.164683
O O13 0.106432 0.423677 0.221070
O O14 0.000000 0.500000 0.000000
O O15 0.093938 0.204845 0.016455
O O16 0.617834 0.056330 0.773420
O O17 0.500000 0.000000 0.500000
#
# Coordination Sequence:
#
# PCOD8012943 Si02
#       8
#     2   2   2   2   2   2   2   2
#     4  10  21  40  64  93 124 175 210 273 313 385
#     4  10  22  38  63  92 131 164 223 258 324 377
#     4  10  24  41  63  93 134 168 216 268 317 394
#     4  11  24  41  66  94 131 172 223 262 329 382
#     4  11  26  43  68  96 131 172 216 271 328 386
#     4  10  21  40  65  88 128 169 211 261 325 371
#     4  12  25  40  65  98 133 172 214 269 318 387
#     4  10  22  43  65  94 131 173 213 273 317 390
#
# _framework density 22.208637
#
# number of rings (size 3 to 8) (size 9 to 14) (size 15 to 20)
#    0.000    1.500    0.000    4.125    8.750    2.000 
#    0.000    9.375    0.000    0.000    0.000    0.000 
#    0.000    0.000    0.000    0.000    0.000    0.000 
#
# Total GULP energy -198314.494957 kJ/mol
# GULP energy per Si atom -12394.655935 kJ/mol
# Density = 2.215809 g / cm^3
# Si number density = 22.208637 Si / 1000 Ang^3
#
#
#
# Elastic Constant Matrix: (Units=GPa)
#
#
# Indices 1 2 3 4 5 6 
#
# 1 121.1247 43.3704 44.7788 9.4171 2.3982 2.7029
# 2 43.3704 85.3365 26.4132 4.6236 0.4847 8.4659
# 3 44.7788 26.4132 88.4871 -3.6706 2.1152 -6.8198
# 4 9.4171 4.6236 -3.6706 33.5650 0.5362 3.4383
# 5 2.3982 0.4847 2.1152 0.5362 39.9642 5.3473
# 6 2.7029 8.4659 -6.8198 3.4383 5.3473 36.5197
#
#
#
# Elastic Compliance Matrix: (Units=1/GPa)
#
#
# Indices 1 2 3 4 5 6 
#
# 1 0.011867 -0.004299 -0.004883 -0.003221 -0.000299 -0.000447
# 2 -0.004299 0.015142 -0.002682 -0.000803 0.000725 -0.003723
# 3 -0.004883 -0.002682 0.015003 0.003022 -0.000997 0.003646
# 4 -0.003221 -0.000803 0.003022 0.031339 -0.000117 -0.001944
# 5 -0.000299 0.000725 -0.000997 -0.000117 0.025631 -0.004074
# 6 -0.000447 -0.003723 0.003646 -0.001944 -0.004074 0.029739
#
#
# Mechanical properties :
#
#
# Convention : Reuss Voigt Hill
#
# Bulk Modulus (GPa) = 54.69276 58.23035 56.46156
# Shear Modulus (GPa) = 31.53723 34.03551 32.78637
#
# Velocity S-wave (km/s) = 3.77243 3.91901 3.84642
# Velocity P-wave (km/s) = 6.60721 6.83775 6.72347
#
# Compressibility (1/GPa) = 0.01828395
#
# Stress axis : x y z
#
# Youngs Moduli (GPa) = 84.26929 66.04073 66.65452
#
# Poissons Ratio (x) = 0.28392 0.32545
# Poissons Ratio (y) = 0.36229 0.17876
# Poissons Ratio (z) = 0.41146 0.17712
#
# Static dielectric constant tensor:
#      x y z
#    x 4.021560 0.085530 -0.020110 
#    y 0.085530 3.956240 -0.138000 
#    z -0.020110 -0.138000 3.987000 
# 
# 
# High freq. dielectric constant tensor:
#      x y z
#    x 1.876860 0.011160 0.003080 
#    y 0.011160 1.865160 -0.007950 
#    z 0.003080 -0.007950 1.878550 
# 
# From -- ./inp_files/259861.got.cif
#   From: 2010.06.25/outbox.cif.g09.slc.cpg/sg2_130_cif.got.tgz:259861.got - 2010.06.27 13:26:56.
