data_PCOD8012678
_publ_section_title
;
Structure prediction by ZEFSAII (Michael W. Deem and Ramdas Pophale) SiO2 
 PCOD8012678
Probable space group: P -1
;
_chemical_formula_sum "Si O2"
_cell_formula_units_Z 14
_cell_length_a 8.390937
_cell_length_b 14.049407
_cell_length_c 14.060819
_cell_angle_alpha 29.960667
_cell_angle_beta 69.847268
_cell_angle_gamma 88.131014
_cell_volume 640.088106
_symmetry_space_group_name_H-M "P -1"
_symmetry_group_IT_number 2
_symmetry_cell_setting 'triclinic'
loop_
_space_group_symop_operation_xyz
x,y,z
-x,-y,-z
loop_
_atom_site_type_symbol
_atom_site_label
_atom_site_fract_x
_atom_site_fract_y
_atom_site_fract_z
Si Si1 0.039756 0.024681 0.617142
Si Si2 0.740120 0.625743 0.355549
Si Si3 0.189008 0.499826 0.922995
Si Si4 0.293111 0.884045 0.424177
Si Si5 0.308445 0.832985 0.249877
Si Si6 0.542493 0.826836 0.689886
Si Si7 0.983630 0.948766 0.189713
O O1 0.235347 0.118667 0.428929
O O2 0.930903 0.155205 0.499897
O O3 0.115908 0.073144 0.668585
O O4 0.874900 0.750516 0.878091
O O5 0.500000 0.500000 0.500000
O O6 0.784615 0.431806 0.525565
O O7 0.797911 0.788189 0.295043
O O8 0.877048 0.783371 0.102263
O O9 0.278282 0.672464 0.664862
O O10 0.358348 0.574813 0.908293
O O11 0.000000 0.500000 0.000000
O O12 0.379267 0.900299 0.287059
O O13 0.451824 0.126619 0.238030
O O14 0.126761 0.857038 0.241119
O O15 0.500000 0.000000 0.000000
O O16 0.500000 0.000000 0.500000
#
# Coordination Sequence:
#
# PCOD8012678 Si02
#       7
#     2   2   2   2   2   2   2
#     4  11  22  42  64  89 133 158 209 259 308 379
#     4  11  22  42  67  90 128 165 217 262 318 372
#     4  11  22  41  65  91 128 167 204 256 317 368
#     4  10  23  41  63  94 125 166 210 257 313 372
#     4  11  22  43  66  92 131 166 213 265 312 377
#     4  10  21  40  62  93 126 159 208 255 306 380
#     4  10  24  41  64  97 121 173 209 262 322 371
#
# _framework density 21.871991000000001
#
# number of rings (size 3 to 8) (size 9 to 14) (size 15 to 20)
#    0.000    1.429    4.286    1.714    0.000    4.000 
#    0.000    1.429    0.000    0.000    0.000    0.000 
#    0.000    0.000    0.000    0.000    0.000    0.000 
#
# Total GULP energy -173590.757714 kJ/mol
# GULP energy per Si atom -12399.339837 kJ/mol
# Density = 2.182221 g / cm^3
# Si number density = 21.871991 Si / 1000 Ang^3
#
#
#
# Elastic Constant Matrix: (Units=GPa)
#
#
# Indices 1 2 3 4 5 6 
#
# 1 50.4537 17.0233 31.3594 -6.2885 -11.6245 13.5270
# 2 17.0233 111.5700 43.7683 4.6965 -15.7478 18.5202
# 3 31.3594 43.7683 101.2487 -12.2663 -1.2120 4.8317
# 4 -6.2885 4.6965 -12.2663 35.1587 0.4965 3.4007
# 5 -11.6245 -15.7478 -1.2120 0.4965 33.6281 -9.2344
# 6 13.5270 18.5202 4.8317 3.4007 -9.2344 40.1409
#
#
#
# Elastic Compliance Matrix: (Units=1/GPa)
#
#
# Indices 1 2 3 4 5 6 
#
# 1 0.029136 0.001350 -0.008829 0.002579 0.008232 -0.007703
# 2 0.001350 0.012659 -0.006023 -0.003224 0.005092 -0.004126
# 3 -0.008829 -0.006023 0.015588 0.004497 -0.004715 0.002412
# 4 0.002579 -0.003224 0.004497 0.031215 -0.001731 -0.002966
# 5 0.008232 0.005092 -0.004715 -0.001731 0.035879 0.003844
# 6 -0.007703 -0.004126 0.002412 -0.002966 0.003844 0.030257
#
#
# Mechanical properties :
#
#
# Convention : Reuss Voigt Hill
#
# Bulk Modulus (GPa) = 32.91758 49.73051 41.32404
# Shear Modulus (GPa) = 26.05996 33.19363 29.62680
#
# Velocity S-wave (km/s) = 3.45552 3.89991 3.68442
# Velocity P-wave (km/s) = 5.56809 6.56243 6.08560
#
# Compressibility (1/GPa) = 0.03037891
#
# Stress axis : x y z
#
# Youngs Moduli (GPa) = 34.32200 78.99326 64.15038
#
# Poissons Ratio (x) = -0.10666 0.56640
# Poissons Ratio (y) = -0.04634 0.38640
# Poissons Ratio (z) = 0.30304 0.47580
#
# Static dielectric constant tensor:
#      x y z
#    x 4.257240 0.337830 0.085660 
#    y 0.337830 4.358340 -0.276220 
#    z 0.085660 -0.276220 4.078580 
# 
# 
# High freq. dielectric constant tensor:
#      x y z
#    x 1.869050 0.009200 0.012020 
#    y 0.009200 1.870470 -0.009560 
#    z 0.012020 -0.009560 1.847850 
# 
# From -- ./inp_files/314886.got.cif
#   From: 2010.06.25/outbox.cif.g09.slc.cpg/sg2_158_cif.got.tgz:314886.got - 2010.06.27 13:26:56.
