data_PCOD8012611
_publ_section_title
;
Structure prediction by ZEFSAII (Michael W. Deem and Ramdas Pophale) SiO2 
 PCOD8012611
Probable space group: P -1
;
_chemical_formula_sum "Si O2"
_cell_formula_units_Z 16
_cell_length_a 8.677911
_cell_length_b 13.604746
_cell_length_c 12.138324
_cell_angle_alpha 73.734554
_cell_angle_beta 93.943505
_cell_angle_gamma 34.468308
_cell_volume 649.414081
_symmetry_space_group_name_H-M "P -1"
_symmetry_group_IT_number 2
_symmetry_cell_setting 'triclinic'
loop_
_space_group_symop_operation_xyz
x,y,z
-x,-y,-z
loop_
_atom_site_type_symbol
_atom_site_label
_atom_site_fract_x
_atom_site_fract_y
_atom_site_fract_z
Si Si1 0.575835 0.121463 0.429089
Si Si2 0.573543 0.877461 0.943421
Si Si3 0.210012 0.246074 0.689641
Si Si4 0.195703 0.985160 0.294997
Si Si5 0.782700 0.127162 0.056595
Si Si6 0.376550 0.537909 0.818339
Si Si7 0.983027 0.693783 0.565449
Si Si8 0.214096 0.503117 0.193248
O O1 0.269029 0.228520 0.404870
O O2 0.491032 0.252917 0.286827
O O3 0.692756 0.115490 0.546171
O O4 0.864991 0.879191 0.480665
O O5 0.417238 0.859351 0.958979
O O6 0.418010 0.018544 0.782318
O O7 0.967443 0.633145 0.036815
O O8 0.500000 0.000000 0.000000
O O9 0.967516 0.383139 0.529263
O O10 0.985409 0.399771 0.734378
O O11 0.483363 0.174122 0.710605
O O12 0.003144 0.007958 0.214787
O O13 0.960057 0.222399 0.223027
O O14 0.543383 0.365896 0.970006
O O15 0.000000 0.000000 0.000000
O O16 0.627190 0.478994 0.811766
O O17 0.309418 0.509948 0.712798
#
# Coordination Sequence:
#
# PCOD8012611 Si02
#       8
#     2   2   2   2   2   2   2   2
#     4   9  20  39  61  87 123 163 200 245 301 362
#     4  10  22  39  58  87 122 154 195 250 305 354
#     4  10  21  40  62  86 122 159 202 252 297 355
#     4  10  23  42  62  88 126 164 200 245 303 367
#     4  12  23  39  66  92 121 160 205 253 304 359
#     4  11  24  41  61  91 128 161 200 249 303 365
#     4   9  20  38  60  87 122 163 202 242 300 365
#     4  11  22  38  61  88 123 158 200 256 302 348
#
# _framework density 24.637591
#
# number of rings (size 3 to 8) (size 9 to 14) (size 15 to 20)
#    0.000    1.750    0.000    5.625    0.000    7.500 
#    0.000    1.875    0.000    0.000    0.000    0.000 
#    0.000    0.000    0.000    0.000    0.000    0.000 
#
# Total GULP energy -198342.179904 kJ/mol
# GULP energy per Si atom -12396.386244 kJ/mol
# Density = 2.458151 g / cm^3
# Si number density = 24.637591 Si / 1000 Ang^3
#
#
#
# Elastic Constant Matrix: (Units=GPa)
#
#
# Indices 1 2 3 4 5 6 
#
# 1 127.9455 1.3806 42.4467 -1.0183 25.6255 16.8423
# 2 1.3806 39.8879 -22.2838 1.7750 12.1685 -3.4136
# 3 42.4467 -22.2838 89.1366 -4.6104 25.7648 10.6140
# 4 -1.0183 1.7750 -4.6104 25.5207 11.0718 -2.1660
# 5 25.6255 12.1685 25.7648 11.0718 46.8622 -5.7120
# 6 16.8423 -3.4136 10.6140 -2.1660 -5.7120 29.8112
#
#
#
# Elastic Compliance Matrix: (Units=1/GPa)
#
#
# Indices 1 2 3 4 5 6 
#
# 1 0.010635 -0.001291 -0.003243 0.001501 -0.004759 -0.005805
# 2 -0.001291 0.042275 0.019255 0.010442 -0.023948 -0.005115
# 3 -0.003243 0.019255 0.025103 0.011361 -0.020692 -0.008040
# 4 0.001501 0.010442 0.011361 0.049776 -0.022064 -0.004308
# 5 -0.004759 -0.023948 -0.020692 -0.022064 0.048580 0.015019
# 6 -0.005805 -0.005115 -0.008040 -0.004308 0.015019 0.041665
#
#
# Mechanical properties :
#
#
# Convention : Reuss Voigt Hill
#
# Bulk Modulus (GPa) = 9.30623 33.33965 21.32294
# Shear Modulus (GPa) = 22.28060 36.13392 29.20726
#
# Velocity S-wave (km/s) = 3.01048 3.83380 3.44681
# Velocity P-wave (km/s) = 3.98364 5.75836 4.95117
#
# Compressibility (1/GPa) = 0.10745489
#
# Stress axis : x y z
#
# Youngs Moduli (GPa) = 94.03126 23.65450 39.83660
#
# Poissons Ratio (x) = 0.03054 0.12917
# Poissons Ratio (y) = 0.12141 -0.76705
# Poissons Ratio (z) = 0.30490 -0.45547
#
# Static dielectric constant tensor:
#      x y z
#    x 4.182770 0.244340 0.114840 
#    y 0.244340 4.166850 -0.262770 
#    z 0.114840 -0.262770 5.197320 
# 
# 
# High freq. dielectric constant tensor:
#      x y z
#    x 1.974540 0.007240 0.008280 
#    y 0.007240 1.956360 -0.004310 
#    z 0.008280 -0.004310 2.001830 
# 
# From -- ./inp_files/504095.got.cif
#   From: 2010.06.25/outbox.cif.g09.slc.cpg/sg2_253_cif.got.tgz:504095.got - 2010.06.27 13:26:56.
