data_PCOD8012198
_publ_section_title
;
Structure prediction by ZEFSAII (Michael W. Deem and Ramdas Pophale) SiO2 
 PCOD8012198
Probable space group: P -1
;
_chemical_formula_sum "Si O2"
_cell_formula_units_Z 16
_cell_length_a 13.197890
_cell_length_b 14.982050
_cell_length_c 8.677333
_cell_angle_alpha 116.567531
_cell_angle_beta 39.772043
_cell_angle_gamma 137.424337
_cell_volume 714.138903
_symmetry_space_group_name_H-M "P -1"
_symmetry_group_IT_number 2
_symmetry_cell_setting 'triclinic'
loop_
_space_group_symop_operation_xyz
x,y,z
-x,-y,-z
loop_
_atom_site_type_symbol
_atom_site_label
_atom_site_fract_x
_atom_site_fract_y
_atom_site_fract_z
Si Si1 0.465913 0.772303 0.017590
Si Si2 0.767552 0.497220 0.048191
Si Si3 0.673951 0.614602 0.001742
Si Si4 0.484454 0.017700 0.709553
Si Si5 0.862533 0.796558 0.644277
Si Si6 0.688222 0.943973 0.612038
Si Si7 0.001271 0.251500 0.848242
Si Si8 0.612236 0.694810 0.424587
O O1 0.242020 0.620558 0.101545
O O2 0.646006 0.762590 0.819924
O O3 0.534447 0.882641 0.894069
O O4 0.447415 0.835085 0.237730
O O5 0.962360 0.617056 0.030224
O O6 0.548604 0.417694 0.343883
O O7 0.781415 0.571483 0.937941
O O8 0.849551 0.747552 0.794592
O O9 0.500000 0.500000 0.000000
O O10 0.546045 0.632294 0.282352
O O11 0.660183 0.028356 0.604227
O O12 0.500000 0.000000 0.500000
O O13 0.246977 0.888563 0.952796
O O14 0.917909 0.730893 0.408540
O O15 0.064455 0.959959 0.542470
O O16 0.618900 0.816301 0.501162
O O17 0.146325 0.243468 0.781041
#
# Coordination Sequence:
#
# PCOD8012198 Si02
#       8
#     2   2   2   2   2   2   2   2
#     4  11  22  45  66  97 130 166 214 269 323 382
#     4  10  21  39  68  98 132 166 205 273 327 379
#     4  11  20  33  60 101 131 157 203 270 331 376
#     4  12  29  44  64  89 135 177 221 262 315 379
#     4  12  22  37  72  99 126 162 218 268 326 377
#     4  11  24  42  64  93 125 176 215 261 317 384
#     4  11  21  43  66  96 128 170 210 264 324 384
#     4  10  21  39  67  95 132 159 219 267 324 378
#
# _framework density 22.404605
#
# number of rings (size 3 to 8) (size 9 to 14) (size 15 to 20)
#    0.000    1.000    5.000    3.750    5.250    0.500 
#    0.000    3.125    2.750    0.000    0.000    0.000 
#    0.000    0.000    0.000    0.000    0.000    0.000 
#
# Total GULP energy -198233.538544 kJ/mol
# GULP energy per Si atom -12389.596159 kJ/mol
# Density = 2.235361 g / cm^3
# Si number density = 22.404605 Si / 1000 Ang^3
#
#
#
# Elastic Constant Matrix: (Units=GPa)
#
#
# Indices 1 2 3 4 5 6 
#
# 1 67.5623 15.2725 25.4939 3.6261 23.1814 0.4539
# 2 15.2725 125.1481 32.3355 22.9073 15.4484 11.9572
# 3 25.4939 32.3355 78.0328 22.5346 30.3230 1.5912
# 4 3.6261 22.9073 22.5346 31.7398 8.8018 12.0628
# 5 23.1814 15.4484 30.3230 8.8018 41.7152 -1.3033
# 6 0.4539 11.9572 1.5912 12.0628 -1.3033 31.7597
#
#
#
# Elastic Compliance Matrix: (Units=1/GPa)
#
#
# Indices 1 2 3 4 5 6 
#
# 1 0.019117 -0.000917 -0.003711 0.004096 -0.008502 -0.001647
# 2 -0.000917 0.009740 -0.002144 -0.004519 -0.000644 -0.001857
# 3 -0.003711 -0.002144 0.022718 -0.012710 -0.010848 0.004104
# 4 0.004096 -0.004519 -0.012710 0.050492 -0.002549 -0.017003
# 5 -0.008502 -0.000644 -0.010848 -0.002549 0.037465 0.003413
# 6 -0.001647 -0.001857 0.004104 -0.017003 0.003413 0.038601
#
#
# Mechanical properties :
#
#
# Convention : Reuss Voigt Hill
#
# Bulk Modulus (GPa) = 26.29386 46.32743 36.31065
# Shear Modulus (GPa) = 24.46729 34.21903 29.34316
#
# Velocity S-wave (km/s) = 3.30823 3.91234 3.62289
# Velocity P-wave (km/s) = 5.13360 6.41335 5.80883
#
# Compressibility (1/GPa) = 0.03803169
#
# Stress axis : x y z
#
# Youngs Moduli (GPa) = 52.30901 102.66595 44.01817
#
# Poissons Ratio (x) = 0.09415 0.16336
# Poissons Ratio (y) = 0.04797 0.09436
# Poissons Ratio (z) = 0.19413 0.22007
#
# Static dielectric constant tensor:
#      x y z
#    x 14.094880 -4.966290 12.731230 
#    y -4.966290 7.227390 -6.152890 
#    z 12.731230 -6.152890 18.931640 
# 
# 
# High freq. dielectric constant tensor:
#      x y z
#    x 1.860260 0.018750 0.029630 
#    y 0.018750 1.905870 0.011050 
#    z 0.029630 0.011050 1.862490 
# 
# From -- ./inp_files/308629.got.cif
#   From: 2010.06.25/outbox.cif.g09.slc.cpg/sg2_155_cif.got.tgz:308629.got - 2010.06.27 13:26:56.
