data_PCOD8012528
_publ_section_title
;
Structure prediction by ZEFSAII (Michael W. Deem and Ramdas Pophale) SiO2 
 PCOD8012528
Probable space group: P -1
;
_chemical_formula_sum "Si O2"
_cell_formula_units_Z 16
_cell_length_a 6.500044
_cell_length_b 25.196578
_cell_length_c 5.996778
_cell_angle_alpha 48.855267
_cell_angle_beta 98.595426
_cell_angle_gamma 83.400575
_cell_volume 700.659846
_symmetry_space_group_name_H-M "P -1"
_symmetry_group_IT_number 2
_symmetry_cell_setting 'triclinic'
loop_
_space_group_symop_operation_xyz
x,y,z
-x,-y,-z
loop_
_atom_site_type_symbol
_atom_site_label
_atom_site_fract_x
_atom_site_fract_y
_atom_site_fract_z
Si Si1 0.031204 0.337441 0.625413
Si Si2 0.389393 0.583603 0.960871
Si Si3 0.240925 0.453037 0.222809
Si Si4 0.219156 0.702956 0.924672
Si Si5 0.195858 0.841218 0.777053
Si Si6 0.441660 0.951154 0.434641
Si Si7 0.794596 0.913923 0.233490
Si Si8 0.053566 0.201078 0.759259
O O1 0.211861 0.381791 0.544852
O O2 0.150466 0.257463 0.758033
O O3 0.812779 0.378034 0.340470
O O4 0.964674 0.324773 0.901828
O O5 0.618301 0.574080 0.902455
O O6 0.396009 0.630256 0.058670
O O7 0.361106 0.503235 0.244761
O O8 0.000000 0.500000 0.000000
O O9 0.308692 0.755397 0.961131
O O10 0.126330 0.750985 0.564886
O O11 0.369714 0.885698 0.720689
O O12 0.042165 0.884856 0.433097
O O13 0.062720 0.844167 0.973873
O O14 0.646528 0.910272 0.431034
O O15 0.500000 0.000000 0.500000
O O16 0.258512 0.003709 0.100351
O O17 0.760604 0.858395 0.185374
#
# Coordination Sequence:
#
# PCOD8012528 Si02
#       8
#     2   2   2   2   2   2   2   2
#     4   9  18  35  55  80 111 144 184 230 278 329
#     4   9  18  35  55  81 112 144 184 227 276 332
#     4   9  18  34  56  80 113 148 180 227 278 325
#     4   9  19  36  57  81 110 146 189 232 279 335
#     4  10  21  40  61  82 114 151 187 237 290 336
#     4  11  24  38  57  87 117 148 191 237 285 344
#     4  10  22  39  59  85 114 149 191 234 284 345
#     4   9  19  37  59  81 111 148 189 234 280 333
#
# _framework density 22.835616000000002
#
# number of rings (size 3 to 8) (size 9 to 14) (size 15 to 20)
#    0.000    2.500    0.000    1.125    0.000    7.500 
#    0.000   23.125    0.000    0.000    0.000    0.000 
#    0.000    0.000    0.000    0.000    0.000    0.000 
#
# Total GULP energy -198265.906789 kJ/mol
# GULP energy per Si atom -12391.619174 kJ/mol
# Density = 2.278364 g / cm^3
# Si number density = 22.835616 Si / 1000 Ang^3
#
#
#
# Elastic Constant Matrix: (Units=GPa)
#
#
# Indices 1 2 3 4 5 6 
#
# 1 95.0102 79.7672 36.8676 -11.9916 -38.0620 2.8980
# 2 79.7672 204.7511 40.5976 -7.1689 -39.0062 -22.6190
# 3 36.8676 40.5976 73.5591 -6.1396 -38.7325 13.1499
# 4 -11.9916 -7.1689 -6.1396 31.7073 6.8041 -8.0436
# 5 -38.0620 -39.0062 -38.7325 6.8041 40.4522 -8.5753
# 6 2.8980 -22.6190 13.1499 -8.0436 -8.5753 34.6637
#
#
#
# Elastic Compliance Matrix: (Units=1/GPa)
#
#
# Indices 1 2 3 4 5 6 
#
# 1 0.021267 -0.005736 0.000420 0.003465 0.013998 -0.001413
# 2 -0.005736 0.008976 -0.001824 0.000877 0.003057 0.007988
# 3 0.000420 -0.001824 0.028440 -0.001661 0.024819 -0.006259
# 4 0.003465 0.000877 -0.001661 0.035272 -0.001571 0.008709
# 5 0.013998 0.003057 0.024819 -0.001571 0.066455 0.007485
# 6 -0.001413 0.007988 -0.006259 0.008709 0.007485 0.040426
#
#
# Mechanical properties :
#
#
# Convention : Reuss Voigt Hill
#
# Bulk Modulus (GPa) = 22.52181 76.42056 49.47118
# Shear Modulus (GPa) = 21.74697 35.77051 28.75874
#
# Velocity S-wave (km/s) = 3.08933 3.96212 3.55263
# Velocity P-wave (km/s) = 4.75492 7.38033 6.20800
#
# Compressibility (1/GPa) = 0.04440141
#
# Stress axis : x y z
#
# Youngs Moduli (GPa) = 47.02205 111.40773 35.16209
#
# Poissons Ratio (x) = 0.63908 -0.01476
# Poissons Ratio (y) = 0.26974 0.06413
# Poissons Ratio (z) = -0.01974 0.20320
#
# Static dielectric constant tensor:
#      x y z
#    x 3.718130 -0.085740 -0.225180 
#    y -0.085740 4.763860 -0.392410 
#    z -0.225180 -0.392410 4.201440 
# 
# 
# High freq. dielectric constant tensor:
#      x y z
#    x 1.865040 -0.012450 -0.014580 
#    y -0.012450 1.920020 -0.015830 
#    z -0.014580 -0.015830 1.904160 
# 
# From -- ./inp_files/14292.got.cif
#   From: 2010.06.25/outbox.cif.g09.slc.cpg/sg2_8_cif.got.tgz:14292.got - 2010.06.27 13:26:56.
