data_PCOD8012393
_publ_section_title
;
Structure prediction by ZEFSAII (Michael W. Deem and Ramdas Pophale) SiO2 
 PCOD8012393
Probable space group: P -1
;
_chemical_formula_sum "Si O2"
_cell_formula_units_Z 16
_cell_length_a 15.489020
_cell_length_b 9.000052
_cell_length_c 28.548122
_cell_angle_alpha 36.886763
_cell_angle_beta 157.605226
_cell_angle_gamma 145.550960
_cell_volume 844.667535
_symmetry_space_group_name_H-M "P -1"
_symmetry_group_IT_number 2
_symmetry_cell_setting 'triclinic'
loop_
_space_group_symop_operation_xyz
x,y,z
-x,-y,-z
loop_
_atom_site_type_symbol
_atom_site_label
_atom_site_fract_x
_atom_site_fract_y
_atom_site_fract_z
Si Si1 0.890720 0.740791 0.650060
Si Si2 0.144724 0.174470 0.132063
Si Si3 0.724163 0.746944 0.975392
Si Si4 0.620903 0.168996 0.770112
Si Si5 0.907587 0.333467 0.137758
Si Si6 0.539976 0.145314 0.631338
Si Si7 0.767927 0.247660 0.992787
Si Si8 0.608678 0.046663 0.198208
O O1 0.006418 0.821407 0.739724
O O2 0.754838 0.424118 0.655540
O O3 0.705701 0.892272 0.510810
O O4 0.102593 0.834668 0.693723
O O5 0.212460 0.446929 0.068357
O O6 0.381363 0.101608 0.281594
O O7 0.005058 0.216528 0.097169
O O8 0.978074 0.918888 0.083918
O O9 0.494765 0.719225 0.901523
O O10 0.703337 0.912257 0.876859
O O11 0.723854 0.456972 0.038132
O O12 0.856220 0.438538 0.823663
O O13 0.478180 0.150712 0.654444
O O14 0.459358 0.155330 0.739741
O O15 0.761935 0.142401 0.070093
O O16 0.521814 0.098487 0.878158
#
# Coordination Sequence:
#
# PCOD8012393 Si02
#       8
#     2   2   2   2   2   2   2   2
#     4  10  22  36  50  77 110 142 177 207 254 314
#     4  10  16  33  55  83 102 129 178 225 253 303
#     4   9  16  29  55  82 102 126 174 225 265 285
#     4   9  16  29  54  78 100 129 171 222 255 290
#     4  11  17  31  55  78 108 138 175 206 254 321
#     4  10  20  35  58  76  98 144 184 212 248 307
#     4  10  19  30  54  84 107 130 167 219 275 303
#     4   9  21  34  49  83 113 129 165 223 271 304
#
# _framework density 18.942364000000001
#
# number of rings (size 3 to 8) (size 9 to 14) (size 15 to 20)
#    0.750    1.500    3.750    1.875    0.000    1.500 
#    0.000    1.250    0.000    0.000    0.000    0.000 
#    0.000    0.000    0.000    0.000    0.000    0.000 
#
# Total GULP energy -198227.091735 kJ/mol
# GULP energy per Si atom -12389.193233 kJ/mol
# Density = 1.889925 g / cm^3
# Si number density = 18.942364 Si / 1000 Ang^3
#
#
#
# Elastic Constant Matrix: (Units=GPa)
#
#
# Indices 1 2 3 4 5 6 
#
# 1 87.4054 33.4629 57.7645 3.6647 -0.0245 -2.3741
# 2 33.4629 24.6579 30.4853 -0.3058 3.7512 -2.4910
# 3 57.7645 30.4853 119.9415 -9.1855 0.3386 8.3130
# 4 3.6647 -0.3058 -9.1855 18.3794 7.6920 3.7722
# 5 -0.0245 3.7512 0.3386 7.6920 25.7328 6.4846
# 6 -2.3741 -2.4910 8.3130 3.7722 6.4846 22.7439
#
#
#
# Elastic Compliance Matrix: (Units=1/GPa)
#
#
# Indices 1 2 3 4 5 6 
#
# 1 0.028871 -0.031673 -0.007069 -0.013718 0.008327 0.002030
# 2 -0.031673 0.102620 -0.011336 0.007867 -0.021448 0.016887
# 3 -0.007069 -0.011336 0.016155 0.011067 0.000619 -0.009896
# 4 -0.013718 0.007867 0.011067 0.073661 -0.020560 -0.010970
# 5 0.008327 -0.021448 0.000619 -0.020560 0.051396 -0.012950
# 6 0.002030 0.016887 -0.009896 -0.010970 -0.012950 0.055158
#
#
# Mechanical properties :
#
#
# Convention : Reuss Voigt Hill
#
# Bulk Modulus (GPa) = 21.05734 52.82557 36.94145
# Shear Modulus (GPa) = 11.26513 20.72402 15.99458
#
# Velocity S-wave (km/s) = 2.44130 3.31124 2.90898
# Velocity P-wave (km/s) = 4.36890 6.52435 5.55223
#
# Compressibility (1/GPa) = 0.04748939
#
# Stress axis : x y z
#
# Youngs Moduli (GPa) = 34.63654 9.74473 61.90110
#
# Poissons Ratio (x) = 0.30864 0.43758
# Poissons Ratio (y) = 1.09704 0.70172
# Poissons Ratio (z) = 0.24485 0.11047
#
# Static dielectric constant tensor:
#      x y z
#    x 3.502710 0.035100 -0.099260 
#    y 0.035100 3.062110 -0.077790 
#    z -0.099260 -0.077790 3.391550 
# 
# 
# High freq. dielectric constant tensor:
#      x y z
#    x 1.743070 0.004850 -0.004670 
#    y 0.004850 1.696450 -0.000500 
#    z -0.004670 -0.000500 1.718700 
# 
# From -- ./inp_files/530983.got.cif
#   From: 2010.06.25/outbox.cif.g09.slc.cpg/sg2_266_cif.got.tgz:530983.got - 2010.06.27 13:26:56.
