data_PCOD8012137
_publ_section_title
;
Structure prediction by ZEFSAII (Michael W. Deem and Ramdas Pophale) SiO2 
 PCOD8012137
Probable space group: P -1
;
_chemical_formula_sum "Si O2"
_cell_formula_units_Z 12
_cell_length_a 11.881595
_cell_length_b 9.516882
_cell_length_c 9.185386
_cell_angle_alpha 98.133325
_cell_angle_beta 122.390024
_cell_angle_gamma 39.436489
_cell_volume 480.032505
_symmetry_space_group_name_H-M "P -1"
_symmetry_group_IT_number 2
_symmetry_cell_setting 'triclinic'
loop_
_space_group_symop_operation_xyz
x,y,z
-x,-y,-z
loop_
_atom_site_type_symbol
_atom_site_label
_atom_site_fract_x
_atom_site_fract_y
_atom_site_fract_z
Si Si1 0.047028 0.776804 0.353310
Si Si2 0.310163 0.319344 0.267648
Si Si3 0.246969 0.076732 0.279820
Si Si4 0.912136 0.139328 0.109248
Si Si5 0.464326 0.377695 0.803728
Si Si6 0.512642 0.152560 0.072846
O O1 0.158463 0.576411 0.277366
O O2 0.222062 0.637535 0.592477
O O3 0.025397 0.951176 0.294398
O O4 0.793156 0.943031 0.257064
O O5 0.167394 0.296336 0.183368
O O6 0.357865 0.320357 0.134917
O O7 0.571097 0.062020 0.481948
O O8 0.005955 0.217343 0.197226
O O9 0.367485 0.874677 0.209618
O O10 0.620168 0.382367 0.949259
O O11 0.000000 0.000000 0.000000
O O12 0.389824 0.358613 0.893763
O O13 0.500000 0.000000 0.000000
#
# Coordination Sequence:
#
# PCOD8012137 Si02
#       6
#     2   2   2   2   2   2
#     4  10  23  42  69  93 126 172 212 258 324 377
#     4  10  21  39  66  99 125 164 217 262 317 380
#     4   9  18  38  63  94 133 162 207 271 313 369
#     4   9  19  38  67  92 128 170 209 263 312 378
#     4   9  19  39  61  93 124 167 215 251 316 381
#     4  11  22  41  63  95 136 161 207 275 316 371
#
# _framework density 24.998307
#
# number of rings (size 3 to 8) (size 9 to 14) (size 15 to 20)
#    0.000    2.333    1.667    0.000    0.000    7.333 
#    0.000    6.667    0.000   17.000    0.000    0.000 
#    0.000    0.000    0.000    0.000    0.000    0.000 
#
# Total GULP energy -148806.921870 kJ/mol
# GULP energy per Si atom -12400.576822 kJ/mol
# Density = 2.494141 g / cm^3
# Si number density = 24.998307 Si / 1000 Ang^3
#
#
#
# Elastic Constant Matrix: (Units=GPa)
#
#
# Indices 1 2 3 4 5 6 
#
# 1 229.6354 48.6579 110.3118 5.5591 2.6592 6.6490
# 2 48.6579 62.1969 39.3797 2.3431 3.2345 -20.1193
# 3 110.3118 39.3797 142.6865 -38.3857 -14.6007 9.9596
# 4 5.5591 2.3431 -38.3857 17.4746 -6.6502 8.0821
# 5 2.6592 3.2345 -14.6007 -6.6502 41.7816 10.9323
# 6 6.6490 -20.1193 9.9596 8.0821 10.9323 23.2405
#
#
#
# Elastic Compliance Matrix: (Units=1/GPa)
#
#
# Indices 1 2 3 4 5 6 
#
# 1 0.007006 -0.008578 -0.001260 0.002542 0.003124 -0.011243
# 2 -0.008578 0.015343 0.009696 0.024562 0.006683 -0.000105
# 3 -0.001260 0.009696 -0.001750 -0.017515 -0.009294 0.019967
# 4 0.002542 0.024562 -0.017515 -0.013323 -0.021500 0.042789
# 5 0.003124 0.006683 -0.009294 -0.021500 0.013991 0.009770
# 6 -0.011243 -0.000105 0.019967 0.042789 0.009770 0.018121
#
#
# Mechanical properties :
#
#
# Convention : Reuss Voigt Hill
#
# Bulk Modulus (GPa) = 49.22640 92.35753 70.79196
# Shear Modulus (GPa) = 107.65681 32.24398 69.95039
#
# Velocity S-wave (km/s) = 6.56956 3.59534 5.29555
# Velocity P-wave (km/s) = 8.79091 7.36621 8.10991
#
# Compressibility (1/GPa) = 0.02031430
#
# Stress axis : x y z
#
# Youngs Moduli (GPa) = 142.74225 65.17734 -571.48488
#
# Poissons Ratio (x) = 0.55908 -0.72034
# Poissons Ratio (y) = 1.22442 5.54120
# Poissons Ratio (z) = 0.17992 -0.63197
#
# Static dielectric constant tensor:
#      x y z
#    x 5.225630 0.082830 0.383280 
#    y 0.082830 4.271450 0.104930 
#    z 0.383280 0.104930 4.825510 
# 
# 
# High freq. dielectric constant tensor:
#      x y z
#    x 2.017810 -0.003250 -0.000360 
#    y -0.003250 1.998360 0.000850 
#    z -0.000360 0.000850 2.005660 
# 
# From -- ./inp_files/244686.got.cif
#   From: 2010.06.25/outbox.cif.g09.slc.cpg/sg2_123_cif.got.tgz:244686.got - 2010.06.27 13:26:56.
