data_PCOD8012125
_publ_section_title
;
Structure prediction by ZEFSAII (Michael W. Deem and Ramdas Pophale) SiO2 
 PCOD8012125
Probable space group: P -1
;
_chemical_formula_sum "Si O2"
_cell_formula_units_Z 14
_cell_length_a 5.196636
_cell_length_b 11.766621
_cell_length_c 22.474270
_cell_angle_alpha 31.324104
_cell_angle_beta 64.240191
_cell_angle_gamma 63.175659
_cell_volume 633.972704
_symmetry_space_group_name_H-M "P -1"
_symmetry_group_IT_number 2
_symmetry_cell_setting 'triclinic'
loop_
_space_group_symop_operation_xyz
x,y,z
-x,-y,-z
loop_
_atom_site_type_symbol
_atom_site_label
_atom_site_fract_x
_atom_site_fract_y
_atom_site_fract_z
Si Si1 0.593989 0.790886 0.541856
Si Si2 0.722575 0.365726 0.174271
Si Si3 0.125383 0.507266 0.679672
Si Si4 0.471300 0.171556 0.703763
Si Si5 0.882100 0.886897 0.347479
Si Si6 0.520014 0.312583 0.032076
Si Si7 0.909644 0.481392 0.835370
O O1 0.306885 0.698064 0.593028
O O2 0.743245 0.862703 0.435755
O O3 0.825520 0.606056 0.633737
O O4 0.500000 0.000000 0.500000
O O5 0.384560 0.343437 0.228269
O O6 0.869449 0.382668 0.215586
O O7 0.879342 0.148995 0.220139
O O8 0.736246 0.587163 0.033950
O O9 0.311371 0.322921 0.703234
O O10 0.051649 0.383613 0.803109
O O11 0.292263 0.212347 0.642640
O O12 0.785637 0.239192 0.631257
O O13 0.516780 0.918140 0.833547
O O14 0.500000 0.500000 0.000000
O O15 0.824809 0.292530 0.973051
#
# Coordination Sequence:
#
# PCOD8012125 Si02
#       7
#     2   2   2   2   2   2   2
#     4  12  27  46  76  96 126 175 223 277 335 384
#     4  10  21  39  66  97 131 166 221 283 310 379
#     4  12  26  47  65 101 136 173 220 269 332 398
#     4  12  27  41  68  98 139 178 212 268 333 394
#     4  12  24  43  66 100 131 171 226 273 325 384
#     4  10  22  40  68 100 131 177 219 266 330 382
#     4  10  22  39  65  92 137 167 217 277 320 384
#
# _framework density 22.08297
#
# number of rings (size 3 to 8) (size 9 to 14) (size 15 to 20)
#    0.857    0.000    1.429    6.429    2.000    5.143 
#    0.000    0.714    0.000    0.000    0.000    0.000 
#    0.000    0.000    0.000    0.000    0.000    0.000 
#
# Total GULP energy -173529.758679 kJ/mol
# GULP energy per Si atom -12394.982763 kJ/mol
# Density = 2.203271 g / cm^3
# Si number density = 22.082970 Si / 1000 Ang^3
#
#
#
# Elastic Constant Matrix: (Units=GPa)
#
#
# Indices 1 2 3 4 5 6 
#
# 1 156.3298 45.2680 9.0695 12.4906 5.7418 8.4213
# 2 45.2680 165.6782 36.1046 27.0648 5.3165 4.1351
# 3 9.0695 36.1046 66.1520 20.3591 1.1998 3.8592
# 4 12.4906 27.0648 20.3591 38.8563 -1.8198 -0.6469
# 5 5.7418 5.3165 1.1998 -1.8198 14.8194 2.3674
# 6 8.4213 4.1351 3.8592 -0.6469 2.3674 31.6099
#
#
#
# Elastic Compliance Matrix: (Units=1/GPa)
#
#
# Indices 1 2 3 4 5 6 
#
# 1 0.007149 -0.001718 0.000559 -0.001521 -0.002127 -0.001620
# 2 -0.001718 0.007778 -0.002898 -0.003456 -0.002298 -0.000105
# 3 0.000559 -0.002898 0.019364 -0.008411 -0.001426 -0.002199
# 4 -0.001521 -0.003456 -0.008411 0.033367 0.006272 0.002097
# 5 -0.002127 -0.002298 -0.001426 0.006272 0.070672 -0.004123
# 6 -0.001620 -0.000105 -0.002199 0.002097 -0.004123 0.032701
#
#
# Mechanical properties :
#
#
# Convention : Reuss Voigt Hill
#
# Bulk Modulus (GPa) = 38.20266 63.22713 50.71489
# Shear Modulus (GPa) = 26.61407 36.90500 31.75954
#
# Velocity S-wave (km/s) = 3.47534 4.09246 3.79646
# Velocity P-wave (km/s) = 5.78283 7.14316 6.49869
#
# Compressibility (1/GPa) = 0.02617619
#
# Stress axis : x y z
#
# Youngs Moduli (GPa) = 139.88707 128.57435 51.64121
#
# Poissons Ratio (x) = 0.22087 -0.02884
# Poissons Ratio (y) = 0.24030 0.14965
# Poissons Ratio (z) = -0.07814 0.37260
#
# Static dielectric constant tensor:
#      x y z
#    x 4.334410 0.220800 -0.353950 
#    y 0.220800 4.770410 -1.152350 
#    z -0.353950 -1.152350 6.434370 
# 
# 
# High freq. dielectric constant tensor:
#      x y z
#    x 1.885510 0.000890 0.004990 
#    y 0.000890 1.873860 0.025240 
#    z 0.004990 0.025240 1.852890 
# 
# From -- ./inp_files/604364.got.cif
#   From: 2010.06.25/outbox.cif.g09.slc.cpg/sg2_303_cif.got.tgz:604364.got - 2010.06.27 13:26:56.
