data_PCOD8012135
_publ_section_title
;
Structure prediction by ZEFSAII (Michael W. Deem and Ramdas Pophale) SiO2 
 PCOD8012135
Probable space group: P -1
;
_chemical_formula_sum "Si O2"
_cell_formula_units_Z 16
_cell_length_a 11.426913
_cell_length_b 9.052238
_cell_length_c 15.660612
_cell_angle_alpha 46.279098
_cell_angle_beta 38.057381
_cell_angle_gamma 64.800565
_cell_volume 695.735789
_symmetry_space_group_name_H-M "P -1"
_symmetry_group_IT_number 2
_symmetry_cell_setting 'triclinic'
loop_
_space_group_symop_operation_xyz
x,y,z
-x,-y,-z
loop_
_atom_site_type_symbol
_atom_site_label
_atom_site_fract_x
_atom_site_fract_y
_atom_site_fract_z
Si Si1 0.094740 0.092282 0.223096
Si Si2 0.310343 0.137192 0.717872
Si Si3 0.121041 0.601098 0.252896
Si Si4 0.339710 0.791597 0.202302
Si Si5 0.297198 0.926456 0.445222
Si Si6 0.305018 0.317682 0.165094
Si Si7 0.696000 0.447152 0.527406
Si Si8 0.110163 0.049753 0.036109
O O1 0.259471 0.269010 0.110419
O O2 0.125365 0.151517 0.081375
O O3 0.872244 0.076133 0.387147
O O4 0.138027 0.863947 0.307270
O O5 0.486419 0.021587 0.655875
O O6 0.385825 0.362268 0.535932
O O7 0.261185 0.191745 0.823177
O O8 0.115491 0.982080 0.851509
O O9 0.279374 0.616428 0.232055
O O10 0.129810 0.409926 0.261890
O O11 0.892638 0.547812 0.430971
O O12 0.171616 0.829015 0.086206
O O13 0.434852 0.700917 0.265156
O O14 0.500000 0.000000 0.000000
O O15 0.264530 0.692863 0.517746
O O16 0.299403 0.097525 0.302201
O O17 0.500000 0.500000 0.000000
#
# Coordination Sequence:
#
# PCOD8012135 Si02
#       8
#     2   2   2   2   2   2   2   2
#     4  11  23  43  70 101 135 173 219 286 349 380
#     4  10  23  44  71  98 131 189 232 263 336 400
#     4  10  21  39  66  98 131 172 221 276 343 392
#     4  11  23  40  68 103 135 172 226 285 333 400
#     4  12  24  42  67  98 143 175 222 280 339 404
#     4  12  23  39  66 100 138 175 213 284 355 398
#     4  11  22  41  68  94 133 180 228 269 326 415
#     4   9  22  45  73  97 135 173 233 284 317 406
#
# _framework density 22.997235
#
# number of rings (size 3 to 8) (size 9 to 14) (size 15 to 20)
#    0.000    1.250    2.500    3.375    3.500    2.500 
#    0.000    0.625    0.000    0.000    0.000    0.000 
#    0.000    0.000    0.000    0.000    0.000    0.000 
#
# Total GULP energy -198276.157817 kJ/mol
# GULP energy per Si atom -12392.259864 kJ/mol
# Density = 2.294489 g / cm^3
# Si number density = 22.997235 Si / 1000 Ang^3
#
#
#
# Elastic Constant Matrix: (Units=GPa)
#
#
# Indices 1 2 3 4 5 6 
#
# 1 133.7489 45.7299 38.0590 14.6410 13.7721 4.8930
# 2 45.7299 82.7552 17.8326 3.3391 5.6476 3.5408
# 3 38.0590 17.8326 93.2355 9.1316 19.5699 -10.4847
# 4 14.6410 3.3391 9.1316 27.9415 -0.7296 -1.2743
# 5 13.7721 5.6476 19.5699 -0.7296 37.2633 5.6205
# 6 4.8930 3.5408 -10.4847 -1.2743 5.6205 40.7127
#
#
#
# Elastic Compliance Matrix: (Units=1/GPa)
#
#
# Indices 1 2 3 4 5 6 
#
# 1 0.010640 -0.004931 -0.002834 -0.004168 -0.001553 -0.001496
# 2 -0.004931 0.015034 -0.001157 0.001127 0.000328 -0.001023
# 3 -0.002834 -0.001157 0.014488 -0.003069 -0.007211 0.005072
# 4 -0.004168 0.001127 -0.003069 0.038953 0.003695 0.000322
# 5 -0.001553 0.000328 -0.007211 0.003695 0.032127 -0.006019
# 6 -0.001496 -0.001023 0.005072 0.000322 -0.006019 0.026978
#
#
# Mechanical properties :
#
#
# Convention : Reuss Voigt Hill
#
# Bulk Modulus (GPa) = 44.80640 56.99806 50.90223
# Shear Modulus (GPa) = 30.58044 35.05804 32.81924
#
# Velocity S-wave (km/s) = 3.65052 3.90865 3.78179
# Velocity P-wave (km/s) = 6.10689 6.72374 6.42272
#
# Compressibility (1/GPa) = 0.02231824
#
# Stress axis : x y z
#
# Youngs Moduli (GPa) = 93.98542 66.51732 69.02153
#
# Poissons Ratio (x) = 0.32797 0.19563
# Poissons Ratio (y) = 0.46341 0.07985
# Poissons Ratio (z) = 0.26638 0.07695
#
# Static dielectric constant tensor:
#      x y z
#    x 4.500310 -0.077330 -0.069290 
#    y -0.077330 4.485600 0.058560 
#    z -0.069290 0.058560 4.117720 
# 
# 
# High freq. dielectric constant tensor:
#      x y z
#    x 1.923990 0.003350 -0.012270 
#    y 0.003350 1.887400 0.000250 
#    z -0.012270 0.000250 1.905030 
# 
# From -- ./inp_files/515017.got.cif
#   From: 2010.06.25/outbox.cif.g09.slc.cpg/sg2_258_cif.got.tgz:515017.got - 2010.06.27 13:26:56.
