data_PCOD8012533
_publ_section_title
;
Structure prediction by ZEFSAII (Michael W. Deem and Ramdas Pophale) SiO2 
 PCOD8012533
Probable space group: P -1
;
_chemical_formula_sum "Si O2"
_cell_formula_units_Z 16
_cell_length_a 11.926636
_cell_length_b 9.532339
_cell_length_c 14.067413
_cell_angle_alpha 59.464645
_cell_angle_beta 77.539244
_cell_angle_gamma 36.286339
_cell_volume 754.041029
_symmetry_space_group_name_H-M "P -1"
_symmetry_group_IT_number 2
_symmetry_cell_setting 'triclinic'
loop_
_space_group_symop_operation_xyz
x,y,z
-x,-y,-z
loop_
_atom_site_type_symbol
_atom_site_label
_atom_site_fract_x
_atom_site_fract_y
_atom_site_fract_z
Si Si1 0.968784 0.973652 0.745451
Si Si2 0.167600 0.684254 0.621960
Si Si3 0.381636 0.855002 0.301232
Si Si4 0.132407 0.539620 0.378507
Si Si5 0.663757 0.759403 0.742248
Si Si6 0.031294 0.688045 0.001894
Si Si7 0.792948 0.693361 0.353964
Si Si8 0.309996 0.129576 0.033465
O O1 0.772805 0.112361 0.688586
O O2 0.931255 0.207985 0.663814
O O3 0.157188 0.708131 0.731328
O O4 0.001294 0.893656 0.879295
O O5 0.388005 0.483019 0.608780
O O6 0.126248 0.546859 0.645122
O O7 0.000000 0.000000 0.500000
O O8 0.308865 0.074802 0.317096
O O9 0.400431 0.935029 0.174432
O O10 0.309668 0.335337 0.337124
O O11 0.215762 0.346967 0.520371
O O12 0.939159 0.675855 0.319049
O O13 0.824451 0.470330 0.878197
O O14 0.436476 0.982860 0.744150
O O15 0.135034 0.463222 0.976360
O O16 0.811286 0.863785 0.010794
O O17 0.500000 0.000000 0.000000
#
# Coordination Sequence:
#
# PCOD8012533 Si02
#       8
#     2   2   2   2   2   2   2   2
#     4  11  22  39  59  91 123 150 190 247 299 344
#     4  11  21  39  61  88 116 151 193 250 294 341
#     4   9  21  36  59  88 116 150 195 239 292 348
#     4  11  23  40  61  82 119 163 194 244 290 347
#     4  10  21  40  61  85 116 158 197 238 288 351
#     4   9  20  34  56  88 118 151 194 237 289 351
#     4  10  23  43  60  86 114 157 207 237 291 353
#     4   9  16  32  57  83 116 155 189 233 288 344
#
# _framework density 21.219004000000002
#
# number of rings (size 3 to 8) (size 9 to 14) (size 15 to 20)
#    0.000    2.000    1.250    2.625    0.000    5.000 
#    2.250    0.625    0.000    0.000    0.000    0.000 
#    0.000    0.000    0.000    0.000    0.000    0.000 
#
# Total GULP energy -198309.877610 kJ/mol
# GULP energy per Si atom -12394.367351 kJ/mol
# Density = 2.117071 g / cm^3
# Si number density = 21.219004 Si / 1000 Ang^3
#
#
#
# Elastic Constant Matrix: (Units=GPa)
#
#
# Indices 1 2 3 4 5 6 
#
# 1 89.4063 28.3850 -0.2946 -5.2326 -1.2562 -0.2076
# 2 28.3850 88.5260 9.2791 7.9444 3.5374 3.4964
# 3 -0.2946 9.2791 56.6804 -2.4391 7.1702 -4.9214
# 4 -5.2326 7.9444 -2.4391 24.9602 -5.6051 5.9319
# 5 -1.2562 3.5374 7.1702 -5.6051 26.0194 1.3191
# 6 -0.2076 3.4964 -4.9214 5.9319 1.3191 31.9511
#
#
#
# Elastic Compliance Matrix: (Units=1/GPa)
#
#
# Indices 1 2 3 4 5 6 
#
# 1 0.013013 -0.004763 0.000765 0.004859 0.002126 -0.000266
# 2 -0.004763 0.013737 -0.002242 -0.006055 -0.002752 -0.000642
# 3 0.000765 -0.002242 0.018944 0.000873 -0.004853 0.003206
# 4 0.004859 -0.006055 0.000873 0.047704 0.011525 -0.008504
# 5 0.002126 -0.002752 -0.004853 0.011525 0.042950 -0.004345
# 6 -0.000266 -0.000642 0.003206 -0.008504 -0.004345 0.033618
#
#
# Mechanical properties :
#
#
# Convention : Reuss Voigt Hill
#
# Bulk Modulus (GPa) = 30.10870 34.37240 32.24055
# Shear Modulus (GPa) = 25.83733 29.73568 27.78650
#
# Velocity S-wave (km/s) = 3.49327 3.74755 3.62264
# Velocity P-wave (km/s) = 5.52186 5.91266 5.72060
#
# Compressibility (1/GPa) = 0.03321299
#
# Stress axis : x y z
#
# Youngs Moduli (GPa) = 76.84442 72.79563 52.78808
#
# Poissons Ratio (x) = 0.34674 -0.04036
# Poissons Ratio (y) = 0.36603 0.11834
# Poissons Ratio (z) = -0.05875 0.16320
#
# Static dielectric constant tensor:
#      x y z
#    x 3.972700 -0.092540 0.102100 
#    y -0.092540 3.784540 -0.024450 
#    z 0.102100 -0.024450 3.784060 
# 
# 
# High freq. dielectric constant tensor:
#      x y z
#    x 1.822710 -0.012380 0.008510 
#    y -0.012380 1.823360 -0.001600 
#    z 0.008510 -0.001600 1.830440 
# 
# From -- ./inp_files/398512.got.cif
#   From: 2010.06.25/outbox.cif.g09.slc.cpg/sg2_200_cif.got.tgz:398512.got - 2010.06.27 13:26:56.
