data_PCOD8012277
_publ_section_title
;
Structure prediction by ZEFSAII (Michael W. Deem and Ramdas Pophale) SiO2 
 PCOD8012277
Probable space group: P -1
;
_chemical_formula_sum "Si O2"
_cell_formula_units_Z 14
_cell_length_a 22.547862
_cell_length_b 15.912704
_cell_length_c 7.331226
_cell_angle_alpha 36.769288
_cell_angle_beta 44.140776
_cell_angle_gamma 20.188322
_cell_volume 535.888949
_symmetry_space_group_name_H-M "P -1"
_symmetry_group_IT_number 2
_symmetry_cell_setting 'triclinic'
loop_
_space_group_symop_operation_xyz
x,y,z
-x,-y,-z
loop_
_atom_site_type_symbol
_atom_site_label
_atom_site_fract_x
_atom_site_fract_y
_atom_site_fract_z
Si Si1 0.573547 0.953922 0.214328
Si Si2 0.705021 0.594290 0.224678
Si Si3 0.673048 0.338821 0.879058
Si Si4 0.880852 0.028203 0.332410
Si Si5 0.187277 0.572192 0.196375
Si Si6 0.859662 0.761379 0.994277
Si Si7 0.974264 0.761938 0.036290
O O1 0.646120 0.809601 0.104271
O O2 0.613570 0.767246 0.597288
O O3 0.680191 0.934663 0.083965
O O4 0.370768 0.279502 0.041759
O O5 0.629964 0.559791 0.533354
O O6 0.914347 0.302312 0.244324
O O7 0.500000 0.500000 0.000000
O O8 0.773287 0.192256 0.099901
O O9 0.789597 0.101947 0.876809
O O10 0.814699 0.989086 0.656721
O O11 0.832363 0.244577 0.169069
O O12 0.087345 0.722338 0.354594
O O13 0.084373 0.598032 0.266340
O O14 0.000000 0.500000 0.000000
O O15 0.941891 0.653656 0.205887
#
# Coordination Sequence:
#
# PCOD8012277 Si02
#       7
#     2   2   2   2   2   2   2
#     4  11  23  44  69  99 148 189 229 288 360 419
#     4  11  23  44  75 103 137 191 241 286 351 423
#     4  11  24  46  70 106 144 184 234 295 356 417
#     4  10  21  39  68  94 139 183 229 287 352 408
#     4  10  21  40  66 101 133 183 237 285 342 418
#     4  12  23  42  68 103 146 185 231 294 359 411
#     4  11  26  42  74 106 138 186 245 290 346 426
#
# _framework density 26.124814000000001
#
# number of rings (size 3 to 8) (size 9 to 14) (size 15 to 20)
#    0.000    1.143    4.286    1.286    6.000    1.143 
#    2.571    1.429    0.000    0.000    0.000    0.000 
#    0.000    0.000    0.000    0.000    0.000    0.000 
#
# Total GULP energy -173573.722970 kJ/mol
# GULP energy per Si atom -12398.123069 kJ/mol
# Density = 2.606535 g / cm^3
# Si number density = 26.124814 Si / 1000 Ang^3
#
#
#
# Elastic Constant Matrix: (Units=GPa)
#
#
# Indices 1 2 3 4 5 6 
#
# 1 161.4986 32.9385 29.1067 -10.2847 -22.4140 -8.7077
# 2 32.9385 115.8997 30.1076 -8.5502 -25.8766 -24.2719
# 3 29.1067 30.1076 86.7207 -10.8411 -14.1747 -19.0632
# 4 -10.2847 -8.5502 -10.8411 40.4336 -2.4335 -8.4251
# 5 -22.4140 -25.8766 -14.1747 -2.4335 40.9119 8.8725
# 6 -8.7077 -24.2719 -19.0632 -8.4251 8.8725 34.9793
#
#
#
# Elastic Compliance Matrix: (Units=1/GPa)
#
#
# Indices 1 2 3 4 5 6 
#
# 1 0.007129 -0.000904 -0.001432 0.001406 0.002929 -0.000038
# 2 -0.000904 0.012175 -0.000929 0.003942 0.005544 0.007261
# 3 -0.001432 -0.000929 0.015136 0.005291 0.002475 0.007895
# 4 0.001406 0.003942 0.005291 0.030129 0.004255 0.012147
# 5 0.002929 0.005544 0.002475 0.004255 0.030855 -0.000877
# 6 -0.000038 0.007261 0.007895 0.012147 -0.000877 0.041068
#
#
# Mechanical properties :
#
#
# Convention : Reuss Voigt Hill
#
# Bulk Modulus (GPa) = 35.82950 60.93607 48.38278
# Shear Modulus (GPa) = 32.82459 41.39603 37.11031
#
# Velocity S-wave (km/s) = 3.54849 3.98496 3.77304
# Velocity P-wave (km/s) = 5.52572 6.67449 6.12709
#
# Compressibility (1/GPa) = 0.02790997
#
# Stress axis : x y z
#
# Youngs Moduli (GPa) = 140.27955 82.13283 66.06823
#
# Poissons Ratio (x) = 0.07424 0.09464
# Poissons Ratio (y) = 0.12680 0.06135
# Poissons Ratio (z) = 0.20094 0.07627
#
# Static dielectric constant tensor:
#      x y z
#    x 5.512700 1.217550 0.512110 
#    y 1.217550 13.932680 3.328400 
#    z 0.512110 3.328400 6.074780 
# 
# 
# High freq. dielectric constant tensor:
#      x y z
#    x 2.087200 0.011900 0.016570 
#    y 0.011900 2.047210 -0.006110 
#    z 0.016570 -0.006110 2.037980 
# 
# From -- ./inp_files/354985.got.cif
#   From: 2010.06.25/outbox.cif.g09.slc.cpg/sg2_178_cif.got.tgz:354985.got - 2010.06.27 13:26:56.
