data_PCOD8012918
_publ_section_title
;
Structure prediction by ZEFSAII (Michael W. Deem and Ramdas Pophale) SiO2 
 PCOD8012918
Probable space group: P -1
;
_chemical_formula_sum "Si O2"
_cell_formula_units_Z 12
_cell_length_a 14.313048
_cell_length_b 16.913172
_cell_length_c 19.888820
_cell_angle_alpha 20.870367
_cell_angle_beta 19.955227
_cell_angle_gamma 21.841171
_cell_volume 533.749426
_symmetry_space_group_name_H-M "P -1"
_symmetry_group_IT_number 2
_symmetry_cell_setting 'triclinic'
loop_
_space_group_symop_operation_xyz
x,y,z
-x,-y,-z
loop_
_atom_site_type_symbol
_atom_site_label
_atom_site_fract_x
_atom_site_fract_y
_atom_site_fract_z
Si Si1 0.677457 0.602404 0.171601
Si Si2 0.383363 0.827399 0.951976
Si Si3 0.133251 0.055416 0.159280
Si Si4 0.545638 0.287769 0.290823
Si Si5 0.802345 0.081873 0.502786
Si Si6 0.303780 0.927335 0.779457
O O1 0.600151 0.370891 0.420719
O O2 0.397204 0.796342 0.164630
O O3 0.716874 0.747902 0.094765
O O4 0.000000 0.500000 0.000000
O O5 0.455235 0.782173 0.859918
O O6 0.589504 0.939726 0.758967
O O7 0.441000 0.571826 0.151760
O O8 0.042530 0.021857 0.034381
O O9 0.887434 0.135489 0.203867
O O10 0.998070 0.029037 0.344213
O O11 0.512497 0.243644 0.269606
O O12 0.334034 0.186297 0.554678
O O13 0.000000 0.000000 0.500000
#
# Coordination Sequence:
#
# PCOD8012918 Si02
#       6
#     2   2   2   2   2   2
#     4   9  21  40  62  89 125 165 210 258 318 384
#     4  11  23  43  65  96 133 166 213 267 316 376
#     4  10  21  40  64  91 127 170 211 264 319 379
#     4  11  22  42  67  93 127 169 217 261 321 376
#     4  11  23  39  62  95 130 166 212 263 324 381
#     4  10  24  42  63  97 127 172 216 260 319 374
#
# _framework density 22.482458999999999
#
# number of rings (size 3 to 8) (size 9 to 14) (size 15 to 20)
#    0.000    1.667    1.667    2.000    0.000    8.667 
#   12.000    0.000    0.000    0.000    0.000    0.000 
#    0.000    0.000    0.000    0.000    0.000    0.000 
#
# Total GULP energy -148762.285476 kJ/mol
# GULP energy per Si atom -12396.857123 kJ/mol
# Density = 2.243129 g / cm^3
# Si number density = 22.482459 Si / 1000 Ang^3
#
#
#
# Elastic Constant Matrix: (Units=GPa)
#
#
# Indices 1 2 3 4 5 6 
#
# 1 83.3605 18.6920 19.3291 -2.3617 -14.1102 -18.1711
# 2 18.6920 104.2359 24.6172 -21.4624 -12.3410 -10.3054
# 3 19.3291 24.6172 109.3330 -21.0190 -28.4583 0.5070
# 4 -2.3617 -21.4624 -21.0190 38.3075 1.3599 -6.8181
# 5 -14.1102 -12.3410 -28.4583 1.3599 40.0507 4.8433
# 6 -18.1711 -10.3054 0.5070 -6.8181 4.8433 29.4448
#
#
#
# Elastic Compliance Matrix: (Units=1/GPa)
#
#
# Indices 1 2 3 4 5 6 
#
# 1 0.014964 -0.000916 -0.001559 0.001006 0.002794 0.008714
# 2 -0.000916 0.012142 -0.000666 0.007200 0.002094 0.005018
# 3 -0.001559 -0.000666 0.012933 0.006081 0.008397 -0.001391
# 4 0.001006 0.007200 0.006081 0.035243 0.004431 0.010468
# 5 0.002794 0.002094 0.008397 0.004431 0.032660 -0.002034
# 6 0.008714 0.005018 -0.001391 0.010468 -0.002034 0.043878
#
#
# Mechanical properties :
#
#
# Convention : Reuss Voigt Hill
#
# Bulk Modulus (GPa) = 29.62346 46.91178 38.26762
# Shear Modulus (GPa) = 29.52398 37.18000 33.35199
#
# Velocity S-wave (km/s) = 3.62774 4.07102 3.85576
# Velocity P-wave (km/s) = 5.54547 6.55812 6.07294
#
# Compressibility (1/GPa) = 0.03375703
#
# Stress axis : x y z
#
# Youngs Moduli (GPa) = 66.82736 82.36149 77.32036
#
# Poissons Ratio (x) = 0.07542 0.12055
# Poissons Ratio (y) = 0.06120 0.05150
# Poissons Ratio (z) = 0.10419 0.05485
#
# Static dielectric constant tensor:
#      x y z
#    x 4.001790 0.009380 -0.158050 
#    y 0.009380 4.069470 -0.286260 
#    z -0.158050 -0.286260 4.374430 
# 
# 
# High freq. dielectric constant tensor:
#      x y z
#    x 1.884010 -0.006900 -0.015590 
#    y -0.006900 1.878300 -0.009290 
#    z -0.015590 -0.009290 1.891290 
# 
# From -- ./inp_files/88233.got.cif
#   From: 2010.06.25/outbox.cif.g09.slc.cpg/sg2_45_cif.got.tgz:88233.got - 2010.06.27 13:26:56.
