data_PCOD8012686
_publ_section_title
;
Structure prediction by ZEFSAII (Michael W. Deem and Ramdas Pophale) SiO2 
 PCOD8012686
Probable space group: P -1
;
_chemical_formula_sum "Si O2"
_cell_formula_units_Z 16
_cell_length_a 12.149353
_cell_length_b 9.232842
_cell_length_c 15.070247
_cell_angle_alpha 46.946621
_cell_angle_beta 44.760165
_cell_angle_gamma 41.437238
_cell_volume 745.627255
_symmetry_space_group_name_H-M "P -1"
_symmetry_group_IT_number 2
_symmetry_cell_setting 'triclinic'
loop_
_space_group_symop_operation_xyz
x,y,z
-x,-y,-z
loop_
_atom_site_type_symbol
_atom_site_label
_atom_site_fract_x
_atom_site_fract_y
_atom_site_fract_z
Si Si1 0.832301 0.237169 0.526568
Si Si2 0.294169 0.333588 0.698978
Si Si3 0.238188 0.532846 0.181375
Si Si4 0.088182 0.294118 0.470276
Si Si5 0.571643 0.112277 0.483968
Si Si6 0.536851 0.596165 0.262598
Si Si7 0.891287 0.924297 0.153779
Si Si8 0.599339 0.437868 0.106251
O O1 0.774248 0.411647 0.404794
O O2 0.666890 0.210978 0.669694
O O3 0.902718 0.321766 0.530818
O O4 0.000000 0.000000 0.500000
O O5 0.469352 0.147922 0.620985
O O6 0.331329 0.354750 0.772778
O O7 0.151455 0.247025 0.806657
O O8 0.208406 0.323080 0.312470
O O9 0.392830 0.522047 0.160968
O O10 0.038325 0.769590 0.211269
O O11 0.299613 0.512607 0.051953
O O12 0.000000 0.500000 0.500000
O O13 0.214906 0.057223 0.549174
O O14 0.544442 0.353887 0.368411
O O15 0.500000 0.000000 0.500000
O O16 0.584574 0.600582 0.129749
O O17 0.708793 0.163728 0.188367
O O18 0.000000 0.000000 0.000000
#
# Coordination Sequence:
#
# PCOD8012686 Si02
#       8
#     2   2   2   2   2   2   2   2
#     4  11  22  38  58  90 128 166 201 256 329 389
#     4  11  21  40  61  89 133 164 208 265 323 397
#     4  10  21  40  62  94 123 165 218 265 323 364
#     4  12  22  34  61  93 126 154 210 273 314 372
#     4  11  22  37  62  94 126 170 213 258 329 386
#     4  11  23  40  61  95 128 171 211 257 337 395
#     4  10  21  40  68  92 119 171 217 267 319 375
#     4  10  22  41  67  88 129 167 218 272 309 391
#
# _framework density 21.458442000000002
#
# number of rings (size 3 to 8) (size 9 to 14) (size 15 to 20)
#    0.000    1.250    1.250    7.500    1.750    0.000 
#    2.250    2.500    0.000   12.750    0.000    0.000 
#    0.000    0.000    0.000    0.000    0.000    0.000 
#
# Total GULP energy -198236.806320 kJ/mol
# GULP energy per Si atom -12389.800395 kJ/mol
# Density = 2.140960 g / cm^3
# Si number density = 21.458442 Si / 1000 Ang^3
#
#
#
# Elastic Constant Matrix: (Units=GPa)
#
#
# Indices 1 2 3 4 5 6 
#
# 1 140.5296 46.5883 14.9887 19.2377 11.0117 -5.9587
# 2 46.5883 118.2053 19.5886 13.7596 11.1195 -8.9807
# 3 14.9887 19.5886 47.2379 15.1268 -0.7500 0.3040
# 4 19.2377 13.7596 15.1268 19.1199 3.7393 5.2025
# 5 11.0117 11.1195 -0.7500 3.7393 33.8961 2.4010
# 6 -5.9587 -8.9807 0.3040 5.2025 2.4010 43.6471
#
#
#
# Elastic Compliance Matrix: (Units=1/GPa)
#
#
# Indices 1 2 3 4 5 6 
#
# 1 0.009181 -0.002519 0.000732 -0.008223 -0.001359 0.001785
# 2 -0.002519 0.010690 -0.002665 -0.003201 -0.002564 0.002397
# 3 0.000732 -0.002665 0.029619 -0.023513 0.003748 0.001942
# 4 -0.008223 -0.003201 -0.023513 0.085682 -0.005434 -0.011531
# 5 -0.001359 -0.002564 0.003748 -0.005434 0.031597 -0.001830
# 6 0.001785 0.002397 0.001942 -0.011531 -0.001830 0.025110
#
#
# Mechanical properties :
#
#
# Convention : Reuss Voigt Hill
#
# Bulk Modulus (GPa) = 24.63916 52.03378 38.33647
# Shear Modulus (GPa) = 23.33060 34.31976 28.82518
#
# Velocity S-wave (km/s) = 3.30092 4.00354 3.66909
# Velocity P-wave (km/s) = 5.10248 6.75813 5.98781
#
# Compressibility (1/GPa) = 0.04058580
#
# Stress axis : x y z
#
# Youngs Moduli (GPa) = 108.92123 93.54345 33.76241
#
# Poissons Ratio (x) = 0.23564 -0.02471
# Poissons Ratio (y) = 0.27438 0.08997
# Poissons Ratio (z) = -0.07970 0.24927
#
# Static dielectric constant tensor:
#      x y z
#    x 2.337470 0.914160 0.213170 
#    y 0.914160 3.240160 0.134290 
#    z 0.213170 0.134290 3.707170 
# 
# 
# High freq. dielectric constant tensor:
#      x y z
#    x 1.849570 -0.017330 0.001800 
#    y -0.017330 1.846750 0.007590 
#    z 0.001800 0.007590 1.827000 
# 
# From -- ./inp_files/225307.got.cif
#   From: 2010.06.25/outbox.cif.g09.slc.cpg/sg2_113_cif.got.tgz:225307.got - 2010.06.27 13:26:56.
