data_PCOD8012335
_publ_section_title
;
Structure prediction by ZEFSAII (Michael W. Deem and Ramdas Pophale) SiO2 
 PCOD8012335
Probable space group: P -1
;
_chemical_formula_sum "Si O2"
_cell_formula_units_Z 14
_cell_length_a 8.866095
_cell_length_b 12.216333
_cell_length_c 6.628522
_cell_angle_alpha 81.497428
_cell_angle_beta 69.095231
_cell_angle_gamma 120.333367
_cell_volume 528.787672
_symmetry_space_group_name_H-M "P -1"
_symmetry_group_IT_number 2
_symmetry_cell_setting 'triclinic'
loop_
_space_group_symop_operation_xyz
x,y,z
-x,-y,-z
loop_
_atom_site_type_symbol
_atom_site_label
_atom_site_fract_x
_atom_site_fract_y
_atom_site_fract_z
Si Si1 0.550977 0.339987 0.542192
Si Si2 0.768695 0.213231 0.521517
Si Si3 0.223780 0.424794 0.211802
Si Si4 0.366105 0.058006 0.103028
Si Si5 0.444139 0.302440 0.167398
Si Si6 0.248509 0.857386 0.912280
Si Si7 0.789029 0.640689 0.226750
O O1 0.624211 0.257532 0.640749
O O2 0.555633 0.305180 0.313583
O O3 0.702777 0.509715 0.458341
O O4 0.325869 0.288264 0.723527
O O5 0.739080 0.090246 0.698122
O O6 0.732829 0.154341 0.328711
O O7 0.995141 0.356165 0.402315
O O8 0.299563 0.342630 0.300645
O O9 0.391693 0.592804 0.116293
O O10 0.241245 0.417143 0.965496
O O11 0.290653 0.147583 0.183394
O O12 0.605026 0.163879 0.023665
O O13 0.329678 0.016067 0.892587
O O14 0.023594 0.751664 0.135373
#
# Coordination Sequence:
#
# PCOD8012335 Si02
#       7
#     2   2   2   2   2   2   2
#     4  10  21  39  69  92 132 165 217 271 327 376
#     4  11  23  43  68  98 127 174 219 270 322 387
#     4   9  22  41  67  96 125 168 224 266 327 378
#     4  11  24  41  66  96 136 172 214 267 327 387
#     4  10  21  41  66  93 130 171 213 270 322 390
#     4  10  23  42  63  95 135 168 221 261 321 391
#     4   9  21  41  64  96 127 170 216 268 326 384
#
# _framework density 26.475653000000001
#
# number of rings (size 3 to 8) (size 9 to 14) (size 15 to 20)
#    0.000    2.000    1.429    0.429    4.000    4.571 
#    0.000    2.857    0.000    0.000    0.000    0.000 
#    0.000    0.000    0.000    0.000    0.000    0.000 
#
# Total GULP energy -173482.821308 kJ/mol
# GULP energy per Si atom -12391.630093 kJ/mol
# Density = 2.641539 g / cm^3
# Si number density = 26.475653 Si / 1000 Ang^3
#
#
#
# Elastic Constant Matrix: (Units=GPa)
#
#
# Indices 1 2 3 4 5 6 
#
# 1 79.4280 26.1490 36.1501 -19.1187 -9.9032 -4.2852
# 2 26.1490 145.9592 14.9706 2.1302 1.1390 -22.7015
# 3 36.1501 14.9706 70.4679 -14.5387 -16.2774 -16.4010
# 4 -19.1187 2.1302 -14.5387 29.6665 0.8907 -1.0610
# 5 -9.9032 1.1390 -16.2774 0.8907 40.6382 -8.1360
# 6 -4.2852 -22.7015 -16.4010 -1.0610 -8.1360 47.8579
#
#
#
# Elastic Compliance Matrix: (Units=1/GPa)
#
#
# Indices 1 2 3 4 5 6 
#
# 1 0.019213 -0.003107 -0.007573 0.008789 0.001151 -0.001958
# 2 -0.003107 0.007966 0.000193 -0.002350 -0.000153 0.003489
# 3 -0.007573 0.000193 0.023773 0.006808 0.009386 0.009307
# 4 0.008789 -0.002350 0.006808 0.042869 0.004748 0.003763
# 5 0.001151 -0.000153 0.009386 0.004748 0.030248 0.008495
# 6 -0.001958 0.003489 0.009307 0.003763 0.008495 0.027092
#
#
# Mechanical properties :
#
#
# Convention : Reuss Voigt Hill
#
# Bulk Modulus (GPa) = 33.35610 50.04382 41.69996
# Shear Modulus (GPa) = 27.45323 38.20488 32.82906
#
# Velocity S-wave (km/s) = 3.22362 3.80283 3.52514
# Velocity P-wave (km/s) = 5.14605 6.18263 5.68800
#
# Compressibility (1/GPa) = 0.02997952
#
# Stress axis : x y z
#
# Youngs Moduli (GPa) = 52.04813 125.53097 42.06401
#
# Poissons Ratio (x) = 0.39005 0.31853
# Poissons Ratio (y) = 0.16172 -0.00813
# Poissons Ratio (z) = 0.39414 -0.02426
#
# Static dielectric constant tensor:
#      x y z
#    x 4.704830 0.280870 0.031470 
#    y 0.280870 5.242320 0.195250 
#    z 0.031470 0.195250 4.837320 
# 
# 
# High freq. dielectric constant tensor:
#      x y z
#    x 2.046910 0.010270 0.014720 
#    y 0.010270 2.083100 0.021670 
#    z 0.014720 0.021670 2.076200 
# 
# From -- ./inp_files/177591.got.cif
#   From: 2010.06.25/outbox.cif.g09.slc.cpg/sg2_89_cif.got.tgz:177591.got - 2010.06.27 13:26:56.
