data_PCOD8012746
_publ_section_title
;
Structure prediction by ZEFSAII (Michael W. Deem and Ramdas Pophale) SiO2 
 PCOD8012746
Probable space group: P -1
;
_chemical_formula_sum "Si O2"
_cell_formula_units_Z 16
_cell_length_a 8.378447
_cell_length_b 9.467182
_cell_length_c 17.304840
_cell_angle_alpha 44.775053
_cell_angle_beta 114.162592
_cell_angle_gamma 88.689128
_cell_volume 770.025145
_symmetry_space_group_name_H-M "P -1"
_symmetry_group_IT_number 2
_symmetry_cell_setting 'triclinic'
loop_
_space_group_symop_operation_xyz
x,y,z
-x,-y,-z
loop_
_atom_site_type_symbol
_atom_site_label
_atom_site_fract_x
_atom_site_fract_y
_atom_site_fract_z
Si Si1 0.191375 0.152837 0.990849
Si Si2 0.647612 0.365332 0.464012
Si Si3 0.577539 0.612898 0.723997
Si Si4 0.436180 0.086074 0.586229
Si Si5 0.974163 0.805343 0.298099
Si Si6 0.144764 0.828278 0.985032
Si Si7 0.106518 0.490106 0.301305
Si Si8 0.418851 0.145824 0.732085
O O1 0.054107 0.184748 0.026064
O O2 0.107064 0.396613 0.831419
O O3 0.185236 0.978140 0.996442
O O4 0.417292 0.054585 0.103131
O O5 0.630523 0.338308 0.377697
O O6 0.536112 0.248294 0.532644
O O7 0.543374 0.638015 0.355586
O O8 0.879457 0.235913 0.584857
O O9 0.655972 0.424331 0.881214
O O10 0.742811 0.488797 0.737550
O O11 0.563436 0.847972 0.659206
O O12 0.208670 0.222816 0.451752
O O13 0.425799 0.033530 0.694147
O O14 0.797034 0.760807 0.308423
O O15 0.095866 0.630672 0.321534
O O16 0.887273 0.064856 0.148526
#
# Coordination Sequence:
#
# PCOD8012746 Si02
#       8
#     2   2   2   2   2   2   2   2
#     4   9  18  34  60  89 110 149 197 248 283 334
#     4  11  21  38  61  88 114 154 198 243 286 338
#     4  10  21  40  63  89 114 154 198 242 289 350
#     4  11  23  38  63  88 120 150 196 244 294 345
#     4  11  23  36  59  92 122 150 193 247 289 343
#     4   9  18  36  60  86 120 147 194 244 293 335
#     4   9  19  35  60  88 117 141 195 245 292 330
#     4  12  23  37  58  93 121 153 195 237 296 346
#
# _framework density 20.778541000000001
#
# number of rings (size 3 to 8) (size 9 to 14) (size 15 to 20)
#    0.000    1.750    2.500    3.750    5.250    2.000 
#    0.000    8.125    2.750    0.000    0.000    0.000 
#    0.000    0.000    0.000    0.000    0.000    0.000 
#
# Total GULP energy -198246.677177 kJ/mol
# GULP energy per Si atom -12390.417324 kJ/mol
# Density = 2.073125 g / cm^3
# Si number density = 20.778541 Si / 1000 Ang^3
#
#
#
# Elastic Constant Matrix: (Units=GPa)
#
#
# Indices 1 2 3 4 5 6 
#
# 1 56.9548 37.4675 35.9583 -1.0968 11.6920 -3.8176
# 2 37.4675 73.6329 44.4351 -4.4247 8.3618 -4.1369
# 3 35.9583 44.4351 176.9609 6.9140 27.7498 5.1054
# 4 -1.0968 -4.4247 6.9140 27.3973 4.9879 3.6556
# 5 11.6920 8.3618 27.7498 4.9879 21.0440 2.3974
# 6 -3.8176 -4.1369 5.1054 3.6556 2.3974 9.5602
#
#
#
# Elastic Compliance Matrix: (Units=1/GPa)
#
#
# Indices 1 2 3 4 5 6 
#
# 1 0.029456 -0.012297 -0.001520 0.000201 -0.010644 0.009846
# 2 -0.012297 0.022323 -0.003592 0.003081 0.001383 0.005142
# 3 -0.001520 -0.003592 0.008263 -0.000701 -0.007967 -0.004308
# 4 0.000201 0.003081 -0.000701 0.040286 -0.008657 -0.011445
# 5 -0.010644 0.001383 -0.007967 -0.008657 0.066907 -0.012866
# 6 0.009846 0.005142 -0.004308 -0.011445 -0.012866 0.120661
#
#
# Mechanical properties :
#
#
# Convention : Reuss Voigt Hill
#
# Bulk Modulus (GPa) = 39.64680 60.36336 50.00508
# Shear Modulus (GPa) = 15.10015 24.24613 19.67314
#
# Velocity S-wave (km/s) = 2.69870 3.41967 3.08035
# Velocity P-wave (km/s) = 5.36961 6.68626 6.06378
#
# Compressibility (1/GPa) = 0.02522272
#
# Stress axis : x y z
#
# Youngs Moduli (GPa) = 33.94879 44.79706 121.02263
#
# Poissons Ratio (x) = 0.55087 0.18401
# Poissons Ratio (y) = 0.41747 0.43474
# Poissons Ratio (z) = 0.05162 0.16092
#
# Static dielectric constant tensor:
#      x y z
#    x 3.312330 -0.068120 0.077050 
#    y -0.068120 3.350330 0.165760 
#    z 0.077050 0.165760 4.719060 
# 
# 
# High freq. dielectric constant tensor:
#      x y z
#    x 1.766800 -0.011450 0.004660 
#    y -0.011450 1.771510 0.010720 
#    z 0.004660 0.010720 1.852920 
# 
# From -- ./inp_files/277770.got.cif
#   From: 2010.06.25/outbox.cif.g09.slc.cpg/sg2_139_cif.got.tgz:277770.got - 2010.06.27 13:26:56.
