data_PCOD8012046
_publ_section_title
;
Structure prediction by ZEFSAII (Michael W. Deem and Ramdas Pophale) SiO2 
 PCOD8012046
Probable space group: P -1
;
_chemical_formula_sum "Si O2"
_cell_formula_units_Z 14
_cell_length_a 8.560169
_cell_length_b 9.275385
_cell_length_c 19.760343
_cell_angle_alpha 51.828951
_cell_angle_beta 133.369980
_cell_angle_gamma 92.516451
_cell_volume 669.033278
_symmetry_space_group_name_H-M "P -1"
_symmetry_group_IT_number 2
_symmetry_cell_setting 'triclinic'
loop_
_space_group_symop_operation_xyz
x,y,z
-x,-y,-z
loop_
_atom_site_type_symbol
_atom_site_label
_atom_site_fract_x
_atom_site_fract_y
_atom_site_fract_z
Si Si1 0.382072 0.669976 0.807457
Si Si2 0.296245 0.129191 0.636262
Si Si3 0.531092 0.986766 0.894009
Si Si4 0.861963 0.250175 0.852311
Si Si5 0.187243 0.820529 0.851722
Si Si6 0.349713 0.759797 0.350613
Si Si7 0.666642 0.513840 0.287272
O O1 0.171166 0.785682 0.776708
O O2 0.261020 0.619677 0.724363
O O3 0.410181 0.860044 0.732025
O O4 0.689252 0.420438 0.998281
O O5 0.411821 0.115132 0.748342
O O6 0.426058 0.202713 0.602218
O O7 0.951214 0.342462 0.467922
O O8 0.439324 0.220062 0.841437
O O9 0.384615 0.886108 0.906414
O O10 0.877527 0.748422 0.068258
O O11 0.800238 0.226342 0.765068
O O12 0.577106 0.462459 0.749754
O O13 0.000000 0.000000 0.000000
O O14 0.869200 0.040174 0.717258
O O15 0.500000 0.500000 0.500000
#
# Coordination Sequence:
#
# PCOD8012046 Si02
#       7
#     2   2   2   2   2   2   2
#     4  10  24  42  65  90 133 181 212 257 330 394
#     4  11  23  41  65  96 126 180 214 255 339 385
#     4  10  21  40  71  93 123 173 224 266 323 377
#     4  10  21  39  66 101 123 164 222 272 313 379
#     4  10  23  44  63  95 136 168 217 270 321 391
#     4  12  25  40  68 104 132 163 219 283 324 370
#     4  11  21  39  68  96 128 164 224 273 312 388
#
# _framework density 20.925715
#
# number of rings (size 3 to 8) (size 9 to 14) (size 15 to 20)
#    0.000    1.429    2.857    3.429    4.000    4.000 
#    5.143    0.714    0.000    0.000    0.000    0.000 
#    0.000    0.000    0.000    0.000    0.000    0.000 
#
# Total GULP energy -173526.304782 kJ/mol
# GULP energy per Si atom -12394.736056 kJ/mol
# Density = 2.087809 g / cm^3
# Si number density = 20.925715 Si / 1000 Ang^3
#
#
#
# Elastic Constant Matrix: (Units=GPa)
#
#
# Indices 1 2 3 4 5 6 
#
# 1 104.7235 48.9274 64.7573 -9.5634 16.1868 2.2116
# 2 48.9274 100.5010 48.9697 -1.4789 -0.1165 -9.7898
# 3 64.7573 48.9697 136.5154 -6.6935 16.7876 -2.2328
# 4 -9.5634 -1.4789 -6.6935 41.2799 2.3016 -8.5101
# 5 16.1868 -0.1165 16.7876 2.3016 35.3945 0.5131
# 6 2.2116 -9.7898 -2.2328 -8.5101 0.5131 44.0943
#
#
#
# Elastic Compliance Matrix: (Units=1/GPa)
#
#
# Indices 1 2 3 4 5 6 
#
# 1 0.016391 -0.005692 -0.004976 0.002721 -0.005306 -0.001751
# 2 -0.005692 0.014472 -0.002984 -0.000865 0.004077 0.003133
# 3 -0.004976 -0.002984 0.011181 0.000797 -0.003094 0.000343
# 4 0.002721 -0.000865 0.000797 0.026131 -0.003394 0.004794
# 5 -0.005306 0.004077 -0.003094 -0.003394 0.032381 -0.000017
# 6 -0.001751 0.003133 0.000343 0.004794 -0.000017 0.024405
#
#
# Mechanical properties :
#
#
# Convention : Reuss Voigt Hill
#
# Bulk Modulus (GPa) = 67.83954 74.11651 70.97803
# Shear Modulus (GPa) = 31.81090 36.09278 33.95184
#
# Velocity S-wave (km/s) = 3.90318 4.15758 4.03239
# Velocity P-wave (km/s) = 7.26655 7.65135 7.46143
#
# Compressibility (1/GPa) = 0.01474067
#
# Stress axis : x y z
#
# Youngs Moduli (GPa) = 61.00970 69.09826 89.43567
#
# Poissons Ratio (x) = 0.39328 0.44505
# Poissons Ratio (y) = 0.34724 0.26687
# Poissons Ratio (z) = 0.30360 0.20619
#
# Static dielectric constant tensor:
#      x y z
#    x 5.392960 0.553350 1.090880 
#    y 0.553350 4.027730 0.321340 
#    z 1.090880 0.321340 4.660270 
# 
# 
# High freq. dielectric constant tensor:
#      x y z
#    x 1.814060 -0.003720 -0.004620 
#    y -0.003720 1.817840 -0.001220 
#    z -0.004620 -0.001220 1.824790 
# 
# From -- ./inp_files/158296.got.cif
#   From: 2010.06.25/outbox.cif.g09.slc.cpg/sg2_80_cif.got.tgz:158296.got - 2010.06.27 13:26:56.
