data_PCOD8012682
_publ_section_title
;
Structure prediction by ZEFSAII (Michael W. Deem and Ramdas Pophale) SiO2 
 PCOD8012682
Probable space group: P -1
;
_chemical_formula_sum "Si O2"
_cell_formula_units_Z 16
_cell_length_a 15.623942
_cell_length_b 9.024733
_cell_length_c 16.469726
_cell_angle_alpha 133.707712
_cell_angle_beta 145.504246
_cell_angle_gamma 72.787780
_cell_volume 707.295193
_symmetry_space_group_name_H-M "P -1"
_symmetry_group_IT_number 2
_symmetry_cell_setting 'triclinic'
loop_
_space_group_symop_operation_xyz
x,y,z
-x,-y,-z
loop_
_atom_site_type_symbol
_atom_site_label
_atom_site_fract_x
_atom_site_fract_y
_atom_site_fract_z
Si Si1 0.372365 0.998050 0.830609
Si Si2 0.526075 0.229706 0.519944
Si Si3 0.793887 0.717410 0.198921
Si Si4 0.802227 0.787078 0.669366
Si Si5 0.208822 0.610321 0.061055
Si Si6 0.102770 0.435289 0.467435
Si Si7 0.870698 0.601695 0.808489
Si Si8 0.270537 0.674003 0.864634
O O1 0.361163 0.234500 0.917859
O O2 0.155566 0.692959 0.554893
O O3 0.493310 0.054379 0.863342
O O4 0.500000 0.000000 0.000000
O O5 0.410855 0.311568 0.505422
O O6 0.700683 0.316668 0.750409
O O7 0.646015 0.398827 0.595646
O O8 0.359544 0.905253 0.242895
O O9 0.718829 0.482078 0.115166
O O10 0.809138 0.621611 0.087053
O O11 0.000000 0.000000 0.500000
O O12 0.789029 0.662459 0.525149
O O13 0.865064 0.673666 0.739729
O O14 0.976759 0.113066 0.914901
O O15 0.976705 0.475724 0.838611
O O16 0.169429 0.485247 0.632175
O O17 0.857573 0.230585 0.185269
#
# Coordination Sequence:
#
# PCOD8012682 Si02
#       8
#     2   2   2   2   2   2   2   2
#     4  10  23  41  62  88 127 166 214 260 309 377
#     4  10  22  43  66  93 123 164 212 263 317 373
#     4  12  24  43  65  96 133 172 212 264 317 379
#     4  10  22  37  66  94 124 162 210 263 315 378
#     4  10  24  42  64  91 130 163 209 264 313 375
#     4  10  21  40  62  93 132 169 206 265 318 376
#     4  10  21  41  63  95 125 159 210 263 323 372
#     4  10  22  40  61  89 132 167 216 254 312 382
#
# _framework density 22.621389000000001
#
# number of rings (size 3 to 8) (size 9 to 14) (size 15 to 20)
#    0.000    1.750    1.250    1.875    3.500    3.000 
#    2.250    0.000    0.000    0.000    0.000    0.000 
#    0.000    0.000    0.000    0.000    0.000    0.000 
#
# Total GULP energy -198241.767046 kJ/mol
# GULP energy per Si atom -12390.110440 kJ/mol
# Density = 2.256990 g / cm^3
# Si number density = 22.621389 Si / 1000 Ang^3
#
#
#
# Elastic Constant Matrix: (Units=GPa)
#
#
# Indices 1 2 3 4 5 6 
#
# 1 120.5884 20.8858 26.6730 6.5252 15.2115 -22.3770
# 2 20.8858 73.8923 4.0176 -12.2594 2.8781 -12.7903
# 3 26.6730 4.0176 44.3129 -1.0631 5.8853 -8.7396
# 4 6.5252 -12.2594 -1.0631 27.0035 -3.9032 9.3406
# 5 15.2115 2.8781 5.8853 -3.9032 32.2351 -2.0824
# 6 -22.3770 -12.7903 -8.7396 9.3406 -2.0824 40.8021
#
#
#
# Elastic Compliance Matrix: (Units=1/GPa)
#
#
# Indices 1 2 3 4 5 6 
#
# 1 0.012158 -0.003139 -0.005372 -0.007357 -0.004982 0.005963
# 2 -0.003139 0.015893 0.000854 0.007531 0.000932 0.001767
# 3 -0.005372 0.000854 0.026532 0.001556 -0.002032 0.002544
# 4 -0.007357 0.007531 0.001556 0.047464 0.007499 -0.011824
# 5 -0.004982 0.000932 -0.002032 0.007499 0.034385 -0.002837
# 6 0.005963 0.001767 0.002544 -0.011824 -0.002837 0.031440
#
#
# Mechanical properties :
#
#
# Convention : Reuss Voigt Hill
#
# Bulk Modulus (GPa) = 25.46590 37.99405 31.72998
# Shear Modulus (GPa) = 25.47441 32.48929 28.98185
#
# Velocity S-wave (km/s) = 3.35941 3.79386 3.58323
# Velocity P-wave (km/s) = 5.13122 6.00194 5.58358
#
# Compressibility (1/GPa) = 0.03926819
#
# Stress axis : x y z
#
# Youngs Moduli (GPa) = 82.25333 62.92105 37.69021
#
# Poissons Ratio (x) = 0.19749 0.20248
# Poissons Ratio (y) = 0.25817 -0.03218
# Poissons Ratio (z) = 0.44188 -0.05371
#
# Static dielectric constant tensor:
#      x y z
#    x 4.375180 0.145280 0.574680 
#    y 0.145280 4.336570 0.345170 
#    z 0.574680 0.345170 4.464800 
# 
# 
# High freq. dielectric constant tensor:
#      x y z
#    x 1.899750 -0.002970 0.018810 
#    y -0.002970 1.890700 -0.010020 
#    z 0.018810 -0.010020 1.877230 
# 
# From -- ./inp_files/530164.got.cif
#   From: 2010.06.25/outbox.cif.g09.slc.cpg/sg2_266_cif.got.tgz:530164.got - 2010.06.27 13:26:56.
