data_PCOD8012449
_publ_section_title
;
Structure prediction by ZEFSAII (Michael W. Deem and Ramdas Pophale) SiO2 
 PCOD8012449
Probable space group: P -1
;
_chemical_formula_sum "Si O2"
_cell_formula_units_Z 14
_cell_length_a 13.998370
_cell_length_b 9.170739
_cell_length_c 12.624198
_cell_angle_alpha 66.247622
_cell_angle_beta 47.752955
_cell_angle_gamma 103.159263
_cell_volume 743.744486
_symmetry_space_group_name_H-M "P -1"
_symmetry_group_IT_number 2
_symmetry_cell_setting 'triclinic'
loop_
_space_group_symop_operation_xyz
x,y,z
-x,-y,-z
loop_
_atom_site_type_symbol
_atom_site_label
_atom_site_fract_x
_atom_site_fract_y
_atom_site_fract_z
Si Si1 0.557932 0.985446 0.201423
Si Si2 0.453228 0.695762 0.996676
Si Si3 0.786581 0.790212 0.756647
Si Si4 0.184472 0.833615 0.852740
Si Si5 0.535590 0.638042 0.535927
Si Si6 0.568749 0.711112 0.123999
Si Si7 0.242344 0.622307 0.700917
O O1 0.632605 0.902026 0.104059
O O2 0.350609 0.758724 0.470745
O O3 0.709241 0.155926 0.131766
O O4 0.540090 0.116831 0.098044
O O5 0.275122 0.448785 0.145291
O O6 0.430862 0.663704 0.150920
O O7 0.648629 0.780658 0.791927
O O8 0.758590 0.812666 0.894911
O O9 0.000000 0.000000 0.500000
O O10 0.220168 0.765391 0.740036
O O11 0.265402 0.085635 0.702499
O O12 0.960232 0.639451 0.100859
O O13 0.500000 0.500000 0.500000
O O14 0.543502 0.534398 0.663519
O O15 0.363506 0.607886 0.684490
#
# Coordination Sequence:
#
# PCOD8012449 Si02
#       7
#     2   2   2   2   2   2   2
#     4  11  20  41  60  85 121 154 197 243 293 353
#     4   9  22  38  62  84 116 157 191 240 297 350
#     4   9  21  41  57  87 117 150 202 238 290 350
#     4  10  23  39  60  89 118 159 201 242 292 354
#     4  11  20  40  60  87 122 155 193 250 295 347
#     4  10  21  40  59  86 120 155 194 243 295 345
#     4  10  23  39  59  88 119 158 201 240 297 348
#
# _framework density 18.82367
#
# number of rings (size 3 to 8) (size 9 to 14) (size 15 to 20)
#    0.857    1.143    2.857    2.143    4.000    1.714 
#    7.714    0.714    0.000    0.000    0.000    0.000 
#    0.000    0.000    0.000    0.000    0.000    0.000 
#
# Total GULP energy -173539.221299 kJ/mol
# GULP energy per Si atom -12395.658664 kJ/mol
# Density = 1.878083 g / cm^3
# Si number density = 18.823670 Si / 1000 Ang^3
#
#
#
# Elastic Constant Matrix: (Units=GPa)
#
#
# Indices 1 2 3 4 5 6 
#
# 1 89.4270 17.6383 62.3507 -17.0313 28.0038 -4.1333
# 2 17.6383 105.0980 63.9233 -8.5132 5.1573 3.1657
# 3 62.3507 63.9233 146.1299 -16.8754 1.0054 10.2875
# 4 -17.0313 -8.5132 -16.8754 32.5563 3.8348 7.5354
# 5 28.0038 5.1573 1.0054 3.8348 40.9579 -7.8810
# 6 -4.1333 3.1657 10.2875 7.5354 -7.8810 23.5125
#
#
#
# Elastic Compliance Matrix: (Units=1/GPa)
#
#
# Indices 1 2 3 4 5 6 
#
# 1 0.027255 0.004799 -0.012137 0.011875 -0.020274 -0.001146
# 2 0.004799 0.013916 -0.007759 0.002795 -0.005155 -0.000259
# 3 -0.012137 -0.007759 0.015754 0.000112 0.007841 -0.005390
# 4 0.011875 0.002795 0.000112 0.043693 -0.015969 -0.017693
# 5 -0.020274 -0.005155 0.007841 -0.015969 0.042759 0.013149
# 6 -0.001146 -0.000259 -0.005390 -0.017693 0.013149 0.054800
#
#
# Mechanical properties :
#
#
# Convention : Reuss Voigt Hill
#
# Bulk Modulus (GPa) = 37.40809 69.83104 53.61956
# Shear Modulus (GPa) = 21.07203 32.52150 26.79676
#
# Velocity S-wave (km/s) = 3.34944 4.16106 3.77711
# Velocity P-wave (km/s) = 5.90545 7.76298 6.89704
#
# Compressibility (1/GPa) = 0.02673219
#
# Stress axis : x y z
#
# Youngs Moduli (GPa) = 36.68993 71.86197 63.47492
#
# Poissons Ratio (x) = -0.34488 0.77041
# Poissons Ratio (y) = -0.17608 0.49247
# Poissons Ratio (z) = 0.44531 0.55755
#
# Static dielectric constant tensor:
#      x y z
#    x 3.355860 0.011120 0.093560 
#    y 0.011120 3.644810 -0.031240 
#    z 0.093560 -0.031240 3.369660 
# 
# 
# High freq. dielectric constant tensor:
#      x y z
#    x 1.714000 -0.002970 0.012710 
#    y -0.002970 1.743660 -0.002050 
#    z 0.012710 -0.002050 1.720180 
# 
# From -- ./inp_files/398518.got.cif
#   From: 2010.06.25/outbox.cif.g09.slc.cpg/sg2_200_cif.got.tgz:398518.got - 2010.06.27 13:26:56.
