data_PCOD8012381
_publ_section_title
;
Structure prediction by ZEFSAII (Michael W. Deem and Ramdas Pophale) SiO2 
 PCOD8012381
Probable space group: P -1
;
_chemical_formula_sum "Si O2"
_cell_formula_units_Z 14
_cell_length_a 18.551456
_cell_length_b 11.752580
_cell_length_c 8.195028
_cell_angle_alpha 82.721777
_cell_angle_beta 66.040775
_cell_angle_gamma 26.341649
_cell_volume 587.569715
_symmetry_space_group_name_H-M "P -1"
_symmetry_group_IT_number 2
_symmetry_cell_setting 'triclinic'
loop_
_space_group_symop_operation_xyz
x,y,z
-x,-y,-z
loop_
_atom_site_type_symbol
_atom_site_label
_atom_site_fract_x
_atom_site_fract_y
_atom_site_fract_z
Si Si1 0.241808 0.629819 0.336177
Si Si2 0.203119 0.341467 0.008444
Si Si3 0.128956 0.691228 0.096906
Si Si4 0.010114 0.377389 0.183153
Si Si5 0.373106 0.227353 0.424370
Si Si6 0.593074 0.292033 0.213632
Si Si7 0.324967 0.596313 0.703060
O O1 0.267283 0.527698 0.161387
O O2 0.311210 0.447622 0.452384
O O3 0.400047 0.525996 0.219866
O O4 0.000000 0.000000 0.500000
O O5 0.151287 0.375388 0.862825
O O6 0.465100 0.004282 0.838622
O O7 0.084657 0.615910 0.129605
O O8 0.117831 0.342684 0.179520
O O9 0.273075 0.542651 0.839118
O O10 0.891160 0.071068 0.256631
O O11 0.859069 0.521512 0.433667
O O12 0.186793 0.052782 0.003213
O O13 0.500000 0.000000 0.500000
O O14 0.529000 0.318503 0.441918
O O15 0.623087 0.386894 0.198214
#
# Coordination Sequence:
#
# PCOD8012381 Si02
#       7
#     2   2   2   2   2   2   2
#     4  12  26  44  68 105 149 178 231 301 358 407
#     4  10  21  40  66  97 134 177 241 281 336 417
#     4  11  24  42  67  99 144 183 228 295 357 410
#     4  10  21  39  71 100 128 180 240 288 333 412
#     4  10  24  42  70 102 134 192 234 281 346 427
#     4  11  22  43  68 101 140 182 241 288 342 433
#     4  10  24  41  69 100 134 192 235 283 350 429
#
# _framework density 23.826961000000001
#
# number of rings (size 3 to 8) (size 9 to 14) (size 15 to 20)
#    0.000    1.429    4.286    0.000    6.000    1.143 
#    0.000    0.714    0.000    0.000    0.000    0.000 
#    0.000    0.000    0.000    0.000    0.000    0.000 
#
# Total GULP energy -173462.199255 kJ/mol
# GULP energy per Si atom -12390.157090 kJ/mol
# Density = 2.377273 g / cm^3
# Si number density = 23.826961 Si / 1000 Ang^3
#
#
#
# Elastic Constant Matrix: (Units=GPa)
#
#
# Indices 1 2 3 4 5 6 
#
# 1 149.9196 21.9945 33.5237 0.2896 -13.5666 -5.8568
# 2 21.9945 84.5198 21.0069 16.0641 2.9577 3.4132
# 3 33.5237 21.0069 99.7126 27.8350 -29.7530 -3.7688
# 4 0.2896 16.0641 27.8350 27.1070 -10.6207 4.3074
# 5 -13.5666 2.9577 -29.7530 -10.6207 35.0153 4.2921
# 6 -5.8568 3.4132 -3.7688 4.3074 4.2921 35.2147
#
#
#
# Elastic Compliance Matrix: (Units=1/GPa)
#
#
# Indices 1 2 3 4 5 6 
#
# 1 0.007881 -0.002413 -0.002870 0.005161 0.002345 0.000320
# 2 -0.002413 0.014925 -0.001534 -0.009770 -0.006459 -0.000030
# 3 -0.002870 -0.001534 0.018405 -0.014376 0.010029 0.002177
# 4 0.005161 -0.009770 -0.014376 0.063008 0.010794 -0.008756
# 5 0.002345 -0.006459 0.010029 0.010794 0.042347 -0.004392
# 6 0.000320 -0.000030 0.002177 -0.008756 -0.004392 0.030293
#
#
# Mechanical properties :
#
#
# Convention : Reuss Voigt Hill
#
# Bulk Modulus (GPa) = 36.26406 54.13358 45.19882
# Shear Modulus (GPa) = 25.03939 36.64253 30.84096
#
# Velocity S-wave (km/s) = 3.24525 3.92581 3.60164
# Velocity P-wave (km/s) = 5.41249 6.58165 6.02549
#
# Compressibility (1/GPa) = 0.02757551
#
# Stress axis : x y z
#
# Youngs Moduli (GPa) = 126.89065 67.00192 54.33350
#
# Poissons Ratio (x) = 0.16170 0.15594
# Poissons Ratio (y) = 0.30623 0.08335
# Poissons Ratio (z) = 0.36419 0.10279
#
# Static dielectric constant tensor:
#      x y z
#    x 4.767580 -0.212130 -0.537500 
#    y -0.212130 4.103340 0.121750 
#    z -0.537500 0.121750 4.591300 
# 
# 
# High freq. dielectric constant tensor:
#      x y z
#    x 1.954520 0.003400 -0.023260 
#    y 0.003400 1.913390 0.023230 
#    z -0.023260 0.023230 1.938120 
# 
# From -- ./inp_files/332039.got.cif
#   From: 2010.06.25/outbox.cif.g09.slc.cpg/sg2_167_cif.got.tgz:332039.got - 2010.06.27 13:26:56.
