data_PCOD8012269
_publ_section_title
;
Structure prediction by ZEFSAII (Michael W. Deem and Ramdas Pophale) SiO2 
 PCOD8012269
Probable space group: P -1
;
_chemical_formula_sum "Si O2"
_cell_formula_units_Z 16
_cell_length_a 12.986584
_cell_length_b 8.497758
_cell_length_c 21.901411
_cell_angle_alpha 34.535868
_cell_angle_beta 40.796435
_cell_angle_gamma 65.537606
_cell_volume 738.275703
_symmetry_space_group_name_H-M "P -1"
_symmetry_group_IT_number 2
_symmetry_cell_setting 'triclinic'
loop_
_space_group_symop_operation_xyz
x,y,z
-x,-y,-z
loop_
_atom_site_type_symbol
_atom_site_label
_atom_site_fract_x
_atom_site_fract_y
_atom_site_fract_z
Si Si1 0.548123 0.366401 0.358059
Si Si2 0.667770 0.715139 0.073002
Si Si3 0.292977 0.493194 0.364560
Si Si4 0.964537 0.601970 0.288323
Si Si5 0.705876 0.077460 0.674448
Si Si6 0.172813 0.129734 0.834810
Si Si7 0.070424 0.179316 0.297680
Si Si8 0.702571 0.358629 0.058418
O O1 0.697101 0.578628 0.167729
O O2 0.350618 0.334049 0.443650
O O3 0.635741 0.552628 0.322966
O O4 0.500000 0.000000 0.500000
O O5 0.469994 0.694475 0.172860
O O6 0.644761 0.471170 0.107794
O O7 0.844404 0.097037 0.860482
O O8 0.252422 0.746470 0.334055
O O9 0.111406 0.204050 0.501515
O O10 0.018705 0.417340 0.275551
O O11 0.821000 0.347997 0.484021
O O12 0.862068 0.750442 0.251484
O O13 0.771940 0.823021 0.731266
O O14 0.481836 0.875534 0.826130
O O15 0.204272 0.837660 0.900070
O O16 0.000000 0.000000 0.000000
O O17 0.144868 0.315082 0.153108
#
# Coordination Sequence:
#
# PCOD8012269 Si02
#       8
#     2   2   2   2   2   2   2   2
#     4  10  21  39  68  93 136 171 216 268 338 387
#     4  10  24  43  65  99 138 174 219 277 327 408
#     4  10  22  44  66  97 138 170 228 271 338 394
#     4  12  25  44  69 101 138 176 228 274 336 399
#     4  12  26  45  67 102 134 181 229 274 332 399
#     4  12  22  44  71  96 135 177 217 281 337 400
#     4  12  24  45  72  96 137 180 224 283 329 397
#     4  12  25  44  69 101 135 176 230 270 343 395
#
# _framework density 21.672122999999999
#
# number of rings (size 3 to 8) (size 9 to 14) (size 15 to 20)
#    0.750    0.000    3.750    4.125    1.750    2.000 
#    0.000    1.875    0.000    0.000    0.000    0.000 
#    0.000    0.000    0.000    0.000    0.000    0.000 
#
# Total GULP energy -198449.759648 kJ/mol
# GULP energy per Si atom -12403.109978 kJ/mol
# Density = 2.162280 g / cm^3
# Si number density = 21.672123 Si / 1000 Ang^3
#
#
#
# Elastic Constant Matrix: (Units=GPa)
#
#
# Indices 1 2 3 4 5 6 
#
# 1 66.4584 43.0770 15.1842 -0.1905 -1.0761 -12.5448
# 2 43.0770 85.5790 27.9999 7.1710 5.3272 1.9796
# 3 15.1842 27.9999 70.1689 4.1012 -1.5473 3.7472
# 4 -0.1905 7.1710 4.1012 32.7346 5.5909 -3.2895
# 5 -1.0761 5.3272 -1.5473 5.5909 30.6578 2.5310
# 6 -12.5448 1.9796 3.7472 -3.2895 2.5310 34.7498
#
#
#
# Elastic Compliance Matrix: (Units=1/GPa)
#
#
# Indices 1 2 3 4 5 6 
#
# 1 0.026019 -0.013439 -0.001029 0.004010 0.001596 0.010533
# 2 -0.013439 0.020712 -0.004887 -0.004040 -0.003113 -0.005660
# 3 -0.001029 -0.004887 0.016683 -0.001610 0.002130 -0.002200
# 4 0.004010 -0.004040 -0.001610 0.033182 -0.005736 0.005410
# 5 0.001596 -0.003113 0.002130 -0.005736 0.034578 -0.002538
# 6 0.010533 -0.005660 -0.002200 0.005410 -0.002538 0.033836
#
#
# Mechanical properties :
#
#
# Convention : Reuss Voigt Hill
#
# Bulk Modulus (GPa) = 40.48127 43.85873 42.17000
# Shear Modulus (GPa) = 23.58996 28.69147 26.14071
#
# Velocity S-wave (km/s) = 3.30281 3.64247 3.47679
# Velocity P-wave (km/s) = 5.76752 6.16210 5.96807
#
# Compressibility (1/GPa) = 0.02470278
#
# Stress axis : x y z
#
# Youngs Moduli (GPa) = 38.43414 48.28140 59.94229
#
# Poissons Ratio (x) = 0.64885 0.06170
# Poissons Ratio (y) = 0.51651 0.29293
# Poissons Ratio (z) = 0.03956 0.23595
#
# Static dielectric constant tensor:
#      x y z
#    x 3.879500 -0.126310 -0.085300 
#    y -0.126310 3.899240 0.020960 
#    z -0.085300 0.020960 3.871660 
# 
# 
# High freq. dielectric constant tensor:
#      x y z
#    x 1.848630 -0.002870 -0.008020 
#    y -0.002870 1.858180 -0.002100 
#    z -0.008020 -0.002100 1.852540 
# 
# From -- ./inp_files/611734.got.cif
#   From: 2010.06.25/outbox.cif.g09.slc.cpg/sg2_306_cif.got.tgz:611734.got - 2010.06.27 13:26:56.
