data_PCOD8012650
_publ_section_title
;
Structure prediction by ZEFSAII (Michael W. Deem and Ramdas Pophale) SiO2 
 PCOD8012650
Probable space group: P -1
;
_chemical_formula_sum "Si O2"
_cell_formula_units_Z 14
_cell_length_a 11.298467
_cell_length_b 8.182485
_cell_length_c 16.312750
_cell_angle_alpha 110.798278
_cell_angle_beta 141.074870
_cell_angle_gamma 49.460241
_cell_volume 683.349254
_symmetry_space_group_name_H-M "P -1"
_symmetry_group_IT_number 2
_symmetry_cell_setting 'triclinic'
loop_
_space_group_symop_operation_xyz
x,y,z
-x,-y,-z
loop_
_atom_site_type_symbol
_atom_site_label
_atom_site_fract_x
_atom_site_fract_y
_atom_site_fract_z
Si Si1 0.697929 0.007111 0.720846
Si Si2 0.731509 0.677890 0.351199
Si Si3 0.593463 0.446902 0.132770
Si Si4 0.894913 0.351165 0.008185
Si Si5 0.874673 0.415835 0.826408
Si Si6 0.575820 0.128883 0.387845
Si Si7 0.923559 0.047026 0.693256
O O1 0.599836 0.864132 0.638137
O O2 0.924556 0.880027 0.884217
O O3 0.475045 0.257901 0.681267
O O4 0.778625 0.020714 0.677994
O O5 0.699475 0.576884 0.235434
O O6 0.000000 0.500000 0.500000
O O7 0.686146 0.911523 0.348538
O O8 0.500000 0.500000 0.000000
O O9 0.380596 0.519854 0.092096
O O10 0.802937 0.180628 0.209308
O O11 0.949197 0.523984 0.081694
O O12 0.928153 0.287207 0.918467
O O13 0.589378 0.641216 0.712640
O O14 0.928576 0.247945 0.753356
O O15 0.789483 0.106938 0.544582
#
# Coordination Sequence:
#
# PCOD8012650 Si02
#       7
#     2   2   2   2   2   2   2
#     4   9  20  37  65  89 119 160 208 253 300 364
#     4  10  21  40  62  90 123 160 204 257 307 360
#     4  12  24  36  64  98 126 150 209 269 306 352
#     4  10  22  43  59  92 122 168 204 245 315 367
#     4  10  23  40  64  83 127 168 206 243 304 388
#     4   9  21  40  62  87 123 163 207 248 306 371
#     4  12  21  37  64  94 123 160 207 259 307 361
#
# _framework density 20.487327000000001
#
# number of rings (size 3 to 8) (size 9 to 14) (size 15 to 20)
#    0.857    0.857    2.857    1.714    2.000    1.714 
#    0.000    0.714    0.000    0.000    0.000    0.000 
#    0.000    0.000    0.000    0.000    0.000    0.000 
#
# Total GULP energy -173538.662751 kJ/mol
# GULP energy per Si atom -12395.618768 kJ/mol
# Density = 2.044070 g / cm^3
# Si number density = 20.487327 Si / 1000 Ang^3
#
#
#
# Elastic Constant Matrix: (Units=GPa)
#
#
# Indices 1 2 3 4 5 6 
#
# 1 44.1460 7.9664 15.9808 -3.2663 9.9864 -7.0942
# 2 7.9664 132.7887 66.9948 5.4484 10.1558 -15.3039
# 3 15.9808 66.9948 150.9339 9.3012 9.8197 -5.6082
# 4 -3.2663 5.4484 9.3012 44.0444 -7.2812 4.4547
# 5 9.9864 10.1558 9.8197 -7.2812 22.9792 -10.2206
# 6 -7.0942 -15.3039 -5.6082 4.4547 -10.2206 22.9968
#
#
#
# Elastic Compliance Matrix: (Units=1/GPa)
#
#
# Indices 1 2 3 4 5 6 
#
# 1 0.026031 0.000757 -0.002410 0.000507 -0.008682 0.003989
# 2 0.000757 0.010501 -0.004405 -0.001044 -0.000741 0.006021
# 3 -0.002410 -0.004405 0.009014 -0.001708 -0.002379 -0.002203
# 4 0.000507 -0.001044 -0.001708 0.024752 0.007798 -0.002284
# 5 -0.008682 -0.000741 -0.002379 0.007798 0.060780 0.021751
# 6 0.003989 0.006021 -0.002203 -0.002284 0.021751 0.058294
#
#
# Mechanical properties :
#
#
# Convention : Reuss Voigt Hill
#
# Bulk Modulus (GPa) = 29.91356 56.63917 43.27636
# Shear Modulus (GPa) = 23.51494 33.79916 28.65705
#
# Velocity S-wave (km/s) = 3.39157 4.06613 3.74407
# Velocity P-wave (km/s) = 5.47446 7.05340 6.31348
#
# Compressibility (1/GPa) = 0.03342965
#
# Stress axis : x y z
#
# Youngs Moduli (GPa) = 38.41624 95.22748 110.93780
#
# Poissons Ratio (x) = -0.07213 0.26742
# Poissons Ratio (y) = -0.02910 0.48869
# Poissons Ratio (z) = 0.09260 0.41949
#
# Static dielectric constant tensor:
#      x y z
#    x 3.374980 -0.052230 0.198640 
#    y -0.052230 3.753400 0.034140 
#    z 0.198640 0.034140 3.908680 
# 
# 
# High freq. dielectric constant tensor:
#      x y z
#    x 1.763220 -0.002960 0.016190 
#    y -0.002960 1.803330 0.000630 
#    z 0.016190 0.000630 1.819680 
# 
# From -- ./inp_files/298572.got.cif
#   From: 2010.06.25/outbox.cif.g09.slc.cpg/sg2_150_cif.got.tgz:298572.got - 2010.06.27 13:26:56.
