data_PCOD8012394
_publ_section_title
;
Structure prediction by ZEFSAII (Michael W. Deem and Ramdas Pophale) SiO2 
 PCOD8012394
Probable space group: P -1
;
_chemical_formula_sum "Si O2"
_cell_formula_units_Z 16
_cell_length_a 13.842048
_cell_length_b 16.835708
_cell_length_c 8.857487
_cell_angle_alpha 146.506772
_cell_angle_beta 40.071766
_cell_angle_gamma 141.078297
_cell_volume 674.081492
_symmetry_space_group_name_H-M "P -1"
_symmetry_group_IT_number 2
_symmetry_cell_setting 'triclinic'
loop_
_space_group_symop_operation_xyz
x,y,z
-x,-y,-z
loop_
_atom_site_type_symbol
_atom_site_label
_atom_site_fract_x
_atom_site_fract_y
_atom_site_fract_z
Si Si1 0.346132 0.044038 0.725811
Si Si2 0.922708 0.270307 0.126298
Si Si3 0.875741 0.949389 0.734097
Si Si4 0.422537 0.317024 0.468413
Si Si5 0.430702 0.638852 0.963944
Si Si6 0.629968 0.174318 0.138883
Si Si7 0.921723 0.398453 0.648355
Si Si8 0.122834 0.827059 0.404541
O O1 0.500000 0.000000 0.500000
O O2 0.248909 0.972702 0.577870
O O3 0.220907 0.992324 0.933200
O O4 0.416731 0.233373 0.927686
O O5 0.725280 0.209433 0.240841
O O6 0.980501 0.341819 0.335945
O O7 0.010910 0.411882 0.125089
O O8 0.970380 0.117286 0.797626
O O9 0.750693 0.825235 0.573632
O O10 0.992976 0.879947 0.562384
O O11 0.392486 0.466646 0.800867
O O12 0.530406 0.354522 0.248743
O O13 0.528663 0.282606 0.417421
O O14 0.273907 0.680213 0.238185
O O15 0.773151 0.219056 0.915240
O O16 0.500000 0.000000 0.000000
O O17 0.976728 0.323990 0.609460
#
# Coordination Sequence:
#
# PCOD8012394 Si02
#       8
#     2   2   2   2   2   2   2   2
#     4  11  20  40  73 100 131 178 233 277 333 406
#     4  11  26  43  68  99 146 176 222 291 351 395
#     4  11  23  43  71 103 139 177 231 287 339 415
#     4  10  22  43  67 100 136 174 226 290 338 406
#     4  10  21  39  71  97 131 174 232 284 334 402
#     4  12  26  45  70 101 135 183 233 284 347 414
#     4  11  24  45  69  99 139 182 228 281 349 411
#     4  12  25  42  76 102 131 188 236 278 342 418
#
# _framework density 23.736004000000001
#
# number of rings (size 3 to 8) (size 9 to 14) (size 15 to 20)
#    0.000    1.000    5.000    1.125    3.500    5.000 
#    2.250    0.625    0.000    0.000    0.000    0.000 
#    0.000    0.000    0.000    0.000    0.000    0.000 
#
# Total GULP energy -198377.437804 kJ/mol
# GULP energy per Si atom -12398.589863 kJ/mol
# Density = 2.368198 g / cm^3
# Si number density = 23.736004 Si / 1000 Ang^3
#
#
#
# Elastic Constant Matrix: (Units=GPa)
#
#
# Indices 1 2 3 4 5 6 
#
# 1 127.5156 38.5630 30.1598 14.8096 -30.6455 -6.2104
# 2 38.5630 121.9070 31.2010 32.9606 -10.2288 -8.5999
# 3 30.1598 31.2010 53.1270 27.3357 -17.5508 -8.3991
# 4 14.8096 32.9606 27.3357 52.0229 -1.0854 -4.2282
# 5 -30.6455 -10.2288 -17.5508 -1.0854 40.7005 7.8486
# 6 -6.2104 -8.5999 -8.3991 -4.2282 7.8486 34.6463
#
#
#
# Elastic Compliance Matrix: (Units=1/GPa)
#
#
# Indices 1 2 3 4 5 6 
#
# 1 0.010667 -0.002146 -0.002671 -0.000200 0.006482 -0.000761
# 2 -0.002146 0.010916 -0.002644 -0.004828 -0.000369 0.001178
# 3 -0.002671 -0.002644 0.033469 -0.014703 0.010838 0.002729
# 4 -0.000200 -0.004828 -0.014703 0.029954 -0.006990 0.000440
# 5 0.006482 -0.000369 0.010838 -0.006990 0.034817 -0.005043
# 6 -0.000761 0.001178 0.002729 0.000440 -0.005043 0.030877
#
#
# Mechanical properties :
#
#
# Convention : Reuss Voigt Hill
#
# Bulk Modulus (GPa) = 24.91950 55.82191 40.37071
# Shear Modulus (GPa) = 27.93301 38.98232 33.45766
#
# Velocity S-wave (km/s) = 3.43420 4.05696 3.75850
# Velocity P-wave (km/s) = 5.12312 6.74642 5.99001
#
# Compressibility (1/GPa) = 0.04012922
#
# Stress axis : x y z
#
# Youngs Moduli (GPa) = 93.74724 91.60724 29.87821
#
# Poissons Ratio (x) = 0.19663 0.07981
# Poissons Ratio (y) = 0.20122 0.07899
# Poissons Ratio (z) = 0.25042 0.24220
#
# Static dielectric constant tensor:
#      x y z
#    x 4.294680 -0.030610 -0.111220 
#    y -0.030610 4.617830 0.287470 
#    z -0.111220 0.287470 4.409740 
# 
# 
# High freq. dielectric constant tensor:
#      x y z
#    x 1.929310 0.004810 -0.002780 
#    y 0.004810 1.953170 0.015180 
#    z -0.002780 0.015180 1.942160 
# 
# From -- ./inp_files/274570.got.cif
#   From: 2010.06.25/outbox.cif.g09.slc.cpg/sg2_138_cif.got.tgz:274570.got - 2010.06.27 13:26:56.
