data_PCOD8012654
_publ_section_title
;
Structure prediction by ZEFSAII (Michael W. Deem and Ramdas Pophale) SiO2 
 PCOD8012654
Probable space group: P -1
;
_chemical_formula_sum "Si O2"
_cell_formula_units_Z 16
_cell_length_a 6.897205
_cell_length_b 11.246543
_cell_length_c 11.399771
_cell_angle_alpha 102.685607
_cell_angle_beta 59.005259
_cell_angle_gamma 101.423119
_cell_volume 735.685007
_symmetry_space_group_name_H-M "P -1"
_symmetry_group_IT_number 2
_symmetry_cell_setting 'triclinic'
loop_
_space_group_symop_operation_xyz
x,y,z
-x,-y,-z
loop_
_atom_site_type_symbol
_atom_site_label
_atom_site_fract_x
_atom_site_fract_y
_atom_site_fract_z
Si Si1 0.129751 0.190002 0.485415
Si Si2 0.435111 0.931024 0.736120
Si Si3 0.561431 0.142006 0.030894
Si Si4 0.702137 0.173513 0.753651
Si Si5 0.134347 0.758906 0.648828
Si Si6 0.743105 0.650511 0.884921
Si Si7 0.520969 0.592358 0.178600
Si Si8 0.438603 0.379400 0.565231
O O1 0.324489 0.100771 0.396144
O O2 0.221273 0.311159 0.554118
O O3 0.918183 0.125804 0.611775
O O4 0.050375 0.223468 0.388422
O O5 0.360734 0.847052 0.855735
O O6 0.232743 0.892564 0.699072
O O7 0.475810 0.076974 0.779238
O O8 0.353287 0.221761 0.089812
O O9 0.751013 0.183404 0.881406
O O10 0.500000 0.000000 0.000000
O O11 0.657139 0.306008 0.748583
O O12 0.345058 0.697629 0.516887
O O13 0.008107 0.670782 0.769283
O O14 0.612385 0.540372 0.828494
O O15 0.717771 0.621440 0.025525
O O16 0.631587 0.592794 0.273208
O O17 0.500000 0.500000 0.500000
#
# Coordination Sequence:
#
# PCOD8012654 Si02
#       8
#     2   2   2   2   2   2   2   2
#     4  11  22  40  62  92 123 165 205 255 317 356
#     4  10  22  40  63  94 123 162 211 255 302 373
#     4   9  19  39  64  90 122 159 206 254 302 364
#     4  10  21  40  62  90 130 161 202 259 309 363
#     4  11  23  40  65  93 124 164 208 255 313 360
#     4  10  21  40  67  90 126 165 201 257 311 364
#     4  10  22  41  63  94 125 162 208 253 308 368
#     4  11  25  40  62  93 126 162 213 252 299 382
#
# _framework density 21.748439000000001
#
# number of rings (size 3 to 8) (size 9 to 14) (size 15 to 20)
#    0.000    1.750    2.500    1.125    3.500    2.500 
#    2.250    6.250    0.000    0.000    0.000    0.000 
#    0.000    0.000    0.000    0.000    0.000    0.000 
#
# Total GULP energy -198312.112871 kJ/mol
# GULP energy per Si atom -12394.507054 kJ/mol
# Density = 2.169894 g / cm^3
# Si number density = 21.748439 Si / 1000 Ang^3
#
#
#
# Elastic Constant Matrix: (Units=GPa)
#
#
# Indices 1 2 3 4 5 6 
#
# 1 93.5750 34.3174 43.3947 -3.3799 20.1987 19.6729
# 2 34.3174 108.3181 25.5934 -0.2085 13.3476 12.0651
# 3 43.3947 25.5934 141.5957 -15.6178 18.7800 14.3250
# 4 -3.3799 -0.2085 -15.6178 31.6494 4.4996 0.5848
# 5 20.1987 13.3476 18.7800 4.4996 29.8688 -1.0624
# 6 19.6729 12.0651 14.3250 0.5848 -1.0624 30.7977
#
#
#
# Elastic Compliance Matrix: (Units=1/GPa)
#
#
# Indices 1 2 3 4 5 6 
#
# 1 0.016653 -0.002595 -0.002259 0.002137 -0.009321 -0.008933
# 2 -0.002595 0.010798 -0.000542 -0.000029 -0.002811 -0.002417
# 3 -0.002259 -0.000542 0.009388 0.005156 -0.005016 -0.002982
# 4 0.002137 -0.000029 0.005156 0.035915 -0.010255 -0.004787
# 5 -0.009321 -0.002811 -0.005016 -0.010255 0.046135 0.011175
# 6 -0.008933 -0.002417 -0.002982 -0.004787 0.011175 0.040986
#
#
# Mechanical properties :
#
#
# Convention : Reuss Voigt Hill
#
# Bulk Modulus (GPa) = 38.39173 61.12221 49.75697
# Shear Modulus (GPa) = 27.87846 34.47541 31.17693
#
# Velocity S-wave (km/s) = 3.58419 3.98576 3.79030
# Velocity P-wave (km/s) = 5.90081 7.02474 6.48716
#
# Compressibility (1/GPa) = 0.02604728
#
# Stress axis : x y z
#
# Youngs Moduli (GPa) = 60.04959 92.61152 106.51457
#
# Poissons Ratio (x) = 0.24028 0.24061
# Poissons Ratio (y) = 0.15580 0.05778
# Poissons Ratio (z) = 0.13565 0.05023
#
# Static dielectric constant tensor:
#      x y z
#    x 3.956000 0.041260 0.287210 
#    y 0.041260 3.961060 -0.053720 
#    z 0.287210 -0.053720 4.607700 
# 
# 
# High freq. dielectric constant tensor:
#      x y z
#    x 1.818080 0.006420 0.017190 
#    y 0.006420 1.858470 -0.000220 
#    z 0.017190 -0.000220 1.880430 
# 
# From -- ./inp_files/71122.got.cif
#   From: 2010.06.25/outbox.cif.g09.slc.cpg/sg2_36_cif.got.tgz:71122.got - 2010.06.27 13:26:56.
