data_PCOD8012426
_publ_section_title
;
Structure prediction by ZEFSAII (Michael W. Deem and Ramdas Pophale) SiO2 
 PCOD8012426
Probable space group: P -1
;
_chemical_formula_sum "Si O2"
_cell_formula_units_Z 16
_cell_length_a 14.602662
_cell_length_b 8.752107
_cell_length_c 13.618200
_cell_angle_alpha 137.753519
_cell_angle_beta 54.849624
_cell_angle_gamma 136.067710
_cell_volume 808.462938
_symmetry_space_group_name_H-M "P -1"
_symmetry_group_IT_number 2
_symmetry_cell_setting 'triclinic'
loop_
_space_group_symop_operation_xyz
x,y,z
-x,-y,-z
loop_
_atom_site_type_symbol
_atom_site_label
_atom_site_fract_x
_atom_site_fract_y
_atom_site_fract_z
Si Si1 0.847503 0.103508 0.963158
Si Si2 0.520276 0.147912 0.816968
Si Si3 0.248557 0.829405 0.742171
Si Si4 0.863667 0.754025 0.431261
Si Si5 0.372037 0.204516 0.448756
Si Si6 0.416897 0.384260 0.139825
Si Si7 0.338665 0.240487 0.709930
Si Si8 0.868986 0.630346 0.145122
O O1 0.815702 0.089925 0.092411
O O2 0.845933 0.337004 0.015320
O O3 0.993058 0.149703 0.887916
O O4 0.737658 0.831291 0.844367
O O5 0.589721 0.415371 0.836588
O O6 0.392415 0.906249 0.726528
O O7 0.612509 0.028384 0.720115
O O8 0.480524 0.222887 0.979202
O O9 0.165787 0.512272 0.619023
O O10 0.263323 0.987489 0.708917
O O11 0.747326 0.810876 0.545478
O O12 0.877552 0.716403 0.291617
O O13 0.000000 0.000000 0.500000
O O14 0.500000 0.500000 0.500000
O O15 0.337204 0.134005 0.551688
O O16 0.507634 0.548470 0.254992
O O17 0.255704 0.384051 0.836337
#
# Coordination Sequence:
#
# PCOD8012426 Si02
#       8
#     2   2   2   2   2   2   2   2
#     4   9  18  37  59  78 113 156 183 231 291 338
#     4   9  18  38  58  85 119 147 185 233 295 332
#     4   9  18  37  60  78 116 151 181 238 291 332
#     4  10  21  40  57  79 114 154 194 232 280 338
#     4  11  22  40  60  83 116 157 188 234 289 347
#     4   9  19  35  61  87 113 146 188 242 276 336
#     4  10  22  37  58  89 113 147 193 237 287 339
#     4   9  20  38  55  81 117 149 186 234 292 339
#
# _framework density 19.790641999999998
#
# number of rings (size 3 to 8) (size 9 to 14) (size 15 to 20)
#    0.000    2.500    1.250    0.750    1.750    4.000 
#   11.250    1.250    0.000    0.000    0.000    0.000 
#    0.000    0.000    0.000    0.000    0.000    0.000 
#
# Total GULP energy -198353.116218 kJ/mol
# GULP energy per Si atom -12397.069764 kJ/mol
# Density = 1.974560 g / cm^3
# Si number density = 19.790642 Si / 1000 Ang^3
#
#
#
# Elastic Constant Matrix: (Units=GPa)
#
#
# Indices 1 2 3 4 5 6 
#
# 1 61.1968 34.1102 7.6768 7.3654 -3.6395 4.1183
# 2 34.1102 120.9700 20.5206 10.4761 0.1196 12.8020
# 3 7.6768 20.5206 48.9425 13.6566 -19.6083 -3.6536
# 4 7.3654 10.4761 13.6566 33.7106 6.6631 5.8559
# 5 -3.6395 0.1196 -19.6083 6.6631 25.7334 -1.3397
# 6 4.1183 12.8020 -3.6536 5.8559 -1.3397 33.4510
#
#
#
# Elastic Compliance Matrix: (Units=1/GPa)
#
#
# Indices 1 2 3 4 5 6 
#
# 1 0.020309 -0.006137 0.004458 -0.006220 0.007999 0.001744
# 2 -0.006137 0.011889 -0.009649 0.004533 -0.009763 -0.006033
# 3 0.004458 -0.009649 0.055730 -0.034002 0.052845 0.017300
# 4 -0.006220 0.004533 -0.034002 0.054394 -0.041720 -0.015876
# 5 0.007999 -0.009763 0.052845 -0.041720 0.092122 0.019516
# 6 0.001744 -0.006033 0.017300 -0.015876 0.019516 0.037439
#
#
# Mechanical properties :
#
#
# Convention : Reuss Voigt Hill
#
# Bulk Modulus (GPa) = 15.32033 39.52495 27.42264
# Shear Modulus (GPa) = 15.80804 29.83245 22.82025
#
# Velocity S-wave (km/s) = 2.82931 3.88674 3.39939
# Velocity P-wave (km/s) = 4.29317 6.33697 5.41242
#
# Compressibility (1/GPa) = 0.06527275
#
# Stress axis : x y z
#
# Youngs Moduli (GPa) = 49.23936 84.10944 17.94381
#
# Poissons Ratio (x) = 0.51615 -0.08000
# Poissons Ratio (y) = 0.30217 0.17314
# Poissons Ratio (z) = -0.21952 0.81158
#
# Static dielectric constant tensor:
#      x y z
#    x 3.553280 0.043240 -0.245130 
#    y 0.043240 3.763470 -0.057590 
#    z -0.245130 -0.057590 3.398230 
# 
# 
# High freq. dielectric constant tensor:
#      x y z
#    x 1.753580 0.002640 -0.010730 
#    y 0.002640 1.781670 0.001540 
#    z -0.010730 0.001540 1.759180 
# 
# From -- ./inp_files/175310.got.cif
#   From: 2010.06.25/outbox.cif.g09.slc.cpg/sg2_88_cif.got.tgz:175310.got - 2010.06.27 13:26:56.
