data_PCOD8012692
_publ_section_title
;
Structure prediction by ZEFSAII (Michael W. Deem and Ramdas Pophale) SiO2 
 PCOD8012692
Probable space group: P -1
;
_chemical_formula_sum "Si O2"
_cell_formula_units_Z 16
_cell_length_a 17.895536
_cell_length_b 6.711242
_cell_length_c 11.169429
_cell_angle_alpha 72.222469
_cell_angle_beta 51.117061
_cell_angle_gamma 47.891651
_cell_volume 759.017365
_symmetry_space_group_name_H-M "P -1"
_symmetry_group_IT_number 2
_symmetry_cell_setting 'triclinic'
loop_
_space_group_symop_operation_xyz
x,y,z
-x,-y,-z
loop_
_atom_site_type_symbol
_atom_site_label
_atom_site_fract_x
_atom_site_fract_y
_atom_site_fract_z
Si Si1 0.445492 0.349496 0.569483
Si Si2 0.749181 0.955439 0.952993
Si Si3 0.842086 0.558839 0.720772
Si Si4 0.291245 0.607793 0.246309
Si Si5 0.165036 0.823008 0.758797
Si Si6 0.874670 0.935198 0.487040
Si Si7 0.494030 0.868974 0.716469
Si Si8 0.951124 0.796745 0.966256
O O1 0.500000 0.500000 0.500000
O O2 0.297920 0.536515 0.710533
O O3 0.473082 0.258474 0.422724
O O4 0.507537 0.102702 0.649137
O O5 0.680855 0.220544 0.887593
O O6 0.812383 0.680331 0.862265
O O7 0.648476 0.995034 0.135148
O O8 0.857938 0.920703 0.924086
O O9 0.740636 0.531882 0.787876
O O10 0.835496 0.759517 0.598639
O O11 0.975610 0.255195 0.638086
O O12 0.415671 0.358704 0.234568
O O13 0.178010 0.813504 0.415658
O O14 0.185072 0.951867 0.604218
O O15 0.119503 0.016220 0.882253
O O16 0.069051 0.778098 0.820800
O O17 0.000000 0.500000 0.000000
#
# Coordination Sequence:
#
# PCOD8012692 Si02
#       8
#     2   2   2   2   2   2   2   2
#     4  11  25  43  67  94 131 173 218 274 321 388
#     4  11  24  43  64  98 137 170 219 267 325 391
#     4  10  23  39  63  96 129 173 213 265 326 385
#     4  11  23  41  68  92 131 175 214 273 322 386
#     4  11  23  41  66  95 126 168 219 267 328 385
#     4  10  21  40  62  95 129 162 221 268 322 388
#     4  11  25  44  64  98 130 174 224 264 325 388
#     4  11  24  41  66  96 131 172 213 272 327 385
#
# _framework density 21.079885000000001
#
# number of rings (size 3 to 8) (size 9 to 14) (size 15 to 20)
#    0.000    1.250    1.250    3.750    1.750    8.500 
#    0.000    0.000    0.000    0.000    0.000    0.000 
#    0.000    0.000    0.000    0.000    0.000    0.000 
#
# Total GULP energy -198440.751207 kJ/mol
# GULP energy per Si atom -12402.546950 kJ/mol
# Density = 2.103191 g / cm^3
# Si number density = 21.079885 Si / 1000 Ang^3
#
#
#
# Elastic Constant Matrix: (Units=GPa)
#
#
# Indices 1 2 3 4 5 6 
#
# 1 110.9583 57.4766 43.4670 4.5460 -2.4216 7.0069
# 2 57.4766 124.9957 46.5170 -3.0386 -2.5298 -2.6210
# 3 43.4670 46.5170 63.7194 13.1380 -16.0572 13.2678
# 4 4.5460 -3.0386 13.1380 33.0794 -4.8885 4.8909
# 5 -2.4216 -2.5298 -16.0572 -4.8885 27.4536 -0.9842
# 6 7.0069 -2.6210 13.2678 4.8909 -0.9842 33.2447
#
#
#
# Elastic Compliance Matrix: (Units=1/GPa)
#
#
# Indices 1 2 3 4 5 6 
#
# 1 0.013806 -0.003522 -0.007780 0.000373 -0.003599 -0.000244
# 2 -0.003522 0.013782 -0.010820 0.004614 -0.004356 0.005339
# 3 -0.007780 -0.010820 0.038297 -0.010585 0.018387 -0.012396
# 4 0.000373 0.004614 -0.010585 0.034968 0.000472 -0.000621
# 5 -0.003599 -0.004356 0.018387 0.000472 0.046343 -0.005620
# 6 -0.000244 0.005339 -0.012396 -0.000621 -0.005620 0.035424
#
#
# Mechanical properties :
#
#
# Convention : Reuss Voigt Hill
#
# Bulk Modulus (GPa) = 46.20727 66.06606 56.13666
# Shear Modulus (GPa) = 21.36042 28.90305 25.13174
#
# Velocity S-wave (km/s) = 3.18670 3.70688 3.45659
# Velocity P-wave (km/s) = 5.95884 7.05196 6.52832
#
# Compressibility (1/GPa) = 0.02164162
#
# Stress axis : x y z
#
# Youngs Moduli (GPa) = 72.43151 72.55703 26.11195
#
# Poissons Ratio (x) = 0.25555 0.20315
# Poissons Ratio (y) = 0.25510 0.28252
# Poissons Ratio (z) = 0.56352 0.78504
#
# Static dielectric constant tensor:
#      x y z
#    x 3.708100 -0.026740 0.078370 
#    y -0.026740 4.132590 0.017050 
#    z 0.078370 0.017050 3.898860 
# 
# 
# High freq. dielectric constant tensor:
#      x y z
#    x 1.818760 -0.001100 0.006740 
#    y -0.001100 1.845410 -0.001640 
#    z 0.006740 -0.001640 1.835660 
# 
# From -- ./inp_files/68988.got.cif
#   From: 2010.06.25/outbox.cif.g09.slc.cpg/sg2_35_cif.got.tgz:68988.got - 2010.06.27 13:26:56.
