data_PCOD8012472
_publ_section_title
;
Structure prediction by ZEFSAII (Michael W. Deem and Ramdas Pophale) SiO2 
 PCOD8012472
Probable space group: P -1
;
_chemical_formula_sum "Si O2"
_cell_formula_units_Z 14
_cell_length_a 13.984657
_cell_length_b 7.009026
_cell_length_c 19.063186
_cell_angle_alpha 106.218438
_cell_angle_beta 19.831109
_cell_angle_gamma 105.844891
_cell_volume 608.372460
_symmetry_space_group_name_H-M "P -1"
_symmetry_group_IT_number 2
_symmetry_cell_setting 'triclinic'
loop_
_space_group_symop_operation_xyz
x,y,z
-x,-y,-z
loop_
_atom_site_type_symbol
_atom_site_label
_atom_site_fract_x
_atom_site_fract_y
_atom_site_fract_z
Si Si1 0.559175 0.382452 0.841793
Si Si2 0.117419 0.939140 0.001279
Si Si3 0.070691 0.355063 0.282137
Si Si4 0.167837 0.636106 0.055244
Si Si5 0.711895 0.083214 0.598615
Si Si6 0.790791 0.690793 0.442467
Si Si7 0.191344 0.719433 0.794821
O O1 0.769296 0.510265 0.757284
O O2 0.737073 0.202597 0.667132
O O3 0.292816 0.293738 0.061925
O O4 0.451859 0.518504 0.864768
O O5 0.038701 0.775806 0.979317
O O6 0.380537 0.080245 0.806867
O O7 0.214912 0.824810 0.991644
O O8 0.865865 0.096006 0.200999
O O9 0.918677 0.167737 0.404065
O O10 0.812887 0.474986 0.439732
O O11 0.065581 0.727473 0.208464
O O12 0.930352 0.487910 0.171366
O O13 0.793631 0.851269 0.520461
O O14 0.521813 0.698374 0.577987
#
# Coordination Sequence:
#
# PCOD8012472 Si02
#       7
#     2   2   2   2   2   2   2
#     4  10  23  45  69  92 127 172 208 258 330 364
#     4  10  23  37  63  96 127 165 215 253 323 376
#     4  10  24  47  64  94 132 163 213 267 307 385
#     4  11  22  41  65  94 129 169 210 264 313 380
#     4  11  23  41  65  95 127 167 210 263 311 376
#     4  10  25  39  65  99 123 168 220 252 322 373
#     4  10  21  40  59  94 129 170 208 260 318 372
#
# _framework density 23.012219000000002
#
# number of rings (size 3 to 8) (size 9 to 14) (size 15 to 20)
#    0.000    1.714    1.429    1.286    6.000    4.571 
#    2.571    2.143    0.000    0.000    0.000    0.000 
#    0.000    0.000    0.000    0.000    0.000    0.000 
#
# Total GULP energy -173476.640806 kJ/mol
# GULP energy per Si atom -12391.188629 kJ/mol
# Density = 2.295984 g / cm^3
# Si number density = 23.012219 Si / 1000 Ang^3
#
#
#
# Elastic Constant Matrix: (Units=GPa)
#
#
# Indices 1 2 3 4 5 6 
#
# 1 67.2678 13.5188 10.8072 -2.6997 5.2245 -0.2133
# 2 13.5188 55.2460 29.7332 -1.4699 8.9976 5.9150
# 3 10.8072 29.7332 67.0638 -0.4716 5.8675 -1.4312
# 4 -2.6997 -1.4699 -0.4716 27.4089 2.3808 9.1790
# 5 5.2245 8.9976 5.8675 2.3808 28.2109 -1.4660
# 6 -0.2133 5.9150 -1.4312 9.1790 -1.4660 24.2228
#
#
#
# Elastic Compliance Matrix: (Units=1/GPa)
#
#
# Indices 1 2 3 4 5 6 
#
# 1 0.015841 -0.002973 -0.001056 0.001507 -0.001887 0.000118
# 2 -0.002973 0.027017 -0.011086 0.004713 -0.006650 -0.009467
# 3 -0.001056 -0.011086 0.020086 -0.001888 -0.000048 0.004597
# 4 0.001507 0.004713 -0.001888 0.043424 -0.005993 -0.018067
# 5 -0.001887 -0.006650 -0.000048 -0.005993 0.038757 0.006221
# 6 0.000118 -0.009467 0.004597 -0.018067 0.006221 0.051091
#
#
# Mechanical properties :
#
#
# Convention : Reuss Voigt Hill
#
# Bulk Modulus (GPa) = 30.56966 33.07731 31.82348
# Shear Modulus (GPa) = 21.06596 25.00309 23.03453
#
# Velocity S-wave (km/s) = 3.02888 3.29981 3.16724
# Velocity P-wave (km/s) = 5.05422 5.37804 5.21864
#
# Compressibility (1/GPa) = 0.03271217
#
# Stress axis : x y z
#
# Youngs Moduli (GPa) = 63.12919 37.01380 49.78704
#
# Poissons Ratio (x) = 0.11004 0.05260
# Poissons Ratio (y) = 0.18767 0.55195
# Poissons Ratio (z) = 0.06669 0.41034
#
# Static dielectric constant tensor:
#      x y z
#    x 4.185410 0.032320 0.096480 
#    y 0.032320 4.121660 0.244870 
#    z 0.096480 0.244870 4.098080 
# 
# 
# High freq. dielectric constant tensor:
#      x y z
#    x 1.906080 0.010750 -0.000180 
#    y 0.010750 1.904340 0.019220 
#    z -0.000180 0.019220 1.899320 
# 
# From -- ./inp_files/201304.got.cif
#   From: 2010.06.25/outbox.cif.g09.slc.cpg/sg2_101_cif.got.tgz:201304.got - 2010.06.27 13:26:56.
