data_PCOD8012016
_publ_section_title
;
Structure prediction by ZEFSAII (Michael W. Deem and Ramdas Pophale) SiO2 
 PCOD8012016
Probable space group: P -1
;
_chemical_formula_sum "Si O2"
_cell_formula_units_Z 16
_cell_length_a 15.156385
_cell_length_b 9.546670
_cell_length_c 12.792370
_cell_angle_alpha 36.389447
_cell_angle_beta 42.054175
_cell_angle_gamma 58.072217
_cell_volume 724.427953
_symmetry_space_group_name_H-M "P -1"
_symmetry_group_IT_number 2
_symmetry_cell_setting 'triclinic'
loop_
_space_group_symop_operation_xyz
x,y,z
-x,-y,-z
loop_
_atom_site_type_symbol
_atom_site_label
_atom_site_fract_x
_atom_site_fract_y
_atom_site_fract_z
Si Si1 0.761172 0.462417 0.050347
Si Si2 0.152440 0.700854 0.139802
Si Si3 0.437121 0.395384 0.725215
Si Si4 0.853780 0.681545 0.448788
Si Si5 0.849142 0.005797 0.603135
Si Si6 0.902169 0.148287 0.243249
Si Si7 0.286725 0.587789 0.450323
Si Si8 0.793174 0.827500 0.067508
O O1 0.620277 0.405388 0.272309
O O2 0.876233 0.401462 0.065697
O O3 0.764646 0.314091 0.030119
O O4 0.771283 0.739280 0.845744
O O5 0.155671 0.470505 0.346048
O O6 0.996306 0.700538 0.252220
O O7 0.223408 0.942467 0.987965
O O8 0.500000 0.500000 0.500000
O O9 0.555026 0.304817 0.741384
O O10 0.310520 0.188737 0.929208
O O11 0.737282 0.564234 0.543901
O O12 0.836722 0.948085 0.336900
O O13 0.828527 0.095620 0.449869
O O14 0.793346 0.191292 0.617570
O O15 0.000000 0.000000 0.500000
O O16 0.058057 0.142477 0.127745
O O17 0.234923 0.413262 0.696073
#
# Coordination Sequence:
#
# PCOD8012016 Si02
#       8
#     2   2   2   2   2   2   2   2
#     4  12  24  42  66  96 131 172 218 268 326 379
#     4  10  21  39  66  99 129 163 213 273 327 383
#     4  10  24  45  64  91 129 177 223 262 313 388
#     4  10  21  39  65  96 135 164 208 271 331 382
#     4  12  25  39  65 102 133 161 213 273 326 386
#     4  11  22  41  68 100 132 164 212 273 332 385
#     4  11  24  42  62  93 130 175 218 260 323 386
#     4  10  21  40  68  95 128 175 214 262 330 387
#
# _framework density 22.086393000000001
#
# number of rings (size 3 to 8) (size 9 to 14) (size 15 to 20)
#    0.000    1.250    1.250    5.250    5.250    4.000 
#    0.000    7.500    0.000    0.000    0.000    0.000 
#    0.000    0.000    0.000    0.000    0.000    0.000 
#
# Total GULP energy -198370.175821 kJ/mol
# GULP energy per Si atom -12398.135989 kJ/mol
# Density = 2.203612 g / cm^3
# Si number density = 22.086393 Si / 1000 Ang^3
#
#
#
# Elastic Constant Matrix: (Units=GPa)
#
#
# Indices 1 2 3 4 5 6 
#
# 1 115.2767 40.4879 23.0913 2.7089 -21.9911 7.8412
# 2 40.4879 120.7066 40.6296 15.5307 -6.6747 7.6654
# 3 23.0913 40.6296 70.3910 -0.9101 5.6340 1.3462
# 4 2.7089 15.5307 -0.9101 43.5436 2.8978 3.1266
# 5 -21.9911 -6.6747 5.6340 2.8978 34.8494 2.8883
# 6 7.8412 7.6654 1.3462 3.1266 2.8883 33.1479
#
#
#
# Elastic Compliance Matrix: (Units=1/GPa)
#
#
# Indices 1 2 3 4 5 6 
#
# 1 0.011769 -0.002246 -0.003136 -0.000313 0.007760 -0.002784
# 2 -0.002246 0.011994 -0.006401 -0.004305 0.002421 -0.001787
# 3 -0.003136 -0.006401 0.019480 0.003212 -0.006764 0.001717
# 4 -0.000313 -0.004305 0.003212 0.024901 -0.003521 -0.001103
# 5 0.007760 0.002421 -0.006764 -0.003521 0.035849 -0.004912
# 6 -0.002784 -0.001787 0.001717 -0.001103 -0.004912 0.031702
#
#
# Mechanical properties :
#
#
# Convention : Reuss Voigt Hill
#
# Bulk Modulus (GPa) = 50.82356 57.19908 54.01132
# Shear Modulus (GPa) = 30.15312 35.78588 32.96950
#
# Velocity S-wave (km/s) = 3.69892 4.02962 3.86781
# Velocity P-wave (km/s) = 6.42681 6.89961 6.66740
#
# Compressibility (1/GPa) = 0.01967592
#
# Stress axis : x y z
#
# Youngs Moduli (GPa) = 84.96965 83.37702 51.33418
#
# Poissons Ratio (x) = 0.18723 0.16101
# Poissons Ratio (y) = 0.19081 0.32861
# Poissons Ratio (z) = 0.26650 0.53373
#
# Static dielectric constant tensor:
#      x y z
#    x 4.141320 0.037570 -0.033020 
#    y 0.037570 4.169310 0.088820 
#    z -0.033020 0.088820 4.219770 
# 
# 
# High freq. dielectric constant tensor:
#      x y z
#    x 1.860000 0.011570 0.019150 
#    y 0.011570 1.877850 0.000820 
#    z 0.019150 0.000820 1.861670 
# 
# From -- ./inp_files/446604.got.cif
#   From: 2010.06.25/outbox.cif.g09.slc.cpg/sg2_224_cif.got.tgz:446604.got - 2010.06.27 13:26:56.
