data_PCOD8012443
_publ_section_title
;
Structure prediction by ZEFSAII (Michael W. Deem and Ramdas Pophale) SiO2 
 PCOD8012443
Probable space group: P -1
;
_chemical_formula_sum "Si O2"
_cell_formula_units_Z 16
_cell_length_a 12.461006
_cell_length_b 9.546139
_cell_length_c 9.292621
_cell_angle_alpha 48.236041
_cell_angle_beta 78.209218
_cell_angle_gamma 89.869300
_cell_volume 793.443252
_symmetry_space_group_name_H-M "P -1"
_symmetry_group_IT_number 2
_symmetry_cell_setting 'triclinic'
loop_
_space_group_symop_operation_xyz
x,y,z
-x,-y,-z
loop_
_atom_site_type_symbol
_atom_site_label
_atom_site_fract_x
_atom_site_fract_y
_atom_site_fract_z
Si Si1 0.825189 0.496048 0.492307
Si Si2 0.936465 0.235120 0.457632
Si Si3 0.412784 0.981733 0.662598
Si Si4 0.168157 0.875365 0.735997
Si Si5 0.593078 0.599406 0.513414
Si Si6 0.159881 0.530523 0.171245
Si Si7 0.590570 0.417468 0.940411
Si Si8 0.036840 0.115285 0.769804
O O1 0.847351 0.363994 0.443698
O O2 0.714464 0.581300 0.430864
O O3 0.820971 0.392226 0.721298
O O4 0.933551 0.663387 0.348416
O O5 0.891790 0.126628 0.399927
O O6 0.063070 0.345144 0.318339
O O7 0.941879 0.087512 0.689475
O O8 0.299310 0.912320 0.653522
O O9 0.500000 0.000000 0.500000
O O10 0.415955 0.179012 0.612312
O O11 0.428996 0.813729 0.883800
O O12 0.145214 0.052635 0.714803
O O13 0.121778 0.684630 0.970378
O O14 0.500000 0.500000 0.500000
O O15 0.568086 0.473425 0.747701
O O16 0.281088 0.488426 0.114731
O O17 0.500000 0.500000 0.000000
O O18 0.000000 0.000000 0.000000
#
# Coordination Sequence:
#
# PCOD8012443 Si02
#       8
#     2   2   2   2   2   2   2   2
#     4  10  21  40  59  83 120 159 201 242 311 365
#     4  11  22  36  60  91 118 161 202 251 303 364
#     4  11  23  41  67  90 123 167 205 254 323 370
#     4  11  22  38  60  91 120 151 208 256 298 367
#     4  11  24  42  66  92 123 159 213 265 306 367
#     4   9  20  37  61  84 120 161 198 243 312 364
#     4  10  21  40  66  93 123 167 206 250 321 373
#     4  11  21  38  59  84 124 160 194 240 305 365
#
# _framework density 20.165271000000001
#
# number of rings (size 3 to 8) (size 9 to 14) (size 15 to 20)
#    0.000    1.500    2.500    3.750    1.750    0.500 
#    0.000    1.250    0.000    0.000    0.000    0.000 
#    0.000    0.000    0.000    0.000    0.000    0.000 
#
# Total GULP energy -198329.486624 kJ/mol
# GULP energy per Si atom -12395.592914 kJ/mol
# Density = 2.011937 g / cm^3
# Si number density = 20.165271 Si / 1000 Ang^3
#
#
#
# Elastic Constant Matrix: (Units=GPa)
#
#
# Indices 1 2 3 4 5 6 
#
# 1 98.1112 47.3078 45.4592 4.0070 1.2244 -4.9677
# 2 47.3078 87.3515 43.8762 2.7173 -0.5171 -4.9203
# 3 45.4592 43.8762 131.0838 -3.8870 12.9899 1.9563
# 4 4.0070 2.7173 -3.8870 24.4410 -4.3967 1.3487
# 5 1.2244 -0.5171 12.9899 -4.3967 36.1398 7.6123
# 6 -4.9677 -4.9203 1.9563 1.3487 7.6123 41.0354
#
#
#
# Elastic Compliance Matrix: (Units=1/GPa)
#
#
# Indices 1 2 3 4 5 6 
#
# 1 0.014848 -0.006335 -0.003114 -0.002299 -0.000021 0.001266
# 2 -0.006335 0.016811 -0.003618 -0.001230 0.001351 0.001211
# 3 -0.003114 -0.003618 0.010313 0.002011 -0.003247 -0.000766
# 4 -0.002299 -0.001230 0.002011 0.042835 0.005157 -0.002886
# 5 -0.000021 0.001351 -0.003247 0.005157 0.030652 -0.005541
# 6 0.001266 0.001211 -0.000766 -0.002886 -0.005541 0.025827
#
#
# Mechanical properties :
#
#
# Convention : Reuss Voigt Hill
#
# Bulk Modulus (GPa) = 63.14189 65.53701 64.33945
# Shear Modulus (GPa) = 28.95219 32.31677 30.63448
#
# Velocity S-wave (km/s) = 3.79323 4.00759 3.90188
# Velocity P-wave (km/s) = 7.11091 7.34744 7.23014
#
# Compressibility (1/GPa) = 0.01583735
#
# Stress axis : x y z
#
# Youngs Moduli (GPa) = 67.34903 59.48593 96.96881
#
# Poissons Ratio (x) = 0.37682 0.30195
# Poissons Ratio (y) = 0.42663 0.35088
# Poissons Ratio (z) = 0.20972 0.21525
#
# Static dielectric constant tensor:
#      x y z
#    x 9.983660 -1.512990 -7.559010 
#    y -1.512990 3.753680 1.506840 
#    z -7.559010 1.506840 13.443380 
# 
# 
# High freq. dielectric constant tensor:
#      x y z
#    x 1.796280 -0.022960 0.004630 
#    y -0.022960 1.769870 0.002710 
#    z 0.004630 0.002710 1.795990 
# 
# From -- ./inp_files/186422.got.cif
#   From: 2010.06.25/outbox.cif.g09.slc.cpg/sg2_94_cif.got.tgz:186422.got - 2010.06.27 13:26:56.
