data_PCOD8012499
_publ_section_title
;
Structure prediction by ZEFSAII (Michael W. Deem and Ramdas Pophale) SiO2 
 PCOD8012499
Probable space group: P -1
;
_chemical_formula_sum "Si O2"
_cell_formula_units_Z 16
_cell_length_a 21.846645
_cell_length_b 19.899049
_cell_length_c 13.766790
_cell_angle_alpha 153.764591
_cell_angle_beta 36.043973
_cell_angle_gamma 161.024322
_cell_volume 826.857644
_symmetry_space_group_name_H-M "P -1"
_symmetry_group_IT_number 2
_symmetry_cell_setting 'triclinic'
loop_
_space_group_symop_operation_xyz
x,y,z
-x,-y,-z
loop_
_atom_site_type_symbol
_atom_site_label
_atom_site_fract_x
_atom_site_fract_y
_atom_site_fract_z
Si Si1 0.426448 0.353621 0.108352
Si Si2 0.179901 0.295141 0.027508
Si Si3 0.966915 0.309437 0.014367
Si Si4 0.214801 0.363033 0.294581
Si Si5 0.276125 0.732007 0.822478
Si Si6 0.653881 0.662913 0.596738
Si Si7 0.705039 0.380523 0.142537
Si Si8 0.037627 0.693388 0.764227
O O1 0.632055 0.542308 0.054694
O O2 0.366456 0.419026 0.201449
O O3 0.450970 0.440479 0.299711
O O4 0.261149 0.019609 0.882004
O O5 0.232312 0.410738 0.219055
O O6 0.007830 0.956498 0.806483
O O7 0.112856 0.359440 0.137616
O O8 0.172569 0.520667 0.978402
O O9 0.833591 0.996071 0.780465
O O10 0.881350 0.340950 0.103057
O O11 0.001587 0.406675 0.205345
O O12 0.277487 0.593149 0.566897
O O13 0.222042 0.614209 0.847629
O O14 0.484055 0.071556 0.996676
O O15 0.500000 0.500000 0.500000
O O16 0.737810 0.598063 0.402057
O O17 0.000000 0.500000 0.500000
#
# Coordination Sequence:
#
# PCOD8012499 Si02
#       8
#     2   2   2   2   2   2   2   2
#     4  10  22  39  61  88 116 159 201 243 298 354
#     4  10  22  38  63  87 117 158 201 243 298 356
#     4  11  24  39  64  88 118 163 201 241 303 356
#     4  10  21  40  60  88 121 153 199 248 293 354
#     4  11  23  41  60  90 124 154 197 254 294 354
#     4  11  22  41  62  87 124 157 200 250 291 357
#     4  11  24  41  61  89 122 158 202 246 298 353
#     4  10  23  40  58  89 123 150 200 251 294 356
#
# _framework density 19.350368
#
# number of rings (size 3 to 8) (size 9 to 14) (size 15 to 20)
#    0.000    1.500    2.500    1.875    1.750    3.500 
#    0.000    0.000    0.000    0.000    0.000    0.000 
#    0.000    0.000    0.000    0.000    0.000    0.000 
#
# Total GULP energy -198478.344900 kJ/mol
# GULP energy per Si atom -12404.896556 kJ/mol
# Density = 1.930633 g / cm^3
# Si number density = 19.350368 Si / 1000 Ang^3
#
#
#
# Elastic Constant Matrix: (Units=GPa)
#
#
# Indices 1 2 3 4 5 6 
#
# 1 101.3190 57.7805 39.8449 0.4155 6.0314 3.7652
# 2 57.7805 79.9747 6.8689 -34.9701 -8.5264 11.2250
# 3 39.8449 6.8689 98.6273 -22.4137 1.2313 1.1074
# 4 0.4155 -34.9701 -22.4137 11.1518 0.3137 -2.7231
# 5 6.0314 -8.5264 1.2313 0.3137 34.7487 -2.8110
# 6 3.7652 11.2250 1.1074 -2.7231 -2.8110 25.1868
#
#
#
# Elastic Compliance Matrix: (Units=1/GPa)
#
#
# Indices 1 2 3 4 5 6 
#
# 1 0.005577 0.005732 0.002461 0.022450 0.000063 -0.001062
# 2 0.005732 -0.003551 -0.008685 -0.029308 -0.001474 -0.002225
# 3 0.002461 -0.008685 0.006725 -0.013379 -0.002556 0.001475
# 4 0.022450 -0.029308 -0.013379 -0.028184 -0.009862 0.006146
# 5 0.000063 -0.001474 -0.002556 -0.009862 0.028821 0.002910
# 6 -0.001062 -0.002225 0.001475 0.006146 0.002910 0.041778
#
#
# Mechanical properties :
#
#
# Convention : Reuss Voigt Hill
#
# Bulk Modulus (GPa) = 128.79225 54.32329 91.55777
# Shear Modulus (GPa) = 91.34040 25.91257 58.62648
#
# Velocity S-wave (km/s) = 6.87793 3.66338 5.51027
# Velocity P-wave (km/s) = 11.39197 6.78441 9.37564
#
# Compressibility (1/GPa) = 0.00776444
#
# Stress axis : x y z
#
# Youngs Moduli (GPa) = 179.30137 -281.58095 148.70374
#
# Poissons Ratio (x) = 1.61389 -0.36592
# Poissons Ratio (y) = -1.02767 1.29154
# Poissons Ratio (z) = -0.44121 -2.44562
#
# Static dielectric constant tensor:
#      x y z
#    x 3.785510 -0.120150 -0.011250 
#    y -0.120150 3.401510 0.049820 
#    z -0.011250 0.049820 3.633700 
# 
# 
# High freq. dielectric constant tensor:
#      x y z
#    x 1.775590 -0.004110 0.003130 
#    y -0.004110 1.748330 -0.002170 
#    z 0.003130 -0.002170 1.762880 
# 
# From -- ./inp_files/90140.got.cif
#   From: 2010.06.25/outbox.cif.g09.slc.cpg/sg2_46_cif.got.tgz:90140.got - 2010.06.27 13:26:56.
