data_PCOD8012503
_publ_section_title
;
Structure prediction by ZEFSAII (Michael W. Deem and Ramdas Pophale) SiO2 
 PCOD8012503
Probable space group: P -1
;
_chemical_formula_sum "Si O2"
_cell_formula_units_Z 16
_cell_length_a 12.071774
_cell_length_b 11.525249
_cell_length_c 20.103824
_cell_angle_alpha 39.076949
_cell_angle_beta 31.655314
_cell_angle_gamma 58.937771
_cell_volume 831.927513
_symmetry_space_group_name_H-M "P -1"
_symmetry_group_IT_number 2
_symmetry_cell_setting 'triclinic'
loop_
_space_group_symop_operation_xyz
x,y,z
-x,-y,-z
loop_
_atom_site_type_symbol
_atom_site_label
_atom_site_fract_x
_atom_site_fract_y
_atom_site_fract_z
Si Si1 0.337522 0.553967 0.353291
Si Si2 0.529380 0.092303 0.625417
Si Si3 0.521777 0.647784 0.362197
Si Si4 0.156445 0.222048 0.057394
Si Si5 0.944232 0.190114 0.638540
Si Si6 0.020908 0.797936 0.985554
Si Si7 0.079159 0.005751 0.531177
Si Si8 0.048652 0.644261 0.781201
O O1 0.375169 0.533972 0.422069
O O2 0.152793 0.340401 0.512483
O O3 0.251924 0.729712 0.306923
O O4 0.579002 0.610738 0.165659
O O5 0.581466 0.200975 0.623096
O O6 0.639235 0.928175 0.642210
O O7 0.252592 0.993457 0.801576
O O8 0.667794 0.260065 0.421079
O O9 0.500000 0.500000 0.500000
O O10 0.795956 0.783767 0.146460
O O11 0.013136 0.318516 0.129418
O O12 0.171378 0.028255 0.169654
O O13 0.008873 0.158170 0.094630
O O14 0.036160 0.164725 0.529722
O O15 0.062177 0.596925 0.067425
O O16 0.946493 0.768047 0.730607
O O17 0.000000 0.000000 0.500000
#
# Coordination Sequence:
#
# PCOD8012503 Si02
#       8
#     2   2   2   2   2   2   2   2
#     4  10  23  38  64  84 119 156 198 244 292 345
#     4  10  22  37  58  85 117 152 194 240 289 348
#     4  11  21  40  60  83 123 157 192 248 291 343
#     4  10  22  36  60  86 121 152 194 242 290 351
#     4  10  21  40  60  90 113 157 199 240 293 349
#     4  11  22  36  59  87 116 156 197 235 295 353
#     4   9  19  39  64  82 120 155 191 242 296 342
#     4   9  21  37  56  86 119 152 186 244 288 344
#
# _framework density 19.232444000000001
#
# number of rings (size 3 to 8) (size 9 to 14) (size 15 to 20)
#    0.750    1.250    1.250    1.875    3.500    0.500 
#    0.000    0.625    8.250    0.000    0.000    0.000 
#    0.000    0.000    0.000    0.000    0.000    0.000 
#
# Total GULP energy -198225.006873 kJ/mol
# GULP energy per Si atom -12389.062930 kJ/mol
# Density = 1.918867 g / cm^3
# Si number density = 19.232444 Si / 1000 Ang^3
#
#
#
# Elastic Constant Matrix: (Units=GPa)
#
#
# Indices 1 2 3 4 5 6 
#
# 1 108.9957 25.8124 41.2991 11.2257 3.8222 17.3559
# 2 25.8124 92.8404 22.6070 16.1563 8.7241 21.2488
# 3 41.2991 22.6070 77.6367 13.7300 0.8979 20.6192
# 4 11.2257 16.1563 13.7300 30.5807 -0.1244 10.6646
# 5 3.8222 8.7241 0.8979 -0.1244 27.9236 1.2972
# 6 17.3559 21.2488 20.6192 10.6646 1.2972 28.0949
#
#
#
# Elastic Compliance Matrix: (Units=1/GPa)
#
#
# Indices 1 2 3 4 5 6 
#
# 1 0.011929 -0.001341 -0.005251 -0.000530 -0.000943 -0.002257
# 2 -0.001341 0.014116 -0.000594 -0.004028 -0.003868 -0.007705
# 3 -0.005251 -0.000594 0.018755 -0.003057 0.000703 -0.008943
# 4 -0.000530 -0.004028 -0.003057 0.039738 0.002050 -0.009562
# 5 -0.000943 -0.003868 0.000703 0.002050 0.037113 0.000500
# 6 -0.002257 -0.007705 -0.008943 -0.009562 0.000500 0.052985
#
#
# Mechanical properties :
#
#
# Convention : Reuss Voigt Hill
#
# Bulk Modulus (GPa) = 32.86461 50.98997 41.92729
# Shear Modulus (GPa) = 25.10671 29.97013 27.53842
#
# Velocity S-wave (km/s) = 3.61700 3.95183 3.78812
# Velocity P-wave (km/s) = 5.87952 6.88423 6.40162
#
# Compressibility (1/GPa) = 0.03042787
#
# Stress axis : x y z
#
# Youngs Moduli (GPa) = 83.83036 70.83971 53.32045
#
# Poissons Ratio (x) = 0.09497 0.28000
# Poissons Ratio (y) = 0.11238 0.03167
# Poissons Ratio (z) = 0.44022 0.04208
#
# Static dielectric constant tensor:
#      x y z
#    x 3.420520 0.045200 0.154800 
#    y 0.045200 3.788560 0.246880 
#    z 0.154800 0.246880 3.398100 
# 
# 
# High freq. dielectric constant tensor:
#      x y z
#    x 1.739740 0.003570 0.014280 
#    y 0.003570 1.764970 0.015420 
#    z 0.014280 0.015420 1.736500 
# 
# From -- ./inp_files/595094.got.cif
#   From: 2010.06.25/outbox.cif.g09.slc.cpg/sg2_298_cif.got.tgz:595094.got - 2010.06.27 13:26:56.
