data_PCOD8012548
_publ_section_title
;
Structure prediction by ZEFSAII (Michael W. Deem and Ramdas Pophale) SiO2 
 PCOD8012548
Probable space group: P -1
;
_chemical_formula_sum "Si O2"
_cell_formula_units_Z 14
_cell_length_a 7.621673
_cell_length_b 22.756650
_cell_length_c 13.704301
_cell_angle_alpha 18.135419
_cell_angle_beta 119.141273
_cell_angle_gamma 122.721682
_cell_volume 619.187617
_symmetry_space_group_name_H-M "P -1"
_symmetry_group_IT_number 2
_symmetry_cell_setting 'triclinic'
loop_
_space_group_symop_operation_xyz
x,y,z
-x,-y,-z
loop_
_atom_site_type_symbol
_atom_site_label
_atom_site_fract_x
_atom_site_fract_y
_atom_site_fract_z
Si Si1 0.759654 0.810602 0.470143
Si Si2 0.216450 0.829083 0.614392
Si Si3 0.565645 0.814433 0.613192
Si Si4 0.439414 0.805994 0.897879
Si Si5 0.128281 0.742965 0.235989
Si Si6 0.696521 0.471293 0.529962
Si Si7 0.422713 0.520087 0.725376
O O1 0.595554 0.784257 0.555445
O O2 0.655666 0.649075 0.615910
O O3 0.968888 0.772951 0.628898
O O4 0.808715 0.024254 0.097777
O O5 0.313891 0.751036 0.668295
O O6 0.288810 0.723738 0.894322
O O7 0.326713 0.068045 0.274063
O O8 0.664939 0.041743 0.314042
O O9 0.665423 0.675117 0.926037
O O10 0.453239 0.635971 0.249885
O O11 0.187849 0.686702 0.231353
O O12 0.261854 0.650766 0.493013
O O13 0.880160 0.657609 0.324298
O O14 0.570775 0.535141 0.302489
#
# Coordination Sequence:
#
# PCOD8012548 Si02
#       7
#     2   2   2   2   2   2   2
#     4  12  22  39  68  84 125 169 188 250 305 355
#     4   9  23  37  63  95 118 149 219 231 313 351
#     4  10  21  40  61  87 126 156 196 260 284 358
#     4   9  19  42  59  90 125 152 199 262 289 357
#     4   9  20  35  59  94 116 154 209 239 291 365
#     4   9  19  37  63  87 122 158 200 248 303 347
#     4  10  22  37  60  95 121 157 207 239 302 366
#
# _framework density 22.610271000000001
#
# number of rings (size 3 to 8) (size 9 to 14) (size 15 to 20)
#    1.714    0.571    1.429    0.857    4.000    1.143 
#    0.000    3.571    0.000    0.000    0.000    0.000 
#    0.000    0.000    0.000    0.000    0.000    0.000 
#
# Total GULP energy -173496.125537 kJ/mol
# GULP energy per Si atom -12392.580396 kJ/mol
# Density = 2.255881 g / cm^3
# Si number density = 22.610271 Si / 1000 Ang^3
#
#
#
# Elastic Constant Matrix: (Units=GPa)
#
#
# Indices 1 2 3 4 5 6 
#
# 1 54.2346 25.1919 9.6819 0.3652 -6.6092 -2.8342
# 2 25.1919 126.0417 49.8204 -2.4778 -5.8739 16.3457
# 3 9.6819 49.8204 142.0995 22.2965 -2.7084 5.3067
# 4 0.3652 -2.4778 22.2965 30.4344 6.6580 1.7369
# 5 -6.6092 -5.8739 -2.7084 6.6580 22.7402 12.9847
# 6 -2.8342 16.3457 5.3067 1.7369 12.9847 26.9250
#
#
#
# Elastic Compliance Matrix: (Units=1/GPa)
#
#
# Indices 1 2 3 4 5 6 
#
# 1 0.021183 -0.004725 0.000465 -0.001969 0.003639 0.003379
# 2 -0.004725 0.012113 -0.003912 0.003128 0.006254 -0.010298
# 3 0.000465 -0.003912 0.009703 -0.008031 0.002821 -0.000331
# 4 -0.001969 0.003128 -0.008031 0.042164 -0.015475 0.004219
# 5 0.003639 0.006254 0.002821 -0.015475 0.073432 -0.038384
# 6 0.003379 -0.010298 -0.000331 0.004219 -0.038384 0.062051
#
#
# Mechanical properties :
#
#
# Convention : Reuss Voigt Hill
#
# Bulk Modulus (GPa) = 37.51472 54.64046 46.07759
# Shear Modulus (GPa) = 20.33541 31.86536 26.10039
#
# Velocity S-wave (km/s) = 3.00223 3.75818 3.40127
# Velocity P-wave (km/s) = 5.35218 6.56129 5.98733
#
# Compressibility (1/GPa) = 0.02665620
#
# Stress axis : x y z
#
# Youngs Moduli (GPa) = 47.20673 82.55603 103.05633
#
# Poissons Ratio (x) = 0.39010 -0.04796
# Poissons Ratio (y) = 0.22306 0.40316
# Poissons Ratio (z) = -0.02197 0.32296
#
# Static dielectric constant tensor:
#      x y z
#    x 3.901860 -0.021200 0.149470 
#    y -0.021200 3.653710 0.105630 
#    z 0.149470 0.105630 4.017180 
# 
# 
# High freq. dielectric constant tensor:
#      x y z
#    x 1.887690 -0.000660 0.018850 
#    y -0.000660 1.863860 0.013570 
#    z 0.018850 0.013570 1.901790 
# 
# From -- ./inp_files/508977.got.cif
#   From: 2010.06.25/outbox.cif.g09.slc.cpg/sg2_255_cif.got.tgz:508977.got - 2010.06.27 13:26:56.
