data_PCOD8012913
_publ_section_title
;
Structure prediction by ZEFSAII (Michael W. Deem and Ramdas Pophale) SiO2 
 PCOD8012913
Probable space group: P -1
;
_chemical_formula_sum "Si O2"
_cell_formula_units_Z 16
_cell_length_a 9.720084
_cell_length_b 16.236912
_cell_length_c 9.337771
_cell_angle_alpha 33.774103
_cell_angle_beta 101.361610
_cell_angle_gamma 113.380411
_cell_volume 726.064981
_symmetry_space_group_name_H-M "P -1"
_symmetry_group_IT_number 2
_symmetry_cell_setting 'triclinic'
loop_
_space_group_symop_operation_xyz
x,y,z
-x,-y,-z
loop_
_atom_site_type_symbol
_atom_site_label
_atom_site_fract_x
_atom_site_fract_y
_atom_site_fract_z
Si Si1 0.409819 0.046335 0.627922
Si Si2 0.147378 0.961447 0.910854
Si Si3 0.006336 0.354082 0.307525
Si Si4 0.884986 0.380682 0.537553
Si Si5 0.163195 0.020024 0.158020
Si Si6 0.521790 0.805013 0.883448
Si Si7 0.399435 0.641647 0.645806
Si Si8 0.350573 0.471249 0.184745
O O1 0.415504 0.111661 0.375729
O O2 0.559557 0.171372 0.568506
O O3 0.421177 0.874414 0.859077
O O4 0.261840 0.051883 0.671274
O O5 0.174321 0.798956 0.152494
O O6 0.185966 0.042625 0.958833
O O7 0.973081 0.934197 0.878095
O O8 0.171815 0.346205 0.351405
O O9 0.990939 0.408078 0.383145
O O10 0.875121 0.167043 0.523723
O O11 0.000000 0.500000 0.000000
O O12 0.738083 0.418076 0.412319
O O13 0.000000 0.500000 0.500000
O O14 0.320784 0.158926 0.051849
O O15 0.410221 0.615353 0.107195
O O16 0.548506 0.630043 0.623641
O O17 0.353127 0.530427 0.937823
#
# Coordination Sequence:
#
# PCOD8012913 Si02
#       8
#     2   2   2   2   2   2   2   2
#     4  10  21  40  64  91 123 165 214 264 322 376
#     4  10  23  42  63  85 133 174 205 252 325 395
#     4  11  22  41  68  90 126 171 210 258 324 378
#     4  11  25  39  60  93 128 165 214 255 312 387
#     4  10  23  42  63  94 125 170 216 260 316 387
#     4  10  23  37  65  98 125 154 224 277 303 367
#     4  10  21  42  63  91 128 167 210 258 325 385
#     4  10  22  40  66  95 125 165 209 273 320 367
#
# _framework density 22.036594999999998
#
# number of rings (size 3 to 8) (size 9 to 14) (size 15 to 20)
#    0.000    1.750    1.250    2.250    7.000    2.500 
#    0.000    0.625    0.000    0.000    0.000    0.000 
#    0.000    0.000    0.000    0.000    0.000    0.000 
#
# Total GULP energy -198253.437505 kJ/mol
# GULP energy per Si atom -12390.839844 kJ/mol
# Density = 2.198644 g / cm^3
# Si number density = 22.036595 Si / 1000 Ang^3
#
#
#
# Elastic Constant Matrix: (Units=GPa)
#
#
# Indices 1 2 3 4 5 6 
#
# 1 140.3667 38.7803 3.0316 9.7971 4.1861 -7.6636
# 2 38.7803 101.0929 10.3308 0.0486 12.3687 12.0224
# 3 3.0316 10.3308 29.7256 -0.0935 4.1252 -13.1500
# 4 9.7971 0.0486 -0.0935 20.2829 -2.9700 0.3150
# 5 4.1861 12.3687 4.1252 -2.9700 34.6684 5.9255
# 6 -7.6636 12.0224 -13.1500 0.3150 5.9255 36.9927
#
#
#
# Elastic Compliance Matrix: (Units=1/GPa)
#
#
# Indices 1 2 3 4 5 6 
#
# 1 0.008735 -0.003973 0.002467 -0.004413 -0.001023 0.004179
# 2 -0.003973 0.013273 -0.007195 0.001677 -0.001993 -0.007389
# 3 0.002467 -0.007195 0.045784 -0.002278 -0.006833 0.020238
# 4 -0.004413 0.001677 -0.002278 0.052250 0.005290 -0.003561
# 5 -0.001023 -0.001993 -0.006833 0.005290 0.032175 -0.007192
# 6 0.004179 -0.007389 0.020238 -0.003561 -0.007192 0.038676
#
#
# Mechanical properties :
#
#
# Convention : Reuss Voigt Hill
#
# Bulk Modulus (GPa) = 19.84494 41.71895 30.78194
# Shear Modulus (GPa) = 22.21326 32.99165 27.60246
#
# Velocity S-wave (km/s) = 3.17837 3.87347 3.54301
# Velocity P-wave (km/s) = 4.74283 6.24322 5.54402
#
# Compressibility (1/GPa) = 0.05039069
#
# Stress axis : x y z
#
# Youngs Moduli (GPa) = 114.47960 75.34173 21.84172
#
# Poissons Ratio (x) = 0.29931 -0.05388
# Poissons Ratio (y) = 0.45479 0.15714
# Poissons Ratio (z) = -0.28238 0.54206
#
# Static dielectric constant tensor:
#      x y z
#    x 4.142250 -0.159510 0.057730 
#    y -0.159510 3.933620 -0.086800 
#    z 0.057730 -0.086800 3.807740 
# 
# 
# High freq. dielectric constant tensor:
#      x y z
#    x 1.880840 -0.007290 -0.001030 
#    y -0.007290 1.861120 -0.001890 
#    z -0.001030 -0.001890 1.855540 
# 
# From -- ./inp_files/205320.got.cif
#   From: 2010.06.25/outbox.cif.g09.slc.cpg/sg2_103_cif.got.tgz:205320.got - 2010.06.27 13:26:56.
