data_PCOD8012386
_publ_section_title
;
Structure prediction by ZEFSAII (Michael W. Deem and Ramdas Pophale) SiO2 
 PCOD8012386
Probable space group: P -1
;
_chemical_formula_sum "Si O2"
_cell_formula_units_Z 16
_cell_length_a 16.115903
_cell_length_b 11.716904
_cell_length_c 13.170559
_cell_angle_alpha 60.425922
_cell_angle_beta 142.604508
_cell_angle_gamma 146.797203
_cell_volume 709.066506
_symmetry_space_group_name_H-M "P -1"
_symmetry_group_IT_number 2
_symmetry_cell_setting 'triclinic'
loop_
_space_group_symop_operation_xyz
x,y,z
-x,-y,-z
loop_
_atom_site_type_symbol
_atom_site_label
_atom_site_fract_x
_atom_site_fract_y
_atom_site_fract_z
Si Si1 0.004301 0.562776 0.366518
Si Si2 0.760372 0.465368 0.512067
Si Si3 0.904738 0.886966 0.846251
Si Si4 0.403831 0.110384 0.497585
Si Si5 0.509025 0.671334 0.324461
Si Si6 0.018929 0.100233 0.373355
Si Si7 0.422649 0.355125 0.087607
Si Si8 0.472258 0.664583 0.069072
O O1 0.028559 0.466138 0.350312
O O2 0.000000 0.500000 0.500000
O O3 0.249282 0.852031 0.468302
O O4 0.744560 0.429527 0.155648
O O5 0.572171 0.236071 0.505092
O O6 0.885149 0.677219 0.608480
O O7 0.627625 0.417925 0.302569
O O8 0.775009 0.910907 0.670491
O O9 0.727857 0.618188 0.779139
O O10 0.000000 0.000000 0.000000
O O11 0.154856 0.063777 0.942272
O O12 0.546898 0.259245 0.677891
O O13 0.776621 0.806234 0.543536
O O14 0.523954 0.758312 0.192202
O O15 0.000000 0.000000 0.500000
O O16 0.724885 0.875793 0.149411
O O17 0.391919 0.446566 0.101760
O O18 0.500000 0.500000 0.000000
#
# Coordination Sequence:
#
# PCOD8012386 Si02
#       8
#     2   2   2   2   2   2   2   2
#     4  12  29  49  71 100 140 197 238 285 357 429
#     4  12  25  47  69 103 146 187 234 294 355 412
#     4  12  20  41  72 105 142 177 231 287 354 414
#     4  12  25  45  71  99 144 187 233 296 351 423
#     4  11  23  42  75 110 138 181 235 296 361 412
#     4  10  21  39  71 106 143 170 229 299 358 400
#     4  12  24  38  71 107 138 182 237 292 343 415
#     4  11  23  44  70 101 143 184 232 294 354 416
#
# _framework density 22.564878
#
# number of rings (size 3 to 8) (size 9 to 14) (size 15 to 20)
#    0.000    0.500    7.500    1.500    5.250    0.500 
#    0.000    0.625    0.000    0.000    0.000    0.000 
#    0.000    0.000    0.000    0.000    0.000    0.000 
#
# Total GULP energy -198287.032362 kJ/mol
# GULP energy per Si atom -12392.939523 kJ/mol
# Density = 2.251352 g / cm^3
# Si number density = 22.564878 Si / 1000 Ang^3
#
#
#
# Elastic Constant Matrix: (Units=GPa)
#
#
# Indices 1 2 3 4 5 6 
#
# 1 109.0552 36.3992 20.6594 -4.4281 2.8198 13.0880
# 2 36.3992 160.2179 36.9389 -0.8013 8.9264 10.4288
# 3 20.6594 36.9389 96.3003 13.5120 13.6023 9.4270
# 4 -4.4281 -0.8013 13.5120 39.7557 9.3921 8.5684
# 5 2.8198 8.9264 13.6023 9.3921 28.8188 -4.2510
# 6 13.0880 10.4288 9.4270 8.5684 -4.2510 40.0922
#
#
#
# Elastic Compliance Matrix: (Units=1/GPa)
#
#
# Indices 1 2 3 4 5 6 
#
# 1 0.010575 -0.001770 -0.001472 0.002629 -0.001140 -0.003328
# 2 -0.001770 0.007351 -0.002275 0.001394 -0.001673 -0.001275
# 3 -0.001472 -0.002275 0.012809 -0.003142 -0.004429 -0.001738
# 4 0.002629 0.001394 -0.003142 0.030768 -0.010437 -0.008164
# 5 -0.001140 -0.001673 -0.004429 -0.010437 0.042081 0.008541
# 6 -0.003328 -0.001275 -0.001738 -0.008164 0.008541 0.029420
#
#
# Mechanical properties :
#
#
# Convention : Reuss Voigt Hill
#
# Bulk Modulus (GPa) = 50.75496 61.50760 56.13128
# Shear Modulus (GPa) = 33.19959 39.83840 36.51900
#
# Velocity S-wave (km/s) = 3.83991 4.20635 4.02730
# Velocity P-wave (km/s) = 6.49627 7.13502 6.82312
#
# Compressibility (1/GPa) = 0.01970251
#
# Stress axis : x y z
#
# Youngs Moduli (GPa) = 94.56378 136.03334 78.06937
#
# Poissons Ratio (x) = 0.24076 0.11491
# Poissons Ratio (y) = 0.16736 0.17758
# Poissons Ratio (z) = 0.13918 0.30943
#
# Static dielectric constant tensor:
#      x y z
#    x 4.208430 0.219460 0.037260 
#    y 0.219460 4.746930 0.738420 
#    z 0.037260 0.738420 4.448610 
# 
# 
# High freq. dielectric constant tensor:
#      x y z
#    x 1.903190 0.017180 -0.016270 
#    y 0.017180 1.893810 0.018070 
#    z -0.016270 0.018070 1.876830 
# 
# From -- ./inp_files/381020.got.cif
#   From: 2010.06.25/outbox.cif.g09.slc.cpg/sg2_191_cif.got.tgz:381020.got - 2010.06.27 13:26:56.
