data_PCOD8012065
_publ_section_title
;
Structure prediction by ZEFSAII (Michael W. Deem and Ramdas Pophale) SiO2 
 PCOD8012065
Probable space group: P -1
;
_chemical_formula_sum "Si O2"
_cell_formula_units_Z 16
_cell_length_a 24.611936
_cell_length_b 11.617295
_cell_length_c 18.027112
_cell_angle_alpha 29.795411
_cell_angle_beta 160.928050
_cell_angle_gamma 139.234821
_cell_volume 771.810074
_symmetry_space_group_name_H-M "P -1"
_symmetry_group_IT_number 2
_symmetry_cell_setting 'triclinic'
loop_
_space_group_symop_operation_xyz
x,y,z
-x,-y,-z
loop_
_atom_site_type_symbol
_atom_site_label
_atom_site_fract_x
_atom_site_fract_y
_atom_site_fract_z
Si Si1 0.678213 0.228054 0.669582
Si Si2 0.311476 0.652496 0.541700
Si Si3 0.856328 0.582131 0.432287
Si Si4 0.120039 0.716760 0.792624
Si Si5 0.004078 0.955572 0.154697
Si Si6 0.533716 0.926909 0.736036
Si Si7 0.518020 0.592078 0.389082
Si Si8 0.734161 0.765914 0.662791
O O1 0.618600 0.412759 0.416909
O O2 0.654814 0.384362 0.627381
O O3 0.559168 0.057073 0.619610
O O4 0.886259 0.033656 0.034835
O O5 0.263311 0.438762 0.639489
O O6 0.461756 0.707426 0.751893
O O7 0.126508 0.904217 0.161276
O O8 0.029785 0.634627 0.652242
O O9 0.917943 0.339218 0.594936
O O10 0.726331 0.816686 0.086695
O O11 0.317956 0.711558 0.028673
O O12 0.132239 0.523116 0.984440
O O13 0.000000 0.000000 0.500000
O O14 0.166877 0.045631 0.324517
O O15 0.397338 0.152733 0.481848
O O16 0.500000 0.500000 0.500000
O O17 0.618619 0.783389 0.428236
#
# Coordination Sequence:
#
# PCOD8012065 Si02
#       8
#     2   2   2   2   2   2   2   2
#     4  10  23  39  65  98 128 175 212 270 325 382
#     4  10  22  39  62  94 134 169 216 252 336 377
#     4  12  23  39  67  99 136 171 217 268 319 392
#     4  11  22  37  63  99 123 164 224 269 308 380
#     4  10  23  40  65  95 131 173 213 259 332 379
#     4  12  22  38  68  99 129 174 217 264 321 392
#     4  10  21  39  66  90 122 174 220 261 316 392
#     4  11  21  41  69  90 128 176 225 254 322 398
#
# _framework density 20.730488000000001
#
# number of rings (size 3 to 8) (size 9 to 14) (size 15 to 20)
#    0.750    0.500    5.000    2.625    1.750    1.000 
#    0.000    0.000    0.000    3.750    0.000    0.000 
#    0.000    0.000    0.000    0.000    0.000    0.000 
#
# Total GULP energy -198241.193601 kJ/mol
# GULP energy per Si atom -12390.074600 kJ/mol
# Density = 2.068330 g / cm^3
# Si number density = 20.730488 Si / 1000 Ang^3
#
#
#
# Elastic Constant Matrix: (Units=GPa)
#
#
# Indices 1 2 3 4 5 6 
#
# 1 115.8580 39.6586 34.2218 0.1069 19.7120 -9.1875
# 2 39.6586 130.7697 57.4320 22.5315 13.0249 -21.5892
# 3 34.2218 57.4320 91.7377 15.8001 12.9610 -8.9525
# 4 0.1069 22.5315 15.8001 43.9625 -5.9862 -1.1683
# 5 19.7120 13.0249 12.9610 -5.9862 27.2859 2.0507
# 6 -9.1875 -21.5892 -8.9525 -1.1683 2.0507 22.8925
#
#
#
# Elastic Compliance Matrix: (Units=1/GPa)
#
#
# Indices 1 2 3 4 5 6 
#
# 1 0.011066 -0.001410 -0.002190 0.000695 -0.006343 0.002858
# 2 -0.001410 0.013521 -0.005319 -0.005405 -0.004866 0.010266
# 3 -0.002190 -0.005319 0.016412 -0.003768 -0.004558 0.000740
# 4 0.000695 -0.005405 -0.003768 0.028142 0.010477 -0.005794
# 5 -0.006343 -0.004866 -0.004558 0.010477 0.048978 -0.012770
# 6 0.002858 0.010266 0.000740 -0.005794 -0.012770 0.055648
#
#
# Mechanical properties :
#
#
# Convention : Reuss Voigt Hill
#
# Bulk Modulus (GPa) = 43.17352 66.77669 54.97511
# Shear Modulus (GPa) = 25.08452 32.63169 28.85810
#
# Velocity S-wave (km/s) = 3.48232 3.97179 3.73508
# Velocity P-wave (km/s) = 6.08606 7.30173 6.72143
#
# Compressibility (1/GPa) = 0.02316234
#
# Stress axis : x y z
#
# Youngs Moduli (GPa) = 90.36595 73.95695 60.92992
#
# Poissons Ratio (x) = 0.10431 0.13342
# Poissons Ratio (y) = 0.12745 0.32406
# Poissons Ratio (z) = 0.19787 0.39335
#
# Static dielectric constant tensor:
#      x y z
#    x 3.565200 -0.054720 0.101190 
#    y -0.054720 3.971540 0.377850 
#    z 0.101190 0.377850 3.707290 
# 
# 
# High freq. dielectric constant tensor:
#      x y z
#    x 1.787210 -0.004880 0.012340 
#    y -0.004880 1.818800 0.017200 
#    z 0.012340 0.017200 1.800120 
# 
# From -- ./inp_files/579143.got.cif
#   From: 2010.06.25/outbox.cif.g09.slc.cpg/sg2_290_cif.got.tgz:579143.got - 2010.06.27 13:26:56.
