data_PCOD8012560
_publ_section_title
;
Structure prediction by ZEFSAII (Michael W. Deem and Ramdas Pophale) SiO2 
 PCOD8012560
Probable space group: P -1
;
_chemical_formula_sum "Si O2"
_cell_formula_units_Z 14
_cell_length_a 23.972643
_cell_length_b 13.867502
_cell_length_c 24.462349
_cell_angle_alpha 21.308644
_cell_angle_beta 11.607404
_cell_angle_gamma 21.792749
_cell_volume 580.281695
_symmetry_space_group_name_H-M "P -1"
_symmetry_group_IT_number 2
_symmetry_cell_setting 'triclinic'
loop_
_space_group_symop_operation_xyz
x,y,z
-x,-y,-z
loop_
_atom_site_type_symbol
_atom_site_label
_atom_site_fract_x
_atom_site_fract_y
_atom_site_fract_z
Si Si1 0.606975 0.897653 0.537314
Si Si2 0.670169 0.365311 0.153210
Si Si3 0.043164 0.371681 0.413367
Si Si4 0.324094 0.177238 0.766204
Si Si5 0.090275 0.718248 0.531787
Si Si6 0.345899 0.903342 0.004247
Si Si7 0.795175 0.515141 0.137095
O O1 0.415864 0.750841 0.760097
O O2 0.892614 0.689502 0.392637
O O3 0.720978 0.133145 0.272582
O O4 0.405276 0.010668 0.721405
O O5 0.425004 0.618697 0.273432
O O6 0.954164 0.476130 0.814199
O O7 0.983063 0.237145 0.484931
O O8 0.379563 0.331651 0.120449
O O9 0.928784 0.212543 0.656310
O O10 0.545414 0.362926 0.469017
O O11 0.329966 0.969617 0.920389
O O12 0.004304 0.368685 0.965067
O O13 0.000000 0.000000 0.500000
O O14 0.346146 0.166553 0.903858
O O15 0.000000 0.500000 0.000000
#
# Coordination Sequence:
#
# PCOD8012560 Si02
#       7
#     2   2   2   2   2   2   2
#     4  10  25  44  66  97 128 174 222 257 321 383
#     4  10  24  45  68  91 131 167 208 276 322 369
#     4  11  24  40  63  91 133 168 203 263 316 377
#     4  11  23  39  66  94 126 168 219 262 308 396
#     4  11  24  44  68  98 125 163 216 266 324 386
#     4  11  22  40  62  92 130 170 204 261 326 365
#     4  10  21  40  61  89 126 166 214 267 314 366
#
# _framework density 24.126214999999998
#
# number of rings (size 3 to 8) (size 9 to 14) (size 15 to 20)
#    0.000    1.429    0.000    6.429    0.000   15.429 
#    0.000    0.000    0.000    0.000    0.000    0.000 
#    0.000    0.000    0.000    0.000    0.000    0.000 
#
# Total GULP energy -173652.994628 kJ/mol
# GULP energy per Si atom -12403.785331 kJ/mol
# Density = 2.407130 g / cm^3
# Si number density = 24.126215 Si / 1000 Ang^3
#
#
#
# Elastic Constant Matrix: (Units=GPa)
#
#
# Indices 1 2 3 4 5 6 
#
# 1 65.2248 57.6123 23.4404 -0.2605 28.6860 7.1708
# 2 57.6123 131.4416 8.3823 13.7934 26.9422 9.3862
# 3 23.4404 8.3823 90.7927 1.6903 21.2314 -4.2593
# 4 -0.2605 13.7934 1.6903 42.4832 -0.0091 3.6948
# 5 28.6860 26.9422 21.2314 -0.0091 29.9157 4.6876
# 6 7.1708 9.3862 -4.2593 3.6948 4.6876 33.2317
#
#
#
# Elastic Compliance Matrix: (Units=1/GPa)
#
#
# Indices 1 2 3 4 5 6 
#
# 1 0.036893 -0.011736 -0.003514 0.004388 -0.021922 -0.002492
# 2 -0.011736 0.013658 0.002508 -0.004598 -0.002813 -0.000096
# 3 -0.003514 0.002508 0.014080 -0.001691 -0.009411 0.003370
# 4 0.004388 -0.004598 -0.001691 0.025380 0.001598 -0.002912
# 5 -0.021922 -0.002813 -0.009411 0.001598 0.064436 -0.004948
# 6 -0.002492 -0.000096 0.003370 -0.002912 -0.004948 0.032110
#
#
# Mechanical properties :
#
#
# Convention : Reuss Voigt Hill
#
# Bulk Modulus (GPa) = 25.54412 51.81435 38.67924
# Shear Modulus (GPa) = 22.21341 34.32772 28.27057
#
# Velocity S-wave (km/s) = 3.03762 3.77615 3.42684
# Velocity P-wave (km/s) = 4.78681 6.36674 5.63245
#
# Compressibility (1/GPa) = 0.03914795
#
# Stress axis : x y z
#
# Youngs Moduli (GPa) = 27.10535 73.21728 71.02332
#
# Poissons Ratio (x) = 0.85926 0.24956
# Poissons Ratio (y) = 0.31810 -0.17812
# Poissons Ratio (z) = 0.09524 -0.18362
#
# Static dielectric constant tensor:
#      x y z
#    x 4.153810 0.148690 0.229950 
#    y 0.148690 4.909870 0.335520 
#    z 0.229950 0.335520 4.400380 
# 
# 
# High freq. dielectric constant tensor:
#      x y z
#    x 1.942820 0.003420 0.012540 
#    y 0.003420 1.972710 0.010720 
#    z 0.012540 0.010720 1.969520 
# 
# From -- ./inp_files/619994.got.cif
#   From: 2010.06.25/outbox.cif.g09.slc.cpg/sg2_310_cif.got.tgz:619994.got - 2010.06.27 13:26:56.
