data_PCOD8012250
_publ_section_title
;
Structure prediction by ZEFSAII (Michael W. Deem and Ramdas Pophale) SiO2 
 PCOD8012250
Probable space group: P -1
;
_chemical_formula_sum "Si O2"
_cell_formula_units_Z 16
_cell_length_a 9.100001
_cell_length_b 15.788817
_cell_length_c 12.725067
_cell_angle_alpha 49.407748
_cell_angle_beta 131.303366
_cell_angle_gamma 147.170810
_cell_volume 723.611433
_symmetry_space_group_name_H-M "P -1"
_symmetry_group_IT_number 2
_symmetry_cell_setting 'triclinic'
loop_
_space_group_symop_operation_xyz
x,y,z
-x,-y,-z
loop_
_atom_site_type_symbol
_atom_site_label
_atom_site_fract_x
_atom_site_fract_y
_atom_site_fract_z
Si Si1 0.467631 0.738232 0.131023
Si Si2 0.134876 0.754810 0.118204
Si Si3 0.913789 0.996425 0.845095
Si Si4 0.540917 0.513077 0.632703
Si Si5 0.993669 0.871233 0.636746
Si Si6 0.477332 0.052912 0.165367
Si Si7 0.721936 0.727659 0.833601
Si Si8 0.155322 0.459054 0.654525
O O1 0.324804 0.742517 0.158140
O O2 0.343699 0.560873 0.215019
O O3 0.401554 0.778066 0.958752
O O4 0.808395 0.862995 0.206435
O O5 0.078122 0.692589 0.260252
O O6 0.307148 0.940149 0.071721
O O7 0.840969 0.660592 0.994379
O O8 0.702863 0.012175 0.758561
O O9 0.717423 0.820822 0.844053
O O10 0.000000 0.000000 0.000000
O O11 0.500000 0.500000 0.500000
O O12 0.752192 0.700002 0.606196
O O13 0.253159 0.419230 0.637537
O O14 0.955491 0.857005 0.754510
O O15 0.288205 0.936359 0.696131
O O16 0.000000 0.000000 0.500000
O O17 0.417241 0.594233 0.745486
O O18 0.000000 0.500000 0.500000
#
# Coordination Sequence:
#
# PCOD8012250 Si02
#       8
#     2   2   2   2   2   2   2   2
#     4  11  22  41  69 101 140 177 235 295 354 416
#     4  12  22  42  74 102 140 191 240 294 356 431
#     4  10  21  39  68 108 142 176 231 303 351 417
#     4  11  27  46  69 103 143 190 233 300 359 422
#     4  11  27  47  70 105 145 189 242 289 358 445
#     4  11  23  40  72 104 140 186 234 290 363 415
#     4  11  23  45  70 104 138 190 241 293 359 427
#     4  11  27  46  67 102 145 191 238 292 364 435
#
# _framework density 22.111315000000001
#
# number of rings (size 3 to 8) (size 9 to 14) (size 15 to 20)
#    0.000    1.000    3.750    3.000    8.750    2.500 
#    0.000    0.625    0.000    0.000    0.000    0.000 
#    0.000    0.000    0.000    0.000    0.000    0.000 
#
# Total GULP energy -198287.429045 kJ/mol
# GULP energy per Si atom -12392.964315 kJ/mol
# Density = 2.206099 g / cm^3
# Si number density = 22.111315 Si / 1000 Ang^3
#
#
#
# Elastic Constant Matrix: (Units=GPa)
#
#
# Indices 1 2 3 4 5 6 
#
# 1 202.0852 45.3290 57.4932 0.4572 5.5874 -4.8660
# 2 45.3290 76.9842 37.4205 -8.1338 6.0237 -13.6055
# 3 57.4932 37.4205 137.7046 -11.7514 15.3813 -2.0839
# 4 0.4572 -8.1338 -11.7514 32.3008 -5.2096 2.5445
# 5 5.5874 6.0237 15.3813 -5.2096 44.6955 1.4728
# 6 -4.8660 -13.6055 -2.0839 2.5445 1.4728 38.9988
#
#
#
# Elastic Compliance Matrix: (Units=1/GPa)
#
#
# Indices 1 2 3 4 5 6 
#
# 1 0.006137 -0.002890 -0.001920 -0.001474 0.000120 -0.000254
# 2 -0.002890 0.017538 -0.003155 0.002756 -0.000774 0.005439
# 3 -0.001920 -0.003155 0.009359 0.002346 -0.002252 -0.000908
# 4 -0.001474 0.002756 0.002346 0.033104 0.002909 -0.001367
# 5 0.000120 -0.000774 -0.002252 0.002909 0.023625 -0.001458
# 6 -0.000254 0.005439 -0.000908 -0.001367 -0.001458 0.027603
#
#
# Mechanical properties :
#
#
# Convention : Reuss Voigt Hill
#
# Bulk Modulus (GPa) = 58.46752 77.47328 67.97040
# Shear Modulus (GPa) = 35.97184 41.63445 38.80315
#
# Velocity S-wave (km/s) = 4.03780 4.34400 4.19370
# Velocity P-wave (km/s) = 6.94537 7.76366 7.36589
#
# Compressibility (1/GPa) = 0.01710351
#
# Stress axis : x y z
#
# Youngs Moduli (GPa) = 162.95211 57.01884 106.85060
#
# Poissons Ratio (x) = 0.16479 0.20513
# Poissons Ratio (y) = 0.47095 0.33714
# Poissons Ratio (z) = 0.31283 0.17991
#
# Static dielectric constant tensor:
#      x y z
#    x 5.281830 0.604770 -0.708020 
#    y 0.604770 3.706550 0.181230 
#    z -0.708020 0.181230 3.377740 
# 
# 
# High freq. dielectric constant tensor:
#      x y z
#    x 1.898220 -0.000170 0.001660 
#    y -0.000170 1.856680 -0.008540 
#    z 0.001660 -0.008540 1.857460 
# 
# From -- ./inp_files/398665.got.cif
#   From: 2010.06.25/outbox.cif.g09.slc.cpg/sg2_200_cif.got.tgz:398665.got - 2010.06.27 13:26:56.
