data_PCOD8012338
_publ_section_title
;
Structure prediction by ZEFSAII (Michael W. Deem and Ramdas Pophale) SiO2 
 PCOD8012338
Probable space group: P -1
;
_chemical_formula_sum "Si O2"
_cell_formula_units_Z 16
_cell_length_a 14.392549
_cell_length_b 15.997263
_cell_length_c 8.284642
_cell_angle_alpha 108.152178
_cell_angle_beta 90.684276
_cell_angle_gamma 28.718417
_cell_volume 714.245006
_symmetry_space_group_name_H-M "P -1"
_symmetry_group_IT_number 2
_symmetry_cell_setting 'triclinic'
loop_
_space_group_symop_operation_xyz
x,y,z
-x,-y,-z
loop_
_atom_site_type_symbol
_atom_site_label
_atom_site_fract_x
_atom_site_fract_y
_atom_site_fract_z
Si Si1 0.426550 0.791919 0.260089
Si Si2 0.183581 0.263212 0.830947
Si Si3 0.713937 0.087036 0.023735
Si Si4 0.499121 0.446125 0.307458
Si Si5 0.327953 0.072161 0.395198
Si Si6 0.686365 0.917516 0.952531
Si Si7 0.800489 0.325096 0.069697
Si Si8 0.973503 0.124772 0.610105
O O1 0.656316 0.540654 0.174043
O O2 0.352914 0.821079 0.100460
O O3 0.471271 0.857116 0.296308
O O4 0.213904 0.964513 0.481633
O O5 0.141614 0.253372 0.647903
O O6 0.148518 0.234837 0.976007
O O7 0.460597 0.042834 0.689127
O O8 0.000000 0.500000 0.000000
O O9 0.998344 0.830549 0.886200
O O10 0.585398 0.105698 0.075014
O O11 0.623728 0.244781 0.229921
O O12 0.500000 0.500000 0.500000
O O13 0.633498 0.388308 0.144217
O O14 0.236927 0.652537 0.367087
O O15 0.188148 0.194429 0.291644
O O16 0.500000 0.000000 0.000000
O O17 0.934310 0.178897 0.826611
O O18 0.000000 0.000000 0.500000
#
# Coordination Sequence:
#
# PCOD8012338 Si02
#       8
#     2   2   2   2   2   2   2   2
#     4  11  24  44  65  95 138 172 229 275 338 406
#     4  10  21  39  69  94 128 171 219 271 352 402
#     4  11  24  43  68  99 136 176 230 282 342 410
#     4  12  24  43  66  98 139 183 228 281 340 407
#     4   9  22  41  62  97 130 169 219 281 329 416
#     4   9  21  43  66  96 137 172 220 290 340 405
#     4  12  25  42  69  96 135 181 225 283 339 403
#     4  12  23  41  66  93 134 181 223 278 337 396
#
# _framework density 22.401277
#
# number of rings (size 3 to 8) (size 9 to 14) (size 15 to 20)
#    0.000    1.250    2.500    3.000    3.500    0.500 
#    2.250    0.000    0.000    0.000    0.000    0.000 
#    0.000    0.000    0.000    0.000    0.000    0.000 
#
# Total GULP energy -198251.222872 kJ/mol
# GULP energy per Si atom -12390.701429 kJ/mol
# Density = 2.235029 g / cm^3
# Si number density = 22.401277 Si / 1000 Ang^3
#
#
#
# Elastic Constant Matrix: (Units=GPa)
#
#
# Indices 1 2 3 4 5 6 
#
# 1 72.8628 21.0654 32.8303 1.6853 15.2490 21.4277
# 2 21.0654 138.8447 66.7914 0.2492 7.7899 16.0347
# 3 32.8303 66.7914 147.0280 -11.0572 18.6533 16.1496
# 4 1.6853 0.2492 -11.0572 43.4398 0.5626 -0.3230
# 5 15.2490 7.7899 18.6533 0.5626 33.1273 5.7021
# 6 21.4277 16.0347 16.1496 -0.3230 5.7021 38.3006
#
#
#
# Elastic Compliance Matrix: (Units=1/GPa)
#
#
# Indices 1 2 3 4 5 6 
#
# 1 0.018615 -0.000352 -0.002460 -0.001336 -0.005632 -0.008403
# 2 -0.000352 0.009465 -0.004156 -0.001123 0.000661 -0.002121
# 3 -0.002460 -0.004156 0.009936 0.002689 -0.003438 -0.000539
# 4 -0.001336 -0.001123 0.002689 0.023781 -0.001117 0.000450
# 5 -0.005632 0.000661 -0.003438 -0.001117 0.034726 -0.000855
# 6 -0.008403 -0.002121 -0.000539 0.000450 -0.000855 0.032057
#
#
# Mechanical properties :
#
#
# Convention : Reuss Voigt Hill
#
# Bulk Modulus (GPa) = 41.52815 66.67883 54.10349
# Shear Modulus (GPa) = 33.21300 38.84343 36.02821
#
# Velocity S-wave (km/s) = 3.85468 4.16863 4.01473
# Velocity P-wave (km/s) = 6.19596 7.28012 6.75981
#
# Compressibility (1/GPa) = 0.02408005
#
# Stress axis : x y z
#
# Youngs Moduli (GPa) = 53.71957 105.65178 100.63948
#
# Poissons Ratio (x) = 0.03722 0.24753
# Poissons Ratio (y) = 0.01893 0.41830
# Poissons Ratio (z) = 0.13213 0.43914
#
# Static dielectric constant tensor:
#      x y z
#    x 4.473290 0.285730 0.056440 
#    y 0.285730 4.380160 -0.440120 
#    z 0.056440 -0.440120 4.290480 
# 
# 
# High freq. dielectric constant tensor:
#      x y z
#    x 1.878660 0.012470 0.014600 
#    y 0.012470 1.887950 -0.019600 
#    z 0.014600 -0.019600 1.882110 
# 
# From -- ./inp_files/315608.got.cif
#   From: 2010.06.25/outbox.cif.g09.slc.cpg/sg2_158_cif.got.tgz:315608.got - 2010.06.27 13:26:56.
