data_PCOD8012605
_publ_section_title
;
Structure prediction by ZEFSAII (Michael W. Deem and Ramdas Pophale) SiO2 
 PCOD8012605
Probable space group: P -1
;
_chemical_formula_sum "Si O2"
_cell_formula_units_Z 14
_cell_length_a 15.977694
_cell_length_b 21.598068
_cell_length_c 6.911064
_cell_angle_alpha 105.948323
_cell_angle_beta 71.791895
_cell_angle_gamma 161.779899
_cell_volume 706.398893
_symmetry_space_group_name_H-M "P -1"
_symmetry_group_IT_number 2
_symmetry_cell_setting 'triclinic'
loop_
_space_group_symop_operation_xyz
x,y,z
-x,-y,-z
loop_
_atom_site_type_symbol
_atom_site_label
_atom_site_fract_x
_atom_site_fract_y
_atom_site_fract_z
Si Si1 0.256216 0.593809 0.859613
Si Si2 0.330859 0.885608 0.720552
Si Si3 0.357027 0.808448 0.970603
Si Si4 0.278331 0.516300 0.122551
Si Si5 0.833283 0.789799 0.495154
Si Si6 0.589057 0.529513 0.158696
Si Si7 0.607754 0.763538 0.466668
O O1 0.350379 0.617489 0.629833
O O2 0.934043 0.376916 0.885145
O O3 0.404015 0.764854 0.891626
O O4 0.337153 0.615240 0.018746
O O5 0.011838 0.674715 0.726728
O O6 0.500000 0.000000 0.500000
O O7 0.418137 0.006179 0.892526
O O8 0.381665 0.854692 0.776312
O O9 0.522059 0.685699 0.245492
O O10 0.286078 0.454603 0.948952
O O11 0.819028 0.730672 0.274179
O O12 0.681465 0.656573 0.676065
O O13 0.690858 0.757888 0.516938
O O14 0.144913 0.015049 0.523221
O O15 0.500000 0.500000 0.000000
#
# Coordination Sequence:
#
# PCOD8012605 Si02
#       7
#     2   2   2   2   2   2   2
#     4  10  21  40  62  85 125 154 203 246 297 361
#     4  10  21  40  62  89 123 153 200 248 293 360
#     4   9  21  40  61  88 117 165 190 246 309 347
#     4  11  23  38  64  89 119 162 203 242 300 353
#     4  10  24  40  62  85 123 158 200 248 301 346
#     4  11  22  43  60  88 121 159 201 250 295 358
#     4  11  22  40  60  92 116 160 198 251 295 356
#
# _framework density 19.818830999999999
#
# number of rings (size 3 to 8) (size 9 to 14) (size 15 to 20)
#    0.000    1.714    2.857    0.857    2.000    2.857 
#    2.571    4.286    0.000    0.000    0.000    0.000 
#    0.000    0.000    0.000    0.000    0.000    0.000 
#
# Total GULP energy -173658.460552 kJ/mol
# GULP energy per Si atom -12404.175754 kJ/mol
# Density = 1.977372 g / cm^3
# Si number density = 19.818831 Si / 1000 Ang^3
#
#
#
# Elastic Constant Matrix: (Units=GPa)
#
#
# Indices 1 2 3 4 5 6 
#
# 1 99.4459 32.9563 39.0415 -0.1008 -5.4783 -15.1323
# 2 32.9563 99.0146 48.1019 14.0608 1.3550 -12.4742
# 3 39.0415 48.1019 106.0797 -0.5605 -5.4638 -4.0423
# 4 -0.1008 14.0608 -0.5605 32.9991 0.2913 0.2096
# 5 -5.4783 1.3550 -5.4638 0.2913 31.4782 -0.4358
# 6 -15.1323 -12.4742 -4.0423 0.2096 -0.4358 30.1299
#
#
#
# Elastic Compliance Matrix: (Units=1/GPa)
#
#
# Indices 1 2 3 4 5 6 
#
# 1 0.013041 -0.002099 -0.003551 0.000825 0.001808 0.005225
# 2 -0.002099 0.015315 -0.006138 -0.006648 -0.001966 0.004481
# 3 -0.003551 -0.006138 0.013536 0.002833 0.001935 -0.002500
# 4 0.000825 -0.006648 0.002833 0.033196 0.000584 -0.002180
# 5 0.001808 -0.001966 0.001935 0.000584 0.032509 0.000820
# 6 0.005225 0.004481 -0.002500 -0.002180 0.000820 0.037360
#
#
# Mechanical properties :
#
#
# Convention : Reuss Voigt Hill
#
# Bulk Modulus (GPa) = 54.59547 60.52661 57.56104
# Shear Modulus (GPa) = 28.63032 31.21745 29.92388
#
# Velocity S-wave (km/s) = 3.80492 3.97311 3.88992
# Velocity P-wave (km/s) = 6.84911 7.18705 7.02011
#
# Compressibility (1/GPa) = 0.01831654
#
# Stress axis : x y z
#
# Youngs Moduli (GPa) = 76.68147 65.29352 73.87461
#
# Poissons Ratio (x) = 0.13705 0.26234
# Poissons Ratio (y) = 0.16096 0.45344
# Poissons Ratio (z) = 0.27231 0.40077
#
# Static dielectric constant tensor:
#      x y z
#    x 3.678660 -0.176850 -0.021510 
#    y -0.176850 3.659200 -0.024650 
#    z -0.021510 -0.024650 3.505480 
# 
# 
# High freq. dielectric constant tensor:
#      x y z
#    x 1.776780 -0.009180 -0.000660 
#    y -0.009180 1.777020 -0.000690 
#    z -0.000660 -0.000690 1.773830 
# 
# From -- ./inp_files/33571.got.cif
#   From: 2010.06.25/outbox.cif.g09.slc.cpg/sg2_17_cif.got.tgz:33571.got - 2010.06.27 13:26:56.
