data_PCOD8012765
_publ_section_title
;
Structure prediction by ZEFSAII (Michael W. Deem and Ramdas Pophale) SiO2 
 PCOD8012765
Probable space group: P -1
;
_chemical_formula_sum "Si O2"
_cell_formula_units_Z 16
_cell_length_a 13.449684
_cell_length_b 5.214355
_cell_length_c 11.602579
_cell_angle_alpha 106.801874
_cell_angle_beta 92.028765
_cell_angle_gamma 107.246325
_cell_volume 737.389899
_symmetry_space_group_name_H-M "P -1"
_symmetry_group_IT_number 2
_symmetry_cell_setting 'triclinic'
loop_
_space_group_symop_operation_xyz
x,y,z
-x,-y,-z
loop_
_atom_site_type_symbol
_atom_site_label
_atom_site_fract_x
_atom_site_fract_y
_atom_site_fract_z
Si Si1 0.835762 0.756059 0.525387
Si Si2 0.898377 0.576792 0.893798
Si Si3 0.787605 0.916845 0.784781
Si Si4 0.567577 0.726614 0.870884
Si Si5 0.231064 0.694285 0.710087
Si Si6 0.947171 0.127755 0.377547
Si Si7 0.089919 0.388483 0.844300
Si Si8 0.437738 0.118173 0.849183
O O1 0.775415 0.840601 0.639275
O O2 0.752192 0.505450 0.417969
O O3 0.882419 0.024296 0.478926
O O4 0.935981 0.659484 0.559554
O O5 0.869566 0.782751 0.828995
O O6 0.017504 0.591704 0.873922
O O7 0.821434 0.253213 0.845268
O O8 0.890932 0.701413 0.037054
O O9 0.675919 0.767773 0.817852
O O10 0.498430 0.398384 0.817785
O O11 0.506253 0.909152 0.827433
O O12 0.591710 0.815199 0.015542
O O13 0.206489 0.540460 0.813941
O O14 0.120141 0.742063 0.689573
O O15 0.330528 0.973278 0.756038
O O16 0.969836 0.873790 0.274129
#
# Coordination Sequence:
#
# PCOD8012765 Si02
#       8
#     2   2   2   2   2   2   2   2
#     4  10  23  39  61  94 128 177 219 257 306 380
#     4  11  25  38  63  96 137 167 210 259 324 395
#     4  12  24  43  66  92 131 176 211 262 328 384
#     4  10  23  43  67  94 125 161 208 278 327 384
#     4  11  23  38  68  90 128 175 220 264 313 382
#     4  10  21  40  63  90 132 175 217 261 304 380
#     4  10  23  37  59  99 129 169 210 266 318 383
#     4  10  23  43  67  95 124 159 216 268 330 380
#
# _framework density 21.698156999999998
#
# number of rings (size 3 to 8) (size 9 to 14) (size 15 to 20)
#    0.000    1.500    1.250    2.625    8.750    2.000 
#    0.000    1.250    0.000    0.000    0.000    0.000 
#    0.000    0.000    0.000    0.000    0.000    0.000 
#
# Total GULP energy -198421.179997 kJ/mol
# GULP energy per Si atom -12401.323750 kJ/mol
# Density = 2.164877 g / cm^3
# Si number density = 21.698157 Si / 1000 Ang^3
#
#
#
# Elastic Constant Matrix: (Units=GPa)
#
#
# Indices 1 2 3 4 5 6 
#
# 1 47.0387 15.6275 28.9416 5.9466 -6.1603 11.5436
# 2 15.6275 84.6889 32.1797 9.7680 2.0631 8.1416
# 3 28.9416 32.1797 119.8549 -5.8030 -8.0993 13.3806
# 4 5.9466 9.7680 -5.8030 26.4065 14.5902 9.1770
# 5 -6.1603 2.0631 -8.0993 14.5902 29.2911 1.6972
# 6 11.5436 8.1416 13.3806 9.1770 1.6972 36.4602
#
#
#
# Elastic Compliance Matrix: (Units=1/GPa)
#
#
# Indices 1 2 3 4 5 6 
#
# 1 0.029480 -0.001628 -0.006049 -0.011842 0.010788 -0.004272
# 2 -0.001628 0.014182 -0.003690 -0.006145 0.000687 0.000218
# 3 -0.006049 -0.003690 0.011406 0.006957 -0.001142 -0.003145
# 4 -0.011842 -0.006145 0.006957 0.066818 -0.032679 -0.012728
# 5 0.010788 0.000687 -0.001142 -0.032679 0.052169 0.002647
# 6 -0.004272 0.000218 -0.003145 -0.012728 0.002647 0.032966
#
#
# Mechanical properties :
#
#
# Convention : Reuss Voigt Hill
#
# Bulk Modulus (GPa) = 30.92744 45.00890 37.96817
# Shear Modulus (GPa) = 20.78734 30.08715 25.43725
#
# Velocity S-wave (km/s) = 3.09855 3.72778 3.42763
# Velocity P-wave (km/s) = 5.20440 6.27030 5.76205
#
# Compressibility (1/GPa) = 0.03233375
#
# Stress axis : x y z
#
# Youngs Moduli (GPa) = 33.92142 70.51426 87.67663
#
# Poissons Ratio (x) = 0.11477 0.53036
# Poissons Ratio (y) = 0.05521 0.32352
# Poissons Ratio (z) = 0.20519 0.26019
#
# Static dielectric constant tensor:
#      x y z
#    x 3.616590 -0.021880 -0.025660 
#    y -0.021880 3.910940 0.021180 
#    z -0.025660 0.021180 4.119210 
# 
# 
# High freq. dielectric constant tensor:
#      x y z
#    x 1.826760 -0.000830 -0.005780 
#    y -0.000830 1.857190 -0.000040 
#    z -0.005780 -0.000040 1.862010 
# 
# From -- ./inp_files/70859.got.cif
#   From: 2010.06.25/outbox.cif.g09.slc.cpg/sg2_36_cif.got.tgz:70859.got - 2010.06.27 13:26:56.
