data_PCOD8012956
_publ_section_title
;
Structure prediction by ZEFSAII (Michael W. Deem and Ramdas Pophale) SiO2 
 PCOD8012956
Probable space group: P -1
;
_chemical_formula_sum "Si O2"
_cell_formula_units_Z 16
_cell_length_a 9.175799
_cell_length_b 8.897609
_cell_length_c 22.756949
_cell_angle_alpha 48.205342
_cell_angle_beta 128.255906
_cell_angle_gamma 89.094079
_cell_volume 741.200515
_symmetry_space_group_name_H-M "P -1"
_symmetry_group_IT_number 2
_symmetry_cell_setting 'triclinic'
loop_
_space_group_symop_operation_xyz
x,y,z
-x,-y,-z
loop_
_atom_site_type_symbol
_atom_site_label
_atom_site_fract_x
_atom_site_fract_y
_atom_site_fract_z
Si Si1 0.608894 0.038726 0.443397
Si Si2 0.949367 0.907854 0.923150
Si Si3 0.710272 0.085419 0.580343
Si Si4 0.562504 0.590029 0.903044
Si Si5 0.830182 0.841689 0.425236
Si Si6 0.648081 0.573138 0.405846
Si Si7 0.744319 0.513876 0.095696
Si Si8 0.020246 0.692348 0.124917
O O1 0.787680 0.959943 0.565043
O O2 0.334802 0.386188 0.289991
O O3 0.539272 0.855333 0.474952
O O4 0.772379 0.964758 0.444577
O O5 0.644792 0.126720 0.767516
O O6 0.039802 0.067729 0.912134
O O7 0.963383 0.777973 0.020767
O O8 0.149062 0.640846 0.997177
O O9 0.624225 0.386779 0.486090
O O10 0.976387 0.836489 0.751605
O O11 0.451991 0.449018 0.918287
O O12 0.348408 0.895901 0.734975
O O13 0.600566 0.655177 0.959985
O O14 0.765872 0.654959 0.455139
O O15 0.148304 0.624996 0.546864
O O16 0.819862 0.671746 0.100572
#
# Coordination Sequence:
#
# PCOD8012956 Si02
#       8
#     2   2   2   2   2   2   2   2
#     4  10  21  41  68  91 123 169 210 251 314 380
#     4  11  23  40  65  97 125 162 210 262 310 370
#     4  10  21  42  62  92 129 164 202 257 313 374
#     4  11  23  43  68  92 124 169 214 249 316 372
#     4  11  24  43  65  94 124 167 212 259 311 368
#     4  11  24  41  61  95 134 156 209 265 312 366
#     4  10  23  42  65  91 128 168 207 258 307 378
#     4  10  21  40  64  94 128 161 209 261 310 366
#
# _framework density 21.586601999999999
#
# number of rings (size 3 to 8) (size 9 to 14) (size 15 to 20)
#    0.000    1.500    3.750    0.750    3.500    2.500 
#    4.500    0.000    0.000    0.000    0.000    0.000 
#    0.000    0.000    0.000    0.000    0.000    0.000 
#
# Total GULP energy -198434.838469 kJ/mol
# GULP energy per Si atom -12402.177404 kJ/mol
# Density = 2.153747 g / cm^3
# Si number density = 21.586602 Si / 1000 Ang^3
#
#
#
# Elastic Constant Matrix: (Units=GPa)
#
#
# Indices 1 2 3 4 5 6 
#
# 1 235.0682 53.7404 127.4397 37.0656 -53.0836 -33.4999
# 2 53.7404 35.1622 26.1006 4.3657 -15.2175 -13.5689
# 3 127.4397 26.1006 145.1589 25.0455 -30.0041 -29.6802
# 4 37.0656 4.3657 25.0455 35.5577 -11.7257 -14.1765
# 5 -53.0836 -15.2175 -30.0041 -11.7257 55.3093 9.4554
# 6 -33.4999 -13.5689 -29.6802 -14.1765 9.4554 46.9560
#
#
#
# Elastic Compliance Matrix: (Units=1/GPa)
#
#
# Indices 1 2 3 4 5 6 
#
# 1 0.012537 -0.011957 -0.007425 -0.005811 0.003777 -0.001719
# 2 -0.011957 0.048759 0.002816 0.009535 0.003875 0.009438
# 3 -0.007425 0.002816 0.013920 -0.000681 0.000365 0.004036
# 4 -0.005811 0.009535 -0.000681 0.038160 0.003220 0.009052
# 5 0.003777 0.003875 0.000365 0.003220 0.023607 0.000264
# 6 -0.001719 0.009438 0.004036 0.009052 0.000264 0.028028
#
#
# Mechanical properties :
#
#
# Convention : Reuss Voigt Hill
#
# Bulk Modulus (GPa) = 23.76242 92.21675 57.98959
# Shear Modulus (GPa) = 23.56577 41.43851 32.50214
#
# Velocity S-wave (km/s) = 3.30765 4.38612 3.88450
# Velocity P-wave (km/s) = 5.06155 8.27423 6.85865
#
# Compressibility (1/GPa) = 0.04208325
#
# Stress axis : x y z
#
# Youngs Moduli (GPa) = 79.76146 20.50882 71.84135
#
# Poissons Ratio (x) = 0.24523 0.53343
# Poissons Ratio (y) = 0.95373 -0.20229
# Poissons Ratio (z) = 0.59224 -0.05775
#
# Static dielectric constant tensor:
#      x y z
#    x 4.018540 0.192740 -0.177870 
#    y 0.192740 4.274180 0.586530 
#    z -0.177870 0.586530 4.422760 
# 
# 
# High freq. dielectric constant tensor:
#      x y z
#    x 1.854260 0.020960 -0.010700 
#    y 0.020960 1.829170 0.006230 
#    z -0.010700 0.006230 1.852740 
# 
# From -- ./inp_files/217130.got.cif
#   From: 2010.06.25/outbox.cif.g09.slc.cpg/sg2_109_cif.got.tgz:217130.got - 2010.06.27 13:26:56.
