data_PCOD8012873
_publ_section_title
;
Structure prediction by ZEFSAII (Michael W. Deem and Ramdas Pophale) SiO2 
 PCOD8012873
Probable space group: P -1
;
_chemical_formula_sum "Si O2"
_cell_formula_units_Z 16
_cell_length_a 14.935151
_cell_length_b 9.479262
_cell_length_c 14.418834
_cell_angle_alpha 35.337713
_cell_angle_beta 44.688900
_cell_angle_gamma 61.984367
_cell_volume 799.258353
_symmetry_space_group_name_H-M "P -1"
_symmetry_group_IT_number 2
_symmetry_cell_setting 'triclinic'
loop_
_space_group_symop_operation_xyz
x,y,z
-x,-y,-z
loop_
_atom_site_type_symbol
_atom_site_label
_atom_site_fract_x
_atom_site_fract_y
_atom_site_fract_z
Si Si1 0.995226 0.425472 0.688406
Si Si2 0.753721 0.974533 0.540898
Si Si3 0.745694 0.493054 0.924710
Si Si4 0.996586 0.088711 0.701284
Si Si5 0.483539 0.503160 0.402655
Si Si6 0.510203 0.020374 0.373471
Si Si7 0.754619 0.268119 0.565849
Si Si8 0.253000 0.213906 0.050444
O O1 0.863280 0.369941 0.877085
O O2 0.999467 0.667289 0.493295
O O3 0.994722 0.174629 0.763850
O O4 0.123147 0.496422 0.622067
O O5 0.727658 0.702355 0.753575
O O6 0.876785 0.014580 0.358266
O O7 0.630158 0.000234 0.559013
O O8 0.784583 0.188144 0.483250
O O9 0.776519 0.602184 0.947130
O O10 0.608367 0.282617 0.129999
O O11 0.867732 0.861785 0.892981
O O12 0.500000 0.500000 0.500000
O O13 0.431341 0.209594 0.573604
O O14 0.377606 0.646812 0.374759
O O15 0.618735 0.640913 0.178021
O O16 0.500000 0.000000 0.500000
O O17 0.729089 0.037540 0.780102
#
# Coordination Sequence:
#
# PCOD8012873 Si02
#       8
#     2   2   2   2   2   2   2   2
#     4   9  19  35  61  93 119 148 195 252 296 345
#     4  10  21  40  64  89 118 158 199 244 296 354
#     4  10  21  40  64  89 118 157 201 243 295 355
#     4   9  19  35  61  93 119 147 197 251 296 345
#     4  12  25  42  59  86 124 161 199 245 297 351
#     4  12  25  42  59  86 124 161 199 245 297 351
#     4  10  21  40  64  89 118 157 201 243 295 355
#     4  10  21  40  64  89 118 158 199 244 296 354
#
# _framework density 20.018559
#
# number of rings (size 3 to 8) (size 9 to 14) (size 15 to 20)
#    0.000    1.750    2.500    1.500    3.500    3.000 
#    0.000    2.500    0.000    0.000    0.000    0.000 
#    0.000    0.000    0.000    0.000    0.000    0.000 
#
# Total GULP energy -198399.974782 kJ/mol
# GULP energy per Si atom -12399.998424 kJ/mol
# Density = 1.997300 g / cm^3
# Si number density = 20.018559 Si / 1000 Ang^3
#
#
#
# Elastic Constant Matrix: (Units=GPa)
#
#
# Indices 1 2 3 4 5 6 
#
# 1 105.1842 59.2956 62.1648 6.1577 -18.4485 23.6794
# 2 59.2956 158.2867 59.1431 10.5449 -11.8047 18.2864
# 3 62.1648 59.1431 55.4589 11.8715 -16.3880 -6.6762
# 4 6.1577 10.5449 11.8715 33.4070 5.2923 -3.6495
# 5 -18.4485 -11.8047 -16.3880 5.2923 27.1593 3.2261
# 6 23.6794 18.2864 -6.6762 -3.6495 3.2261 31.3781
#
#
#
# Elastic Compliance Matrix: (Units=1/GPa)
#
#
# Indices 1 2 3 4 5 6 
#
# 1 -0.083920 -0.037893 0.154635 -0.016385 0.009312 0.115451
# 2 -0.037893 -0.003407 0.052667 -0.006329 0.000927 0.040956
# 3 0.154635 0.052667 -0.237357 0.017017 0.004721 -0.196396
# 4 -0.016385 -0.006329 0.017017 0.033712 -0.013144 0.024946
# 5 0.009312 0.000927 0.004721 -0.013144 0.050536 -0.013288
# 6 0.115451 0.040956 -0.196396 0.024946 -0.013288 -0.116642
#
#
# Mechanical properties :
#
#
# Convention : Reuss Voigt Hill
#
# Bulk Modulus (GPa) = 70.75304 75.57077 73.16190
# Shear Modulus (GPa) = -7.23395 27.61064 10.18834
#
# Velocity S-wave (km/s) = -1.90301 3.71786 2.25843
# Velocity P-wave (km/s) = 5.53099 7.50082 6.58992
#
# Compressibility (1/GPa) = 0.01413367
#
# Stress axis : x y z
#
# Youngs Moduli (GPa) = -11.91607 -293.52608 -4.21306
#
# Poissons Ratio (x) = -11.12264 0.65149
# Poissons Ratio (y) = -0.45154 0.22189
# Poissons Ratio (z) = 1.84264 15.45923
#
# Static dielectric constant tensor:
#      x y z
#    x 4.753840 1.300950 -0.833090 
#    y 1.300950 5.051140 -0.663940 
#    z -0.833090 -0.663940 3.990310 
# 
# 
# High freq. dielectric constant tensor:
#      x y z
#    x 1.780910 0.009490 -0.011610 
#    y 0.009490 1.796690 0.004990 
#    z -0.011610 0.004990 1.775350 
# 
# From -- ./inp_files/207737.got.cif
#   From: 2010.06.25/outbox.cif.g09.slc.cpg/sg2_104_cif.got.tgz:207737.got - 2010.06.27 13:26:56.
