data_PCOD8012806
_publ_section_title
;
Structure prediction by ZEFSAII (Michael W. Deem and Ramdas Pophale) SiO2 
 PCOD8012806
Probable space group: P -1
;
_chemical_formula_sum "Si O2"
_cell_formula_units_Z 16
_cell_length_a 12.048680
_cell_length_b 16.985215
_cell_length_c 8.370727
_cell_angle_alpha 131.532691
_cell_angle_beta 120.016448
_cell_angle_gamma 32.793754
_cell_volume 687.619536
_symmetry_space_group_name_H-M "P -1"
_symmetry_group_IT_number 2
_symmetry_cell_setting 'triclinic'
loop_
_space_group_symop_operation_xyz
x,y,z
-x,-y,-z
loop_
_atom_site_type_symbol
_atom_site_label
_atom_site_fract_x
_atom_site_fract_y
_atom_site_fract_z
Si Si1 0.284447 0.123463 0.427013
Si Si2 0.057121 0.680360 0.331468
Si Si3 0.939987 0.996761 0.625320
Si Si4 0.009238 0.147827 0.076041
Si Si5 0.927085 0.386976 0.101151
Si Si6 0.368702 0.532375 0.585504
Si Si7 0.509101 0.705500 0.404227
Si Si8 0.650475 0.819616 0.781855
O O1 0.286835 0.198635 0.380469
O O2 0.142133 0.249159 0.643513
O O3 0.198028 0.064940 0.218356
O O4 0.500000 0.000000 0.500000
O O5 0.230881 0.537693 0.394986
O O6 0.128136 0.593155 0.095587
O O7 0.025909 0.826481 0.493092
O O8 0.687966 0.159235 0.672146
O O9 0.041392 0.008858 0.847594
O O10 0.000000 0.000000 0.500000
O O11 0.994155 0.235755 0.031862
O O12 0.789651 0.287253 0.196989
O O13 0.723624 0.567235 0.275270
O O14 0.128425 0.333545 0.176214
O O15 0.500000 0.500000 0.500000
O O16 0.513613 0.383647 0.621776
O O17 0.519836 0.796452 0.656721
O O18 0.500000 0.000000 0.000000
#
# Coordination Sequence:
#
# PCOD8012806 Si02
#       8
#     2   2   2   2   2   2   2   2
#     4  10  21  40  63  93 131 164 212 278 338 379
#     4  11  23  42  66  97 133 173 218 284 336 388
#     4  12  23  40  67 100 132 176 236 270 326 408
#     4   9  22  38  64  93 130 176 219 271 327 399
#     4  10  21  41  67  93 130 175 224 273 333 403
#     4  10  23  42  62  96 139 172 213 274 338 395
#     4  11  25  42  69  96 129 181 227 267 339 407
#     4  11  23  44  69  96 131 177 228 278 331 403
#
# _framework density 23.268681999999998
#
# number of rings (size 3 to 8) (size 9 to 14) (size 15 to 20)
#    0.000    1.500    1.250    4.125    3.500    3.000 
#    2.250    3.750    0.000    0.000    0.000    0.000 
#    0.000    0.000    0.000    0.000    0.000    0.000 
#
# Total GULP energy -198225.425904 kJ/mol
# GULP energy per Si atom -12389.089119 kJ/mol
# Density = 2.321572 g / cm^3
# Si number density = 23.268682 Si / 1000 Ang^3
#
#
#
# Elastic Constant Matrix: (Units=GPa)
#
#
# Indices 1 2 3 4 5 6 
#
# 1 71.6941 -3.0661 22.5724 9.6472 -15.0184 -15.1137
# 2 -3.0661 78.7338 21.9269 -10.0392 10.3702 -19.2020
# 3 22.5724 21.9269 116.3495 -9.2769 -5.0118 -1.9266
# 4 9.6472 -10.0392 -9.2769 26.9505 -2.4485 -2.2807
# 5 -15.0184 10.3702 -5.0118 -2.4485 43.9093 -7.4098
# 6 -15.1137 -19.2020 -1.9266 -2.2807 -7.4098 38.9557
#
#
#
# Elastic Compliance Matrix: (Units=1/GPa)
#
#
# Indices 1 2 3 4 5 6 
#
# 1 0.019763 0.002662 -0.004365 -0.006133 0.006932 0.009723
# 2 0.002662 0.016742 -0.003207 0.004804 -0.001606 0.009102
# 3 -0.004365 -0.003207 0.010311 0.003726 0.000227 -0.002503
# 4 -0.006133 0.004804 0.003726 0.042600 0.000019 0.002671
# 5 0.006932 -0.001606 0.000227 0.000019 0.026732 0.006995
# 6 0.009723 0.009102 -0.002503 0.002671 0.006995 0.035292
#
#
# Mechanical properties :
#
#
# Convention : Reuss Voigt Hill
#
# Bulk Modulus (GPa) = 27.03022 38.84930 32.93976
# Shear Modulus (GPa) = 28.80295 36.98605 32.89450
#
# Velocity S-wave (km/s) = 3.52211 3.99120 3.76397
# Velocity P-wave (km/s) = 5.30869 6.16213 5.75126
#
# Compressibility (1/GPa) = 0.03699563
#
# Stress axis : x y z
#
# Youngs Moduli (GPa) = 50.59876 59.73109 96.97972
#
# Poissons Ratio (x) = -0.15898 0.42334
# Poissons Ratio (y) = -0.13468 0.31100
# Poissons Ratio (z) = 0.22087 0.19155
#
# Static dielectric constant tensor:
#      x y z
#    x 4.188380 0.328750 -0.294870 
#    y 0.328750 2.542650 0.183120 
#    z -0.294870 0.183120 3.928730 
# 
# 
# High freq. dielectric constant tensor:
#      x y z
#    x 1.926340 -0.016300 -0.020230 
#    y -0.016300 1.917090 -0.018010 
#    z -0.020230 -0.018010 1.915220 
# 
# From -- ./inp_files/279955.got.cif
#   From: 2010.06.25/outbox.cif.g09.slc.cpg/sg2_140_cif.got.tgz:279955.got - 2010.06.27 13:26:56.
