data_PCOD8012369
_publ_section_title
;
Structure prediction by ZEFSAII (Michael W. Deem and Ramdas Pophale) SiO2 
 PCOD8012369
Probable space group: P -1
;
_chemical_formula_sum "Si O2"
_cell_formula_units_Z 16
_cell_length_a 12.881344
_cell_length_b 9.575597
_cell_length_c 9.328823
_cell_angle_alpha 54.871499
_cell_angle_beta 50.654301
_cell_angle_gamma 60.674602
_cell_volume 713.438321
_symmetry_space_group_name_H-M "P -1"
_symmetry_group_IT_number 2
_symmetry_cell_setting 'triclinic'
loop_
_space_group_symop_operation_xyz
x,y,z
-x,-y,-z
loop_
_atom_site_type_symbol
_atom_site_label
_atom_site_fract_x
_atom_site_fract_y
_atom_site_fract_z
Si Si1 0.703299 0.690907 0.897596
Si Si2 0.061406 0.166390 0.892054
Si Si3 0.081194 0.181466 0.189949
Si Si4 0.524170 0.336649 0.679494
Si Si5 0.439338 0.987222 0.334398
Si Si6 0.679713 0.081051 0.233855
Si Si7 0.165398 0.634094 0.191614
Si Si8 0.172849 0.784240 0.399493
O O1 0.816197 0.696878 0.918082
O O2 0.666034 0.881857 0.748285
O O3 0.763919 0.561813 0.792635
O O4 0.572405 0.626460 0.118027
O O5 0.990446 0.324753 0.758013
O O6 0.224447 0.110486 0.759120
O O7 0.031030 0.229156 0.044564
O O8 0.000000 0.000000 0.000000
O O9 0.946740 0.220802 0.381027
O O10 0.160518 0.980656 0.238282
O O11 0.500000 0.500000 0.500000
O O12 0.682624 0.287570 0.611458
O O13 0.481503 0.170943 0.737532
O O14 0.545303 0.093239 0.247686
O O15 0.357436 0.901353 0.576782
O O16 0.749904 0.238551 0.036003
O O17 0.159526 0.658373 0.352455
#
# Coordination Sequence:
#
# PCOD8012369 Si02
#       8
#     2   2   2   2   2   2   2   2
#     4  12  27  44  73 100 145 182 237 292 353 409
#     4  10  21  39  70  95 135 180 229 276 344 408
#     4  11  24  44  72 106 137 189 232 290 343 421
#     4  12  27  45  72 101 141 185 234 291 351 419
#     4  11  24  42  70  99 138 182 234 288 347 423
#     4  10  22  41  68 101 136 182 232 284 351 417
#     4  11  25  44  70 104 140 186 229 295 344 416
#     4  11  25  44  74 103 142 183 240 280 353 418
#
# _framework density 22.426604999999999
#
# number of rings (size 3 to 8) (size 9 to 14) (size 15 to 20)
#    0.000    1.000    3.750    2.625    7.000    5.000 
#    2.250    0.000    0.000    0.000    0.000    0.000 
#    0.000    0.000    0.000    0.000    0.000    0.000 
#
# Total GULP energy -198465.699294 kJ/mol
# GULP energy per Si atom -12404.106206 kJ/mol
# Density = 2.237556 g / cm^3
# Si number density = 22.426605 Si / 1000 Ang^3
#
#
#
# Elastic Constant Matrix: (Units=GPa)
#
#
# Indices 1 2 3 4 5 6 
#
# 1 115.1147 28.3984 29.6298 8.6564 9.9706 1.4121
# 2 28.3984 123.9589 12.8976 18.6319 7.3895 6.4653
# 3 29.6298 12.8976 25.1122 16.0295 3.3753 6.1620
# 4 8.6564 18.6319 16.0295 34.8803 1.0760 4.9821
# 5 9.9706 7.3895 3.3753 1.0760 33.5078 7.6837
# 6 1.4121 6.4653 6.1620 4.9821 7.6837 34.0815
#
#
#
# Elastic Compliance Matrix: (Units=1/GPa)
#
#
# Indices 1 2 3 4 5 6 
#
# 1 0.014078 -0.002119 -0.020081 0.006506 -0.002616 0.003088
# 2 -0.002119 0.009269 0.001189 -0.004804 -0.001168 -0.000920
# 3 -0.020081 0.001189 0.087263 -0.034303 0.000373 -0.010240
# 4 0.006506 -0.004804 -0.034303 0.045356 0.001132 -0.000042
# 5 -0.002616 -0.001168 0.000373 0.001132 0.032462 -0.007221
# 6 0.003088 -0.000920 -0.010240 -0.000042 -0.007221 0.032874
#
#
# Mechanical properties :
#
#
# Convention : Reuss Voigt Hill
#
# Bulk Modulus (GPa) = 14.58002 45.11525 29.84764
# Shear Modulus (GPa) = 17.47113 33.37794 25.42453
#
# Velocity S-wave (km/s) = 2.79415 3.86206 3.37067
# Velocity P-wave (km/s) = 4.11400 6.32834 5.33727
#
# Compressibility (1/GPa) = 0.06858702
#
# Stress axis : x y z
#
# Youngs Moduli (GPa) = 71.03288 107.89120 11.45957
#
# Poissons Ratio (x) = 0.22860 0.23013
# Poissons Ratio (y) = 0.15051 -0.01362
# Poissons Ratio (z) = 1.42645 -0.12827
#
# Static dielectric constant tensor:
#      x y z
#    x 4.251680 -0.228700 0.040010 
#    y -0.228700 4.182010 0.246920 
#    z 0.040010 0.246920 3.874330 
# 
# 
# High freq. dielectric constant tensor:
#      x y z
#    x 1.896780 -0.003670 0.004850 
#    y -0.003670 1.885800 0.019970 
#    z 0.004850 0.019970 1.875210 
# 
# From -- ./inp_files/242435.got.cif
#   From: 2010.06.25/outbox.cif.g09.slc.cpg/sg2_122_cif.got.tgz:242435.got - 2010.06.27 13:26:56.
