data_PCOD8012641
_publ_section_title
;
Structure prediction by ZEFSAII (Michael W. Deem and Ramdas Pophale) SiO2 
 PCOD8012641
Probable space group: P -1
;
_chemical_formula_sum "Si O2"
_cell_formula_units_Z 16
_cell_length_a 9.067160
_cell_length_b 27.511292
_cell_length_c 15.150027
_cell_angle_alpha 25.294935
_cell_angle_beta 42.917531
_cell_angle_gamma 28.149227
_cell_volume 721.294818
_symmetry_space_group_name_H-M "P -1"
_symmetry_group_IT_number 2
_symmetry_cell_setting 'triclinic'
loop_
_space_group_symop_operation_xyz
x,y,z
-x,-y,-z
loop_
_atom_site_type_symbol
_atom_site_label
_atom_site_fract_x
_atom_site_fract_y
_atom_site_fract_z
Si Si1 0.969647 0.561399 0.776942
Si Si2 0.346420 0.798057 0.250565
Si Si3 0.675913 0.067247 0.567320
Si Si4 0.216652 0.540192 0.273087
Si Si5 0.302291 0.330603 0.857900
Si Si6 0.675568 0.976131 0.324481
Si Si7 0.649869 0.902620 0.000259
Si Si8 0.894144 0.365423 0.232266
O O1 0.590105 0.726969 0.645071
O O2 0.182450 0.480398 0.726956
O O3 0.089043 0.612582 0.706103
O O4 0.022095 0.417031 0.033231
O O5 0.624544 0.631085 0.466018
O O6 0.410826 0.738041 0.219100
O O7 0.977985 0.903386 0.253140
O O8 0.386376 0.918991 0.046192
O O9 0.558559 0.020613 0.626034
O O10 0.708706 0.993845 0.768185
O O11 0.000000 0.000000 0.500000
O O12 0.512387 0.491070 0.175726
O O13 0.987554 0.598509 0.195615
O O14 0.011336 0.697154 0.177283
O O15 0.438903 0.177277 0.116115
O O16 0.853234 0.842941 0.549620
O O17 0.500000 0.000000 0.000000
#
# Coordination Sequence:
#
# PCOD8012641 Si02
#       8
#     2   2   2   2   2   2   2   2
#     4  10  23  38  64  87 126 165 213 256 309 387
#     4  10  22  41  65  88 134 163 204 260 325 374
#     4  11  23  42  63  90 129 169 210 260 316 378
#     4  10  21  40  62  89 127 165 201 264 318 369
#     4  11  21  36  64  96 120 156 215 259 309 370
#     4  10  21  42  66  88 121 169 206 259 318 375
#     4  11  23  37  64  97 127 165 213 261 319 375
#     4   9  21  44  58  83 128 171 202 251 326 374
#
# _framework density 22.18233
#
# number of rings (size 3 to 8) (size 9 to 14) (size 15 to 20)
#    0.000    1.750    2.500    2.625    3.500    2.000 
#    0.000    1.875    0.000    0.000    0.000    0.000 
#    0.000    0.000    0.000    0.000    0.000    0.000 
#
# Total GULP energy -198223.843647 kJ/mol
# GULP energy per Si atom -12388.990228 kJ/mol
# Density = 2.213184 g / cm^3
# Si number density = 22.182330 Si / 1000 Ang^3
#
#
#
# Elastic Constant Matrix: (Units=GPa)
#
#
# Indices 1 2 3 4 5 6 
#
# 1 43.5188 34.0575 18.3611 -4.5355 -0.2788 -5.5232
# 2 34.0575 60.4945 26.8518 -2.3892 -1.7074 -4.1748
# 3 18.3611 26.8518 100.9325 -5.2333 9.4701 -5.7521
# 4 -4.5355 -2.3892 -5.2333 42.7897 -7.2008 -3.8734
# 5 -0.2788 -1.7074 9.4701 -7.2008 21.7963 -0.1864
# 6 -5.5232 -4.1748 -5.7521 -3.8734 -0.1864 42.2345
#
#
#
# Elastic Compliance Matrix: (Units=1/GPa)
#
#
# Indices 1 2 3 4 5 6 
#
# 1 0.042126 -0.022765 -0.001280 0.003425 0.000472 0.003401
# 2 -0.022765 0.031471 -0.004668 -0.000603 0.003999 -0.000540
# 3 -0.001280 -0.004668 0.011967 0.000233 -0.005496 0.000998
# 4 0.003425 -0.000603 0.000233 0.025377 0.008303 0.002784
# 5 0.000472 0.003999 -0.005496 0.008303 0.051336 0.000696
# 6 0.003401 -0.000540 0.000998 0.002784 0.000696 0.024463
#
#
# Mechanical properties :
#
#
# Convention : Reuss Voigt Hill
#
# Bulk Modulus (GPa) = 35.53998 40.38740 37.96369
# Shear Modulus (GPa) = 19.72044 29.74247 24.73146
#
# Velocity S-wave (km/s) = 2.98487 3.66569 3.34266
# Velocity P-wave (km/s) = 5.28543 6.01356 5.66122
#
# Compressibility (1/GPa) = 0.02813733
#
# Stress axis : x y z
#
# Youngs Moduli (GPa) = 23.73853 31.77570 83.56304
#
# Poissons Ratio (x) = 0.72337 0.10695
# Poissons Ratio (y) = 0.54040 0.39010
# Poissons Ratio (z) = 0.03038 0.14834
#
# Static dielectric constant tensor:
#      x y z
#    x 3.659740 -0.092860 0.034610 
#    y -0.092860 4.018750 -0.170390 
#    z 0.034610 -0.170390 4.503820 
# 
# 
# High freq. dielectric constant tensor:
#      x y z
#    x 1.838400 -0.015100 0.002410 
#    y -0.015100 1.877720 -0.007240 
#    z 0.002410 -0.007240 1.897340 
# 
# From -- ./inp_files/508913.got.cif
#   From: 2010.06.25/outbox.cif.g09.slc.cpg/sg2_255_cif.got.tgz:508913.got - 2010.06.27 13:26:56.
