data_PCOD8012247
_publ_section_title
;
Structure prediction by ZEFSAII (Michael W. Deem and Ramdas Pophale) SiO2 
 PCOD8012247
Probable space group: P -1
;
_chemical_formula_sum "Si O2"
_cell_formula_units_Z 16
_cell_length_a 9.801807
_cell_length_b 16.567987
_cell_length_c 5.459839
_cell_angle_alpha 78.805446
_cell_angle_beta 114.546396
_cell_angle_gamma 76.821847
_cell_volume 742.348875
_symmetry_space_group_name_H-M "P -1"
_symmetry_group_IT_number 2
_symmetry_cell_setting 'triclinic'
loop_
_space_group_symop_operation_xyz
x,y,z
-x,-y,-z
loop_
_atom_site_type_symbol
_atom_site_label
_atom_site_fract_x
_atom_site_fract_y
_atom_site_fract_z
Si Si1 0.467959 0.956949 0.749437
Si Si2 0.071523 0.779588 0.337642
Si Si3 0.659040 0.700442 0.572166
Si Si4 0.681587 0.368881 0.148022
Si Si5 0.315482 0.766115 0.145634
Si Si6 0.159455 0.922922 0.597984
Si Si7 0.417898 0.456925 0.273191
Si Si8 0.732420 0.772323 0.078021
O O1 0.282830 0.967983 0.570626
O O2 0.500000 0.000000 0.500000
O O3 0.572080 0.855073 0.899240
O O4 0.500000 0.000000 0.000000
O O5 0.139949 0.696428 0.619032
O O6 0.168078 0.748411 0.177794
O O7 0.115843 0.863675 0.398173
O O8 0.882664 0.805674 0.161752
O O9 0.471349 0.761971 0.421796
O O10 0.684783 0.596316 0.648898
O O11 0.735492 0.720494 0.365069
O O12 0.745958 0.715503 0.874985
O O13 0.557662 0.385369 0.268467
O O14 0.611074 0.316813 0.932245
O O15 0.694238 0.461802 0.020368
O O16 0.243902 0.862654 0.923949
O O17 0.000000 0.000000 0.500000
O O18 0.500000 0.500000 0.500000
#
# Coordination Sequence:
#
# PCOD8012247 Si02
#       8
#     2   2   2   2   2   2   2   2
#     4  12  27  46  70 103 141 180 228 293 353 408
#     4  11  25  44  70  97 138 191 227 290 346 419
#     4  12  24  45  69 105 133 188 226 290 346 414
#     4  10  21  39  68 104 136 172 238 289 340 405
#     4  11  22  42  72  97 135 182 241 284 344 411
#     4  11  26  44  71 101 138 183 241 287 342 422
#     4  11  21  37  72 105 135 175 239 290 340 416
#     4  12  28  46  69  99 147 183 232 282 363 416
#
# _framework density 21.553207
#
# number of rings (size 3 to 8) (size 9 to 14) (size 15 to 20)
#    0.000    0.750    3.750    3.000    8.750    0.500 
#    0.000    1.250    0.000    0.000    0.000    0.000 
#    0.000    0.000    0.000    0.000    0.000    0.000 
#
# Total GULP energy -198340.408466 kJ/mol
# GULP energy per Si atom -12396.275529 kJ/mol
# Density = 2.150415 g / cm^3
# Si number density = 21.553207 Si / 1000 Ang^3
#
#
#
# Elastic Constant Matrix: (Units=GPa)
#
#
# Indices 1 2 3 4 5 6 
#
# 1 144.7011 42.9170 51.3054 8.4777 -0.3092 14.7118
# 2 42.9170 126.7196 48.7648 6.4717 -3.5375 5.6331
# 3 51.3054 48.7648 99.3974 17.0070 -16.8751 11.2867
# 4 8.4777 6.4717 17.0070 39.0612 -1.1544 -0.6908
# 5 -0.3092 -3.5375 -16.8751 -1.1544 42.7562 -3.1962
# 6 14.7118 5.6331 11.2867 -0.6908 -3.1962 37.5241
#
#
#
# Elastic Compliance Matrix: (Units=1/GPa)
#
#
# Indices 1 2 3 4 5 6 
#
# 1 0.008976 -0.001467 -0.003946 -0.000080 -0.001785 -0.002266
# 2 -0.001467 0.010033 -0.004455 0.000575 -0.000898 0.000343
# 3 -0.003946 -0.004455 0.016461 -0.005443 0.005778 -0.002344
# 4 -0.000080 0.000575 -0.005443 0.027893 -0.001199 0.001994
# 5 -0.001785 -0.000898 0.005778 -0.001199 0.025643 0.001259
# 6 -0.002266 0.000343 -0.002344 0.001994 0.001259 0.028335
#
#
# Mechanical properties :
#
#
# Convention : Reuss Voigt Hill
#
# Bulk Modulus (GPa) = 63.54992 72.97696 68.26344
# Shear Modulus (GPa) = 35.13186 39.05702 37.09444
#
# Velocity S-wave (km/s) = 4.04171 4.26152 4.15307
# Velocity P-wave (km/s) = 7.16448 7.62539 7.39852
#
# Compressibility (1/GPa) = 0.01573566
#
# Stress axis : x y z
#
# Youngs Moduli (GPa) = 111.40817 99.67294 60.74875
#
# Poissons Ratio (x) = 0.14618 0.23970
# Poissons Ratio (y) = 0.16339 0.27063
# Poissons Ratio (z) = 0.43958 0.44403
#
# Static dielectric constant tensor:
#      x y z
#    x 3.786230 0.146870 -0.059290 
#    y 0.146870 3.734270 -0.602190 
#    z -0.059290 -0.602190 3.538540 
# 
# 
# High freq. dielectric constant tensor:
#      x y z
#    x 1.833300 0.003710 -0.012480 
#    y 0.003710 1.854440 -0.003630 
#    z -0.012480 -0.003630 1.856890 
# 
# From -- ./inp_files/38179.got.cif
#   From: 2010.06.25/outbox.cif.g09.slc.cpg/sg2_20_cif.got.tgz:38179.got - 2010.06.27 13:26:56.
