data_PCOD8012342
_publ_section_title
;
Structure prediction by ZEFSAII (Michael W. Deem and Ramdas Pophale) SiO2 
 PCOD8012342
Probable space group: P -1
;
_chemical_formula_sum "Si O2"
_cell_formula_units_Z 16
_cell_length_a 11.535711
_cell_length_b 8.780263
_cell_length_c 17.084754
_cell_angle_alpha 147.983899
_cell_angle_beta 52.598914
_cell_angle_gamma 116.161564
_cell_volume 717.427169
_symmetry_space_group_name_H-M "P -1"
_symmetry_group_IT_number 2
_symmetry_cell_setting 'triclinic'
loop_
_space_group_symop_operation_xyz
x,y,z
-x,-y,-z
loop_
_atom_site_type_symbol
_atom_site_label
_atom_site_fract_x
_atom_site_fract_y
_atom_site_fract_z
Si Si1 0.516713 0.146745 0.672908
Si Si2 0.410068 0.637903 0.428491
Si Si3 0.898256 0.033292 0.770120
Si Si4 0.983240 0.274033 0.567069
Si Si5 0.111937 0.801947 0.712746
Si Si6 0.210021 0.362858 0.962847
Si Si7 0.554757 0.997723 0.889268
Si Si8 0.317751 0.514337 0.151740
O O1 0.584623 0.296021 0.637080
O O2 0.347004 0.304744 0.821455
O O3 0.613154 0.190696 0.730084
O O4 0.520717 0.805571 0.505472
O O5 0.242125 0.732245 0.565986
O O6 0.467322 0.299160 0.273676
O O7 0.725703 0.023129 0.827370
O O8 0.913495 0.375934 0.907161
O O9 0.992347 0.844703 0.582088
O O10 0.960520 0.909160 0.773599
O O11 0.820192 0.469600 0.725848
O O12 0.094099 0.508189 0.640335
O O13 0.000000 0.000000 0.500000
O O14 0.142208 0.065259 0.872385
O O15 0.260576 0.494389 0.079617
O O16 0.500000 0.000000 0.000000
O O17 0.452283 0.251708 0.995381
#
# Coordination Sequence:
#
# PCOD8012342 Si02
#       8
#     2   2   2   2   2   2   2   2
#     4  10  21  39  69  96 138 176 218 285 343 399
#     4  10  21  42  65 105 135 170 233 282 338 408
#     4  12  23  44  73 102 135 181 235 280 342 413
#     4  12  26  46  68  99 140 185 229 281 346 413
#     4  11  25  44  72 100 138 182 235 287 336 402
#     4  11  24  44  67 103 140 179 230 286 344 406
#     4  12  23  40  69 104 134 175 233 279 342 409
#     4  12  24  43  67  97 141 182 223 279 347 404
#
# _framework density 22.301914
#
# number of rings (size 3 to 8) (size 9 to 14) (size 15 to 20)
#    0.000    0.750    5.000    2.625    0.000    0.500 
#    2.250    3.750    0.000    0.000    0.000    0.000 
#    0.000    0.000    0.000    0.000    0.000    0.000 
#
# Total GULP energy -198317.798743 kJ/mol
# GULP energy per Si atom -12394.862421 kJ/mol
# Density = 2.225115 g / cm^3
# Si number density = 22.301914 Si / 1000 Ang^3
#
#
#
# Elastic Constant Matrix: (Units=GPa)
#
#
# Indices 1 2 3 4 5 6 
#
# 1 100.5559 45.4947 50.8324 13.7943 13.8062 7.6275
# 2 45.4947 111.3860 48.0467 18.5098 7.2069 19.3266
# 3 50.8324 48.0467 134.3400 11.1707 16.9772 17.9953
# 4 13.7943 18.5098 11.1707 45.9755 15.9840 2.7426
# 5 13.8062 7.2069 16.9772 15.9840 39.3451 1.2829
# 6 7.6275 19.3266 17.9953 2.7426 1.2829 30.5063
#
#
#
# Elastic Compliance Matrix: (Units=1/GPa)
#
#
# Indices 1 2 3 4 5 6 
#
# 1 0.013966 -0.004067 -0.003658 -0.000974 -0.002228 0.001424
# 2 -0.004067 0.013132 -0.002302 -0.003771 0.001732 -0.005678
# 3 -0.003658 -0.002302 0.010469 0.000744 -0.002992 -0.003743
# 4 -0.000974 -0.003771 0.000744 0.026926 -0.010234 0.000203
# 5 -0.002228 0.001732 -0.002992 -0.010234 0.031302 0.000828
# 6 0.001424 -0.005678 -0.003743 0.000203 0.000828 0.038176
#
#
# Mechanical properties :
#
#
# Convention : Reuss Voigt Hill
#
# Bulk Modulus (GPa) = 57.10573 70.55882 63.83228
# Shear Modulus (GPa) = 31.27664 36.62591 33.95128
#
# Velocity S-wave (km/s) = 3.74895 4.05690 3.90596
# Velocity P-wave (km/s) = 6.66340 7.32470 7.00186
#
# Compressibility (1/GPa) = 0.01751138
#
# Stress axis : x y z
#
# Youngs Moduli (GPa) = 71.60497 76.15032 95.51957
#
# Poissons Ratio (x) = 0.30972 0.34940
# Poissons Ratio (y) = 0.29124 0.21992
# Poissons Ratio (z) = 0.26192 0.17533
#
# Static dielectric constant tensor:
#      x y z
#    x 3.951280 0.408590 -0.064530 
#    y 0.408590 3.825200 0.248420 
#    z -0.064530 0.248420 4.885390 
# 
# 
# High freq. dielectric constant tensor:
#      x y z
#    x 1.855500 0.022100 0.007220 
#    y 0.022100 1.876970 0.000940 
#    z 0.007220 0.000940 1.905770 
# 
# From -- ./inp_files/403418.got.cif
#   From: 2010.06.25/outbox.cif.g09.slc.cpg/sg2_202_cif.got.tgz:403418.got - 2010.06.27 13:26:56.
