data_PCOD8012575
_publ_section_title
;
Structure prediction by ZEFSAII (Michael W. Deem and Ramdas Pophale) SiO2 
 PCOD8012575
Probable space group: P -1
;
_chemical_formula_sum "Si O2"
_cell_formula_units_Z 16
_cell_length_a 16.645463
_cell_length_b 14.328442
_cell_length_c 7.439649
_cell_angle_alpha 121.667993
_cell_angle_beta 82.217456
_cell_angle_gamma 143.678369
_cell_volume 734.688225
_symmetry_space_group_name_H-M "P -1"
_symmetry_group_IT_number 2
_symmetry_cell_setting 'triclinic'
loop_
_space_group_symop_operation_xyz
x,y,z
-x,-y,-z
loop_
_atom_site_type_symbol
_atom_site_label
_atom_site_fract_x
_atom_site_fract_y
_atom_site_fract_z
Si Si1 0.355048 0.945646 0.136409
Si Si2 0.265079 0.579861 0.459497
Si Si3 0.814857 0.747247 0.832000
Si Si4 0.814094 0.881011 0.288415
Si Si5 0.209006 0.553332 0.848786
Si Si6 0.159051 0.840156 0.382053
Si Si7 0.207047 0.314581 0.615589
Si Si8 0.182088 0.712606 0.581056
O O1 0.235507 0.884708 0.220730
O O2 0.539870 0.205028 0.357845
O O3 0.342998 0.808061 0.084339
O O4 0.306886 0.888791 0.883488
O O5 0.193301 0.382448 0.198413
O O6 0.171112 0.487298 0.583371
O O7 0.221908 0.637039 0.413187
O O8 0.721755 0.629768 0.549106
O O9 0.735276 0.743377 0.986034
O O10 0.000000 0.000000 0.000000
O O11 0.734624 0.714382 0.302950
O O12 0.766980 0.951589 0.398871
O O13 0.009775 0.093579 0.442558
O O14 0.274159 0.512990 0.866692
O O15 0.037353 0.390418 0.824419
O O16 0.209305 0.827797 0.526635
O O17 0.000000 0.500000 0.500000
#
# Coordination Sequence:
#
# PCOD8012575 Si02
#       8
#     2   2   2   2   2   2   2   2
#     4  11  23  39  60  89 130 160 191 254 311 361
#     4  10  21  40  61  92 122 158 203 247 309 365
#     4   9  18  34  60  84 111 152 205 250 282 351
#     4   9  18  33  52  84 115 147 197 254 286 339
#     4   9  17  35  60  85 117 155 202 248 287 365
#     4  11  22  37  59  93 123 156 209 246 300 361
#     4   8  16  31  53  84 110 145 198 247 297 335
#     4  11  22  38  64  92 123 159 202 249 302 357
#
# _framework density 21.777946
#
# number of rings (size 3 to 8) (size 9 to 14) (size 15 to 20)
#    0.000    2.250    2.500    2.625    0.000    2.500 
#    4.500    3.125    0.000    3.750    0.000    0.000 
#    0.000    0.000    0.000    0.000    0.000    0.000 
#
# Total GULP energy -198300.990809 kJ/mol
# GULP energy per Si atom -12393.811926 kJ/mol
# Density = 2.172838 g / cm^3
# Si number density = 21.777946 Si / 1000 Ang^3
#
#
#
# Elastic Constant Matrix: (Units=GPa)
#
#
# Indices 1 2 3 4 5 6 
#
# 1 108.6184 42.0752 38.5670 4.3894 -32.9618 -41.3072
# 2 42.0752 68.1907 23.5528 -7.4204 -8.6622 -15.1849
# 3 38.5670 23.5528 69.7990 10.3182 -29.0126 -9.8254
# 4 4.3894 -7.4204 10.3182 29.4601 2.4167 -0.7471
# 5 -32.9618 -8.6622 -29.0126 2.4167 41.0550 5.1406
# 6 -41.3072 -15.1849 -9.8254 -0.7471 5.1406 39.1173
#
#
#
# Elastic Compliance Matrix: (Units=1/GPa)
#
#
# Indices 1 2 3 4 5 6 
#
# 1 0.027404 -0.010492 -0.000127 -0.007535 0.017336 0.022412
# 2 -0.010492 0.023309 -0.007985 0.010943 -0.009470 -0.002584
# 3 -0.000127 -0.007985 0.026335 -0.012627 0.017461 0.000845
# 4 -0.007535 0.010943 -0.012627 0.043347 -0.014700 -0.004121
# 5 0.017336 -0.009470 0.017461 -0.014700 0.047925 0.012437
# 6 0.022412 -0.002584 0.000845 -0.004121 0.012437 0.046726
#
#
# Mechanical properties :
#
#
# Convention : Reuss Voigt Hill
#
# Bulk Modulus (GPa) = 25.10103 50.55535 37.82819
# Shear Modulus (GPa) = 18.82974 31.42068 25.12521
#
# Velocity S-wave (km/s) = 2.94364 3.80251 3.40030
# Velocity P-wave (km/s) = 4.80669 6.52251 5.72920
#
# Compressibility (1/GPa) = 0.03983901
#
# Stress axis : x y z
#
# Youngs Moduli (GPa) = 36.49036 42.90099 37.97230
#
# Poissons Ratio (x) = 0.45014 0.00483
# Poissons Ratio (y) = 0.38287 0.30323
# Poissons Ratio (z) = 0.00464 0.34258
#
# Static dielectric constant tensor:
#      x y z
#    x 4.207810 -0.336530 -0.520460 
#    y -0.336530 4.114300 -0.167360 
#    z -0.520460 -0.167360 3.832100 
# 
# 
# High freq. dielectric constant tensor:
#      x y z
#    x 1.844470 -0.014820 -0.038770 
#    y -0.014820 1.855820 -0.005380 
#    z -0.038770 -0.005380 1.830840 
# 
# From -- ./inp_files/315880.got.cif
#   From: 2010.06.25/outbox.cif.g09.slc.cpg/sg2_158_cif.got.tgz:315880.got - 2010.06.27 13:26:56.
