data_PCOD8012819
_publ_section_title
;
Structure prediction by ZEFSAII (Michael W. Deem and Ramdas Pophale) SiO2 
 PCOD8012819
Probable space group: P -1
;
_chemical_formula_sum "Si O2"
_cell_formula_units_Z 14
_cell_length_a 8.900920
_cell_length_b 11.534052
_cell_length_c 7.723434
_cell_angle_alpha 79.491137
_cell_angle_beta 52.264952
_cell_angle_gamma 90.710899
_cell_volume 608.665042
_symmetry_space_group_name_H-M "P -1"
_symmetry_group_IT_number 2
_symmetry_cell_setting 'triclinic'
loop_
_space_group_symop_operation_xyz
x,y,z
-x,-y,-z
loop_
_atom_site_type_symbol
_atom_site_label
_atom_site_fract_x
_atom_site_fract_y
_atom_site_fract_z
Si Si1 0.735380 0.219242 0.430439
Si Si2 0.570261 0.983822 0.144701
Si Si3 0.721860 0.694343 0.769674
Si Si4 0.931138 0.696806 0.256309
Si Si5 0.117432 0.154048 0.077011
Si Si6 0.017586 0.551188 0.663728
Si Si7 0.642653 0.242277 0.121294
O O1 0.555871 0.137049 0.663263
O O2 0.670337 0.285101 0.288335
O O3 0.890831 0.133993 0.287461
O O4 0.829279 0.326848 0.460531
O O5 0.546370 0.102126 0.236012
O O6 0.796319 0.965981 0.998713
O O7 0.500000 0.000000 0.000000
O O8 0.821420 0.719262 0.503894
O O9 0.766812 0.803239 0.841403
O O10 0.802932 0.584491 0.839402
O O11 0.492675 0.675628 0.903184
O O12 0.923582 0.557585 0.236744
O O13 0.842616 0.756871 0.139608
O O14 0.155039 0.747464 0.123407
O O15 0.000000 0.500000 0.500000
#
# Coordination Sequence:
#
# PCOD8012819 Si02
#       7
#     2   2   2   2   2   2   2
#     4  10  24  43  65  93 132 166 215 262 318 381
#     4  12  25  40  65  95 130 166 216 265 316 379
#     4  10  21  40  63  95 128 169 211 261 317 377
#     4  10  23  43  66  92 132 164 215 265 318 380
#     4  10  23  41  65  95 125 174 213 257 325 378
#     4   9  21  42  68  93 128 170 207 265 320 377
#     4  11  24  41  65  96 128 170 213 262 318 379
#
# _framework density 23.001159000000001
#
# number of rings (size 3 to 8) (size 9 to 14) (size 15 to 20)
#    0.000    1.714    1.429    1.286    6.000    9.714 
#    0.000   10.714    0.000    0.000    0.000    1.000 
#    0.000    0.000    0.000    0.000    0.000    0.000 
#
# Total GULP energy -173434.681422 kJ/mol
# GULP energy per Si atom -12388.191530 kJ/mol
# Density = 2.294881 g / cm^3
# Si number density = 23.001159 Si / 1000 Ang^3
#
#
#
# Elastic Constant Matrix: (Units=GPa)
#
#
# Indices 1 2 3 4 5 6 
#
# 1 96.2754 14.7042 20.8399 15.8236 -7.9584 -5.0654
# 2 14.7042 91.5917 9.0921 6.8150 -7.1946 1.5286
# 3 20.8399 9.0921 74.4501 5.3779 3.1148 1.7418
# 4 15.8236 6.8150 5.3779 28.0678 3.6450 -5.1683
# 5 -7.9584 -7.1946 3.1148 3.6450 32.9967 5.0613
# 6 -5.0654 1.5286 1.7418 -5.1683 5.0613 40.1414
#
#
#
# Elastic Compliance Matrix: (Units=1/GPa)
#
#
# Indices 1 2 3 4 5 6 
#
# 1 0.012645 -0.000928 -0.003110 -0.006727 0.003820 0.000418
# 2 -0.000928 0.011621 -0.001057 -0.002698 0.002896 -0.001226
# 3 -0.003110 -0.001057 0.014588 -0.000651 -0.002164 -0.000796
# 4 -0.006727 -0.002698 -0.000651 0.042247 -0.007689 0.005691
# 5 0.003820 0.002896 -0.002164 -0.007689 0.033644 -0.004766
# 6 0.000418 -0.001226 -0.000796 0.005691 -0.004766 0.026380
#
#
# Mechanical properties :
#
#
# Convention : Reuss Voigt Hill
#
# Bulk Modulus (GPa) = 34.88730 39.06553 36.97642
# Shear Modulus (GPa) = 31.08155 34.75323 32.91739
#
# Velocity S-wave (km/s) = 3.68000 3.89129 3.78712
# Velocity P-wave (km/s) = 5.76689 6.10004 5.93581
#
# Compressibility (1/GPa) = 0.02866372
#
# Stress axis : x y z
#
# Youngs Moduli (GPa) = 79.08180 86.05440 68.55132
#
# Poissons Ratio (x) = 0.07983 0.21320
# Poissons Ratio (y) = 0.07337 0.07246
# Poissons Ratio (z) = 0.24595 0.09096
#
# Static dielectric constant tensor:
#      x y z
#    x 4.651310 -0.052470 -0.406320 
#    y -0.052470 5.108670 -0.424710 
#    z -0.406320 -0.424710 4.956380 
# 
# 
# High freq. dielectric constant tensor:
#      x y z
#    x 1.929660 -0.011160 0.006820 
#    y -0.011160 1.900720 0.021500 
#    z 0.006820 0.021500 1.888800 
# 
# From -- ./inp_files/177268.got.cif
#   From: 2010.06.25/outbox.cif.g09.slc.cpg/sg2_89_cif.got.tgz:177268.got - 2010.06.27 13:26:56.
