data_PCOD8012151
_publ_section_title
;
Structure prediction by ZEFSAII (Michael W. Deem and Ramdas Pophale) SiO2 
 PCOD8012151
Probable space group: P -1
;
_chemical_formula_sum "Si O2"
_cell_formula_units_Z 16
_cell_length_a 9.234589
_cell_length_b 14.501354
_cell_length_c 14.366279
_cell_angle_alpha 42.861065
_cell_angle_beta 97.552500
_cell_angle_gamma 131.265703
_cell_volume 713.394229
_symmetry_space_group_name_H-M "P -1"
_symmetry_group_IT_number 2
_symmetry_cell_setting 'triclinic'
loop_
_space_group_symop_operation_xyz
x,y,z
-x,-y,-z
loop_
_atom_site_type_symbol
_atom_site_label
_atom_site_fract_x
_atom_site_fract_y
_atom_site_fract_z
Si Si1 0.181029 0.084444 0.535087
Si Si2 0.184384 0.878332 0.133455
Si Si3 0.929959 0.519214 0.119446
Si Si4 0.266759 0.393816 0.836614
Si Si5 0.268890 0.231916 0.130393
Si Si6 0.235243 0.636839 0.223009
Si Si7 0.305234 0.884099 0.717635
Si Si8 0.200626 0.879473 0.350753
O O1 0.439637 0.378817 0.351301
O O2 0.292536 0.021503 0.568732
O O3 0.000000 0.000000 0.500000
O O4 0.015509 0.953268 0.712878
O O5 0.180948 0.715229 0.233422
O O6 0.146124 0.865679 0.248787
O O7 0.946660 0.773323 0.140013
O O8 0.452761 0.155169 0.911369
O O9 0.154073 0.621529 0.124657
O O10 0.769573 0.506762 0.171543
O O11 0.723550 0.244955 0.272810
O O12 0.067473 0.691394 0.914119
O O13 0.246626 0.244636 0.009110
O O14 0.317571 0.108287 0.237491
O O15 0.500000 0.500000 0.000000
O O16 0.075236 0.379401 0.432468
O O17 0.588219 0.078118 0.647801
#
# Coordination Sequence:
#
# PCOD8012151 Si02
#       8
#     2   2   2   2   2   2   2   2
#     4  12  27  43  70 101 138 187 228 283 355 429
#     4  10  23  44  70 102 137 187 233 292 345 408
#     4  10  21  39  67 104 134 178 227 292 348 410
#     4  11  24  46  70  96 142 185 229 288 354 409
#     4  12  27  47  69 102 145 184 229 287 356 416
#     4  10  22  41  69 100 142 179 233 291 350 403
#     4  11  23  39  70 102 137 175 232 286 349 419
#     4  12  26  43  72 106 140 182 238 290 340 423
#
# _framework density 22.427990999999999
#
# number of rings (size 3 to 8) (size 9 to 14) (size 15 to 20)
#    0.000    1.000    3.750    2.625    3.500    3.500 
#    0.000    1.250    0.000    0.000    0.000    0.000 
#    0.000    0.000    0.000    0.000    0.000    0.000 
#
# Total GULP energy -198465.332328 kJ/mol
# GULP energy per Si atom -12404.083270 kJ/mol
# Density = 2.237694 g / cm^3
# Si number density = 22.427991 Si / 1000 Ang^3
#
#
#
# Elastic Constant Matrix: (Units=GPa)
#
#
# Indices 1 2 3 4 5 6 
#
# 1 81.8242 30.5277 44.7915 -1.2005 11.4423 24.0248
# 2 30.5277 96.6276 29.7144 -6.0497 8.3731 18.8204
# 3 44.7915 29.7144 138.6156 -21.5498 3.9424 13.8050
# 4 -1.2005 -6.0497 -21.5498 21.5884 8.6209 -5.2297
# 5 11.4423 8.3731 3.9424 8.6209 38.9675 -4.0030
# 6 24.0248 18.8204 13.8050 -5.2297 -4.0030 39.5112
#
#
#
# Elastic Compliance Matrix: (Units=1/GPa)
#
#
# Indices 1 2 3 4 5 6 
#
# 1 0.019724 -0.002533 -0.005622 -0.005900 -0.004406 -0.010050
# 2 -0.002533 0.012664 -0.001011 0.002550 -0.002860 -0.004091
# 3 -0.005622 -0.001011 0.010902 0.011262 -0.001580 0.001421
# 4 -0.005900 0.002550 0.011262 0.064786 -0.013710 0.005624
# 5 -0.004406 -0.002860 -0.001580 -0.013710 0.031376 0.005957
# 6 -0.010050 -0.004091 0.001421 0.005624 0.005957 0.034220
#
#
# Mechanical properties :
#
#
# Convention : Reuss Voigt Hill
#
# Bulk Modulus (GPa) = 40.06605 58.57053 49.31829
# Shear Modulus (GPa) = 24.95971 34.14901 29.55436
#
# Velocity S-wave (km/s) = 3.33961 3.90629 3.63401
# Velocity P-wave (km/s) = 5.72483 6.82035 6.29646
#
# Compressibility (1/GPa) = 0.02495879
#
# Stress axis : x y z
#
# Youngs Moduli (GPa) = 50.69989 78.96110 91.72923
#
# Poissons Ratio (x) = 0.20000 0.51566
# Poissons Ratio (y) = 0.12842 0.09276
# Poissons Ratio (z) = 0.28501 0.07985
#
# Static dielectric constant tensor:
#      x y z
#    x 3.911580 0.064390 0.054640 
#    y 0.064390 4.000540 0.009340 
#    z 0.054640 0.009340 4.206980 
# 
# 
# High freq. dielectric constant tensor:
#      x y z
#    x 1.874890 0.008070 -0.002000 
#    y 0.008070 1.879640 0.001940 
#    z -0.002000 0.001940 1.897490 
# 
# From -- ./inp_files/505290.got.cif
#   From: 2010.06.25/outbox.cif.g09.slc.cpg/sg2_253_cif.got.tgz:505290.got - 2010.06.27 13:26:56.
