data_PCOD8012912
_publ_section_title
;
Structure prediction by ZEFSAII (Michael W. Deem and Ramdas Pophale) SiO2 
 PCOD8012912
Probable space group: P -1
;
_chemical_formula_sum "Si O2"
_cell_formula_units_Z 14
_cell_length_a 12.420080
_cell_length_b 9.305846
_cell_length_c 9.383450
_cell_angle_alpha 43.988005
_cell_angle_beta 97.602322
_cell_angle_gamma 115.659019
_cell_volume 650.512338
_symmetry_space_group_name_H-M "P -1"
_symmetry_group_IT_number 2
_symmetry_cell_setting 'triclinic'
loop_
_space_group_symop_operation_xyz
x,y,z
-x,-y,-z
loop_
_atom_site_type_symbol
_atom_site_label
_atom_site_fract_x
_atom_site_fract_y
_atom_site_fract_z
Si Si1 0.420326 0.874916 0.713259
Si Si2 0.794146 0.955906 0.690609
Si Si3 0.731449 0.738947 0.289086
Si Si4 0.998967 0.904677 0.913561
Si Si5 0.577846 0.721329 0.032987
Si Si6 0.640056 0.734586 0.564301
Si Si7 0.207699 0.565702 0.705249
O O1 0.303359 0.633399 0.806487
O O2 0.500000 0.000000 0.500000
O O3 0.377029 0.049030 0.650925
O O4 0.498742 0.839394 0.876792
O O5 0.796111 0.207089 0.520512
O O6 0.928207 0.993421 0.730467
O O7 0.762175 0.844674 0.607011
O O8 0.687894 0.765305 0.912207
O O9 0.646278 0.821022 0.125737
O O10 0.661527 0.612464 0.514983
O O11 0.754795 0.553516 0.332637
O O12 0.856846 0.978040 0.190005
O O13 0.926925 0.618224 0.118521
O O14 0.000000 0.000000 0.000000
O O15 0.481078 0.441980 0.237923
#
# Coordination Sequence:
#
# PCOD8012912 Si02
#       7
#     2   2   2   2   2   2   2
#     4  11  22  38  66  92 120 159 214 244 297 377
#     4  11  22  39  69  89 114 165 216 239 301 370
#     4  11  25  42  60  92 133 156 202 259 309 354
#     4  10  21  41  63  90 120 163 208 251 293 365
#     4  12  22  39  65  91 122 167 198 251 308 367
#     4  11  25  42  60  96 128 156 200 263 309 357
#     4  10  21  40  64  91 118 160 210 251 292 367
#
# _framework density 21.521497
#
# number of rings (size 3 to 8) (size 9 to 14) (size 15 to 20)
#    0.000    1.143    5.714    2.571    0.000    3.429 
#    2.571    2.857    0.000    0.000    0.000    0.000 
#    0.000    0.000    0.000    0.000    0.000    0.000 
#
# Total GULP energy -173492.830863 kJ/mol
# GULP energy per Si atom -12392.345062 kJ/mol
# Density = 2.147251 g / cm^3
# Si number density = 21.521497 Si / 1000 Ang^3
#
#
#
# Elastic Constant Matrix: (Units=GPa)
#
#
# Indices 1 2 3 4 5 6 
#
# 1 68.5347 63.6932 43.8175 4.4316 14.0355 30.6600
# 2 63.6932 107.1369 62.3949 3.0711 14.4393 26.0150
# 3 43.8175 62.3949 115.0223 4.1208 13.5040 13.2694
# 4 4.4316 3.0711 4.1208 39.5359 14.6818 0.4753
# 5 14.0355 14.4393 13.5040 14.6818 31.7210 7.0980
# 6 30.6600 26.0150 13.2694 0.4753 7.0980 44.9699
#
#
#
# Elastic Compliance Matrix: (Units=1/GPa)
#
#
# Indices 1 2 3 4 5 6 
#
# 1 0.042483 -0.018453 -0.003691 -0.001009 -0.004678 -0.016452
# 2 -0.018453 0.023562 -0.005789 0.001125 -0.000790 0.000771
# 3 -0.003691 -0.005789 0.013199 0.000182 -0.001945 0.002275
# 4 -0.001009 0.001125 0.000182 0.030787 -0.014841 0.002000
# 5 -0.004678 -0.000790 -0.001945 -0.014841 0.042161 -0.002277
# 6 -0.016452 0.000771 0.002275 0.002000 -0.002277 0.032675
#
#
# Mechanical properties :
#
#
# Convention : Reuss Voigt Hill
#
# Bulk Modulus (GPa) = 42.77025 70.05611 56.41318
# Shear Modulus (GPa) = 20.11868 31.29791 25.70830
#
# Velocity S-wave (km/s) = 3.06080 3.81762 3.45996
# Velocity P-wave (km/s) = 5.69278 7.21489 6.49855
#
# Compressibility (1/GPa) = 0.02338074
#
# Stress axis : x y z
#
# Youngs Moduli (GPa) = 23.53866 42.44077 75.76179
#
# Poissons Ratio (x) = 0.78315 0.27961
# Poissons Ratio (y) = 0.43435 0.43855
# Poissons Ratio (z) = 0.08687 0.24567
#
# Static dielectric constant tensor:
#      x y z
#    x 3.728390 0.513740 -0.278480 
#    y 0.513740 4.098110 -0.303410 
#    z -0.278480 -0.303410 4.166880 
# 
# 
# High freq. dielectric constant tensor:
#      x y z
#    x 1.826300 0.031960 0.004900 
#    y 0.031960 1.847260 0.000990 
#    z 0.004900 0.000990 1.847690 
# 
# From -- ./inp_files/242190.got.cif
#   From: 2010.06.25/outbox.cif.g09.slc.cpg/sg2_122_cif.got.tgz:242190.got - 2010.06.27 13:26:56.
