data_PCOD8012996
_publ_section_title
;
Structure prediction by ZEFSAII (Michael W. Deem and Ramdas Pophale) SiO2 
 PCOD8012996
Probable space group: P -1
;
_chemical_formula_sum "Si O2"
_cell_formula_units_Z 16
_cell_length_a 8.447890
_cell_length_b 14.830564
_cell_length_c 6.564455
_cell_angle_alpha 78.443397
_cell_angle_beta 96.482184
_cell_angle_gamma 70.476758
_cell_volume 744.897673
_symmetry_space_group_name_H-M "P -1"
_symmetry_group_IT_number 2
_symmetry_cell_setting 'triclinic'
loop_
_space_group_symop_operation_xyz
x,y,z
-x,-y,-z
loop_
_atom_site_type_symbol
_atom_site_label
_atom_site_fract_x
_atom_site_fract_y
_atom_site_fract_z
Si Si1 0.291373 0.458253 0.907154
Si Si2 0.645485 0.417956 0.800216
Si Si3 0.682739 0.914879 0.591722
Si Si4 0.741713 0.242669 0.166562
Si Si5 0.161829 0.195833 0.728764
Si Si6 0.844609 0.362257 0.450888
Si Si7 0.038601 0.083827 0.085720
Si Si8 0.635494 0.754488 0.936470
O O1 0.450177 0.424995 0.786646
O O2 0.143481 0.551758 0.738536
O O3 0.342902 0.488229 0.120300
O O4 0.242103 0.362567 0.990995
O O5 0.708265 0.417622 0.580148
O O6 0.765600 0.315681 0.966299
O O7 0.772585 0.886288 0.399652
O O8 0.788925 0.960258 0.734769
O O9 0.681328 0.812536 0.731813
O O10 0.500000 0.000000 0.500000
O O11 0.768424 0.286424 0.368143
O O12 0.560584 0.230958 0.128928
O O13 0.886255 0.136005 0.198854
O O14 0.037475 0.302893 0.580010
O O15 0.051062 0.161795 0.887794
O O16 0.328919 0.203276 0.861124
O O17 0.000000 0.000000 0.000000
#
# Coordination Sequence:
#
# PCOD8012996 Si02
#       8
#     2   2   2   2   2   2   2   2
#     4   9  20  36  61  97 129 168 215 256 309 379
#     4   9  18  36  61  93 134 167 207 265 314 359
#     4  11  27  47  65  92 131 169 209 261 325 388
#     4  10  21  40  64  97 124 167 215 266 310 375
#     4  11  25  44  64  94 134 170 201 265 328 375
#     4  11  20  37  67  93 130 169 216 260 311 375
#     4  11  25  43  70  94 125 161 217 270 319 375
#     4  10  25  42  63  93 135 167 207 263 318 374
#
# _framework density 21.479458999999999
#
# number of rings (size 3 to 8) (size 9 to 14) (size 15 to 20)
#    0.000    1.750    2.500    1.125    3.500    6.000 
#    0.000    1.250    0.000    0.000    0.000    0.000 
#    0.000    0.000    0.000    0.000    0.000    0.000 
#
# Total GULP energy -198356.442489 kJ/mol
# GULP energy per Si atom -12397.277656 kJ/mol
# Density = 2.143057 g / cm^3
# Si number density = 21.479459 Si / 1000 Ang^3
#
#
#
# Elastic Constant Matrix: (Units=GPa)
#
#
# Indices 1 2 3 4 5 6 
#
# 1 79.2353 35.5000 36.4521 9.7648 18.9975 -1.4675
# 2 35.5000 102.9475 34.5905 12.8532 7.2420 -5.2285
# 3 36.4521 34.5905 96.5275 13.9387 14.3324 -3.7312
# 4 9.7648 12.8532 13.9387 35.9713 -8.0464 2.0725
# 5 18.9975 7.2420 14.3324 -8.0464 30.1170 2.3440
# 6 -1.4675 -5.2285 -3.7312 2.0725 2.3440 39.9669
#
#
#
# Elastic Compliance Matrix: (Units=1/GPa)
#
#
# Indices 1 2 3 4 5 6 
#
# 1 0.019267 -0.004062 -0.003463 -0.004919 -0.010901 0.000747
# 2 -0.004062 0.012316 -0.002485 -0.002405 0.000035 0.001353
# 3 -0.003463 -0.002485 0.014122 -0.004927 -0.005367 0.001436
# 4 -0.004919 -0.002405 -0.004927 0.035663 0.015845 -0.003734
# 5 -0.010901 0.000035 -0.005367 0.015845 0.047208 -0.004487
# 6 0.000747 0.001353 0.001436 -0.003734 -0.004487 0.025816
#
#
# Mechanical properties :
#
#
# Convention : Reuss Voigt Hill
#
# Bulk Modulus (GPa) = 38.93195 54.64395 46.78795
# Shear Modulus (GPa) = 27.32635 32.68888 30.00762
#
# Velocity S-wave (km/s) = 3.57067 3.90534 3.74175
# Velocity P-wave (km/s) = 5.92994 6.76986 6.36377
#
# Compressibility (1/GPa) = 0.02568584
#
# Stress axis : x y z
#
# Youngs Moduli (GPa) = 51.90191 81.19647 70.81215
#
# Poissons Ratio (x) = 0.32979 0.24520
# Poissons Ratio (y) = 0.21080 0.17598
# Poissons Ratio (z) = 0.17972 0.20179
#
# Static dielectric constant tensor:
#      x y z
#    x 3.639280 0.053280 0.143060 
#    y 0.053280 3.962600 -0.051570 
#    z 0.143060 -0.051570 4.014090 
# 
# 
# High freq. dielectric constant tensor:
#      x y z
#    x 1.823100 -0.004950 0.011420 
#    y -0.004950 1.846490 0.000320 
#    z 0.011420 0.000320 1.852210 
# 
# From -- ./inp_files/38084.got.cif
#   From: 2010.06.25/outbox.cif.g09.slc.cpg/sg2_20_cif.got.tgz:38084.got - 2010.06.27 13:26:56.
