data_PCOD8012252
_publ_section_title
;
Structure prediction by ZEFSAII (Michael W. Deem and Ramdas Pophale) SiO2 
 PCOD8012252
Probable space group: P -1
;
_chemical_formula_sum "Si O2"
_cell_formula_units_Z 14
_cell_length_a 11.914284
_cell_length_b 8.905885
_cell_length_c 9.605273
_cell_angle_alpha 122.665210
_cell_angle_beta 110.957654
_cell_angle_gamma 103.363085
_cell_volume 674.597226
_symmetry_space_group_name_H-M "P -1"
_symmetry_group_IT_number 2
_symmetry_cell_setting 'triclinic'
loop_
_space_group_symop_operation_xyz
x,y,z
-x,-y,-z
loop_
_atom_site_type_symbol
_atom_site_label
_atom_site_fract_x
_atom_site_fract_y
_atom_site_fract_z
Si Si1 0.755254 0.461772 0.816490
Si Si2 0.662910 0.080288 0.395223
Si Si3 0.743729 0.870437 0.543354
Si Si4 0.331113 0.868189 0.164225
Si Si5 0.488493 0.464043 0.313237
Si Si6 0.707075 0.006276 0.072202
Si Si7 0.040911 0.061631 0.890003
O O1 0.743666 0.317369 0.609518
O O2 0.760444 0.357198 0.911457
O O3 0.620554 0.483097 0.773664
O O4 0.899431 0.690112 0.977201
O O5 0.688828 0.099630 0.252520
O O6 0.727089 0.951750 0.427318
O O7 0.497226 0.957053 0.299393
O O8 0.640861 0.615634 0.381861
O O9 0.698815 0.965185 0.696019
O O10 0.904737 0.931825 0.664924
O O11 0.279563 0.837083 0.966206
O O12 0.500000 0.500000 0.500000
O O13 0.436039 0.222713 0.135566
O O14 0.845457 0.993147 0.135390
O O15 0.000000 0.000000 0.000000
#
# Coordination Sequence:
#
# PCOD8012252 Si02
#       7
#     2   2   2   2   2   2   2
#     4  10  21  39  68  87 119 162 212 238 307 364
#     4  11  22  38  63  98 125 153 198 268 309 348
#     4  11  20  38  67  85 124 159 212 247 296 364
#     4  11  19  39  63  94 118 160 205 251 297 366
#     4  11  18  37  65  93 111 165 212 247 290 362
#     4  11  24  38  65  93 128 153 205 256 310 353
#     4  11  23  43  65  89 118 169 212 245 289 379
#
# _framework density 20.753125000000001
#
# number of rings (size 3 to 8) (size 9 to 14) (size 15 to 20)
#    0.000    1.143    5.714    2.143    0.000    3.429 
#    0.000    0.714    3.143    0.000    0.000    0.000 
#    0.000    0.000    0.000    0.000    0.000    0.000 
#
# Total GULP energy -173662.619710 kJ/mol
# GULP energy per Si atom -12404.472836 kJ/mol
# Density = 2.070589 g / cm^3
# Si number density = 20.753125 Si / 1000 Ang^3
#
#
#
# Elastic Constant Matrix: (Units=GPa)
#
#
# Indices 1 2 3 4 5 6 
#
# 1 62.5904 29.2290 37.2991 5.8148 13.5279 7.1336
# 2 29.2290 149.6282 64.1406 -3.1557 -1.2721 9.3992
# 3 37.2991 64.1406 95.6467 -7.1108 8.9124 10.5021
# 4 5.8148 -3.1557 -7.1108 41.1709 8.2936 3.9108
# 5 13.5279 -1.2721 8.9124 8.2936 40.1360 -6.6228
# 6 7.1336 9.3992 10.5021 3.9108 -6.6228 27.2784
#
#
#
# Elastic Compliance Matrix: (Units=1/GPa)
#
#
# Indices 1 2 3 4 5 6 
#
# 1 0.022985 -0.001197 -0.007393 -0.003014 -0.006150 -0.003813
# 2 -0.001197 0.009587 -0.006219 -0.000621 0.002222 0.000033
# 3 -0.007393 -0.006219 0.018745 0.004999 -0.003685 -0.004752
# 4 -0.003014 -0.000621 0.004999 0.027539 -0.006884 -0.006542
# 5 -0.006150 0.002222 -0.003685 -0.006884 0.031080 0.010794
# 6 -0.003813 0.000033 -0.004752 -0.006542 0.010794 0.043033
#
#
# Mechanical properties :
#
#
# Convention : Reuss Voigt Hill
#
# Bulk Modulus (GPa) = 46.08432 63.24476 54.66454
# Shear Modulus (GPa) = 26.34073 33.53016 29.93545
#
# Velocity S-wave (km/s) = 3.56651 4.02390 3.80209
# Velocity P-wave (km/s) = 6.26212 7.22011 6.75811
#
# Compressibility (1/GPa) = 0.02169936
#
# Stress axis : x y z
#
# Youngs Moduli (GPa) = 43.50574 104.31245 53.34708
#
# Poissons Ratio (x) = 0.12489 0.39440
# Poissons Ratio (y) = 0.05209 0.33175
# Poissons Ratio (z) = 0.32164 0.64868
#
# Static dielectric constant tensor:
#      x y z
#    x 3.786650 -0.079750 0.296390 
#    y -0.079750 4.011310 0.000130 
#    z 0.296390 0.000130 3.713360 
# 
# 
# High freq. dielectric constant tensor:
#      x y z
#    x 1.796870 -0.005100 0.015560 
#    y -0.005100 1.830210 -0.008330 
#    z 0.015560 -0.008330 1.794990 
# 
# From -- ./inp_files/156596.got.cif
#   From: 2010.06.25/outbox.cif.g09.slc.cpg/sg2_79_cif.got.tgz:156596.got - 2010.06.27 13:26:56.
