data_PCOD8012526
_publ_section_title
;
Structure prediction by ZEFSAII (Michael W. Deem and Ramdas Pophale) SiO2 
 PCOD8012526
Probable space group: P -1
;
_chemical_formula_sum "Si O2"
_cell_formula_units_Z 14
_cell_length_a 13.627477
_cell_length_b 16.780383
_cell_length_c 24.257602
_cell_angle_alpha 162.600906
_cell_angle_beta 152.279616
_cell_angle_gamma 24.589050
_cell_volume 683.331072
_symmetry_space_group_name_H-M "P -1"
_symmetry_group_IT_number 2
_symmetry_cell_setting 'triclinic'
loop_
_space_group_symop_operation_xyz
x,y,z
-x,-y,-z
loop_
_atom_site_type_symbol
_atom_site_label
_atom_site_fract_x
_atom_site_fract_y
_atom_site_fract_z
Si Si1 0.718318 0.271756 0.421579
Si Si2 0.469691 0.707319 0.778552
Si Si3 0.865588 0.301555 0.299469
Si Si4 0.017802 0.612465 0.794088
Si Si5 0.971879 0.238836 0.690349
Si Si6 0.813342 0.385173 0.005530
Si Si7 0.307569 0.705182 0.907717
O O1 0.500000 0.500000 0.500000
O O2 0.639929 0.244733 0.304365
O O3 0.929038 0.363528 0.585953
O O4 0.827341 0.937449 0.280522
O O5 0.297607 0.655357 0.700505
O O6 0.714548 0.396234 0.695256
O O7 0.500000 0.000000 0.000000
O O8 0.693632 0.390730 0.219361
O O9 0.000000 0.500000 0.500000
O O10 0.079288 0.967018 0.182435
O O11 0.142020 0.599122 0.789135
O O12 0.209303 0.545669 0.894472
O O13 0.789504 0.937104 0.902050
O O14 0.000000 0.000000 0.500000
O O15 0.003002 0.510264 0.858792
O O16 0.566754 0.553119 0.962282
#
# Coordination Sequence:
#
# PCOD8012526 Si02
#       7
#     2   2   2   2   2   2   2
#     4  12  24  40  71  99 138 175 228 282 342 405
#     4  12  27  46  69 102 143 180 227 289 344 404
#     4  11  26  47  65  94 141 184 226 278 342 413
#     4  10  21  40  61 103 132 173 224 285 338 403
#     4  12  24  43  71 105 133 179 229 283 343 410
#     4  11  22  41  68  98 135 170 234 285 334 405
#     4  10  23  39  68  92 135 179 224 280 345 395
#
# _framework density 20.487873
#
# number of rings (size 3 to 8) (size 9 to 14) (size 15 to 20)
#    0.000    0.857    4.286    2.143    4.000    3.429 
#    0.000    0.000    0.000    0.000    0.000    0.000 
#    0.000    0.000    0.000    0.000    0.000    0.000 
#
# Total GULP energy -173653.433284 kJ/mol
# GULP energy per Si atom -12403.816663 kJ/mol
# Density = 2.044124 g / cm^3
# Si number density = 20.487873 Si / 1000 Ang^3
#
#
#
# Elastic Constant Matrix: (Units=GPa)
#
#
# Indices 1 2 3 4 5 6 
#
# 1 131.4543 40.8202 52.7097 -7.1713 -15.6152 15.8499
# 2 40.8202 142.5161 41.4702 -15.9036 -19.7989 20.0355
# 3 52.7097 41.4702 124.7815 -2.3096 1.2437 2.8586
# 4 -7.1713 -15.9036 -2.3096 29.1924 10.2459 -1.6566
# 5 -15.6152 -19.7989 1.2437 10.2459 38.5457 -2.6717
# 6 15.8499 20.0355 2.8586 -1.6566 -2.6717 35.6862
#
#
#
# Elastic Compliance Matrix: (Units=1/GPa)
#
#
# Indices 1 2 3 4 5 6 
#
# 1 0.010347 -0.000737 -0.004074 0.000351 0.003604 -0.003570
# 2 -0.000737 0.009483 -0.002714 0.003301 0.003480 -0.004366
# 3 -0.004074 -0.002714 0.010609 -0.000418 -0.003121 0.002230
# 4 0.000351 0.003301 -0.000418 0.039077 -0.008592 -0.000805
# 5 0.003604 0.003480 -0.003121 -0.008592 0.031482 -0.001346
# 6 -0.003570 -0.004366 0.002230 -0.000805 -0.001346 0.031742
#
#
# Mechanical properties :
#
#
# Convention : Reuss Voigt Hill
#
# Bulk Modulus (GPa) = 64.97458 74.30578 69.64018
# Shear Modulus (GPa) = 32.69718 38.26832 35.48275
#
# Velocity S-wave (km/s) = 3.99924 4.32655 4.16611
# Velocity P-wave (km/s) = 7.28751 7.82979 7.56351
#
# Compressibility (1/GPa) = 0.01539064
#
# Stress axis : x y z
#
# Youngs Moduli (GPa) = 96.64639 105.45070 94.25933
#
# Poissons Ratio (x) = 0.07768 0.38397
# Poissons Ratio (y) = 0.07119 0.25582
# Poissons Ratio (z) = 0.39370 0.28620
#
# Static dielectric constant tensor:
#      x y z
#    x 3.910710 0.269040 0.074180 
#    y 0.269040 3.797100 0.029650 
#    z 0.074180 0.029650 3.696060 
# 
# 
# High freq. dielectric constant tensor:
#      x y z
#    x 1.813920 0.013450 0.005600 
#    y 0.013450 1.810360 -0.002150 
#    z 0.005600 -0.002150 1.802610 
# 
# From -- ./inp_files/184682.got.cif
#   From: 2010.06.25/outbox.cif.g09.slc.cpg/sg2_93_cif.got.tgz:184682.got - 2010.06.27 13:26:56.
