data_PCOD8012889
_publ_section_title
;
Structure prediction by ZEFSAII (Michael W. Deem and Ramdas Pophale) SiO2 
 PCOD8012889
Probable space group: P -1
;
_chemical_formula_sum "Si O2"
_cell_formula_units_Z 16
_cell_length_a 13.659893
_cell_length_b 14.904135
_cell_length_c 14.769344
_cell_angle_alpha 32.369192
_cell_angle_beta 150.295999
_cell_angle_gamma 148.414377
_cell_volume 714.091227
_symmetry_space_group_name_H-M "P -1"
_symmetry_group_IT_number 2
_symmetry_cell_setting 'triclinic'
loop_
_space_group_symop_operation_xyz
x,y,z
-x,-y,-z
loop_
_atom_site_type_symbol
_atom_site_label
_atom_site_fract_x
_atom_site_fract_y
_atom_site_fract_z
Si Si1 0.482522 0.191130 0.822338
Si Si2 0.645437 0.269391 0.084350
Si Si3 0.085925 0.238078 0.504614
Si Si4 0.974656 0.309007 0.687115
Si Si5 0.135421 0.346382 0.972182
Si Si6 0.463109 0.945994 0.337909
Si Si7 0.108610 0.955973 0.311607
Si Si8 0.306496 0.660580 0.319567
O O1 0.234476 0.168554 0.621596
O O2 0.635141 0.321272 0.754711
O O3 0.570433 0.287559 0.907608
O O4 0.500000 0.000000 0.000000
O O5 0.694140 0.465066 0.003632
O O6 0.860354 0.224773 0.290248
O O7 0.450281 0.105171 0.125552
O O8 0.239063 0.451257 0.474841
O O9 0.052104 0.116681 0.670617
O O10 0.743749 0.172618 0.664472
O O11 0.014380 0.176817 0.758868
O O12 0.000000 0.500000 0.500000
O O13 0.154767 0.380393 0.850484
O O14 0.892455 0.284645 0.869692
O O15 0.192230 0.175074 0.178030
O O16 0.501389 0.802870 0.420753
O O17 0.668743 0.060919 0.470743
#
# Coordination Sequence:
#
# PCOD8012889 Si02
#       8
#     2   2   2   2   2   2   2   2
#     4  12  23  40  67  95 126 171 219 260 318 374
#     4  10  23  44  62  93 131 168 209 266 316 376
#     4  10  24  41  63  92 133 167 213 262 323 370
#     4  11  22  42  67  89 128 167 206 256 324 382
#     4  10  23  41  62  92 129 161 211 266 311 373
#     4  10  21  40  64  89 128 162 208 258 319 375
#     4  11  22  40  63  97 120 169 213 258 316 378
#     4  10  21  42  61  91 128 171 205 264 318 375
#
# _framework density 22.406101
#
# number of rings (size 3 to 8) (size 9 to 14) (size 15 to 20)
#    0.000    1.500    1.250    4.875    3.500    2.500 
#    2.250    1.250    0.000    0.000    0.000    0.000 
#    0.000    0.000    0.000    0.000    0.000    0.000 
#
# Total GULP energy -198269.033095 kJ/mol
# GULP energy per Si atom -12391.814568 kJ/mol
# Density = 2.235510 g / cm^3
# Si number density = 22.406101 Si / 1000 Ang^3
#
#
#
# Elastic Constant Matrix: (Units=GPa)
#
#
# Indices 1 2 3 4 5 6 
#
# 1 70.6067 12.7243 14.7225 1.6663 -17.9439 5.6794
# 2 12.7243 99.5153 11.5284 -21.3111 -11.6684 -4.9422
# 3 14.7225 11.5284 66.7382 -15.9816 -11.9419 0.3394
# 4 1.6663 -21.3111 -15.9816 38.1734 -3.5908 -7.4511
# 5 -17.9439 -11.6684 -11.9419 -3.5908 41.0666 -4.1603
# 6 5.6794 -4.9422 0.3394 -7.4511 -4.1603 34.2480
#
#
#
# Elastic Compliance Matrix: (Units=1/GPa)
#
#
# Indices 1 2 3 4 5 6 
#
# 1 0.016866 -0.002042 -0.003214 -0.003344 0.005243 -0.003150
# 2 -0.002042 0.012866 0.001162 0.009085 0.004371 0.004691
# 3 -0.003214 0.001162 0.018838 0.009854 0.005603 0.003339
# 4 -0.003344 0.009085 0.009854 0.038520 0.008487 0.011179
# 5 0.005243 0.004371 0.005603 0.008487 0.030791 0.005292
# 6 -0.003150 0.004691 0.003339 0.011179 0.005292 0.033440
#
#
# Mechanical properties :
#
#
# Convention : Reuss Voigt Hill
#
# Bulk Modulus (GPa) = 24.76403 34.97895 29.87149
# Shear Modulus (GPa) = 28.90661 35.88996 32.39829
#
# Velocity S-wave (km/s) = 3.59572 4.00658 3.80670
# Velocity P-wave (km/s) = 5.32122 6.08678 5.71683
#
# Compressibility (1/GPa) = 0.04038115
#
# Stress axis : x y z
#
# Youngs Moduli (GPa) = 59.29108 77.72249 53.08494
#
# Poissons Ratio (x) = 0.15870 0.17063
# Poissons Ratio (y) = 0.12106 -0.06167
# Poissons Ratio (z) = 0.19058 -0.09030
#
# Static dielectric constant tensor:
#      x y z
#    x 4.326990 -0.067100 -0.237180 
#    y -0.067100 4.237150 -0.007000 
#    z -0.237180 -0.007000 3.957590 
# 
# 
# High freq. dielectric constant tensor:
#      x y z
#    x 1.881870 -0.001550 -0.017630 
#    y -0.001550 1.892200 -0.014210 
#    z -0.017630 -0.014210 1.875100 
# 
# From -- ./inp_files/347591.got.cif
#   From: 2010.06.25/outbox.cif.g09.slc.cpg/sg2_174_cif.got.tgz:347591.got - 2010.06.27 13:26:56.
