data_PCOD8012353
_publ_section_title
;
Structure prediction by ZEFSAII (Michael W. Deem and Ramdas Pophale) SiO2 
 PCOD8012353
Probable space group: P -1
;
_chemical_formula_sum "Si O2"
_cell_formula_units_Z 16
_cell_length_a 9.102071
_cell_length_b 9.580668
_cell_length_c 15.700141
_cell_angle_alpha 120.669868
_cell_angle_beta 41.341526
_cell_angle_gamma 106.138793
_cell_volume 764.460752
_symmetry_space_group_name_H-M "P -1"
_symmetry_group_IT_number 2
_symmetry_cell_setting 'triclinic'
loop_
_space_group_symop_operation_xyz
x,y,z
-x,-y,-z
loop_
_atom_site_type_symbol
_atom_site_label
_atom_site_fract_x
_atom_site_fract_y
_atom_site_fract_z
Si Si1 0.511405 0.332431 0.668137
Si Si2 0.479533 0.402213 0.392510
Si Si3 0.020018 0.257489 0.854030
Si Si4 0.904261 0.183979 0.069534
Si Si5 0.126169 0.981755 0.579221
Si Si6 0.138183 0.171635 0.476135
Si Si7 0.691659 0.376957 0.774504
Si Si8 0.789501 0.567074 0.940091
O O1 0.488526 0.457223 0.641347
O O2 0.683137 0.166378 0.514914
O O3 0.611661 0.430072 0.730598
O O4 0.263422 0.296152 0.788318
O O5 0.500000 0.500000 0.500000
O O6 0.663311 0.239460 0.238432
O O7 0.243749 0.335715 0.468608
O O8 0.866323 0.417316 0.927103
O O9 0.895652 0.206496 0.977368
O O10 0.052017 0.107745 0.727165
O O11 0.060445 0.297339 0.077713
O O12 0.000000 0.000000 0.000000
O O13 0.896416 0.919677 0.626667
O O14 0.253856 0.060730 0.470116
O O15 0.878408 0.212205 0.636242
O O16 0.809168 0.507683 0.814981
O O17 0.470169 0.342754 0.908717
#
# Coordination Sequence:
#
# PCOD8012353 Si02
#       8
#     2   2   2   2   2   2   2   2
#     4  11  23  41  72  99 130 179 231 276 327 399
#     4  12  26  45  69  97 140 184 221 277 340 403
#     4  12  22  45  69  98 135 174 235 273 333 406
#     4  12  28  43  67 103 138 175 221 286 342 391
#     4  10  23  39  70 100 130 182 223 280 328 394
#     4  10  22  43  64 100 142 168 226 273 336 396
#     4  10  21  39  70 100 122 179 224 274 327 395
#     4  11  21  43  71  94 133 175 225 273 334 409
#
# _framework density 20.929786
#
# number of rings (size 3 to 8) (size 9 to 14) (size 15 to 20)
#    0.000    1.000    3.750    3.000    3.500    3.000 
#    2.250    0.625    0.000    0.000    0.000    0.000 
#    0.000    0.000    0.000    0.000    0.000    0.000 
#
# Total GULP energy -198245.717936 kJ/mol
# GULP energy per Si atom -12390.357371 kJ/mol
# Density = 2.088215 g / cm^3
# Si number density = 20.929786 Si / 1000 Ang^3
#
#
#
# Elastic Constant Matrix: (Units=GPa)
#
#
# Indices 1 2 3 4 5 6 
#
# 1 111.4084 31.5265 40.4782 8.0051 19.4326 11.7232
# 2 31.5265 82.7922 36.3148 11.7091 3.7169 -3.0329
# 3 40.4782 36.3148 94.4891 12.6652 8.4776 -2.1807
# 4 8.0051 11.7091 12.6652 29.2094 -3.0801 -4.3869
# 5 19.4326 3.7169 8.4776 -3.0801 39.4241 3.0803
# 6 11.7232 -3.0329 -2.1807 -4.3869 3.0803 31.1868
#
#
#
# Elastic Compliance Matrix: (Units=1/GPa)
#
#
# Indices 1 2 3 4 5 6 
#
# 1 0.012689 -0.002876 -0.003739 -0.001991 -0.004936 -0.005103
# 2 -0.002876 0.015573 -0.004318 -0.003263 0.000483 0.001787
# 3 -0.003739 -0.004318 0.014450 -0.003395 -0.001251 0.001642
# 4 -0.001991 -0.003263 -0.003395 0.038832 0.004647 0.005197
# 5 -0.004936 0.000483 -0.001251 0.004647 0.028411 -0.000337
# 6 -0.005103 0.001787 0.001642 0.005197 -0.000337 0.035036
#
#
# Mechanical properties :
#
#
# Convention : Reuss Voigt Hill
#
# Bulk Modulus (GPa) = 47.96932 56.14763 52.05848
# Shear Modulus (GPa) = 28.76798 31.98872 30.37835
#
# Velocity S-wave (km/s) = 3.71145 3.91369 3.81391
# Velocity P-wave (km/s) = 6.42926 6.87805 6.65744
#
# Compressibility (1/GPa) = 0.02084666
#
# Stress axis : x y z
#
# Youngs Moduli (GPa) = 78.80652 64.21511 69.20650
#
# Poissons Ratio (x) = 0.18467 0.25875
# Poissons Ratio (y) = 0.22664 0.29882
# Poissons Ratio (z) = 0.29464 0.27727
#
# Static dielectric constant tensor:
#      x y z
#    x 4.401570 0.060850 0.928450 
#    y 0.060850 3.662150 0.421280 
#    z 0.928450 0.421280 7.970280 
# 
# 
# High freq. dielectric constant tensor:
#      x y z
#    x 1.838930 0.004000 0.008440 
#    y 0.004000 1.802890 0.020380 
#    z 0.008440 0.020380 1.826510 
# 
# From -- ./inp_files/495366.got.cif
#   From: 2010.06.25/outbox.cif.g09.slc.cpg/sg2_248_cif.got.tgz:495366.got - 2010.06.27 13:26:56.
