data_PCOD8012985
_publ_section_title
;
Structure prediction by ZEFSAII (Michael W. Deem and Ramdas Pophale) SiO2 
 PCOD8012985
Probable space group: P -1
;
_chemical_formula_sum "Si O2"
_cell_formula_units_Z 12
_cell_length_a 5.453374
_cell_length_b 11.633334
_cell_length_c 11.583758
_cell_angle_alpha 128.293335
_cell_angle_beta 64.000273
_cell_angle_gamma 112.192958
_cell_volume 512.506539
_symmetry_space_group_name_H-M "P -1"
_symmetry_group_IT_number 2
_symmetry_cell_setting 'triclinic'
loop_
_space_group_symop_operation_xyz
x,y,z
-x,-y,-z
loop_
_atom_site_type_symbol
_atom_site_label
_atom_site_fract_x
_atom_site_fract_y
_atom_site_fract_z
Si Si1 0.292097 0.556442 0.920636
Si Si2 0.367079 0.765667 0.847282
Si Si3 0.409950 0.870036 0.659101
Si Si4 0.099435 0.025939 0.124808
Si Si5 0.256742 0.833580 0.230736
Si Si6 0.593367 0.750796 0.315897
O O1 0.281779 0.600654 0.814027
O O2 0.476112 0.424724 0.812028
O O3 0.410424 0.709985 0.057037
O O4 0.000000 0.500000 0.000000
O O5 0.288818 0.767561 0.729069
O O6 0.692662 0.820979 0.818020
O O7 0.227373 0.875495 0.031901
O O8 0.501614 0.769109 0.477535
O O9 0.158663 0.957962 0.727683
O O10 0.661571 0.997461 0.728671
O O11 0.000000 0.000000 0.000000
O O12 0.399301 0.838898 0.332342
O O13 0.924976 0.799831 0.274746
#
# Coordination Sequence:
#
# PCOD8012985 Si02
#       6
#     2   2   2   2   2   2
#     4  10  23  44  68  93 134 179 223 270 327 406
#     4  10  21  40  64  96 129 171 226 269 335 387
#     4  11  24  39  70  97 135 168 221 284 330 388
#     4   9  19  36  61  96 125 166 217 273 322 384
#     4  11  24  44  70  97 136 175 228 268 326 395
#     4  11  26  44  66 103 135 180 215 272 337 393
#
# _framework density 23.414335999999999
#
# number of rings (size 3 to 8) (size 9 to 14) (size 15 to 20)
#    0.000    1.667    0.000    4.500    9.333    0.667 
#   12.000    0.833    0.000    0.000    0.000    0.000 
#    0.000    0.000    0.000    0.000    0.000    0.000 
#
# Total GULP energy -148682.133475 kJ/mol
# GULP energy per Si atom -12390.177790 kJ/mol
# Density = 2.336104 g / cm^3
# Si number density = 23.414336 Si / 1000 Ang^3
#
#
#
# Elastic Constant Matrix: (Units=GPa)
#
#
# Indices 1 2 3 4 5 6 
#
# 1 87.6564 10.2787 1.9368 -1.9492 -11.6562 0.6168
# 2 10.2787 120.2577 5.5620 -11.0768 -3.7668 -8.3198
# 3 1.9368 5.5620 106.8954 -6.3472 -9.0889 8.7118
# 4 -1.9492 -11.0768 -6.3472 23.6559 3.2420 1.8188
# 5 -11.6562 -3.7668 -9.0889 3.2420 31.2477 -3.8114
# 6 0.6168 -8.3198 8.7118 1.8188 -3.8114 24.1570
#
#
#
# Elastic Compliance Matrix: (Units=1/GPa)
#
#
# Indices 1 2 3 4 5 6 
#
# 1 0.012104 -0.000902 0.000208 0.000018 0.004466 0.000009
# 2 -0.000902 0.008986 -0.000432 0.003696 0.000615 0.003092
# 3 0.000208 -0.000432 0.010004 0.002468 0.002241 -0.003594
# 4 0.000018 0.003696 0.002468 0.045497 -0.003998 -0.003674
# 5 0.004466 0.000615 0.002241 -0.003998 0.035441 0.005183
# 6 0.000009 0.003092 -0.003594 -0.003674 0.005183 0.044851
#
#
# Mechanical properties :
#
#
# Convention : Reuss Voigt Hill
#
# Bulk Modulus (GPa) = 34.67201 38.92939 36.80070
# Shear Modulus (GPa) = 29.62992 35.61425 32.62209
#
# Velocity S-wave (km/s) = 3.56119 3.90429 3.73668
# Velocity P-wave (km/s) = 5.63468 6.08170 5.86245
#
# Compressibility (1/GPa) = 0.02884171
#
# Stress axis : x y z
#
# Youngs Moduli (GPa) = 82.62043 111.28270 99.96388
#
# Poissons Ratio (x) = 0.10038 -0.02076
# Poissons Ratio (y) = 0.07452 0.04314
# Poissons Ratio (z) = -0.01716 0.04802
#
# Static dielectric constant tensor:
#      x y z
#    x 4.677920 -0.403390 -0.346940 
#    y -0.403390 4.477960 0.192850 
#    z -0.346940 0.192850 4.424990 
# 
# 
# High freq. dielectric constant tensor:
#      x y z
#    x 1.924080 -0.014200 -0.000530 
#    y -0.014200 1.924730 -0.015760 
#    z -0.000530 -0.015760 1.915730 
# 
# From -- ./inp_files/26233.got.cif
#   From: 2010.06.25/outbox.cif.g09.slc.cpg/sg2_14_cif.got.tgz:26233.got - 2010.06.27 13:26:56.
