data_PCOD8012987
_publ_section_title
;
Structure prediction by ZEFSAII (Michael W. Deem and Ramdas Pophale) SiO2 
 PCOD8012987
Probable space group: P -1
;
_chemical_formula_sum "Si O2"
_cell_formula_units_Z 16
_cell_length_a 19.774227
_cell_length_b 6.741365
_cell_length_c 19.123880
_cell_angle_alpha 114.014460
_cell_angle_beta 157.460328
_cell_angle_gamma 79.866691
_cell_volume 732.784424
_symmetry_space_group_name_H-M "P -1"
_symmetry_group_IT_number 2
_symmetry_cell_setting 'triclinic'
loop_
_space_group_symop_operation_xyz
x,y,z
-x,-y,-z
loop_
_atom_site_type_symbol
_atom_site_label
_atom_site_fract_x
_atom_site_fract_y
_atom_site_fract_z
Si Si1 0.749521 0.153497 0.766120
Si Si2 0.424162 0.416589 0.805704
Si Si3 0.022435 0.759506 0.145875
Si Si4 0.240065 0.692407 0.468701
Si Si5 0.885960 0.448656 0.520851
Si Si6 0.767002 0.920955 0.285421
Si Si7 0.670220 0.192906 0.951317
Si Si8 0.908753 0.132894 0.053251
O O1 0.832474 0.124530 0.767856
O O2 0.500000 0.000000 0.500000
O O3 0.809279 0.024023 0.865793
O O4 0.844670 0.451055 0.922595
O O5 0.239420 0.413402 0.586509
O O6 0.312546 0.212061 0.733569
O O7 0.596720 0.717345 0.037357
O O8 0.540567 0.328947 0.852371
O O9 0.168377 0.824121 0.362715
O O10 0.904822 0.908979 0.061833
O O11 0.136926 0.674104 0.442246
O O12 0.154238 0.396571 0.318231
O O13 0.497958 0.876553 0.751334
O O14 0.143319 0.677628 0.791767
O O15 0.791932 0.200733 0.342892
O O16 0.000000 0.000000 0.500000
O O17 0.773750 0.224790 0.978413
#
# Coordination Sequence:
#
# PCOD8012987 Si02
#       8
#     2   2   2   2   2   2   2   2
#     4  10  21  40  64  96 130 168 219 264 315 381
#     4  11  25  43  67  93 130 169 211 275 320 385
#     4  10  22  41  66  90 134 169 210 274 312 375
#     4  10  23  41  59  93 130 162 218 266 308 386
#     4  11  24  43  65  95 127 171 217 262 335 380
#     4  11  23  45  67  96 130 163 219 270 323 390
#     4  11  23  42  62  95 130 166 223 261 316 393
#     4  10  23  40  62  97 129 175 217 259 329 380
#
# _framework density 21.834524999999999
#
# number of rings (size 3 to 8) (size 9 to 14) (size 15 to 20)
#    0.000    1.500    2.500    1.500    3.500    3.000 
#    6.750    0.000    0.000    0.000    0.000    0.000 
#    0.000    0.000    0.000    0.000    0.000    0.000 
#
# Total GULP energy -198324.592573 kJ/mol
# GULP energy per Si atom -12395.287036 kJ/mol
# Density = 2.178483 g / cm^3
# Si number density = 21.834525 Si / 1000 Ang^3
#
#
#
# Elastic Constant Matrix: (Units=GPa)
#
#
# Indices 1 2 3 4 5 6 
#
# 1 78.9814 25.1557 21.7157 -10.0448 3.8563 -5.7489
# 2 25.1557 93.5057 38.1260 -20.1096 0.4817 -8.2581
# 3 21.7157 38.1260 148.6626 4.8865 4.8610 -7.6915
# 4 -10.0448 -20.1096 4.8865 31.9079 -2.2668 2.2429
# 5 3.8563 0.4817 4.8610 -2.2668 29.4598 -2.2515
# 6 -5.7489 -8.2581 -7.6915 2.2429 -2.2515 26.2939
#
#
#
# Elastic Compliance Matrix: (Units=1/GPa)
#
#
# Indices 1 2 3 4 5 6 
#
# 1 0.014409 -0.002504 -0.001438 0.002978 -0.001258 0.001582
# 2 -0.002504 0.015082 -0.003731 0.009230 0.001594 0.002447
# 3 -0.001438 -0.003731 0.008135 -0.004225 -0.001331 0.001140
# 4 0.002978 0.009230 -0.004225 0.039015 0.003101 -0.000748
# 5 -0.001258 0.001594 -0.001331 0.003101 0.034736 0.002546
# 6 0.001582 0.002447 0.001140 -0.000748 0.002546 0.039761
#
#
# Mechanical properties :
#
#
# Convention : Reuss Voigt Hill
#
# Bulk Modulus (GPa) = 44.88042 54.57161 49.72602
# Shear Modulus (GPa) = 28.75038 33.27580 31.01309
#
# Velocity S-wave (km/s) = 3.63263 3.90808 3.77287
# Velocity P-wave (km/s) = 6.18013 6.73882 6.46551
#
# Compressibility (1/GPa) = 0.02228143
#
# Stress axis : x y z
#
# Youngs Moduli (GPa) = 69.40023 66.30226 122.92707
#
# Poissons Ratio (x) = 0.16600 0.17672
# Poissons Ratio (y) = 0.17376 0.45867
# Poissons Ratio (z) = 0.09977 0.24739
#
# Static dielectric constant tensor:
#      x y z
#    x 4.044050 -0.157980 -0.168990 
#    y -0.157980 3.939600 0.399330 
#    z -0.168990 0.399330 4.347210 
# 
# 
# High freq. dielectric constant tensor:
#      x y z
#    x 1.853680 -0.006470 -0.007980 
#    y -0.006470 1.844320 0.016290 
#    z -0.007980 0.016290 1.874550 
# 
# From -- ./inp_files/600772.got.cif
#   From: 2010.06.25/outbox.cif.g09.slc.cpg/sg2_301_cif.got.tgz:600772.got - 2010.06.27 13:26:56.
