data_PCOD8012053
_publ_section_title
;
Structure prediction by ZEFSAII (Michael W. Deem and Ramdas Pophale) SiO2 
 PCOD8012053
Probable space group: P -1
;
_chemical_formula_sum "Si O2"
_cell_formula_units_Z 16
_cell_length_a 8.822201
_cell_length_b 15.974800
_cell_length_c 19.255211
_cell_angle_alpha 146.252896
_cell_angle_beta 137.333713
_cell_angle_gamma 32.255272
_cell_volume 799.819195
_symmetry_space_group_name_H-M "P -1"
_symmetry_group_IT_number 2
_symmetry_cell_setting 'triclinic'
loop_
_space_group_symop_operation_xyz
x,y,z
-x,-y,-z
loop_
_atom_site_type_symbol
_atom_site_label
_atom_site_fract_x
_atom_site_fract_y
_atom_site_fract_z
Si Si1 0.722447 0.023811 0.229032
Si Si2 0.753846 0.702162 0.085661
Si Si3 0.818662 0.725641 0.280606
Si Si4 0.150344 0.846968 0.005020
Si Si5 0.097927 0.378667 0.234848
Si Si6 0.748404 0.257253 0.493171
Si Si7 0.840743 0.397921 0.483063
Si Si8 0.845157 0.003732 0.743976
O O1 0.435849 0.206953 0.222024
O O2 0.752513 0.076948 0.354835
O O3 0.693217 0.858190 0.116668
O O4 0.999449 0.949483 0.225374
O O5 0.843237 0.725753 0.206920
O O6 0.485346 0.706392 0.007006
O O7 0.000000 0.500000 0.000000
O O8 0.493816 0.853109 0.286241
O O9 0.995039 0.511447 0.223623
O O10 0.975911 0.812510 0.418207
O O11 0.077536 0.963327 0.132045
O O12 0.065779 0.709061 0.879572
O O13 0.000000 0.000000 0.000000
O O14 0.030319 0.505078 0.369515
O O15 0.757175 0.317793 0.459738
O O16 0.440725 0.440402 0.546322
O O17 0.057408 0.213646 0.379324
#
# Coordination Sequence:
#
# PCOD8012053 Si02
#       8
#     2   2   2   2   2   2   2   2
#     4  10  21  40  63  88 117 160 196 241 288 359
#     4  11  26  41  57  86 127 153 197 246 299 345
#     4  10  22  38  61  90 121 152 192 251 296 346
#     4  11  24  43  61  85 123 158 197 249 295 345
#     4  10  21  39  66  86 118 160 202 235 294 355
#     4   8  16  34  61  84 120 152 196 235 294 347
#     4   8  16  35  59  93 113 151 199 246 278 355
#     4  10  22  36  63  92 121 150 199 246 297 346
#
# _framework density 20.004521
#
# number of rings (size 3 to 8) (size 9 to 14) (size 15 to 20)
#    0.000    2.250    1.250    2.250    3.500    8.500 
#    0.000    0.625    0.000    0.000    0.000    0.000 
#    0.000    0.000    0.000    0.000    0.000    0.000 
#
# Total GULP energy -198284.721873 kJ/mol
# GULP energy per Si atom -12392.795117 kJ/mol
# Density = 1.995899 g / cm^3
# Si number density = 20.004521 Si / 1000 Ang^3
#
#
#
# Elastic Constant Matrix: (Units=GPa)
#
#
# Indices 1 2 3 4 5 6 
#
# 1 52.0805 47.5017 29.7420 3.4406 -17.2453 -9.6626
# 2 47.5017 115.0144 51.9491 -1.4717 -6.1751 -12.6106
# 3 29.7420 51.9491 113.4628 3.5357 0.5500 -11.0067
# 4 3.4406 -1.4717 3.5357 38.0507 -4.4166 -0.6424
# 5 -17.2453 -6.1751 0.5500 -4.4166 15.5011 5.5509
# 6 -9.6626 -12.6106 -11.0067 -0.6424 5.5509 27.4602
#
#
#
# Elastic Compliance Matrix: (Units=1/GPa)
#
#
# Indices 1 2 3 4 5 6 
#
# 1 0.060018 -0.018148 -0.008044 0.001688 0.061309 -0.002793
# 2 -0.018148 0.017002 -0.002673 0.000952 -0.014213 0.003246
# 3 -0.008044 -0.002673 0.012596 -0.001908 -0.012229 0.003418
# 4 0.001688 0.000952 -0.001908 0.027554 0.010618 -0.001235
# 5 0.061309 -0.014213 -0.012229 0.010618 0.136689 -0.017238
# 6 -0.002793 0.003246 0.003418 -0.001235 -0.017238 0.041750
#
#
# Mechanical properties :
#
#
# Convention : Reuss Voigt Hill
#
# Bulk Modulus (GPa) = 31.36132 59.88258 45.62195
# Shear Modulus (GPa) = 13.73742 26.29340 20.01541
#
# Velocity S-wave (km/s) = 2.62337 3.62936 3.16657
# Velocity P-wave (km/s) = 4.98871 6.89656 6.01871
#
# Compressibility (1/GPa) = 0.03188641
#
# Stress axis : x y z
#
# Youngs Moduli (GPa) = 16.66154 58.81634 79.38740
#
# Poissons Ratio (x) = 1.06737 0.63863
# Poissons Ratio (y) = 0.30237 0.21223
# Poissons Ratio (z) = 0.13403 0.15723
#
# Static dielectric constant tensor:
#      x y z
#    x 3.234760 -0.120570 -0.160470 
#    y -0.120570 3.793500 -0.017810 
#    z -0.160470 -0.017810 3.525420 
# 
# 
# High freq. dielectric constant tensor:
#      x y z
#    x 1.752370 -0.008170 0.010200 
#    y -0.008170 1.787470 -0.002510 
#    z 0.010200 -0.002510 1.793710 
# 
# From -- ./inp_files/591238.got.cif
#   From: 2010.06.25/outbox.cif.g09.slc.cpg/sg2_296_cif.got.tgz:591238.got - 2010.06.27 13:26:56.
