data_PCOD8012002
_publ_section_title
;
Structure prediction by ZEFSAII (Michael W. Deem and Ramdas Pophale) SiO2 
 PCOD8012002
Probable space group: P -1
;
_chemical_formula_sum "Si O2"
_cell_formula_units_Z 14
_cell_length_a 13.859210
_cell_length_b 14.100287
_cell_length_c 8.165587
_cell_angle_alpha 143.805795
_cell_angle_beta 48.221357
_cell_angle_gamma 138.165923
_cell_volume 619.887320
_symmetry_space_group_name_H-M "P -1"
_symmetry_group_IT_number 2
_symmetry_cell_setting 'triclinic'
loop_
_space_group_symop_operation_xyz
x,y,z
-x,-y,-z
loop_
_atom_site_type_symbol
_atom_site_label
_atom_site_fract_x
_atom_site_fract_y
_atom_site_fract_z
Si Si1 0.386880 0.575929 0.734384
Si Si2 0.515212 0.723999 0.126554
Si Si3 0.924312 0.700820 0.199994
Si Si4 0.957807 0.955099 0.245759
Si Si5 0.018200 0.442940 0.579197
Si Si6 0.651810 0.449813 0.608681
Si Si7 0.184996 0.968630 0.775612
O O1 0.500000 0.500000 0.500000
O O2 0.224199 0.409551 0.688093
O O3 0.396368 0.668576 0.673206
O O4 0.418524 0.697143 0.032732
O O5 0.414463 0.683578 0.345971
O O6 0.638640 0.936380 0.279222
O O7 0.594502 0.598083 0.866945
O O8 0.885722 0.766112 0.163550
O O9 0.033202 0.878598 0.425618
O O10 0.007129 0.581031 0.913727
O O11 0.118768 0.992040 0.055385
O O12 0.850694 0.920112 0.166901
O O13 0.885497 0.242878 0.488275
O O14 0.000000 0.500000 0.500000
O O15 0.172452 0.443551 0.425297
#
# Coordination Sequence:
#
# PCOD8012002 Si02
#       7
#     2   2   2   2   2   2   2
#     4  10  21  39  65  95 129 171 224 269 321 395
#     4  10  22  39  68  97 130 179 223 272 323 398
#     4  11  23  41  66  98 130 172 220 276 334 388
#     4  10  22  39  67  96 127 168 231 271 316 400
#     4  12  24  42  67  99 140 174 214 279 345 391
#     4  10  22  40  66  99 131 177 223 270 334 396
#     4  11  22  40  66  99 130 169 224 274 328 391
#
# _framework density 22.584752000000002
#
# number of rings (size 3 to 8) (size 9 to 14) (size 15 to 20)
#    0.000    1.429    1.429    5.143    6.000    2.286 
#    0.000    2.857    0.000    2.571    0.000    0.000 
#    0.000    0.000    0.000    0.000    0.000    0.000 
#
# Total GULP energy -173557.114451 kJ/mol
# GULP energy per Si atom -12396.936747 kJ/mol
# Density = 2.253335 g / cm^3
# Si number density = 22.584752 Si / 1000 Ang^3
#
#
#
# Elastic Constant Matrix: (Units=GPa)
#
#
# Indices 1 2 3 4 5 6 
#
# 1 92.6291 36.3493 23.5960 -12.5460 30.5801 -6.0345
# 2 36.3493 115.3132 41.1705 -9.2674 20.3754 2.5501
# 3 23.5960 41.1705 103.9477 -1.8106 11.8083 -9.0256
# 4 -12.5460 -9.2674 -1.8106 34.2016 -6.4194 7.8168
# 5 30.5801 20.3754 11.8083 -6.4194 35.8600 -10.9599
# 6 -6.0345 2.5501 -9.0256 7.8168 -10.9599 34.6374
#
#
#
# Elastic Compliance Matrix: (Units=1/GPa)
#
#
# Indices 1 2 3 4 5 6 
#
# 1 0.016435 -0.002097 -0.001624 0.003546 -0.012295 -0.002096
# 2 -0.002097 0.011850 -0.004035 0.002355 -0.004491 -0.004242
# 3 -0.001624 -0.004035 0.011808 -0.001794 0.000593 0.003684
# 4 0.003546 0.002355 -0.001794 0.032755 -0.000192 -0.007476
# 5 -0.012295 -0.004491 0.000593 -0.000192 0.044503 0.012468
# 6 -0.002096 -0.004242 0.003684 -0.007476 0.012468 0.035410
#
#
# Mechanical properties :
#
#
# Convention : Reuss Voigt Hill
#
# Bulk Modulus (GPa) = 40.67972 57.12463 48.90217
# Shear Modulus (GPa) = 28.33413 34.99142 31.66278
#
# Velocity S-wave (km/s) = 3.54583 3.94043 3.74833
# Velocity P-wave (km/s) = 5.90043 6.78609 6.35870
#
# Compressibility (1/GPa) = 0.02458227
#
# Stress axis : x y z
#
# Youngs Moduli (GPa) = 60.84588 84.38706 84.68901
#
# Poissons Ratio (x) = 0.17698 0.13750
# Poissons Ratio (y) = 0.12761 0.34168
# Poissons Ratio (z) = 0.09879 0.34046
#
# Static dielectric constant tensor:
#      x y z
#    x 4.169660 -0.256000 0.368670 
#    y -0.256000 4.136290 -0.287500 
#    z 0.368670 -0.287500 4.177640 
# 
# 
# High freq. dielectric constant tensor:
#      x y z
#    x 1.890170 -0.006860 0.020430 
#    y -0.006860 1.886420 -0.019960 
#    z 0.020430 -0.019960 1.880400 
# 
# From -- ./inp_files/314195.got.cif
#   From: 2010.06.25/outbox.cif.g09.slc.cpg/sg2_158_cif.got.tgz:314195.got - 2010.06.27 13:26:56.
