data_PCOD8012486
_publ_section_title
;
Structure prediction by ZEFSAII (Michael W. Deem and Ramdas Pophale) SiO2 
 PCOD8012486
Probable space group: P -1
;
_chemical_formula_sum "Si O2"
_cell_formula_units_Z 14
_cell_length_a 20.487613
_cell_length_b 7.625631
_cell_length_c 12.671002
_cell_angle_alpha 66.938948
_cell_angle_beta 148.472752
_cell_angle_gamma 134.081151
_cell_volume 627.837113
_symmetry_space_group_name_H-M "P -1"
_symmetry_group_IT_number 2
_symmetry_cell_setting 'triclinic'
loop_
_space_group_symop_operation_xyz
x,y,z
-x,-y,-z
loop_
_atom_site_type_symbol
_atom_site_label
_atom_site_fract_x
_atom_site_fract_y
_atom_site_fract_z
Si Si1 0.361697 0.177114 0.351795
Si Si2 0.474785 0.869305 0.829646
Si Si3 0.236796 0.252798 0.983529
Si Si4 0.678169 0.316092 0.840759
Si Si5 0.958220 0.649226 0.961799
Si Si6 0.181926 0.280420 0.440649
Si Si7 0.434128 0.208490 0.811701
O O1 0.500000 0.500000 0.500000
O O2 0.314259 0.143435 0.168757
O O3 0.475509 0.113857 0.548766
O O4 0.166309 0.974112 0.197586
O O5 0.302850 0.555196 0.617693
O O6 0.640895 0.093784 0.919316
O O7 0.398898 0.987470 0.738590
O O8 0.570558 0.860152 0.057414
O O9 0.253678 0.425790 0.059168
O O10 0.361270 0.458573 0.006537
O O11 0.018802 0.977009 0.715691
O O12 0.844631 0.467554 0.952849
O O13 0.841601 0.656465 0.723011
O O14 0.000000 0.500000 0.000000
O O15 0.272317 0.176238 0.574710
#
# Coordination Sequence:
#
# PCOD8012486 Si02
#       7
#     2   2   2   2   2   2   2
#     4   9  19  36  58  85 116 154 197 245 302 364
#     4  10  23  42  66  91 123 166 209 256 306 367
#     4   9  21  37  62  94 119 157 210 255 303 368
#     4  10  21  40  60  86 127 167 200 249 312 366
#     4  11  24  38  59  94 127 160 206 253 306 372
#     4  11  23  40  64  93 123 163 207 258 312 360
#     4  10  22  45  65  88 125 164 209 256 309 366
#
# _framework density 22.298777999999999
#
# number of rings (size 3 to 8) (size 9 to 14) (size 15 to 20)
#    0.000    2.000    0.000    2.143    0.000   16.000 
#    0.000   10.714    0.000    0.000    0.000    0.000 
#    0.000    0.000    0.000    0.000    0.000    0.000 
#
# Total GULP energy -173555.671617 kJ/mol
# GULP energy per Si atom -12396.833687 kJ/mol
# Density = 2.224802 g / cm^3
# Si number density = 22.298778 Si / 1000 Ang^3
#
#
#
# Elastic Constant Matrix: (Units=GPa)
#
#
# Indices 1 2 3 4 5 6 
#
# 1 77.6503 56.8104 53.8168 -7.4222 4.9623 26.9915
# 2 56.8104 137.5424 75.3514 -11.5597 6.5797 27.5752
# 3 53.8168 75.3514 116.6130 9.6039 12.0608 10.9653
# 4 -7.4222 -11.5597 9.6039 33.9970 -3.5646 -6.7343
# 5 4.9623 6.5797 12.0608 -3.5646 22.7301 6.1661
# 6 26.9915 27.5752 10.9653 -6.7343 6.1661 39.2948
#
#
#
# Elastic Compliance Matrix: (Units=1/GPa)
#
#
# Indices 1 2 3 4 5 6 
#
# 1 0.026978 -0.002261 -0.010718 0.005964 0.005113 -0.013734
# 2 -0.002261 0.014368 -0.008555 0.006044 0.003350 -0.005632
# 3 -0.010718 -0.008555 0.020204 -0.010487 -0.009565 0.007431
# 4 0.005964 0.006044 -0.010487 0.036519 0.008366 -0.000466
# 5 0.005113 0.003350 -0.009565 0.008366 0.050942 -0.009754
# 6 -0.013734 -0.005632 0.007431 -0.000466 -0.009754 0.038212
#
#
# Mechanical properties :
#
#
# Convention : Reuss Voigt Hill
#
# Bulk Modulus (GPa) = 54.10837 78.19585 66.15211
# Shear Modulus (GPa) = 21.14592 28.92617 25.03605
#
# Velocity S-wave (km/s) = 3.08279 3.60559 3.35439
# Velocity P-wave (km/s) = 6.08188 7.24411 6.68829
#
# Compressibility (1/GPa) = 0.01848143
#
# Stress axis : x y z
#
# Youngs Moduli (GPa) = 37.06723 69.59709 49.49509
#
# Poissons Ratio (x) = 0.15738 0.53048
# Poissons Ratio (y) = 0.08382 0.42345
# Poissons Ratio (z) = 0.39728 0.59544
#
# Static dielectric constant tensor:
#      x y z
#    x 3.446300 -0.120290 -0.447750 
#    y -0.120290 4.349860 -0.421700 
#    z -0.447750 -0.421700 3.560210 
# 
# 
# High freq. dielectric constant tensor:
#      x y z
#    x 1.856080 0.002780 0.001420 
#    y 0.002780 1.902130 0.003370 
#    z 0.001420 0.003370 1.872350 
# 
# From -- ./inp_files/469926.got.cif
#   From: 2010.06.25/outbox.cif.g09.slc.cpg/sg2_235_cif.got.tgz:469926.got - 2010.06.27 13:26:56.
