data_PCOD8012248
_publ_section_title
;
Structure prediction by ZEFSAII (Michael W. Deem and Ramdas Pophale) SiO2 
 PCOD8012248
Probable space group: P -1
;
_chemical_formula_sum "Si O2"
_cell_formula_units_Z 16
_cell_length_a 12.484201
_cell_length_b 14.512519
_cell_length_c 8.912359
_cell_angle_alpha 139.895824
_cell_angle_beta 130.656992
_cell_angle_gamma 70.122890
_cell_volume 746.529834
_symmetry_space_group_name_H-M "P -1"
_symmetry_group_IT_number 2
_symmetry_cell_setting 'triclinic'
loop_
_space_group_symop_operation_xyz
x,y,z
-x,-y,-z
loop_
_atom_site_type_symbol
_atom_site_label
_atom_site_fract_x
_atom_site_fract_y
_atom_site_fract_z
Si Si1 0.596558 0.713203 0.547197
Si Si2 0.268971 0.749927 0.837281
Si Si3 0.183002 0.422605 0.248664
Si Si4 0.582072 0.756067 0.250197
Si Si5 0.932634 0.116072 0.663583
Si Si6 0.867636 0.044356 0.857990
Si Si7 0.656985 0.040124 0.115625
Si Si8 0.617918 0.514558 0.754982
O O1 0.698913 0.625722 0.604285
O O2 0.580723 0.678900 0.313964
O O3 0.432766 0.640513 0.385765
O O4 0.670875 0.890999 0.862668
O O5 0.173863 0.575305 0.505042
O O6 0.318920 0.830753 0.824598
O O7 0.420123 0.772154 0.096128
O O8 0.153736 0.811722 0.898828
O O9 0.226327 0.455054 0.151992
O O10 0.026905 0.290464 0.941786
O O11 0.707384 0.917842 0.562115
O O12 0.626355 0.656830 0.042206
O O13 0.919283 0.083400 0.785372
O O14 0.772529 0.095053 0.423223
O O15 0.000000 0.000000 0.500000
O O16 0.000000 0.000000 0.000000
O O17 0.500000 0.000000 0.000000
O O18 0.500000 0.500000 0.500000
#
# Coordination Sequence:
#
# PCOD8012248 Si02
#       8
#     2   2   2   2   2   2   2   2
#     4  11  22  42  69 104 140 180 232 287 347 419
#     4  12  26  46  70 105 144 178 238 302 341 417
#     4  11  24  46  72 102 145 181 237 289 352 416
#     4  12  23  43  74 104 140 183 235 285 355 413
#     4  12  25  46  75  99 137 194 233 281 357 423
#     4  12  27  47  70 103 144 189 232 290 359 422
#     4  12  26  43  70 106 142 181 238 292 343 417
#     4  10  21  39  68 106 136 178 224 289 346 410
#
# _framework density 21.432499
#
# number of rings (size 3 to 8) (size 9 to 14) (size 15 to 20)
#    0.000    0.500    5.000    4.500    5.250    1.000 
#    0.000    1.250    0.000    0.000    0.000    0.000 
#    0.000    0.000    0.000    0.000    0.000    0.000 
#
# Total GULP energy -198426.542710 kJ/mol
# GULP energy per Si atom -12401.658919 kJ/mol
# Density = 2.138372 g / cm^3
# Si number density = 21.432499 Si / 1000 Ang^3
#
#
#
# Elastic Constant Matrix: (Units=GPa)
#
#
# Indices 1 2 3 4 5 6 
#
# 1 137.5976 45.0919 77.7680 -5.1695 -6.1079 9.2166
# 2 45.0919 78.4918 78.0048 9.4222 0.0052 2.1919
# 3 77.7680 78.0048 148.8148 12.1721 -6.8415 -2.7173
# 4 -5.1695 9.4222 12.1721 41.5086 3.5537 -0.4594
# 5 -6.1079 0.0052 -6.8415 3.5537 39.8187 1.1247
# 6 9.2166 2.1919 -2.7173 -0.4594 1.1247 42.4153
#
#
#
# Elastic Compliance Matrix: (Units=1/GPa)
#
#
# Indices 1 2 3 4 5 6 
#
# 1 0.011057 -0.001328 -0.005364 0.003174 0.000566 -0.002658
# 2 -0.001328 0.027332 -0.013593 -0.002209 -0.002290 -0.001958
# 3 -0.005364 -0.013593 0.017029 -0.002739 0.002268 0.002869
# 4 0.003174 -0.002209 -0.002739 0.025983 -0.002291 -0.000409
# 5 0.000566 -0.002290 0.002268 -0.002291 0.025811 -0.000569
# 6 -0.002658 -0.001958 0.002869 -0.000409 -0.000569 0.024450
#
#
# Mechanical properties :
#
#
# Convention : Reuss Voigt Hill
#
# Bulk Modulus (GPa) = 67.35239 85.18150 76.26695
# Shear Modulus (GPa) = 28.21987 35.68449 31.95218
#
# Velocity S-wave (km/s) = 3.63255 4.08483 3.86531
# Velocity P-wave (km/s) = 7.00625 7.87897 7.45539
#
# Compressibility (1/GPa) = 0.01484728
#
# Stress axis : x y z
#
# Youngs Moduli (GPa) = 90.44128 36.58762 58.72404
#
# Poissons Ratio (x) = 0.04858 0.31501
# Poissons Ratio (y) = 0.12008 0.79824
# Poissons Ratio (z) = 0.48515 0.49734
#
# Static dielectric constant tensor:
#      x y z
#    x 3.861750 0.277860 0.176060 
#    y 0.277860 4.035590 0.193470 
#    z 0.176060 0.193470 4.308220 
# 
# 
# High freq. dielectric constant tensor:
#      x y z
#    x 1.846550 0.016970 -0.007140 
#    y 0.016970 1.844320 0.007320 
#    z -0.007140 0.007320 1.856460 
# 
# From -- ./inp_files/274783.got.cif
#   From: 2010.06.25/outbox.cif.g09.slc.cpg/sg2_138_cif.got.tgz:274783.got - 2010.06.27 13:26:56.
