data_PCOD8012595
_publ_section_title
;
Structure prediction by ZEFSAII (Michael W. Deem and Ramdas Pophale) SiO2 
 PCOD8012595
Probable space group: P -1
;
_chemical_formula_sum "Si O2"
_cell_formula_units_Z 16
_cell_length_a 13.016633
_cell_length_b 32.645813
_cell_length_c 9.869930
_cell_angle_alpha 30.106924
_cell_angle_beta 49.257061
_cell_angle_gamma 26.951547
_cell_volume 813.850788
_symmetry_space_group_name_H-M "P -1"
_symmetry_group_IT_number 2
_symmetry_cell_setting 'triclinic'
loop_
_space_group_symop_operation_xyz
x,y,z
-x,-y,-z
loop_
_atom_site_type_symbol
_atom_site_label
_atom_site_fract_x
_atom_site_fract_y
_atom_site_fract_z
Si Si1 0.763305 0.296065 0.092858
Si Si2 0.613759 0.287431 0.730160
Si Si3 0.114721 0.001105 0.794770
Si Si4 0.314132 0.051286 0.903618
Si Si5 0.941304 0.124529 0.159940
Si Si6 0.806120 0.360761 0.311106
Si Si7 0.906204 0.381976 0.870224
Si Si8 0.521324 0.911185 0.831551
O O1 0.875478 0.218002 0.072425
O O2 0.445197 0.470508 0.876328
O O3 0.908446 0.302188 0.999940
O O4 0.857827 0.172789 0.456246
O O5 0.753009 0.291998 0.516623
O O6 0.307907 0.443337 0.502922
O O7 0.719474 0.140808 0.043739
O O8 0.671595 0.274000 0.876588
O O9 0.291749 0.972316 0.804769
O O10 0.000000 0.000000 0.000000
O O11 0.063092 0.237297 0.540276
O O12 0.487248 0.944895 0.924471
O O13 0.198632 0.027200 0.136863
O O14 0.500000 0.000000 0.000000
O O15 0.000000 0.000000 0.500000
O O16 0.850074 0.386215 0.061168
O O17 0.190809 0.277704 0.904332
O O18 0.500000 0.000000 0.500000
#
# Coordination Sequence:
#
# PCOD8012595 Si02
#       8
#     2   2   2   2   2   2   2   2
#     4  11  21  36  68  90 126 173 208 260 324 373
#     4  10  22  37  61  92 127 162 210 265 313 363
#     4  12  22  38  64  92 124 168 216 260 315 372
#     4  11  24  41  65  93 130 168 212 264 316 378
#     4  11  23  41  62  93 130 167 215 257 312 385
#     4  10  21  40  62 100 125 160 217 266 311 380
#     4  11  21  40  63  95 130 159 214 271 313 371
#     4  12  24  40  66  96 127 171 217 257 319 385
#
# _framework density 19.659623
#
# number of rings (size 3 to 8) (size 9 to 14) (size 15 to 20)
#    0.000    1.000    3.750    5.250    0.000    6.000 
#    0.000    0.000    0.000    1.500    0.000    0.000 
#    0.000    0.000    0.000    0.000    0.000    0.000 
#
# Total GULP energy -198274.899752 kJ/mol
# GULP energy per Si atom -12392.181235 kJ/mol
# Density = 1.961488 g / cm^3
# Si number density = 19.659623 Si / 1000 Ang^3
#
#
#
# Elastic Constant Matrix: (Units=GPa)
#
#
# Indices 1 2 3 4 5 6 
#
# 1 89.9368 30.9190 37.0558 4.7578 15.5278 1.6528
# 2 30.9190 108.5519 32.0097 3.6876 9.5930 -3.8778
# 3 37.0558 32.0097 109.1438 -8.7595 13.4838 -12.0281
# 4 4.7578 3.6876 -8.7595 39.1905 -2.3290 6.7757
# 5 15.5278 9.5930 13.4838 -2.3290 37.5923 -7.4108
# 6 1.6528 -3.8778 -12.0281 6.7757 -7.4108 36.3809
#
#
#
# Elastic Compliance Matrix: (Units=1/GPa)
#
#
# Indices 1 2 3 4 5 6 
#
# 1 0.014684 -0.002574 -0.004153 -0.002253 -0.004617 -0.002836
# 2 -0.002574 0.010740 -0.002212 -0.001348 -0.000847 0.000609
# 3 -0.004153 -0.002212 0.011939 0.002766 -0.001212 0.003138
# 4 -0.002253 -0.001348 0.002766 0.027292 0.001191 -0.003967
# 5 -0.004617 -0.000847 -0.001212 0.001191 0.030353 0.005680
# 6 -0.002836 0.000609 0.003138 -0.003967 0.005680 0.030614
#
#
# Mechanical properties :
#
#
# Convention : Reuss Voigt Hill
#
# Bulk Modulus (GPa) = 51.32720 56.40016 53.86368
# Shear Modulus (GPa) = 33.33451 36.47594 34.90522
#
# Velocity S-wave (km/s) = 4.12221 4.31208 4.21821
# Velocity P-wave (km/s) = 6.98723 7.31728 7.15416
#
# Compressibility (1/GPa) = 0.01948285
#
# Stress axis : x y z
#
# Youngs Moduli (GPa) = 68.10329 93.10779 83.76147
#
# Poissons Ratio (x) = 0.23970 0.34787
# Poissons Ratio (y) = 0.17533 0.18530
# Poissons Ratio (z) = 0.28284 0.20598
#
# Static dielectric constant tensor:
#      x y z
#    x 3.596640 -0.042940 0.278540 
#    y -0.042940 3.656960 -0.029450 
#    z 0.278540 -0.029450 3.720780 
# 
# 
# High freq. dielectric constant tensor:
#      x y z
#    x 1.761530 0.004160 0.018840 
#    y 0.004160 1.765850 -0.003200 
#    z 0.018840 -0.003200 1.775020 
# 
# From -- ./inp_files/286095.got.cif
#   From: 2010.06.25/outbox.cif.g09.slc.cpg/sg2_144_cif.got.tgz:286095.got - 2010.06.27 13:26:56.
