data_PCOD8012050
_publ_section_title
;
Structure prediction by ZEFSAII (Michael W. Deem and Ramdas Pophale) SiO2 
 PCOD8012050
Probable space group: P -1
;
_chemical_formula_sum "Si O2"
_cell_formula_units_Z 12
_cell_length_a 15.203233
_cell_length_b 8.740472
_cell_length_c 13.082886
_cell_angle_alpha 142.453570
_cell_angle_beta 150.690757
_cell_angle_gamma 48.906117
_cell_volume 515.230833
_symmetry_space_group_name_H-M "P -1"
_symmetry_group_IT_number 2
_symmetry_cell_setting 'triclinic'
loop_
_space_group_symop_operation_xyz
x,y,z
-x,-y,-z
loop_
_atom_site_type_symbol
_atom_site_label
_atom_site_fract_x
_atom_site_fract_y
_atom_site_fract_z
Si Si1 0.193836 0.604191 0.879092
Si Si2 0.051841 0.231574 0.943747
Si Si3 0.266125 0.962074 0.334635
Si Si4 0.869177 0.220750 0.317999
Si Si5 0.432545 0.521897 0.762217
Si Si6 0.442252 0.364303 0.474427
O O1 0.142545 0.723523 0.784578
O O2 0.030326 0.390464 0.629372
O O3 0.214259 0.814207 0.099178
O O4 0.378900 0.473802 0.983379
O O5 0.895555 0.079828 0.771486
O O6 0.087540 0.071190 0.791988
O O7 0.232382 0.264028 0.210716
O O8 0.000000 0.500000 0.000000
O O9 0.446570 0.873045 0.519664
O O10 0.304951 0.258699 0.510040
O O11 0.676732 0.250639 0.191187
O O12 0.479234 0.560287 0.709679
O O13 0.500000 0.500000 0.500000
#
# Coordination Sequence:
#
# PCOD8012050 Si02
#       6
#     2   2   2   2   2   2
#     4  10  21  39  66 102 132 161 210 277 326 382
#     4  12  25  43  66  90 132 178 219 265 320 396
#     4  11  22  42  71  99 126 172 223 265 319 387
#     4  11  23  39  64  99 134 167 212 273 334 372
#     4  11  23  41  70 102 130 165 220 275 319 384
#     4  11  23  44  68  94 130 177 218 258 325 391
#
# _framework density 23.290531999999999
#
# number of rings (size 3 to 8) (size 9 to 14) (size 15 to 20)
#    0.000    1.000    1.667    7.500    0.000    3.333 
#    0.000    4.167    0.000    0.000    0.000    0.000 
#    0.000    0.000    0.000    0.000    0.000    0.000 
#
# Total GULP energy -148827.947543 kJ/mol
# GULP energy per Si atom -12402.328962 kJ/mol
# Density = 2.323752 g / cm^3
# Si number density = 23.290532 Si / 1000 Ang^3
#
#
#
# Elastic Constant Matrix: (Units=GPa)
#
#
# Indices 1 2 3 4 5 6 
#
# 1 110.6077 59.5560 11.6774 -5.3425 1.7783 -21.2488
# 2 59.5560 117.9716 44.2349 2.0525 -5.8522 -29.9164
# 3 11.6774 44.2349 101.0478 -24.5886 10.6474 -11.6157
# 4 -5.3425 2.0525 -24.5886 23.9436 -10.7136 1.2341
# 5 1.7783 -5.8522 10.6474 -10.7136 28.2466 -9.2866
# 6 -21.2488 -29.9164 -11.6157 1.2341 -9.2866 50.4416
#
#
#
# Elastic Compliance Matrix: (Units=1/GPa)
#
#
# Indices 1 2 3 4 5 6 
#
# 1 0.013724 -0.008267 0.004136 0.007601 -0.000758 0.001505
# 2 -0.008267 0.018436 -0.009668 -0.011021 0.005972 0.006594
# 3 0.004136 -0.009668 0.018687 0.020147 -0.001837 -0.000520
# 4 0.007601 -0.011021 0.020147 0.073153 0.018341 0.002892
# 5 -0.000758 0.005972 -0.001837 0.018341 0.048016 0.011191
# 6 0.001505 0.006594 -0.000520 0.002892 0.011191 0.026240
#
#
# Mechanical properties :
#
#
# Convention : Reuss Voigt Hill
#
# Bulk Modulus (GPa) = 43.01591 62.28484 52.65037
# Shear Modulus (GPa) = 21.40372 34.80360 28.10366
#
# Velocity S-wave (km/s) = 3.03477 3.86984 3.47746
# Velocity P-wave (km/s) = 5.54880 6.83873 6.22725
#
# Compressibility (1/GPa) = 0.02324721
#
# Stress axis : x y z
#
# Youngs Moduli (GPa) = 72.86326 54.24261 53.51300
#
# Poissons Ratio (x) = 0.44845 -0.22131
# Poissons Ratio (y) = 0.60239 0.51737
# Poissons Ratio (z) = -0.30134 0.52443
#
# Static dielectric constant tensor:
#      x y z
#    x 4.340660 -0.235250 -0.074670 
#    y -0.235250 4.329420 -0.249240 
#    z -0.074670 -0.249240 4.592770 
# 
# 
# High freq. dielectric constant tensor:
#      x y z
#    x 1.921860 -0.023990 0.004760 
#    y -0.023990 1.914840 -0.014380 
#    z 0.004760 -0.014380 1.929060 
# 
# From -- ./inp_files/245236.got.cif
#   From: 2010.06.25/outbox.cif.g09.slc.cpg/sg2_123_cif.got.tgz:245236.got - 2010.06.27 13:26:56.
