data_PCOD8012903
_publ_section_title
;
Structure prediction by ZEFSAII (Michael W. Deem and Ramdas Pophale) SiO2 
 PCOD8012903
Probable space group: P -1
;
_chemical_formula_sum "Si O2"
_cell_formula_units_Z 14
_cell_length_a 25.339003
_cell_length_b 11.169969
_cell_length_c 13.944980
_cell_angle_alpha 139.850516
_cell_angle_beta 20.471661
_cell_angle_gamma 150.708022
_cell_volume 642.562813
_symmetry_space_group_name_H-M "P -1"
_symmetry_group_IT_number 2
_symmetry_cell_setting 'triclinic'
loop_
_space_group_symop_operation_xyz
x,y,z
-x,-y,-z
loop_
_atom_site_type_symbol
_atom_site_label
_atom_site_fract_x
_atom_site_fract_y
_atom_site_fract_z
Si Si1 0.213581 0.073282 0.704151
Si Si2 0.089422 0.286194 0.335283
Si Si3 0.214638 0.255365 0.411872
Si Si4 0.095693 0.696680 0.045596
Si Si5 0.344580 0.513558 0.855237
Si Si6 0.362695 0.247767 0.958845
Si Si7 0.923355 0.503772 0.851466
O O1 0.316704 0.266113 0.737976
O O2 0.407363 0.233154 0.394716
O O3 0.140906 0.801677 0.678201
O O4 0.000000 0.000000 0.000000
O O5 0.977271 0.367357 0.618444
O O6 0.197471 0.447500 0.152513
O O7 0.265959 0.351026 0.141993
O O8 0.911596 0.975035 0.435882
O O9 0.390241 0.518223 0.331352
O O10 0.068732 0.286150 0.629205
O O11 0.303932 0.195866 0.140529
O O12 0.154546 0.609060 0.977961
O O13 0.000000 0.500000 0.000000
O O14 0.300117 0.999929 0.861270
O O15 0.260038 0.543824 0.921419
#
# Coordination Sequence:
#
# PCOD8012903 Si02
#       7
#     2   2   2   2   2   2   2
#     4   9  22  43  60  86 125 164 208 259 312 375
#     4  11  21  39  64  95 126 163 213 261 311 376
#     4  10  21  41  64  88 129 168 210 263 314 369
#     4  11  23  40  62  94 130 164 211 263 317 375
#     4  10  23  41  64  90 121 170 211 254 324 377
#     4  10  21  40  64  90 125 173 210 258 316 371
#     4  11  22  39  62  92 131 161 209 266 309 374
#
# _framework density 21.787752000000001
#
# number of rings (size 3 to 8) (size 9 to 14) (size 15 to 20)
#    0.000    1.714    2.857    1.286    4.000    5.714 
#    5.143    0.000    0.000    0.000    0.000    0.000 
#    0.000    0.000    0.000    0.000    0.000    0.000 
#
# Total GULP energy -173442.704944 kJ/mol
# GULP energy per Si atom -12388.764639 kJ/mol
# Density = 2.173816 g / cm^3
# Si number density = 21.787752 Si / 1000 Ang^3
#
#
#
# Elastic Constant Matrix: (Units=GPa)
#
#
# Indices 1 2 3 4 5 6 
#
# 1 93.1886 37.2763 39.7945 -5.8491 1.4834 -5.5214
# 2 37.2763 138.1012 40.1002 -18.6074 -17.4548 6.1558
# 3 39.7945 40.1002 75.0181 -25.0582 -6.0812 -8.4033
# 4 -5.8491 -18.6074 -25.0582 35.6971 11.3988 -1.8675
# 5 1.4834 -17.4548 -6.0812 11.3988 25.6197 -1.0946
# 6 -5.5214 6.1558 -8.4033 -1.8675 -1.0946 27.0447
#
#
#
# Elastic Compliance Matrix: (Units=1/GPa)
#
#
# Indices 1 2 3 4 5 6 
#
# 1 0.015025 -0.002657 -0.007838 -0.003428 -0.002978 0.000880
# 2 -0.002657 0.009998 -0.003895 -0.000039 0.005897 -0.003792
# 3 -0.007838 -0.003895 0.025607 0.016016 -0.002896 0.008232
# 4 -0.003428 -0.000039 0.016016 0.043902 -0.015273 0.006699
# 5 -0.002978 0.005897 -0.002896 -0.015273 0.049249 -0.001911
# 6 0.000880 -0.003792 0.008232 0.006699 -0.001911 0.040962
#
#
# Mechanical properties :
#
#
# Convention : Reuss Voigt Hill
#
# Bulk Modulus (GPa) = 45.76540 60.07224 52.91882
# Shear Modulus (GPa) = 22.64434 30.28143 26.46289
#
# Velocity S-wave (km/s) = 3.22734 3.73210 3.48886
# Velocity P-wave (km/s) = 5.91086 6.79727 6.36950
#
# Compressibility (1/GPa) = 0.02185057
#
# Stress axis : x y z
#
# Youngs Moduli (GPa) = 66.55460 100.01715 39.05185
#
# Poissons Ratio (x) = 0.26577 0.30609
# Poissons Ratio (y) = 0.17685 0.15210
# Poissons Ratio (z) = 0.52165 0.38954
#
# Static dielectric constant tensor:
#      x y z
#    x 3.643090 -0.010560 -0.088220 
#    y -0.010560 4.468620 -0.214630 
#    z -0.088220 -0.214630 3.914880 
# 
# 
# High freq. dielectric constant tensor:
#      x y z
#    x 1.824790 0.000990 -0.008770 
#    y 0.000990 1.873900 -0.008630 
#    z -0.008770 -0.008630 1.852420 
# 
# From -- ./inp_files/543967.got.cif
#   From: 2010.06.25/outbox.cif.g09.slc.cpg/sg2_272_cif.got.tgz:543967.got - 2010.06.27 13:26:56.
