data_PCOD8012461
_publ_section_title
;
Structure prediction by ZEFSAII (Michael W. Deem and Ramdas Pophale) SiO2 
 PCOD8012461
Probable space group: P -1
;
_chemical_formula_sum "Si O2"
_cell_formula_units_Z 16
_cell_length_a 12.138721
_cell_length_b 13.782629
_cell_length_c 6.926789
_cell_angle_alpha 103.308836
_cell_angle_beta 48.321656
_cell_angle_gamma 86.166722
_cell_volume 802.822608
_symmetry_space_group_name_H-M "P -1"
_symmetry_group_IT_number 2
_symmetry_cell_setting 'triclinic'
loop_
_space_group_symop_operation_xyz
x,y,z
-x,-y,-z
loop_
_atom_site_type_symbol
_atom_site_label
_atom_site_fract_x
_atom_site_fract_y
_atom_site_fract_z
Si Si1 0.187594 0.540801 0.131952
Si Si2 0.166799 0.393846 0.420033
Si Si3 0.880601 0.141330 0.062369
Si Si4 0.317361 0.221336 0.886883
Si Si5 0.199794 0.046798 0.800650
Si Si6 0.693166 0.274551 0.012165
Si Si7 0.646829 0.638768 0.420984
Si Si8 0.649226 0.158571 0.645827
O O1 0.209722 0.483177 0.286302
O O2 0.243632 0.642614 0.137721
O O3 0.009451 0.568854 0.285371
O O4 0.291213 0.470953 0.811812
O O5 0.280606 0.367950 0.455671
O O6 0.187774 0.292598 0.213093
O O7 0.771945 0.197478 0.393782
O O8 0.864914 0.023364 0.004601
O O9 0.829452 0.209636 0.963293
O O10 0.058771 0.131435 0.894934
O O11 0.296329 0.107429 0.836867
O O12 0.305785 0.272516 0.712302
O O13 0.480823 0.214205 0.785497
O O14 0.309275 0.968234 0.479726
O O15 0.656883 0.191584 0.871694
O O16 0.538265 0.332019 0.336177
#
# Coordination Sequence:
#
# PCOD8012461 Si02
#       8
#     2   2   2   2   2   2   2   2
#     4  10  25  40  63  88 122 159 200 256 304 353
#     4  10  23  43  59  93 121 156 210 246 296 372
#     4   9  22  41  58  91 126 156 207 248 291 365
#     4  11  21  40  66  88 126 163 200 246 303 355
#     4   9  21  42  62  87 127 165 191 257 302 343
#     4  12  23  39  65  92 120 164 201 247 306 358
#     4  11  22  42  60  92 123 157 207 248 296 368
#     4  10  21  40  59  90 127 157 204 249 288 364
#
# _framework density 19.929680999999999
#
# number of rings (size 3 to 8) (size 9 to 14) (size 15 to 20)
#    0.750    1.000    2.500    1.125    3.500    2.000 
#    2.250    1.250    0.000    0.000    0.000    0.000 
#    0.000    0.000    0.000    0.000    0.000    0.000 
#
# Total GULP energy -198388.901462 kJ/mol
# GULP energy per Si atom -12399.306341 kJ/mol
# Density = 1.988432 g / cm^3
# Si number density = 19.929681 Si / 1000 Ang^3
#
#
#
# Elastic Constant Matrix: (Units=GPa)
#
#
# Indices 1 2 3 4 5 6 
#
# 1 77.4237 34.3314 35.8397 3.5448 4.8219 -15.8940
# 2 34.3314 76.3754 39.2006 8.4883 3.0597 1.4591
# 3 35.8397 39.2006 86.1276 11.3501 3.6425 -6.4753
# 4 3.5448 8.4883 11.3501 25.4727 -5.0185 -0.9322
# 5 4.8219 3.0597 3.6425 -5.0185 21.8082 2.4166
# 6 -15.8940 1.4591 -6.4753 -0.9322 2.4166 32.0090
#
#
#
# Elastic Compliance Matrix: (Units=1/GPa)
#
#
# Indices 1 2 3 4 5 6 
#
# 1 0.020277 -0.006959 -0.004540 0.001176 -0.003561 0.009770
# 2 -0.006959 0.019842 -0.006128 -0.003185 -0.000327 -0.005668
# 3 -0.004540 -0.006128 0.017222 -0.005423 -0.002431 0.001534
# 4 0.001176 -0.003185 -0.005423 0.044820 0.011398 0.000077
# 5 -0.003561 -0.000327 -0.002431 0.011398 0.050350 -0.005714
# 6 0.009770 -0.005668 0.001534 0.000077 -0.005714 0.037095
#
#
# Mechanical properties :
#
#
# Convention : Reuss Voigt Hill
#
# Bulk Modulus (GPa) = 45.27634 50.96334 48.11984
# Shear Modulus (GPa) = 21.53118 24.56164 23.04641
#
# Velocity S-wave (km/s) = 3.29044 3.51439 3.40426
# Velocity P-wave (km/s) = 6.09946 6.48806 6.29676
#
# Compressibility (1/GPa) = 0.02208659
#
# Stress axis : x y z
#
# Youngs Moduli (GPa) = 49.31679 50.39859 58.06623
#
# Poissons Ratio (x) = 0.35073 0.26363
# Poissons Ratio (y) = 0.34320 0.35581
# Poissons Ratio (z) = 0.22391 0.30883
#
# Static dielectric constant tensor:
#      x y z
#    x 3.361800 -0.132830 -0.130760 
#    y -0.132830 3.504010 0.152430 
#    z -0.130760 0.152430 3.634930 
# 
# 
# High freq. dielectric constant tensor:
#      x y z
#    x 1.773610 -0.011000 -0.011380 
#    y -0.011000 1.769750 0.013290 
#    z -0.011380 0.013290 1.778190 
# 
# From -- ./inp_files/78073.got.cif
#   From: 2010.06.25/outbox.cif.g09.slc.cpg/sg2_40_cif.got.tgz:78073.got - 2010.06.27 13:26:56.
