data_PCOD8012922
_publ_section_title
;
Structure prediction by ZEFSAII (Michael W. Deem and Ramdas Pophale) SiO2 
 PCOD8012922
Probable space group: P -1
;
_chemical_formula_sum "Si O2"
_cell_formula_units_Z 16
_cell_length_a 7.963277
_cell_length_b 12.013895
_cell_length_c 14.911437
_cell_angle_alpha 29.967269
_cell_angle_beta 114.160573
_cell_angle_gamma 110.139994
_cell_volume 649.996859
_symmetry_space_group_name_H-M "P -1"
_symmetry_group_IT_number 2
_symmetry_cell_setting 'triclinic'
loop_
_space_group_symop_operation_xyz
x,y,z
-x,-y,-z
loop_
_atom_site_type_symbol
_atom_site_label
_atom_site_fract_x
_atom_site_fract_y
_atom_site_fract_z
Si Si1 0.338278 0.445913 0.652451
Si Si2 0.843998 0.421742 0.303278
Si Si3 0.862481 0.812489 0.567931
Si Si4 0.152141 0.987410 0.921912
Si Si5 0.391463 0.228827 0.061545
Si Si6 0.224919 0.820404 0.246373
Si Si7 0.426597 0.874631 0.656792
Si Si8 0.683368 0.398863 0.874304
O O1 0.211362 0.582032 0.602524
O O2 0.293071 0.569917 0.462308
O O3 0.551786 0.456765 0.719553
O O4 0.297712 0.185229 0.820249
O O5 0.709892 0.303507 0.286538
O O6 0.049113 0.313319 0.412354
O O7 0.811688 0.674450 0.082235
O O8 0.817318 0.610902 0.769121
O O9 0.672339 0.951451 0.415808
O O10 0.000000 0.000000 0.500000
O O11 0.170862 0.829066 0.124362
O O12 0.196641 0.826904 0.959231
O O13 0.952439 0.103462 0.786624
O O14 0.413360 0.237076 0.168668
O O15 0.394080 0.978673 0.197850
O O16 0.555918 0.369331 0.954515
O O17 0.500000 0.000000 0.500000
#
# Coordination Sequence:
#
# PCOD8012922 Si02
#       8
#     2   2   2   2   2   2   2   2
#     4  11  23  43  67 100 136 175 226 271 330 391
#     4  10  21  40  64  91 134 168 216 272 325 393
#     4  10  23  42  64  94 128 169 220 271 333 391
#     4  11  24  43  64 100 139 175 228 270 329 395
#     4  11  22  41  65  97 131 176 223 265 338 391
#     4  11  23  40  65  94 137 178 221 271 332 388
#     4  11  22  41  66  95 126 170 221 271 327 400
#     4  11  23  42  66  94 139 174 220 284 324 393
#
# _framework density 24.615504000000001
#
# number of rings (size 3 to 8) (size 9 to 14) (size 15 to 20)
#    0.000    1.250    2.500    4.875    1.750    1.500 
#    2.250    8.125    0.000    0.000    0.000    0.000 
#    0.000    0.000    0.000    0.000    0.000    0.000 
#
# Total GULP energy -198250.090349 kJ/mol
# GULP energy per Si atom -12390.630647 kJ/mol
# Density = 2.455948 g / cm^3
# Si number density = 24.615504 Si / 1000 Ang^3
#
#
#
# Elastic Constant Matrix: (Units=GPa)
#
#
# Indices 1 2 3 4 5 6 
#
# 1 85.0592 11.0348 24.5406 -12.2595 2.1972 -8.3529
# 2 11.0348 62.3444 28.7737 -9.2284 -3.8019 -0.0161
# 3 24.5406 28.7737 125.6024 4.2480 -1.7953 3.5680
# 4 -12.2595 -9.2284 4.2480 43.6907 2.0429 4.9530
# 5 2.1972 -3.8019 -1.7953 2.0429 31.8717 -13.2180
# 6 -8.3529 -0.0161 3.5680 4.9530 -13.2180 31.4564
#
#
#
# Elastic Compliance Matrix: (Units=1/GPa)
#
#
# Indices 1 2 3 4 5 6 
#
# 1 0.013450 -0.000610 -0.002702 0.003532 -0.000001 0.003321
# 2 -0.000610 0.018873 -0.004329 0.004080 0.002013 0.000542
# 3 -0.002702 -0.004329 0.009603 -0.002418 -0.000274 -0.001543
# 4 0.003532 0.004080 -0.002418 0.025604 -0.003273 -0.004193
# 5 -0.000001 0.002013 -0.000274 -0.003273 0.038798 0.016850
# 6 0.003321 0.000542 -0.001543 -0.004193 0.016850 0.040588
#
#
# Mechanical properties :
#
#
# Convention : Reuss Voigt Hill
#
# Bulk Modulus (GPa) = 37.53185 44.63382 41.08283
# Shear Modulus (GPa) = 29.22606 35.31424 32.27015
#
# Velocity S-wave (km/s) = 3.44946 3.79177 3.62466
# Velocity P-wave (km/s) = 5.58081 6.11079 5.85180
#
# Compressibility (1/GPa) = 0.02664404
#
# Stress axis : x y z
#
# Youngs Moduli (GPa) = 74.34726 52.98660 104.13447
#
# Poissons Ratio (x) = 0.03233 0.28137
# Poissons Ratio (y) = 0.04536 0.45079
# Poissons Ratio (z) = 0.20089 0.22937
#
# Static dielectric constant tensor:
#      x y z
#    x 4.738850 -0.153310 0.261330 
#    y -0.153310 3.948860 -0.317980 
#    z 0.261330 -0.317980 4.489320 
# 
# 
# High freq. dielectric constant tensor:
#      x y z
#    x 1.976300 0.001580 0.003240 
#    y 0.001580 1.959610 -0.031520 
#    z 0.003240 -0.031520 1.983450 
# 
# From -- ./inp_files/499790.got.cif
#   From: 2010.06.25/outbox.cif.g09.slc.cpg/sg2_250_cif.got.tgz:499790.got - 2010.06.27 13:26:56.
