data_PCOD8012415
_publ_section_title
;
Structure prediction by ZEFSAII (Michael W. Deem and Ramdas Pophale) SiO2 
 PCOD8012415
Probable space group: P -1
;
_chemical_formula_sum "Si O2"
_cell_formula_units_Z 14
_cell_length_a 20.673151
_cell_length_b 9.037119
_cell_length_c 9.669105
_cell_angle_alpha 130.208390
_cell_angle_beta 150.963830
_cell_angle_gamma 47.936746
_cell_volume 641.889913
_symmetry_space_group_name_H-M "P -1"
_symmetry_group_IT_number 2
_symmetry_cell_setting 'triclinic'
loop_
_space_group_symop_operation_xyz
x,y,z
-x,-y,-z
loop_
_atom_site_type_symbol
_atom_site_label
_atom_site_fract_x
_atom_site_fract_y
_atom_site_fract_z
Si Si1 0.008191 0.669782 0.012564
Si Si2 0.874026 0.002563 0.167034
Si Si3 0.695018 0.415827 0.609840
Si Si4 0.828473 0.345276 0.098739
Si Si5 0.622007 0.888915 0.762115
Si Si6 0.124294 0.263570 0.483779
Si Si7 0.611008 0.059638 0.149789
O O1 0.168383 0.636754 0.259990
O O2 0.937310 0.885427 0.076315
O O3 0.000000 0.500000 0.000000
O O4 0.921106 0.655944 0.705279
O O5 0.794295 0.228389 0.099257
O O6 0.769692 0.902785 0.990355
O O7 0.000000 0.000000 0.500000
O O8 0.623385 0.655376 0.629745
O O9 0.591878 0.300930 0.276508
O O10 0.731409 0.325596 0.777616
O O11 0.799020 0.583108 0.214353
O O12 0.991952 0.250153 0.315646
O O13 0.500000 0.000000 0.500000
O O14 0.592944 0.998205 0.921706
O O15 0.235042 0.045343 0.565448
O O16 0.500000 0.000000 0.000000
#
# Coordination Sequence:
#
# PCOD8012415 Si02
#       7
#     2   2   2   2   2   2   2
#     4  11  21  37  70 104 139 177 226 292 352 415
#     4  12  24  41  70 105 144 181 233 292 363 413
#     4  11  24  47  73 101 137 184 239 285 353 427
#     4  10  21  39  74 101 134 181 225 292 352 412
#     4  12  29  49  70 104 148 182 237 300 355 422
#     4  10  21  40  66 105 139 173 239 286 342 419
#     4  12  28  46  72  98 139 192 239 284 344 430
#
# _framework density 21.810593999999998
#
# number of rings (size 3 to 8) (size 9 to 14) (size 15 to 20)
#    0.000    0.857    2.857    4.286    6.000    4.571 
#    0.000    0.000    0.000    0.000    0.000    0.000 
#    0.000    0.000    0.000    0.000    0.000    0.000 
#
# Total GULP energy -173642.280440 kJ/mol
# GULP energy per Si atom -12403.020031 kJ/mol
# Density = 2.176095 g / cm^3
# Si number density = 21.810594 Si / 1000 Ang^3
#
#
#
# Elastic Constant Matrix: (Units=GPa)
#
#
# Indices 1 2 3 4 5 6 
#
# 1 99.1887 31.0033 54.7098 12.9435 -20.0440 11.6321
# 2 31.0033 114.4567 54.9904 19.1405 -3.0930 16.4971
# 3 54.7098 54.9904 122.6141 18.5559 -8.5143 1.1216
# 4 12.9435 19.1405 18.5559 39.1407 -2.3393 -5.3539
# 5 -20.0440 -3.0930 -8.5143 -2.3393 26.9486 -0.1755
# 6 11.6321 16.4971 1.1216 -5.3539 -0.1755 37.5139
#
#
#
# Elastic Compliance Matrix: (Units=1/GPa)
#
#
# Indices 1 2 3 4 5 6 
#
# 1 0.016502 -0.000019 -0.006213 -0.002620 0.010048 -0.005250
# 2 -0.000019 0.012815 -0.005001 -0.004767 -0.000577 -0.006163
# 3 -0.006213 -0.005001 0.013270 -0.001374 -0.001098 0.003528
# 4 -0.002620 -0.004767 -0.001374 0.030380 -0.000246 0.007284
# 5 0.010048 -0.000577 -0.001098 -0.000246 0.044129 -0.002657
# 6 -0.005250 -0.006163 0.003528 0.007284 -0.002657 0.031917
#
#
# Mechanical properties :
#
#
# Convention : Reuss Voigt Hill
#
# Bulk Modulus (GPa) = 49.69664 68.62961 59.16312
# Shear Modulus (GPa) = 28.06082 33.75772 30.90927
#
# Velocity S-wave (km/s) = 3.59077 3.93844 3.76861
# Velocity P-wave (km/s) = 6.32665 7.22608 6.79127
#
# Compressibility (1/GPa) = 0.02012208
#
# Stress axis : x y z
#
# Youngs Moduli (GPa) = 60.59743 78.03575 75.35813
#
# Poissons Ratio (x) = 0.00147 0.46817
# Poissons Ratio (y) = 0.00114 0.37687
# Poissons Ratio (z) = 0.37646 0.39026
#
# Static dielectric constant tensor:
#      x y z
#    x 3.962090 -0.173960 -0.106380 
#    y -0.173960 4.318980 0.183260 
#    z -0.106380 0.183260 3.918930 
# 
# 
# High freq. dielectric constant tensor:
#      x y z
#    x 1.859680 0.007750 -0.011830 
#    y 0.007750 1.867840 0.012260 
#    z -0.011830 0.012260 1.857190 
# 
# From -- ./inp_files/199459.got.cif
#   From: 2010.06.25/outbox.cif.g09.slc.cpg/sg2_100_cif.got.tgz:199459.got - 2010.06.27 13:26:56.
