data_PCOD8012359
_publ_section_title
;
Structure prediction by ZEFSAII (Michael W. Deem and Ramdas Pophale) SiO2 
 PCOD8012359
Probable space group: P -1
;
_chemical_formula_sum "Si O2"
_cell_formula_units_Z 16
_cell_length_a 7.599541
_cell_length_b 20.373075
_cell_length_c 15.959297
_cell_angle_alpha 29.567688
_cell_angle_beta 36.003153
_cell_angle_gamma 42.696987
_cell_volume 712.537388
_symmetry_space_group_name_H-M "P -1"
_symmetry_group_IT_number 2
_symmetry_cell_setting 'triclinic'
loop_
_space_group_symop_operation_xyz
x,y,z
-x,-y,-z
loop_
_atom_site_type_symbol
_atom_site_label
_atom_site_fract_x
_atom_site_fract_y
_atom_site_fract_z
Si Si1 0.731116 0.850916 0.894793
Si Si2 0.913638 0.304896 0.927845
Si Si3 0.272433 0.410748 0.093741
Si Si4 0.888167 0.303031 0.218956
Si Si5 0.901379 0.211670 0.858844
Si Si6 0.756729 0.353398 0.473011
Si Si7 0.795885 0.447856 0.529005
Si Si8 0.562890 0.148343 0.650221
O O1 0.955911 0.807504 0.780913
O O2 0.763453 0.005969 0.728939
O O3 0.386428 0.837078 0.020787
O O4 0.825668 0.763048 0.037511
O O5 0.863683 0.205750 0.980121
O O6 0.003925 0.441418 0.703248
O O7 0.606614 0.338802 0.060233
O O8 0.148134 0.353914 0.119304
O O9 0.081003 0.373875 0.288093
O O10 0.277672 0.570697 0.907627
O O11 0.642124 0.237976 0.441394
O O12 0.937876 0.365108 0.645635
O O13 0.210546 0.124747 0.808664
O O14 0.772058 0.340503 0.581819
O O15 0.533870 0.486242 0.388511
O O16 0.630572 0.221948 0.629404
#
# Coordination Sequence:
#
# PCOD8012359 Si02
#       8
#     2   2   2   2   2   2   2   2
#     4  12  26  46  66  95 136 179 224 261 316 400
#     4  12  25  42  70 101 133 172 213 278 332 385
#     4  10  21  39  70 103 131 165 216 277 338 382
#     4  10  21  42  71  99 131 170 219 275 324 391
#     4  12  25  44  69  99 129 174 223 271 329 387
#     4  10  22  41  66 104 132 168 218 271 331 392
#     4  11  22  41  67 100 134 162 215 281 335 383
#     4  11  25  44  67  95 134 182 219 265 321 388
#
# _framework density 22.45496
#
# number of rings (size 3 to 8) (size 9 to 14) (size 15 to 20)
#    0.000    1.000    2.500    4.875    3.500    3.500 
#    2.250    2.500    0.000    0.000    0.000    0.000 
#    0.000    0.000    0.000    0.000    0.000    0.000 
#
# Total GULP energy -198459.752014 kJ/mol
# GULP energy per Si atom -12403.734501 kJ/mol
# Density = 2.240385 g / cm^3
# Si number density = 22.454960 Si / 1000 Ang^3
#
#
#
# Elastic Constant Matrix: (Units=GPa)
#
#
# Indices 1 2 3 4 5 6 
#
# 1 92.8260 53.7305 27.4376 7.3185 -13.2711 10.1077
# 2 53.7305 151.5724 41.3641 6.8502 -2.8150 7.7563
# 3 27.4376 41.3641 77.7894 13.4740 -10.8574 -1.1741
# 4 7.3185 6.8502 13.4740 39.9293 -4.1454 -7.5140
# 5 -13.2711 -2.8150 -10.8574 -4.1454 19.3311 6.4546
# 6 10.1077 7.7563 -1.1741 -7.5140 6.4546 32.4861
#
#
#
# Elastic Compliance Matrix: (Units=1/GPa)
#
#
# Indices 1 2 3 4 5 6 
#
# 1 0.016550 -0.004832 -0.001422 -0.001783 0.011745 -0.006793
# 2 -0.004832 0.009271 -0.003823 0.000162 -0.004080 0.000000
# 3 -0.001422 -0.003823 0.017133 -0.004188 0.007343 -0.000453
# 4 -0.001783 0.000162 -0.004188 0.028059 0.000188 0.006818
# 5 0.011745 -0.004080 0.007343 0.000188 0.068714 -0.016024
# 6 -0.006793 0.000000 -0.000453 0.006818 -0.016024 0.037640
#
#
# Mechanical properties :
#
#
# Convention : Reuss Voigt Hill
#
# Bulk Modulus (GPa) = 43.86108 63.02801 53.44455
# Shear Modulus (GPa) = 24.37591 31.65968 28.01780
#
# Velocity S-wave (km/s) = 3.29834 3.75896 3.53616
# Velocity P-wave (km/s) = 5.83787 6.85342 6.36593
#
# Compressibility (1/GPa) = 0.02279925
#
# Stress axis : x y z
#
# Youngs Moduli (GPa) = 60.42415 107.86805 58.36706
#
# Poissons Ratio (x) = 0.52124 0.08301
# Poissons Ratio (y) = 0.29198 0.22311
# Poissons Ratio (z) = 0.08593 0.41234
#
# Static dielectric constant tensor:
#      x y z
#    x 4.020590 0.124400 -0.043270 
#    y 0.124400 4.143050 0.100850 
#    z -0.043270 0.100850 3.787180 
# 
# 
# High freq. dielectric constant tensor:
#      x y z
#    x 1.884080 0.011170 -0.005810 
#    y 0.011170 1.893830 0.017820 
#    z -0.005810 0.017820 1.872340 
# 
# From -- ./inp_files/562917.got.cif
#   From: 2010.06.25/outbox.cif.g09.slc.cpg/sg2_282_cif.got.tgz:562917.got - 2010.06.27 13:26:56.
