data_PCOD8012375
_publ_section_title
;
Structure prediction by ZEFSAII (Michael W. Deem and Ramdas Pophale) SiO2 
 PCOD8012375
Probable space group: P -1
;
_chemical_formula_sum "Si O2"
_cell_formula_units_Z 16
_cell_length_a 9.681748
_cell_length_b 11.226843
_cell_length_c 8.732079
_cell_angle_alpha 71.297566
_cell_angle_beta 98.496473
_cell_angle_gamma 73.633401
_cell_volume 832.459631
_symmetry_space_group_name_H-M "P -1"
_symmetry_group_IT_number 2
_symmetry_cell_setting 'triclinic'
loop_
_space_group_symop_operation_xyz
x,y,z
-x,-y,-z
loop_
_atom_site_type_symbol
_atom_site_label
_atom_site_fract_x
_atom_site_fract_y
_atom_site_fract_z
Si Si1 0.128049 0.145645 0.377914
Si Si2 0.781959 0.104054 0.709765
Si Si3 0.658281 0.744947 0.786439
Si Si4 0.338165 0.061094 0.021544
Si Si5 0.620632 0.484656 0.896312
Si Si6 0.600717 0.300327 0.377296
Si Si7 0.814531 0.228377 0.167915
Si Si8 0.893218 0.924827 0.254373
O O1 0.238248 0.227418 0.339146
O O2 0.984482 0.218401 0.218862
O O3 0.199291 0.992285 0.395249
O O4 0.085944 0.145696 0.548195
O O5 0.667879 0.249738 0.576549
O O6 0.943034 0.110247 0.780737
O O7 0.707756 0.055943 0.858925
O O8 0.711808 0.585911 0.903211
O O9 0.490826 0.791060 0.669562
O O10 0.661950 0.825885 0.906203
O O11 0.211328 0.130328 0.844949
O O12 0.500000 0.000000 0.000000
O O13 0.518424 0.543798 0.701767
O O14 0.500000 0.500000 0.000000
O O15 0.736141 0.331517 0.972427
O O16 0.735137 0.287788 0.289137
O O17 0.806411 0.084405 0.186805
#
# Coordination Sequence:
#
# PCOD8012375 Si02
#       8
#     2   2   2   2   2   2   2   2
#     4  10  19  30  56  82 108 131 175 229 256 306
#     4  10  19  35  53  76 110 139 176 215 258 315
#     4   9  21  35  50  83 104 140 169 218 270 302
#     4  11  24  32  50  79 117 143 162 218 270 322
#     4   8  18  31  55  77 101 137 177 224 248 306
#     4   9  16  32  53  75 100 132 181 212 252 299
#     4  10  16  33  55  82 100 137 181 217 253 305
#     4  11  20  34  54  84 109 138 172 211 271 317
#
# _framework density 19.220151000000001
#
# number of rings (size 3 to 8) (size 9 to 14) (size 15 to 20)
#    0.750    1.500    2.500    1.875    1.750    1.500 
#    0.000    0.000    0.000    1.500    6.500    0.000 
#    0.000    0.000    0.000    0.000    0.000    0.000 
#
# Total GULP energy -198228.179094 kJ/mol
# GULP energy per Si atom -12389.261193 kJ/mol
# Density = 1.917641 g / cm^3
# Si number density = 19.220151 Si / 1000 Ang^3
#
#
#
# Elastic Constant Matrix: (Units=GPa)
#
#
# Indices 1 2 3 4 5 6 
#
# 1 112.5655 16.4645 35.7378 -5.4129 -4.5118 -1.8748
# 2 16.4645 41.0075 23.5692 -21.0543 2.8268 -4.4916
# 3 35.7378 23.5692 88.5435 -19.9261 10.4831 -12.3329
# 4 -5.4129 -21.0543 -19.9261 32.7102 -4.6811 3.1766
# 5 -4.5118 2.8268 10.4831 -4.6811 38.5214 -3.6107
# 6 -1.8748 -4.4916 -12.3329 3.1766 -3.6107 22.0682
#
#
#
# Elastic Compliance Matrix: (Units=1/GPa)
#
#
# Indices 1 2 3 4 5 6 
#
# 1 0.010757 -0.003439 -0.004521 -0.002713 0.002268 -0.001551
# 2 -0.003439 0.039789 -0.003862 0.022545 0.000704 0.002518
# 3 -0.004521 -0.003862 0.016826 0.005856 -0.003474 0.006822
# 4 -0.002713 0.022545 0.005856 0.048445 0.002420 0.001053
# 5 0.002268 0.000704 -0.003474 0.002420 0.027654 0.002571
# 6 -0.001551 0.002518 0.006822 0.001053 0.002571 0.049776
#
#
# Mechanical properties :
#
#
# Convention : Reuss Voigt Hill
#
# Bulk Modulus (GPa) = 22.86946 43.73993 33.30470
# Shear Modulus (GPa) = 21.60126 29.74965 25.67546
#
# Velocity S-wave (km/s) = 3.35608 3.93852 3.65891
# Velocity P-wave (km/s) = 5.19059 6.59465 5.93429
#
# Compressibility (1/GPa) = 0.04372643
#
# Stress axis : x y z
#
# Youngs Moduli (GPa) = 92.96478 25.13265 59.43122
#
# Poissons Ratio (x) = 0.08644 0.26870
# Poissons Ratio (y) = 0.31973 0.22954
# Poissons Ratio (z) = 0.42031 0.09707
#
# Static dielectric constant tensor:
#      x y z
#    x 3.704990 0.007080 -0.051250 
#    y 0.007080 3.352400 -0.504000 
#    z -0.051250 -0.504000 3.822790 
# 
# 
# High freq. dielectric constant tensor:
#      x y z
#    x 1.760310 -0.007520 0.001310 
#    y -0.007520 1.696110 -0.016460 
#    z 0.001310 -0.016460 1.747490 
# 
# From -- ./inp_files/200261.got.cif
#   From: 2010.06.25/outbox.cif.g09.slc.cpg/sg2_101_cif.got.tgz:200261.got - 2010.06.27 13:26:56.
