data_PCOD8012224
_publ_section_title
;
Structure prediction by ZEFSAII (Michael W. Deem and Ramdas Pophale) SiO2 
 PCOD8012224
Probable space group: P -1
;
_chemical_formula_sum "Si O2"
_cell_formula_units_Z 16
_cell_length_a 9.141535
_cell_length_b 14.358861
_cell_length_c 11.789213
_cell_angle_alpha 54.543594
_cell_angle_beta 141.825688
_cell_angle_gamma 104.604658
_cell_volume 712.324310
_symmetry_space_group_name_H-M "P -1"
_symmetry_group_IT_number 2
_symmetry_cell_setting 'triclinic'
loop_
_space_group_symop_operation_xyz
x,y,z
-x,-y,-z
loop_
_atom_site_type_symbol
_atom_site_label
_atom_site_fract_x
_atom_site_fract_y
_atom_site_fract_z
Si Si1 0.543563 0.042947 0.343839
Si Si2 0.198490 0.463628 0.250815
Si Si3 0.498445 0.685673 0.883172
Si Si4 0.334342 0.060847 0.965820
Si Si5 0.109078 0.574904 0.727727
Si Si6 0.218282 0.664712 0.291920
Si Si7 0.124931 0.334729 0.701083
Si Si8 0.942779 0.934518 0.838644
O O1 0.507670 0.183969 0.261207
O O2 0.306563 0.013001 0.267852
O O3 0.818757 0.943999 0.629833
O O4 0.540906 0.030043 0.216348
O O5 0.191312 0.583757 0.228521
O O6 0.491540 0.381553 0.448217
O O7 0.120420 0.380397 0.352350
O O8 0.000000 0.500000 0.000000
O O9 0.217945 0.682402 0.715428
O O10 0.683797 0.563237 0.009857
O O11 0.603703 0.665529 0.091210
O O12 0.187372 0.209085 0.755480
O O13 0.106758 0.017272 0.885960
O O14 0.500000 0.000000 0.000000
O O15 0.013283 0.557289 0.553611
O O16 0.038570 0.663914 0.287293
O O17 0.136119 0.798507 0.090440
#
# Coordination Sequence:
#
# PCOD8012224 Si02
#       8
#     2   2   2   2   2   2   2   2
#     4  10  22  43  69  98 132 174 230 277 326 406
#     4  11  27  46  65 103 141 173 225 280 335 399
#     4  10  21  39  67  99 129 169 225 272 324 398
#     4  11  25  43  66  99 140 173 227 283 336 398
#     4  11  23  39  69  99 130 180 219 269 345 394
#     4  11  25  45  70  97 138 177 225 280 330 399
#     4  11  23  43  68  96 134 175 227 276 328 405
#     4  11  22  44  71  97 128 184 226 272 340 395
#
# _framework density 22.461677999999999
#
# number of rings (size 3 to 8) (size 9 to 14) (size 15 to 20)
#    0.000    1.250    3.750    1.500    5.250    2.500 
#    4.500    0.000    0.000    0.000    0.000    0.000 
#    0.000    0.000    0.000    0.000    0.000    0.000 
#
# Total GULP energy -198328.775444 kJ/mol
# GULP energy per Si atom -12395.548465 kJ/mol
# Density = 2.241055 g / cm^3
# Si number density = 22.461678 Si / 1000 Ang^3
#
#
#
# Elastic Constant Matrix: (Units=GPa)
#
#
# Indices 1 2 3 4 5 6 
#
# 1 71.8795 24.8648 22.2854 12.8064 -9.0841 -5.7025
# 2 24.8648 59.7069 21.8786 14.9406 6.0806 -1.1733
# 3 22.2854 21.8786 133.6918 25.3067 -13.9868 -12.7307
# 4 12.8064 14.9406 25.3067 39.3684 -0.5378 3.3722
# 5 -9.0841 6.0806 -13.9868 -0.5378 32.8403 4.6586
# 6 -5.7025 -1.1733 -12.7307 3.3722 4.6586 34.4852
#
#
#
# Elastic Compliance Matrix: (Units=1/GPa)
#
#
# Indices 1 2 3 4 5 6 
#
# 1 0.017925 -0.007101 -0.000476 -0.002928 0.005730 0.002059
# 2 -0.007101 0.022510 -0.002319 -0.004857 -0.007226 0.000187
# 3 -0.000476 -0.002319 0.009699 -0.005441 0.003852 0.003435
# 4 -0.002928 -0.004857 -0.005441 0.032169 -0.000895 -0.005683
# 5 0.005730 -0.007226 0.003852 -0.000895 0.035363 -0.002566
# 6 0.002059 0.000187 0.003435 -0.005683 -0.002566 0.031515
#
#
# Mechanical properties :
#
#
# Convention : Reuss Voigt Hill
#
# Bulk Modulus (GPa) = 32.95694 44.81509 38.88602
# Shear Modulus (GPa) = 27.91922 34.42207 31.17065
#
# Velocity S-wave (km/s) = 3.52940 3.91894 3.72926
# Velocity P-wave (km/s) = 5.59583 6.36180 5.99107
#
# Compressibility (1/GPa) = 0.03034262
#
# Stress axis : x y z
#
# Youngs Moduli (GPa) = 55.78668 44.42414 103.10596
#
# Poissons Ratio (x) = 0.31545 0.04909
# Poissons Ratio (y) = 0.39614 0.23910
# Poissons Ratio (z) = 0.02656 0.10302
#
# Static dielectric constant tensor:
#      x y z
#    x 3.917990 0.217250 -0.029840 
#    y 0.217250 4.138240 0.162290 
#    z -0.029840 0.162290 4.545980 
# 
# 
# High freq. dielectric constant tensor:
#      x y z
#    x 1.867160 0.017740 -0.007540 
#    y 0.017740 1.890610 0.011540 
#    z -0.007540 0.011540 1.899600 
# 
# From -- ./inp_files/398835.got.cif
#   From: 2010.06.25/outbox.cif.g09.slc.cpg/sg2_200_cif.got.tgz:398835.got - 2010.06.27 13:26:56.
