data_PCOD8012983
_publ_section_title
;
Structure prediction by ZEFSAII (Michael W. Deem and Ramdas Pophale) SiO2 
 PCOD8012983
Probable space group: P -1
;
_chemical_formula_sum "Si O2"
_cell_formula_units_Z 16
_cell_length_a 19.081633
_cell_length_b 19.055602
_cell_length_c 6.428439
_cell_angle_alpha 99.596813
_cell_angle_beta 113.007994
_cell_angle_gamma 23.130003
_cell_volume 715.083825
_symmetry_space_group_name_H-M "P -1"
_symmetry_group_IT_number 2
_symmetry_cell_setting 'triclinic'
loop_
_space_group_symop_operation_xyz
x,y,z
-x,-y,-z
loop_
_atom_site_type_symbol
_atom_site_label
_atom_site_fract_x
_atom_site_fract_y
_atom_site_fract_z
Si Si1 0.514278 0.904007 0.946183
Si Si2 0.578995 0.746972 0.324370
Si Si3 0.797584 0.554265 0.886763
Si Si4 0.818955 0.867872 0.646220
Si Si5 0.242538 0.743415 0.850623
Si Si6 0.489802 0.297599 0.123141
Si Si7 0.121068 0.727126 0.981483
Si Si8 0.076865 0.035875 0.735695
O O1 0.285714 0.077820 0.651580
O O2 0.735954 0.688214 0.959822
O O3 0.500000 0.000000 0.000000
O O4 0.555399 0.834450 0.186362
O O5 0.801001 0.553031 0.637512
O O6 0.363430 0.939672 0.315781
O O7 0.597113 0.656794 0.177051
O O8 0.577108 0.700972 0.777361
O O9 0.027362 0.324006 0.140880
O O10 0.973402 0.798598 0.719988
O O11 0.132845 0.817687 0.542516
O O12 0.215595 0.850947 0.922574
O O13 0.500000 0.500000 0.000000
O O14 0.122237 0.804258 0.923040
O O15 0.377512 0.471618 0.142044
O O16 0.759810 0.070214 0.298313
O O17 0.022477 0.819253 0.146131
#
# Coordination Sequence:
#
# PCOD8012983 Si02
#       8
#     2   2   2   2   2   2   2   2
#     4  10  23  42  64  94 137 175 212 268 327 391
#     4  10  21  40  65  92 133 167 217 269 332 379
#     4   9  22  39  61  98 130 166 222 269 322 395
#     4  10  22  39  64  98 126 173 225 268 326 388
#     4  11  25  44  61  93 129 173 218 267 335 394
#     4  10  21  40  64  96 127 167 220 273 326 389
#     4  11  23  41  68  92 127 172 222 269 329 391
#     4  11  24  43  64  90 129 171 214 276 332 383
#
# _framework density 22.375
#
# number of rings (size 3 to 8) (size 9 to 14) (size 15 to 20)
#    0.000    1.750    2.500    0.375    5.250    8.000 
#    2.250    1.250    0.000    0.000    0.000    0.000 
#    0.000    0.000    0.000    0.000    0.000    0.000 
#
# Total GULP energy -198286.144253 kJ/mol
# GULP energy per Si atom -12392.884016 kJ/mol
# Density = 2.232407 g / cm^3
# Si number density = 22.375000 Si / 1000 Ang^3
#
#
#
# Elastic Constant Matrix: (Units=GPa)
#
#
# Indices 1 2 3 4 5 6 
#
# 1 57.6359 24.8186 32.1374 5.2417 -3.0179 14.5604
# 2 24.8186 128.8551 36.7800 4.2627 -1.8831 13.0254
# 3 32.1374 36.7800 122.7591 -0.3823 -17.0876 2.1880
# 4 5.2417 4.2627 -0.3823 29.3530 3.8689 0.6230
# 5 -3.0179 -1.8831 -17.0876 3.8689 32.2058 -0.6823
# 6 14.5604 13.0254 2.1880 0.6230 -0.6823 34.7994
#
#
#
# Elastic Compliance Matrix: (Units=1/GPa)
#
#
# Indices 1 2 3 4 5 6 
#
# 1 0.023869 -0.001993 -0.005586 -0.003782 -0.000577 -0.008833
# 2 -0.001993 0.009050 -0.002262 -0.000830 -0.000809 -0.002412
# 3 -0.005586 -0.002262 0.010955 0.000739 0.005123 0.002582
# 4 -0.003782 -0.000830 0.000739 0.035409 -0.004241 0.001130
# 5 -0.000577 -0.000809 0.005123 -0.004241 0.034197 0.000968
# 6 -0.008833 -0.002412 0.002582 0.001130 0.000968 0.033171
#
#
# Mechanical properties :
#
#
# Convention : Reuss Voigt Hill
#
# Bulk Modulus (GPa) = 41.33665 55.19136 48.26401
# Shear Modulus (GPa) = 28.67032 33.63925 31.15479
#
# Velocity S-wave (km/s) = 3.58349 3.88162 3.73553
# Velocity P-wave (km/s) = 5.96962 6.69398 6.34215
#
# Compressibility (1/GPa) = 0.02419161
#
# Stress axis : x y z
#
# Youngs Moduli (GPa) = 41.89607 110.50192 91.27900
#
# Poissons Ratio (x) = 0.22026 0.50988
# Poissons Ratio (y) = 0.08351 0.20645
# Poissons Ratio (z) = 0.23403 0.24993
#
# Static dielectric constant tensor:
#      x y z
#    x 3.922800 0.144880 -0.110320 
#    y 0.144880 4.186140 -0.065620 
#    z -0.110320 -0.065620 4.104420 
# 
# 
# High freq. dielectric constant tensor:
#      x y z
#    x 1.867520 0.011480 -0.008940 
#    y 0.011480 1.891600 -0.002480 
#    z -0.008940 -0.002480 1.873110 
# 
# From -- ./inp_files/120422.got.cif
#   From: 2010.06.25/outbox.cif.g09.slc.cpg/sg2_61_cif.got.tgz:120422.got - 2010.06.27 13:26:56.
