data_PCOD8012716
_publ_section_title
;
Structure prediction by ZEFSAII (Michael W. Deem and Ramdas Pophale) SiO2 
 PCOD8012716
Probable space group: P -1
;
_chemical_formula_sum "Si O2"
_cell_formula_units_Z 12
_cell_length_a 15.671509
_cell_length_b 11.713137
_cell_length_c 8.990626
_cell_angle_alpha 55.374450
_cell_angle_beta 129.246992
_cell_angle_gamma 153.160510
_cell_volume 577.005784
_symmetry_space_group_name_H-M "P -1"
_symmetry_group_IT_number 2
_symmetry_cell_setting 'triclinic'
loop_
_space_group_symop_operation_xyz
x,y,z
-x,-y,-z
loop_
_atom_site_type_symbol
_atom_site_label
_atom_site_fract_x
_atom_site_fract_y
_atom_site_fract_z
Si Si1 0.158333 0.968273 0.467648
Si Si2 0.679276 0.067675 0.533855
Si Si3 0.182085 0.174119 0.820845
Si Si4 0.418040 0.328344 0.241337
Si Si5 0.912572 0.190050 0.175347
Si Si6 0.731053 0.248388 0.757094
O O1 0.154240 0.816838 0.483720
O O2 0.204673 0.985490 0.677223
O O3 0.946686 0.822268 0.328456
O O4 0.332980 0.248166 0.376918
O O5 0.781093 0.270382 0.622091
O O6 0.575176 0.827238 0.683095
O O7 0.504493 0.964531 0.327467
O O8 0.361751 0.375586 0.749457
O O9 0.055806 0.905609 0.831301
O O10 0.264739 0.247814 0.023935
O O11 0.133216 0.479164 0.244779
O O12 0.775105 0.162585 0.971146
#
# Coordination Sequence:
#
# PCOD8012716 Si02
#       6
#     2   2   2   2   2   2
#     4  10  22  37  63  90 118 150 204 246 298 345
#     4   9  20  41  61  86 115 160 204 238 285 356
#     4  11  20  40  62  90 121 156 194 246 305 349
#     4   9  21  38  62  89 115 159 200 242 292 351
#     4  11  22  37  60  93 121 158 189 251 304 340
#     4  10  21  40  63  82 126 159 200 238 291 361
#
# _framework density 20.797017
#
# number of rings (size 3 to 8) (size 9 to 14) (size 15 to 20)
#    1.000    1.000    1.667    2.000    0.000    2.000 
#    3.000    0.000    3.667    0.000    0.000    0.000 
#    0.000    0.000    0.000    0.000    0.000    0.000 
#
# Total GULP energy -148715.918892 kJ/mol
# GULP energy per Si atom -12392.993241 kJ/mol
# Density = 2.074968 g / cm^3
# Si number density = 20.797017 Si / 1000 Ang^3
#
#
#
# Elastic Constant Matrix: (Units=GPa)
#
#
# Indices 1 2 3 4 5 6 
#
# 1 118.1738 35.5755 53.4765 14.8107 14.0003 2.7259
# 2 35.5755 67.4394 43.8724 12.0423 -5.7197 0.5806
# 3 53.4765 43.8724 130.0837 6.8100 14.4797 19.8299
# 4 14.8107 12.0423 6.8100 27.9297 8.4155 -9.0502
# 5 14.0003 -5.7197 14.4797 8.4155 26.9833 -5.6122
# 6 2.7259 0.5806 19.8299 -9.0502 -5.6122 29.3251
#
#
#
# Elastic Compliance Matrix: (Units=1/GPa)
#
#
# Indices 1 2 3 4 5 6 
#
# 1 0.011955 -0.004753 -0.002400 -0.002462 -0.005401 -0.001188
# 2 -0.004753 0.026756 -0.009554 -0.009850 0.017736 0.006727
# 3 -0.002400 -0.009554 0.014833 0.001593 -0.011596 -0.011346
# 4 -0.002462 -0.009850 0.001593 0.049156 -0.014556 0.011731
# 5 -0.005401 0.017736 -0.011596 -0.014556 0.057397 0.014485
# 6 -0.001188 0.006727 -0.011346 0.011731 0.014485 0.048142
#
#
# Mechanical properties :
#
#
# Convention : Reuss Voigt Hill
#
# Bulk Modulus (GPa) = 49.67795 64.61619 57.14707
# Shear Modulus (GPa) = 20.13175 29.03245 24.58210
#
# Velocity S-wave (km/s) = 3.11466 3.74035 3.44175
# Velocity P-wave (km/s) = 6.07238 7.05627 6.58273
#
# Compressibility (1/GPa) = 0.02012966
#
# Stress axis : x y z
#
# Youngs Moduli (GPa) = 83.64552 37.37499 67.41666
#
# Poissons Ratio (x) = 0.17765 0.16183
# Poissons Ratio (y) = 0.39759 0.64407
# Poissons Ratio (z) = 0.20078 0.35707
#
# Static dielectric constant tensor:
#      x y z
#    x 3.585110 -0.100330 0.048840 
#    y -0.100330 3.451730 -0.123700 
#    z 0.048840 -0.123700 3.831280 
# 
# 
# High freq. dielectric constant tensor:
#      x y z
#    x 1.802990 -0.008150 0.008320 
#    y -0.008150 1.788710 -0.003890 
#    z 0.008320 -0.003890 1.827760 
# 
# From -- ./inp_files/155642.got.cif
#   From: 2010.06.25/outbox.cif.g09.slc.cpg/sg2_78_cif.got.tgz:155642.got - 2010.06.27 13:26:56.
