data_PCOD8012194
_publ_section_title
;
Structure prediction by ZEFSAII (Michael W. Deem and Ramdas Pophale) SiO2 
 PCOD8012194
Probable space group: P -1
;
_chemical_formula_sum "Si O2"
_cell_formula_units_Z 16
_cell_length_a 14.942818
_cell_length_b 11.602836
_cell_length_c 8.964756
_cell_angle_alpha 139.009909
_cell_angle_beta 127.330868
_cell_angle_gamma 74.997780
_cell_volume 749.409563
_symmetry_space_group_name_H-M "P -1"
_symmetry_group_IT_number 2
_symmetry_cell_setting 'triclinic'
loop_
_space_group_symop_operation_xyz
x,y,z
-x,-y,-z
loop_
_atom_site_type_symbol
_atom_site_label
_atom_site_fract_x
_atom_site_fract_y
_atom_site_fract_z
Si Si1 0.294139 0.627836 0.641120
Si Si2 0.134266 0.577202 0.144372
Si Si3 0.663427 0.689339 0.228422
Si Si4 0.569980 0.643137 0.409818
Si Si5 0.102157 0.370556 0.626497
Si Si6 0.137981 0.716068 0.812061
Si Si7 0.270019 0.912043 0.404776
Si Si8 0.519835 0.965960 0.815342
O O1 0.238246 0.608903 0.402049
O O2 0.339925 0.457638 0.545574
O O3 0.191749 0.621201 0.648201
O O4 0.403801 0.828803 0.975529
O O5 0.167801 0.779032 0.287156
O O6 0.134082 0.407023 0.869287
O O7 0.000000 0.500000 0.000000
O O8 0.601510 0.721123 0.349333
O O9 0.789454 0.669063 0.381633
O O10 0.696390 0.864038 0.315090
O O11 0.570388 0.503905 0.869313
O O12 0.587195 0.819371 0.711209
O O13 0.087381 0.560844 0.739782
O O14 0.966210 0.216308 0.299288
O O15 0.233963 0.890788 0.171324
O O16 0.391509 0.869552 0.506913
O O17 0.500000 0.000000 0.000000
#
# Coordination Sequence:
#
# PCOD8012194 Si02
#       8
#     2   2   2   2   2   2   2   2
#     4  12  23  43  71 101 139 179 232 283 342 408
#     4  11  23  43  67  95 134 185 229 273 343 413
#     4  11  23  42  67 104 136 177 231 292 339 401
#     4  11  25  41  70 104 139 176 232 287 344 406
#     4  10  21  40  66  94 131 178 232 273 338 405
#     4  10  21  39  67  95 129 179 230 279 333 400
#     4  11  24  42  67  99 139 179 229 284 344 409
#     4  12  26  44  65 103 147 182 221 279 354 418
#
# _framework density 21.350142000000002
#
# number of rings (size 3 to 8) (size 9 to 14) (size 15 to 20)
#    0.000    1.000    5.000    2.250    1.750    3.000 
#    0.000    1.875    0.000    0.000    0.000    0.000 
#    0.000    0.000    0.000    0.000    0.000    0.000 
#
# Total GULP energy -198299.916168 kJ/mol
# GULP energy per Si atom -12393.744760 kJ/mol
# Density = 2.130155 g / cm^3
# Si number density = 21.350142 Si / 1000 Ang^3
#
#
#
# Elastic Constant Matrix: (Units=GPa)
#
#
# Indices 1 2 3 4 5 6 
#
# 1 104.0356 28.8298 43.4424 -3.5176 7.4333 -7.1412
# 2 28.8298 79.0137 31.4653 4.0395 10.3852 4.4112
# 3 43.4424 31.4653 103.8667 -14.9175 1.3921 3.1255
# 4 -3.5176 4.0395 -14.9175 40.0501 -0.4801 3.1239
# 5 7.4333 10.3852 1.3921 -0.4801 38.3069 -5.0653
# 6 -7.1412 4.4112 3.1255 3.1239 -5.0653 33.0565
#
#
#
# Elastic Compliance Matrix: (Units=1/GPa)
#
#
# Indices 1 2 3 4 5 6 
#
# 1 0.012595 -0.002782 -0.004601 -0.000607 -0.001078 0.003419
# 2 -0.002782 0.016136 -0.004051 -0.003220 -0.004084 -0.002693
# 3 -0.004601 -0.004051 0.013575 0.005235 0.001295 -0.002033
# 4 -0.000607 -0.003220 0.005235 0.027407 0.000791 -0.002665
# 5 -0.001078 -0.004084 0.001295 0.000791 0.027966 0.004400
# 6 0.003419 -0.002693 -0.002033 -0.002665 0.004400 0.032468
#
#
# Mechanical properties :
#
#
# Convention : Reuss Voigt Hill
#
# Bulk Modulus (GPa) = 51.44442 54.93233 53.18838
# Shear Modulus (GPa) = 31.34890 34.49462 32.92176
#
# Velocity S-wave (km/s) = 3.83603 4.02389 3.93108
# Velocity P-wave (km/s) = 6.61574 6.88288 6.75063
#
# Compressibility (1/GPa) = 0.01943845
#
# Stress axis : x y z
#
# Youngs Moduli (GPa) = 79.39417 61.97285 73.66434
#
# Poissons Ratio (x) = 0.17239 0.33892
# Poissons Ratio (y) = 0.22085 0.29845
# Poissons Ratio (z) = 0.36529 0.25108
#
# Static dielectric constant tensor:
#      x y z
#    x 3.791870 0.101710 0.202660 
#    y 0.101710 3.701110 -0.208300 
#    z 0.202660 -0.208300 4.330550 
# 
# 
# High freq. dielectric constant tensor:
#      x y z
#    x 1.835910 0.004530 0.011720 
#    y 0.004530 1.822010 -0.011720 
#    z 0.011720 -0.011720 1.847100 
# 
# From -- ./inp_files/216736.got.cif
#   From: 2010.06.25/outbox.cif.g09.slc.cpg/sg2_109_cif.got.tgz:216736.got - 2010.06.27 13:26:56.
