data_PCOD8012389
_publ_section_title
;
Structure prediction by ZEFSAII (Michael W. Deem and Ramdas Pophale) SiO2 
 PCOD8012389
Probable space group: P -1
;
_chemical_formula_sum "Si O2"
_cell_formula_units_Z 16
_cell_length_a 12.979776
_cell_length_b 17.933909
_cell_length_c 9.166952
_cell_angle_alpha 139.225975
_cell_angle_beta 140.466161
_cell_angle_gamma 36.769799
_cell_volume 756.629059
_symmetry_space_group_name_H-M "P -1"
_symmetry_group_IT_number 2
_symmetry_cell_setting 'triclinic'
loop_
_space_group_symop_operation_xyz
x,y,z
-x,-y,-z
loop_
_atom_site_type_symbol
_atom_site_label
_atom_site_fract_x
_atom_site_fract_y
_atom_site_fract_z
Si Si1 0.660120 0.217237 0.121678
Si Si2 0.584531 0.064419 0.291700
Si Si3 0.583558 0.709615 0.759809
Si Si4 0.456910 0.135995 0.577652
Si Si5 0.224435 0.577701 0.516314
Si Si6 0.067656 0.419806 0.605352
Si Si7 0.995916 0.099567 0.524196
Si Si8 0.999943 0.353721 0.918674
O O1 0.482192 0.263527 0.104258
O O2 0.676271 0.337852 0.255964
O O3 0.852241 0.113949 0.262345
O O4 0.627030 0.152600 0.847559
O O5 0.578058 0.182336 0.363946
O O6 0.461954 0.117566 0.382749
O O7 0.800270 0.961862 0.421056
O O8 0.500000 0.000000 0.000000
O O9 0.601690 0.573637 0.525004
O O10 0.774141 0.712668 0.947108
O O11 0.256155 0.272478 0.589800
O O12 0.500000 0.000000 0.500000
O O13 0.085496 0.597744 0.261880
O O14 0.100417 0.604243 0.565274
O O15 0.000000 0.500000 0.500000
O O16 0.094602 0.517437 0.888535
O O17 0.948892 0.242941 0.752294
O O18 0.000000 0.000000 0.500000
#
# Coordination Sequence:
#
# PCOD8012389 Si02
#       8
#     2   2   2   2   2   2   2   2
#     4  11  24  42  65 101 138 171 220 283 343 389
#     4  12  25  44  69  95 133 176 237 270 333 414
#     4  11  19  39  69  95 131 179 222 270 324 411
#     4  12  28  45  70  99 137 183 227 283 339 407
#     4  10  22  40  67  97 132 170 222 274 334 395
#     4  11  24  45  68 101 135 179 229 276 338 400
#     4  11  24  42  68 104 134 179 223 282 337 398
#     4  10  21  39  71  95 129 177 228 270 325 402
#
# _framework density 21.146426000000002
#
# number of rings (size 3 to 8) (size 9 to 14) (size 15 to 20)
#    0.000    1.000    2.500    5.625    3.500    1.500 
#    2.250    1.250    0.000    0.000    0.000    0.000 
#    0.000    0.000    0.000    0.000    0.000    0.000 
#
# Total GULP energy -198348.390478 kJ/mol
# GULP energy per Si atom -12396.774405 kJ/mol
# Density = 2.109830 g / cm^3
# Si number density = 21.146426 Si / 1000 Ang^3
#
#
#
# Elastic Constant Matrix: (Units=GPa)
#
#
# Indices 1 2 3 4 5 6 
#
# 1 117.3697 42.7803 52.4704 13.3381 -11.9065 14.6569
# 2 42.7803 141.8045 52.1803 12.0229 1.9652 7.9856
# 3 52.4704 52.1803 131.2782 4.1194 -4.2341 5.8306
# 4 13.3381 12.0229 4.1194 28.5961 0.9332 6.7862
# 5 -11.9065 1.9652 -4.2341 0.9332 27.3203 5.9184
# 6 14.6569 7.9856 5.8306 6.7862 5.9184 46.1879
#
#
#
# Elastic Compliance Matrix: (Units=1/GPa)
#
#
# Indices 1 2 3 4 5 6 
#
# 1 0.012304 -0.001922 -0.003702 -0.003806 0.005768 -0.003285
# 2 -0.001922 0.008867 -0.002741 -0.002379 -0.001820 0.000005
# 3 -0.003702 -0.002741 0.010139 0.001379 0.000074 0.000157
# 4 -0.003806 -0.002379 0.001379 0.038552 -0.001725 -0.003998
# 5 0.005768 -0.001820 0.000074 -0.001725 0.040724 -0.006490
# 6 -0.003285 0.000005 0.000157 -0.003998 -0.006490 0.024091
#
#
# Mechanical properties :
#
#
# Convention : Reuss Voigt Hill
#
# Bulk Modulus (GPa) = 68.58864 76.14605 72.36734
# Shear Modulus (GPa) = 31.99695 36.62229 34.30962
#
# Velocity S-wave (km/s) = 3.89410 4.16606 4.03237
# Velocity P-wave (km/s) = 7.26114 7.69600 7.48173
#
# Compressibility (1/GPa) = 0.01457967
#
# Stress axis : x y z
#
# Youngs Moduli (GPa) = 81.27745 112.78083 98.63211
#
# Poissons Ratio (x) = 0.21673 0.36518
# Poissons Ratio (y) = 0.15619 0.27031
# Poissons Ratio (z) = 0.30092 0.30908
#
# Static dielectric constant tensor:
#      x y z
#    x 3.812420 -0.145870 -0.061990 
#    y -0.145870 0.372160 -1.393480 
#    z -0.061990 -1.393480 3.237620 
# 
# 
# High freq. dielectric constant tensor:
#      x y z
#    x 1.826170 0.009990 0.010330 
#    y 0.009990 1.853810 0.004450 
#    z 0.010330 0.004450 1.819650 
# 
# From -- ./inp_files/280048.got.cif
#   From: 2010.06.25/outbox.cif.g09.slc.cpg/sg2_141_cif.got.tgz:280048.got - 2010.06.27 13:26:56.
