data_PCOD8012351
_publ_section_title
;
Structure prediction by ZEFSAII (Michael W. Deem and Ramdas Pophale) SiO2 
 PCOD8012351
Probable space group: P -1
;
_chemical_formula_sum "Si O2"
_cell_formula_units_Z 16
_cell_length_a 9.173142
_cell_length_b 8.665891
_cell_length_c 11.732317
_cell_angle_alpha 52.861578
_cell_angle_beta 80.769354
_cell_angle_gamma 77.076864
_cell_volume 724.264530
_symmetry_space_group_name_H-M "P -1"
_symmetry_group_IT_number 2
_symmetry_cell_setting 'triclinic'
loop_
_space_group_symop_operation_xyz
x,y,z
-x,-y,-z
loop_
_atom_site_type_symbol
_atom_site_label
_atom_site_fract_x
_atom_site_fract_y
_atom_site_fract_z
Si Si1 0.563397 0.017658 0.240809
Si Si2 0.174560 0.739281 0.846649
Si Si3 0.137851 0.616006 0.418310
Si Si4 0.922701 0.993377 0.892045
Si Si5 0.754784 0.391140 0.345022
Si Si6 0.446158 0.374689 0.461534
Si Si7 0.330190 0.198754 0.894938
Si Si8 0.617689 0.627195 0.967897
O O1 0.710459 0.116461 0.196143
O O2 0.409342 0.177969 0.196408
O O3 0.559209 0.850683 0.407891
O O4 0.564993 0.928953 0.152154
O O5 0.013614 0.823589 0.878660
O O6 0.157898 0.728723 0.716287
O O7 0.221968 0.516275 0.990540
O O8 0.182401 0.692060 0.503508
O O9 0.279303 0.478191 0.401424
O O10 0.000000 0.500000 0.500000
O O11 0.089613 0.800124 0.261320
O O12 0.761525 0.935934 0.958864
O O13 0.000000 0.000000 0.000000
O O14 0.578391 0.371781 0.353849
O O15 0.773456 0.622009 0.238904
O O16 0.500000 0.500000 0.500000
O O17 0.424704 0.302635 0.928508
O O18 0.500000 0.500000 0.000000
#
# Coordination Sequence:
#
# PCOD8012351 Si02
#       8
#     2   2   2   2   2   2   2   2
#     4  11  19  39  68  95 132 171 222 275 338 400
#     4  10  23  44  63  93 144 171 220 288 334 399
#     4  11  23  43  70 101 136 180 226 277 337 406
#     4  12  25  41  69 101 130 179 235 273 336 415
#     4  10  23  44  68  96 141 176 221 286 340 389
#     4  10  21  39  69  99 132 169 231 278 328 405
#     4  11  21  38  70  94 131 177 225 276 334 393
#     4   9  22  37  59  95 130 172 213 270 344 384
#
# _framework density 22.091377000000001
#
# number of rings (size 3 to 8) (size 9 to 14) (size 15 to 20)
#    0.000    1.500    3.750    1.875    3.500    5.000 
#    2.250    0.000    2.750    0.000    0.000    0.000 
#    0.000    0.000    0.000    0.000    0.000    0.000 
#
# Total GULP energy -198248.641503 kJ/mol
# GULP energy per Si atom -12390.540094 kJ/mol
# Density = 2.204110 g / cm^3
# Si number density = 22.091377 Si / 1000 Ang^3
#
#
#
# Elastic Constant Matrix: (Units=GPa)
#
#
# Indices 1 2 3 4 5 6 
#
# 1 87.0381 32.9787 41.5406 0.3700 1.4570 -7.8988
# 2 32.9787 111.4873 52.5740 -4.2729 7.9628 -8.8615
# 3 41.5406 52.5740 134.4884 -22.5754 12.9512 -12.9955
# 4 0.3700 -4.2729 -22.5754 43.5290 -4.1611 3.8006
# 5 1.4570 7.9628 12.9512 -4.1611 39.0687 -2.2971
# 6 -7.8988 -8.8615 -12.9955 3.8006 -2.2971 40.6978
#
#
#
# Elastic Compliance Matrix: (Units=1/GPa)
#
#
# Indices 1 2 3 4 5 6 
#
# 1 0.014381 -0.002509 -0.003836 -0.002369 0.001071 0.001302
# 2 -0.002509 0.011577 -0.003722 -0.000952 -0.001082 0.000873
# 3 -0.003836 -0.003722 0.011299 0.005190 -0.002206 0.001444
# 4 -0.002369 -0.000952 0.005190 0.025828 0.001233 -0.001352
# 5 0.001071 -0.001082 -0.002206 0.001233 0.026678 0.000658
# 6 0.001302 0.000873 0.001444 -0.001352 0.000658 0.025639
#
#
# Mechanical properties :
#
#
# Convention : Reuss Voigt Hill
#
# Bulk Modulus (GPa) = 58.40246 65.24446 61.82346
# Shear Modulus (GPa) = 35.40001 38.38715 36.89358
#
# Velocity S-wave (km/s) = 4.00739 4.17304 4.09105
# Velocity P-wave (km/s) = 6.92144 7.26753 7.09660
#
# Compressibility (1/GPa) = 0.01712257
#
# Stress axis : x y z
#
# Youngs Moduli (GPa) = 69.53611 86.37695 88.50523
#
# Poissons Ratio (x) = 0.21670 0.33954
# Poissons Ratio (y) = 0.17445 0.32942
# Poissons Ratio (z) = 0.26677 0.32150
#
# Static dielectric constant tensor:
#      x y z
#    x 4.486900 0.388710 -0.076290 
#    y 0.388710 5.917120 -0.162360 
#    z -0.076290 -0.162360 4.363340 
# 
# 
# High freq. dielectric constant tensor:
#      x y z
#    x 1.853250 0.003870 0.009210 
#    y 0.003870 1.876640 -0.015170 
#    z 0.009210 -0.015170 1.868930 
# 
# From -- ./inp_files/416309.got.cif
#   From: 2010.06.25/outbox.cif.g09.slc.cpg/sg2_209_cif.got.tgz:416309.got - 2010.06.27 13:26:56.
