data_PCOD8012704
_publ_section_title
;
Structure prediction by ZEFSAII (Michael W. Deem and Ramdas Pophale) SiO2 
 PCOD8012704
Probable space group: P -1
;
_chemical_formula_sum "Si O2"
_cell_formula_units_Z 16
_cell_length_a 7.948810
_cell_length_b 15.282883
_cell_length_c 9.236509
_cell_angle_alpha 138.165945
_cell_angle_beta 105.151592
_cell_angle_gamma 82.173224
_cell_volume 719.374220
_symmetry_space_group_name_H-M "P -1"
_symmetry_group_IT_number 2
_symmetry_cell_setting 'triclinic'
loop_
_space_group_symop_operation_xyz
x,y,z
-x,-y,-z
loop_
_atom_site_type_symbol
_atom_site_label
_atom_site_fract_x
_atom_site_fract_y
_atom_site_fract_z
Si Si1 0.841432 0.441512 0.033690
Si Si2 0.796764 0.682361 0.970816
Si Si3 0.326136 0.773387 0.789523
Si Si4 0.181134 0.034418 0.162225
Si Si5 0.322603 0.276030 0.316015
Si Si6 0.086567 0.100463 0.529004
Si Si7 0.418500 0.570440 0.793980
Si Si8 0.083858 0.681153 0.378614
O O1 0.662486 0.405924 0.036997
O O2 0.016057 0.377412 0.050871
O O3 0.892389 0.598976 0.244506
O O4 0.798581 0.395670 0.802759
O O5 0.785695 0.741590 0.879895
O O6 0.630041 0.577031 0.840325
O O7 0.780817 0.798457 0.226867
O O8 0.488438 0.775483 0.721520
O O9 0.352509 0.688292 0.831672
O O10 0.161820 0.698155 0.576798
O O11 0.308139 0.925015 0.011002
O O12 0.236918 0.184364 0.310553
O O13 0.179155 0.029471 0.331028
O O14 0.000000 0.000000 0.000000
O O15 0.335977 0.430122 0.546005
O O16 0.933369 0.174765 0.511863
O O17 0.000000 0.000000 0.500000
#
# Coordination Sequence:
#
# PCOD8012704 Si02
#       8
#     2   2   2   2   2   2   2   2
#     4  10  22  39  67  97 132 172 219 270 338 388
#     4  10  23  43  66  97 137 170 216 278 327 389
#     4  11  24  42  67  98 134 168 222 276 328 393
#     4  12  25  42  67  98 129 175 227 264 335 402
#     4  11  24  45  66  98 136 173 216 278 329 392
#     4  11  24  42  65  93 134 175 218 274 329 394
#     4  11  24  42  71 101 131 176 225 268 333 397
#     4  10  21  40  62  96 132 169 217 280 325 390
#
# _framework density 22.241551999999999
#
# number of rings (size 3 to 8) (size 9 to 14) (size 15 to 20)
#    0.000    1.250    1.250    4.875    5.250    2.000 
#    0.000    9.375    0.000    0.000    0.000    0.000 
#    0.000    0.000    0.000    0.000    0.000    0.000 
#
# Total GULP energy -198335.371014 kJ/mol
# GULP energy per Si atom -12395.960688 kJ/mol
# Density = 2.219093 g / cm^3
# Si number density = 22.241552 Si / 1000 Ang^3
#
#
#
# Elastic Constant Matrix: (Units=GPa)
#
#
# Indices 1 2 3 4 5 6 
#
# 1 62.9818 28.8815 10.0917 4.5643 -11.8052 14.0015
# 2 28.8815 106.7669 26.4341 11.0053 -0.2050 19.0580
# 3 10.0917 26.4341 107.2608 -3.5095 -1.6798 0.8690
# 4 4.5643 11.0053 -3.5095 40.4013 3.2353 -7.2477
# 5 -11.8052 -0.2050 -1.6798 3.2353 23.2994 1.0163
# 6 14.0015 19.0580 0.8690 -7.2477 1.0163 41.9524
#
#
#
# Elastic Compliance Matrix: (Units=1/GPa)
#
#
# Indices 1 2 3 4 5 6 
#
# 1 0.021758 -0.004174 -0.000898 -0.003451 0.011673 -0.006226
# 2 -0.004174 0.012451 -0.002787 -0.003916 -0.001451 -0.004847
# 3 -0.000898 -0.002787 0.010146 0.002058 -0.000109 0.001714
# 4 -0.003451 -0.003916 0.002058 0.028280 -0.005907 0.007917
# 5 0.011673 -0.001451 -0.000109 -0.005907 0.049872 -0.005463
# 6 -0.006226 -0.004847 0.001714 0.007917 -0.005463 0.029581
#
#
# Mechanical properties :
#
#
# Convention : Reuss Voigt Hill
#
# Bulk Modulus (GPa) = 34.92050 45.31378 40.11714
# Shear Modulus (GPa) = 28.19242 35.23744 31.71493
#
# Velocity S-wave (km/s) = 3.56414 3.98465 3.78025
# Velocity P-wave (km/s) = 5.71595 6.44885 6.09343
#
# Compressibility (1/GPa) = 0.02863647
#
# Stress axis : x y z
#
# Youngs Moduli (GPa) = 45.96078 80.31201 98.55812
#
# Poissons Ratio (x) = 0.33521 0.08852
# Poissons Ratio (y) = 0.19183 0.27473
# Poissons Ratio (z) = 0.04128 0.22387
#
# Static dielectric constant tensor:
#      x y z
#    x 3.959580 0.065430 -0.017250 
#    y 0.065430 4.157370 -0.017720 
#    z -0.017250 -0.017720 4.384090 
# 
# 
# High freq. dielectric constant tensor:
#      x y z
#    x 1.857340 0.001460 -0.010030 
#    y 0.001460 1.887550 -0.001040 
#    z -0.010030 -0.001040 1.887260 
# 
# From -- ./inp_files/177945.got.cif
#   From: 2010.06.25/outbox.cif.g09.slc.cpg/sg2_89_cif.got.tgz:177945.got - 2010.06.27 13:26:56.
