data_PCOD8012584
_publ_section_title
;
Structure prediction by ZEFSAII (Michael W. Deem and Ramdas Pophale) SiO2 
 PCOD8012584
Probable space group: P -1
;
_chemical_formula_sum "Si O2"
_cell_formula_units_Z 16
_cell_length_a 8.123410
_cell_length_b 17.138382
_cell_length_c 7.846885
_cell_angle_alpha 100.568010
_cell_angle_beta 121.559944
_cell_angle_gamma 116.779454
_cell_volume 693.453945
_symmetry_space_group_name_H-M "P -1"
_symmetry_group_IT_number 2
_symmetry_cell_setting 'triclinic'
loop_
_space_group_symop_operation_xyz
x,y,z
-x,-y,-z
loop_
_atom_site_type_symbol
_atom_site_label
_atom_site_fract_x
_atom_site_fract_y
_atom_site_fract_z
Si Si1 0.576835 0.806295 0.933941
Si Si2 0.319621 0.365289 0.638665
Si Si3 0.822940 0.276653 0.807888
Si Si4 0.953293 0.379725 0.278892
Si Si5 0.690390 0.800267 0.604519
Si Si6 0.008409 0.191538 0.669430
Si Si7 0.864349 0.021462 0.305349
Si Si8 0.106877 0.484037 0.890256
O O1 0.285047 0.707366 0.768650
O O2 0.647264 0.811738 0.779391
O O3 0.758603 0.800561 0.143200
O O4 0.619371 0.910736 0.049333
O O5 0.331606 0.300700 0.473262
O O6 0.213568 0.420457 0.527590
O O7 0.126212 0.288587 0.649244
O O8 0.594965 0.455179 0.905239
O O9 0.524353 0.215434 0.635154
O O10 0.868219 0.196184 0.754510
O O11 0.949971 0.360056 0.752159
O O12 0.946993 0.331098 0.077027
O O13 0.951899 0.475204 0.288485
O O14 0.957712 0.906208 0.728211
O O15 0.800944 0.083680 0.406834
O O16 0.000000 0.000000 0.500000
O O17 0.000000 0.500000 0.000000
#
# Coordination Sequence:
#
# PCOD8012584 Si02
#       8
#     2   2   2   2   2   2   2   2
#     4  11  21  41  63  93 126 168 209 261 316 376
#     4  11  21  41  64  90 130 167 209 262 311 370
#     4  11  22  40  63  89 130 166 210 263 314 371
#     4  11  22  41  65  93 128 170 209 260 316 368
#     4  11  21  39  62  94 129 163 211 260 310 377
#     4  10  21  40  61  93 125 167 210 262 314 374
#     4   9  20  39  66  88 127 168 205 262 320 369
#     4  10  21  41  64  90 129 167 213 257 315 367
#
# _framework density 23.07291
#
# number of rings (size 3 to 8) (size 9 to 14) (size 15 to 20)
#    0.000    1.500    3.750    3.375    0.000    2.500 
#    2.250   13.750    0.000    0.000    0.000    0.000 
#    0.000    0.000    0.000    0.000    0.000    0.000 
#
# Total GULP energy -198333.054987 kJ/mol
# GULP energy per Si atom -12395.815937 kJ/mol
# Density = 2.302039 g / cm^3
# Si number density = 23.072910 Si / 1000 Ang^3
#
#
#
# Elastic Constant Matrix: (Units=GPa)
#
#
# Indices 1 2 3 4 5 6 
#
# 1 80.3662 13.2855 0.2655 -11.2505 1.2368 -11.6268
# 2 13.2855 68.9068 4.9584 -9.4702 9.2372 7.1259
# 3 0.2655 4.9584 51.1855 -29.6271 20.0801 -5.7988
# 4 -11.2505 -9.4702 -29.6271 30.4796 -1.9536 0.6305
# 5 1.2368 9.2372 20.0801 -1.9536 36.8486 -12.3376
# 6 -11.6268 7.1259 -5.7988 0.6305 -12.3376 23.8044
#
#
#
# Elastic Compliance Matrix: (Units=1/GPa)
#
#
# Indices 1 2 3 4 5 6 
#
# 1 0.016580 -0.002674 0.011134 0.015791 -0.001656 0.010334
# 2 -0.002674 0.019449 0.011013 0.015112 -0.014046 -0.012126
# 3 0.011134 0.011013 0.091042 0.092960 -0.049004 -0.003541
# 4 0.015791 0.015112 0.092960 0.130611 -0.049076 -0.003061
# 5 -0.001656 -0.014046 -0.049004 -0.049076 0.063393 0.025614
# 6 0.010334 -0.012126 -0.003541 -0.003061 0.025614 0.063180
#
#
# Mechanical properties :
#
#
# Convention : Reuss Voigt Hill
#
# Bulk Modulus (GPa) = 6.02348 26.38639 16.20493
# Shear Modulus (GPa) = 12.47978 30.35645 21.41812
#
# Velocity S-wave (km/s) = 2.32822 3.63116 3.05007
# Velocity P-wave (km/s) = 3.13747 5.38900 4.40937
#
# Compressibility (1/GPa) = 0.16601690
#
# Stress axis : x y z
#
# Youngs Moduli (GPa) = 60.31534 51.41598 10.98392
#
# Poissons Ratio (x) = 0.13750 -0.12229
# Poissons Ratio (y) = 0.16129 -0.12097
# Poissons Ratio (z) = -0.67154 -0.56626
#
# Static dielectric constant tensor:
#      x y z
#    x 4.033700 0.192870 0.198200 
#    y 0.192870 3.717820 -0.754250 
#    z 0.198200 -0.754250 3.685340 
# 
# 
# High freq. dielectric constant tensor:
#      x y z
#    x 1.920370 -0.005000 -0.013330 
#    y -0.005000 1.909950 -0.002870 
#    z -0.013330 -0.002870 1.900490 
# 
# From -- ./inp_files/217753.got.cif
#   From: 2010.06.25/outbox.cif.g09.slc.cpg/sg2_109_cif.got.tgz:217753.got - 2010.06.27 13:26:56.
