data_PCOD8012766
_publ_section_title
;
Structure prediction by ZEFSAII (Michael W. Deem and Ramdas Pophale) SiO2 
 PCOD8012766
Probable space group: P -1
;
_chemical_formula_sum "Si O2"
_cell_formula_units_Z 16
_cell_length_a 14.573566
_cell_length_b 8.518822
_cell_length_c 13.061855
_cell_angle_alpha 71.611066
_cell_angle_beta 48.544019
_cell_angle_gamma 41.295153
_cell_volume 745.817958
_symmetry_space_group_name_H-M "P -1"
_symmetry_group_IT_number 2
_symmetry_cell_setting 'triclinic'
loop_
_space_group_symop_operation_xyz
x,y,z
-x,-y,-z
loop_
_atom_site_type_symbol
_atom_site_label
_atom_site_fract_x
_atom_site_fract_y
_atom_site_fract_z
Si Si1 0.260658 0.380213 0.624816
Si Si2 0.214652 0.227886 0.884545
Si Si3 0.073524 0.086755 0.534178
Si Si4 0.833316 0.048651 0.142795
Si Si5 0.455809 0.501088 0.417372
Si Si6 0.910901 0.920082 0.706776
Si Si7 0.688022 0.866828 0.940865
Si Si8 0.942733 0.690453 0.306246
O O1 0.312283 0.245232 0.723820
O O2 0.422861 0.335429 0.472651
O O3 0.069651 0.685411 0.715122
O O4 0.226028 0.268711 0.591671
O O5 0.211539 0.038929 0.893718
O O6 0.328095 0.140187 0.923848
O O7 0.000000 0.500000 0.000000
O O8 0.279153 0.787583 0.447207
O O9 0.909533 0.120435 0.675057
O O10 0.039218 0.187455 0.424342
O O11 0.049358 0.266991 0.589628
O O12 0.638986 0.351428 0.243054
O O13 0.895672 0.902033 0.233300
O O14 0.000000 0.000000 0.000000
O O15 0.500000 0.500000 0.500000
O O16 0.714741 0.035783 0.861778
O O17 0.861876 0.586558 0.821808
O O18 0.500000 0.000000 0.000000
#
# Coordination Sequence:
#
# PCOD8012766 Si02
#       8
#     2   2   2   2   2   2   2   2
#     4   9  21  39  64  89 122 160 220 263 314 380
#     4  11  21  42  67  89 125 175 211 262 328 376
#     4  10  21  40  64  90 121 166 214 269 319 374
#     4  11  25  39  64  97 129 168 216 259 326 386
#     4  11  23  39  62  96 128 164 212 267 310 377
#     4   9  20  40  63  82 126 169 209 259 328 370
#     4  11  24  42  60  95 131 171 214 262 321 392
#     4  10  21  40  63  91 122 167 218 262 322 379
#
# _framework density 21.452956
#
# number of rings (size 3 to 8) (size 9 to 14) (size 15 to 20)
#    0.000    1.750    5.000    0.000    3.500    6.000 
#    9.000    0.625    0.000    0.000    0.000    0.000 
#    0.000    0.000    0.000    0.000    0.000    0.000 
#
# Total GULP energy -198352.934972 kJ/mol
# GULP energy per Si atom -12397.058436 kJ/mol
# Density = 2.140413 g / cm^3
# Si number density = 21.452956 Si / 1000 Ang^3
#
#
#
# Elastic Constant Matrix: (Units=GPa)
#
#
# Indices 1 2 3 4 5 6 
#
# 1 141.0556 27.3474 60.1540 -7.2522 10.8823 -5.0087
# 2 27.3474 55.0932 28.7279 -0.3667 2.3296 -3.3261
# 3 60.1540 28.7279 91.3008 -1.5653 -9.0650 3.7470
# 4 -7.2522 -0.3667 -1.5653 38.7031 2.4883 2.9134
# 5 10.8823 2.3296 -9.0650 2.4883 47.7077 0.7717
# 6 -5.0087 -3.3261 3.7470 2.9134 0.7717 31.6637
#
#
#
# Elastic Compliance Matrix: (Units=1/GPa)
#
#
# Indices 1 2 3 4 5 6 
#
# 1 0.010909 -0.001325 -0.007227 0.001813 -0.003930 0.002370
# 2 -0.001325 0.022484 -0.006537 -0.000394 -0.002066 0.003012
# 3 -0.007227 -0.006537 0.018481 -0.000720 0.005583 -0.004087
# 4 0.001813 -0.000394 -0.000720 0.026420 -0.001876 -0.002054
# 5 -0.003930 -0.002066 0.005583 -0.001876 0.023147 -0.001891
# 6 0.002370 0.003012 -0.004087 -0.002054 -0.001891 0.032992
#
#
# Mechanical properties :
#
#
# Convention : Reuss Voigt Hill
#
# Bulk Modulus (GPa) = 46.09201 57.76757 51.92979
# Shear Modulus (GPa) = 29.09634 35.02959 32.06296
#
# Velocity S-wave (km/s) = 3.68677 4.04525 3.87016
# Velocity P-wave (km/s) = 6.29721 6.98604 6.65055
#
# Compressibility (1/GPa) = 0.02169574
#
# Stress axis : x y z
#
# Youngs Moduli (GPa) = 91.66919 44.47568 54.11058
#
# Poissons Ratio (x) = 0.05894 0.39104
# Poissons Ratio (y) = 0.12149 0.35372
# Poissons Ratio (z) = 0.66246 0.29074
#
# Static dielectric constant tensor:
#      x y z
#    x 4.027650 -0.031900 -0.237390 
#    y -0.031900 3.860710 -0.282490 
#    z -0.237390 -0.282490 4.051210 
# 
# 
# High freq. dielectric constant tensor:
#      x y z
#    x 1.853960 0.004210 -0.001840 
#    y 0.004210 1.827790 -0.015640 
#    z -0.001840 -0.015640 1.829650 
# 
# From -- ./inp_files/406753.got.cif
#   From: 2010.06.25/outbox.cif.g09.slc.cpg/sg2_204_cif.got.tgz:406753.got - 2010.06.27 13:26:56.
