data_PCOD8012656
_publ_section_title
;
Structure prediction by ZEFSAII (Michael W. Deem and Ramdas Pophale) SiO2 
 PCOD8012656
Probable space group: P -1
;
_chemical_formula_sum "Si O2"
_cell_formula_units_Z 16
_cell_length_a 17.813658
_cell_length_b 13.259132
_cell_length_c 8.866316
_cell_angle_alpha 81.391943
_cell_angle_beta 125.898228
_cell_angle_gamma 142.370727
_cell_volume 799.015776
_symmetry_space_group_name_H-M "P -1"
_symmetry_group_IT_number 2
_symmetry_cell_setting 'triclinic'
loop_
_space_group_symop_operation_xyz
x,y,z
-x,-y,-z
loop_
_atom_site_type_symbol
_atom_site_label
_atom_site_fract_x
_atom_site_fract_y
_atom_site_fract_z
Si Si1 0.341990 0.918509 0.149440
Si Si2 0.432714 0.473270 0.264800
Si Si3 0.845110 0.899301 0.174711
Si Si4 0.332844 0.919737 0.490405
Si Si5 0.444064 0.219340 0.047028
Si Si6 0.593153 0.320102 0.878570
Si Si7 0.065555 0.512030 0.730702
Si Si8 0.740169 0.670617 0.376557
O O1 0.296629 0.873374 0.281820
O O2 0.539020 0.050707 0.306628
O O3 0.379604 0.069822 0.116803
O O4 0.157277 0.691160 0.898300
O O5 0.500000 0.500000 0.500000
O O6 0.362912 0.523293 0.165813
O O7 0.596394 0.614200 0.296311
O O8 0.252190 0.224282 0.070856
O O9 0.819378 0.775917 0.280120
O O10 0.738923 0.883523 0.148074
O O11 0.063682 0.145282 0.334297
O O12 0.125260 0.719590 0.368287
O O13 0.454801 0.138676 0.627510
O O14 0.635937 0.460515 0.286141
O O15 0.475023 0.206486 0.920106
O O16 0.786268 0.440404 0.113149
O O17 0.000000 0.500000 0.500000
#
# Coordination Sequence:
#
# PCOD8012656 Si02
#       8
#     2   2   2   2   2   2   2   2
#     4  10  23  41  64  88 122 162 197 250 312 364
#     4  11  23  41  62  87 131 164 197 252 304 359
#     4  10  21  40  62  91 118 159 210 250 302 352
#     4  10  23  42  61  88 127 157 199 252 305 366
#     4  11  20  38  62  90 120 158 205 252 302 358
#     4  11  23  39  63  92 120 164 202 249 305 360
#     4  11  23  42  65  95 121 156 205 254 302 365
#     4  10  21  40  63  86 122 159 204 256 297 356
#
# _framework density 20.024635
#
# number of rings (size 3 to 8) (size 9 to 14) (size 15 to 20)
#    0.000    1.500    2.500    2.625    3.500    6.500 
#    2.250    0.000    0.000    0.000    0.000    0.000 
#    0.000    0.000    0.000    0.000    0.000    0.000 
#
# Total GULP energy -198352.569354 kJ/mol
# GULP energy per Si atom -12397.035585 kJ/mol
# Density = 1.997906 g / cm^3
# Si number density = 20.024635 Si / 1000 Ang^3
#
#
#
# Elastic Constant Matrix: (Units=GPa)
#
#
# Indices 1 2 3 4 5 6 
#
# 1 92.6078 26.5943 51.7616 12.3825 2.1393 -14.2777
# 2 26.5943 64.7714 32.0286 0.0472 10.7286 -9.9682
# 3 51.7616 32.0286 138.6687 10.1520 -3.3549 -6.7188
# 4 12.3825 0.0472 10.1520 31.5370 4.4698 0.8161
# 5 2.1393 10.7286 -3.3549 4.4698 31.9762 3.5232
# 6 -14.2777 -9.9682 -6.7188 0.8161 3.5232 13.1979
#
#
#
# Elastic Compliance Matrix: (Units=1/GPa)
#
#
# Indices 1 2 3 4 5 6 
#
# 1 0.017246 -0.001930 -0.004897 -0.005313 -0.001993 0.015567
# 2 -0.001930 0.022223 -0.004147 0.003066 -0.009846 0.015025
# 3 -0.004897 -0.004147 0.010002 -0.001674 0.003461 -0.004158
# 4 -0.005313 0.003066 -0.001674 0.035199 -0.005211 -0.005069
# 5 -0.001993 -0.009846 0.003461 -0.005211 0.037739 -0.017583
# 6 0.015567 0.015025 -0.004158 -0.005069 -0.017583 0.106848
#
#
# Mechanical properties :
#
#
# Convention : Reuss Voigt Hill
#
# Bulk Modulus (GPa) = 36.33322 57.42409 46.87866
# Shear Modulus (GPa) = 19.20283 27.71979 23.46131
#
# Velocity S-wave (km/s) = 3.10007 3.72463 3.42661
# Velocity P-wave (km/s) = 5.56754 6.87286 6.25435
#
# Compressibility (1/GPa) = 0.02752302
#
# Stress axis : x y z
#
# Youngs Moduli (GPa) = 57.98552 44.99841 99.98083
#
# Poissons Ratio (x) = 0.08684 0.48957
# Poissons Ratio (y) = 0.11191 0.41464
# Poissons Ratio (z) = 0.28394 0.18662
#
# Static dielectric constant tensor:
#      x y z
#    x 3.721340 -0.101510 0.009090 
#    y -0.101510 3.497830 0.118510 
#    z 0.009090 0.118510 3.957470 
# 
# 
# High freq. dielectric constant tensor:
#      x y z
#    x 1.785000 -0.006550 -0.003930 
#    y -0.006550 1.774540 0.008700 
#    z -0.003930 0.008700 1.792780 
# 
# From -- ./inp_files/279071.got.cif
#   From: 2010.06.25/outbox.cif.g09.slc.cpg/sg2_140_cif.got.tgz:279071.got - 2010.06.27 13:26:56.
