data_PCOD8012830
_publ_section_title
;
Structure prediction by ZEFSAII (Michael W. Deem and Ramdas Pophale) SiO2 
 PCOD8012830
Probable space group: P -1
;
_chemical_formula_sum "Si O2"
_cell_formula_units_Z 16
_cell_length_a 21.283753
_cell_length_b 9.884343
_cell_length_c 9.955882
_cell_angle_alpha 108.021623
_cell_angle_beta 137.664071
_cell_angle_gamma 39.095802
_cell_volume 696.273016
_symmetry_space_group_name_H-M "P -1"
_symmetry_group_IT_number 2
_symmetry_cell_setting 'triclinic'
loop_
_space_group_symop_operation_xyz
x,y,z
-x,-y,-z
loop_
_atom_site_type_symbol
_atom_site_label
_atom_site_fract_x
_atom_site_fract_y
_atom_site_fract_z
Si Si1 0.005021 0.781803 0.918842
Si Si2 0.613727 0.002955 0.049140
Si Si3 0.791479 0.293572 0.609264
Si Si4 0.401474 0.752515 0.135912
Si Si5 0.847924 0.113313 0.367931
Si Si6 0.469103 0.197043 0.160733
Si Si7 0.642636 0.185416 0.624804
Si Si8 0.901660 0.425213 0.271936
O O1 0.069682 0.585041 0.847125
O O2 0.963456 0.974312 0.820790
O O3 0.828113 0.969906 0.776091
O O4 0.167450 0.606135 0.226650
O O5 0.824510 0.675057 0.288431
O O6 0.552350 0.152616 0.139577
O O7 0.486248 0.030813 0.829391
O O8 0.593029 0.134302 0.932722
O O9 0.607434 0.460884 0.421275
O O10 0.777143 0.314660 0.431156
O O11 0.298921 0.929758 0.164994
O O12 0.318570 0.712583 0.937436
O O13 0.000000 0.000000 0.500000
O O14 0.918132 0.868477 0.461962
O O15 0.552470 0.166397 0.409888
O O16 0.252061 0.496118 0.918646
O O17 0.500000 0.500000 0.500000
#
# Coordination Sequence:
#
# PCOD8012830 Si02
#       8
#     2   2   2   2   2   2   2   2
#     4  10  21  40  63  96 125 174 220 265 338 383
#     4   9  23  44  71  95 128 182 231 261 325 396
#     4  10  22  38  62  91 132 170 217 272 325 395
#     4  12  25  40  64 100 130 177 223 274 326 397
#     4  11  25  37  63  99 137 169 216 280 338 382
#     4   9  22  45  70  93 126 184 219 269 331 398
#     4  12  25  40  67  99 136 173 218 275 339 401
#     4   9  21  43  67  91 124 180 216 277 318 394
#
# _framework density 22.979492
#
# number of rings (size 3 to 8) (size 9 to 14) (size 15 to 20)
#    0.750    1.000    1.250    1.875   10.500    1.000 
#    0.000    0.625    0.000    0.000    0.000    0.000 
#    0.000    0.000    0.000    0.000    0.000    0.000 
#
# Total GULP energy -198242.681504 kJ/mol
# GULP energy per Si atom -12390.167594 kJ/mol
# Density = 2.292719 g / cm^3
# Si number density = 22.979492 Si / 1000 Ang^3
#
#
#
# Elastic Constant Matrix: (Units=GPa)
#
#
# Indices 1 2 3 4 5 6 
#
# 1 96.0098 30.8820 11.8759 5.2862 -10.8944 -32.2159
# 2 30.8820 83.8088 24.3851 8.1262 -5.1598 -33.1346
# 3 11.8759 24.3851 108.4577 13.2930 9.6134 -13.4018
# 4 5.2862 8.1262 13.2930 34.8916 -12.7112 0.7690
# 5 -10.8944 -5.1598 9.6134 -12.7112 33.4112 1.5407
# 6 -32.2159 -33.1346 -13.4018 0.7690 1.5407 47.3552
#
#
#
# Elastic Compliance Matrix: (Units=1/GPa)
#
#
# Indices 1 2 3 4 5 6 
#
# 1 0.014249 -0.001517 -0.000505 -0.000322 0.004049 0.008363
# 2 -0.001517 0.017756 -0.002276 -0.002784 0.001347 0.010749
# 3 -0.000505 -0.002276 0.011242 -0.005924 -0.006075 0.001539
# 4 -0.000322 -0.002784 -0.005924 0.037419 0.015634 -0.004960
# 5 0.004049 0.001347 -0.006075 0.015634 0.039134 0.000451
# 6 0.008363 0.010749 0.001539 -0.004960 0.000451 0.034829
#
#
# Mechanical properties :
#
#
# Convention : Reuss Voigt Hill
#
# Bulk Modulus (GPa) = 28.85880 46.95136 37.90508
# Shear Modulus (GPa) = 28.60815 37.87383 33.24099
#
# Velocity S-wave (km/s) = 3.53220 4.06416 3.80748
# Velocity P-wave (km/s) = 5.40565 6.51915 5.98834
#
# Compressibility (1/GPa) = 0.03465147
#
# Stress axis : x y z
#
# Youngs Moduli (GPa) = 70.17831 56.31985 88.95254
#
# Poissons Ratio (x) = 0.08541 0.04495
# Poissons Ratio (y) = 0.10643 0.20245
# Poissons Ratio (z) = 0.03546 0.12818
#
# Static dielectric constant tensor:
#      x y z
#    x 4.026720 -0.467060 -0.034870 
#    y -0.467060 4.294230 0.179480 
#    z -0.034870 0.179480 4.196120 
# 
# 
# High freq. dielectric constant tensor:
#      x y z
#    x 1.902420 -0.033650 0.009810 
#    y -0.033650 1.897570 0.012940 
#    z 0.009810 0.012940 1.903190 
# 
# From -- ./inp_files/346191.got.cif
#   From: 2010.06.25/outbox.cif.g09.slc.cpg/sg2_174_cif.got.tgz:346191.got - 2010.06.27 13:26:56.
