data_PCOD8012872
_publ_section_title
;
Structure prediction by ZEFSAII (Michael W. Deem and Ramdas Pophale) SiO2 
 PCOD8012872
Probable space group: P -1
;
_chemical_formula_sum "Si O2"
_cell_formula_units_Z 16
_cell_length_a 18.688538
_cell_length_b 8.722784
_cell_length_c 15.652070
_cell_angle_alpha 114.853513
_cell_angle_beta 157.463648
_cell_angle_gamma 54.412035
_cell_volume 736.895288
_symmetry_space_group_name_H-M "P -1"
_symmetry_group_IT_number 2
_symmetry_cell_setting 'triclinic'
loop_
_space_group_symop_operation_xyz
x,y,z
-x,-y,-z
loop_
_atom_site_type_symbol
_atom_site_label
_atom_site_fract_x
_atom_site_fract_y
_atom_site_fract_z
Si Si1 0.343407 0.460998 0.710645
Si Si2 0.420330 0.537447 0.516881
Si Si3 0.260943 0.840756 0.812756
Si Si4 0.039240 0.314505 0.368376
Si Si5 0.078135 0.974486 0.210490
Si Si6 0.551357 0.590345 0.842064
Si Si7 0.793345 0.983336 0.376313
Si Si8 0.366139 0.897764 0.342546
O O1 0.263739 0.654723 0.727759
O O2 0.412873 0.499790 0.704695
O O3 0.147618 0.424330 0.471052
O O4 0.543959 0.249298 0.923865
O O5 0.500000 0.500000 0.500000
O O6 0.181074 0.750933 0.313207
O O7 0.594980 0.538489 0.776843
O O8 0.426020 0.336294 0.496239
O O9 0.289136 0.978136 0.805409
O O10 0.020521 0.984200 0.627673
O O11 0.775789 0.491182 0.122782
O O12 0.076828 0.125456 0.312078
O O13 0.139051 0.229973 0.554687
O O14 0.240274 0.953809 0.307936
O O15 0.825785 0.049581 0.925747
O O16 0.405820 0.833354 0.746083
O O17 0.500000 0.000000 0.500000
#
# Coordination Sequence:
#
# PCOD8012872 Si02
#       8
#     2   2   2   2   2   2   2   2
#     4  10  23  40  66  92 125 165 209 258 316 370
#     4  10  21  40  64  88 129 162 201 256 303 363
#     4   9  20  45  62  90 129 161 208 263 309 377
#     4  12  23  39  64  95 123 168 207 256 311 372
#     4  10  22  40  60  90 128 155 208 256 302 368
#     4  11  22  43  61  92 129 165 204 262 311 363
#     4  10  21  41  66  87 127 166 203 259 318 361
#     4  10  22  40  65  90 119 168 200 253 312 365
#
# _framework density 21.712719
#
# number of rings (size 3 to 8) (size 9 to 14) (size 15 to 20)
#    0.000    1.750    3.750    0.000    1.750    1.500 
#    6.750    2.500    0.000    0.000    0.000    0.000 
#    0.000    0.000    0.000    0.000    0.000    0.000 
#
# Total GULP energy -198217.525898 kJ/mol
# GULP energy per Si atom -12388.595369 kJ/mol
# Density = 2.166330 g / cm^3
# Si number density = 21.712719 Si / 1000 Ang^3
#
#
#
# Elastic Constant Matrix: (Units=GPa)
#
#
# Indices 1 2 3 4 5 6 
#
# 1 54.7165 12.1848 35.9610 -4.3917 -6.5608 6.7250
# 2 12.1848 87.8600 55.9118 -13.2053 7.4813 10.4129
# 3 35.9610 55.9118 85.1612 -16.5432 3.1635 17.5102
# 4 -4.3917 -13.2053 -16.5432 38.6981 7.3978 0.9749
# 5 -6.5608 7.4813 3.1635 7.3978 32.6218 -2.9006
# 6 6.7250 10.4129 17.5102 0.9749 -2.9006 34.6205
#
#
#
# Elastic Compliance Matrix: (Units=1/GPa)
#
#
# Indices 1 2 3 4 5 6 
#
# 1 0.028590 0.005510 -0.017096 -0.003604 0.007151 0.002136
# 2 0.005510 0.021122 -0.015880 0.001515 -0.002508 0.000356
# 3 -0.017096 -0.015880 0.033095 0.008109 -0.005676 -0.009345
# 4 -0.003604 0.001515 0.008109 0.031364 -0.009463 -0.005533
# 5 0.007151 -0.002508 -0.005676 -0.009463 0.035854 0.005506
# 6 0.002136 0.000356 -0.009345 -0.005533 0.005506 0.033706
#
#
# Mechanical properties :
#
#
# Convention : Reuss Voigt Hill
#
# Bulk Modulus (GPa) = 35.87224 48.42811 42.15017
# Shear Modulus (GPa) = 20.16494 29.43343 24.79918
#
# Velocity S-wave (km/s) = 3.05079 3.68582 3.38324
# Velocity P-wave (km/s) = 5.38209 6.36130 5.89207
#
# Compressibility (1/GPa) = 0.02787671
#
# Stress axis : x y z
#
# Youngs Moduli (GPa) = 34.97699 47.34313 30.21604
#
# Poissons Ratio (x) = -0.26088 0.51656
# Poissons Ratio (y) = -0.19273 0.47984
# Poissons Ratio (z) = 0.59795 0.75182
#
# Static dielectric constant tensor:
#      x y z
#    x 4.107460 0.097650 -0.208330 
#    y 0.097650 4.049190 -0.564950 
#    z -0.208330 -0.564950 4.022850 
# 
# 
# High freq. dielectric constant tensor:
#      x y z
#    x 1.850890 0.003920 -0.014650 
#    y 0.003920 1.847770 -0.035070 
#    z -0.014650 -0.035070 1.846860 
# 
# From -- ./inp_files/577389.got.cif
#   From: 2010.06.25/outbox.cif.g09.slc.cpg/sg2_289_cif.got.tgz:577389.got - 2010.06.27 13:26:56.
