data_PCOD8012490
_publ_section_title
;
Structure prediction by ZEFSAII (Michael W. Deem and Ramdas Pophale) SiO2 
 PCOD8012490
Probable space group: P -1
;
_chemical_formula_sum "Si O2"
_cell_formula_units_Z 14
_cell_length_a 5.103395
_cell_length_b 5.141759
_cell_length_c 26.311768
_cell_angle_alpha 103.422724
_cell_angle_beta 103.844171
_cell_angle_gamma 61.380800
_cell_volume 582.849530
_symmetry_space_group_name_H-M "P -1"
_symmetry_group_IT_number 2
_symmetry_cell_setting 'triclinic'
loop_
_space_group_symop_operation_xyz
x,y,z
-x,-y,-z
loop_
_atom_site_type_symbol
_atom_site_label
_atom_site_fract_x
_atom_site_fract_y
_atom_site_fract_z
Si Si1 0.146691 0.190662 0.356153
Si Si2 0.552478 0.505738 0.682376
Si Si3 0.186579 0.186952 0.938258
Si Si4 0.411386 0.406822 0.043631
Si Si5 0.652455 0.727883 0.156826
Si Si6 0.353086 0.420812 0.195440
Si Si7 0.685383 0.685571 0.520914
O O1 0.269376 0.312273 0.320615
O O2 0.269741 0.267409 0.416274
O O3 0.784868 0.349773 0.348691
O O4 0.266178 0.836447 0.341779
O O5 0.531306 0.527674 0.742861
O O6 0.341240 0.315091 0.907727
O O7 0.825872 0.335964 0.918482
O O8 0.318780 0.830394 0.919557
O O9 0.230718 0.231426 0.002446
O O10 0.500000 0.500000 0.000000
O O11 0.522217 0.520394 0.165745
O O12 0.994141 0.625203 0.185768
O O13 0.444323 0.071761 0.176725
O O14 0.500000 0.500000 0.500000
O O15 0.000000 0.500000 0.500000
O O16 0.500000 0.000000 0.500000
#
# Coordination Sequence:
#
# PCOD8012490 Si02
#       7
#     2   2   2   2   2   2   2
#     4  12  24  43  70 102 132 186 225 276 333 398
#     4  12  25  45  71  98 135 173 235 279 334 398
#     4  10  23  37  60  91 120 166 209 261 315 399
#     4  10  21  40  60  87 123 160 211 259 316 375
#     4  12  26  44  71 100 135 175 221 270 349 400
#     4  12  26  48  69 102 134 176 219 289 336 396
#     4  12  25  43  66  99 145 179 225 277 333 395
#
# _framework density 24.019919999999999
#
# number of rings (size 3 to 8) (size 9 to 14) (size 15 to 20)
#    0.000    0.571    0.000    8.571    4.000    0.000 
#    0.000    0.000    0.000    0.000    0.000    0.000 
#    0.000    0.000    0.000    0.000    0.000    0.000 
#
# Total GULP energy -173607.283642 kJ/mol
# GULP energy per Si atom -12400.520260 kJ/mol
# Density = 2.396525 g / cm^3
# Si number density = 24.019920 Si / 1000 Ang^3
#
#
#
# Elastic Constant Matrix: (Units=GPa)
#
#
# Indices 1 2 3 4 5 6 
#
# 1 119.1869 49.7087 -4.2867 -4.4434 -22.1413 -4.6362
# 2 49.7087 188.7471 22.0035 -5.1374 -16.2397 -15.7399
# 3 -4.2867 22.0035 123.2286 7.5080 7.1066 -1.2572
# 4 -4.4434 -5.1374 7.5080 34.6266 4.3165 -1.8663
# 5 -22.1413 -16.2397 7.1066 4.3165 32.6837 8.7112
# 6 -4.6362 -15.7399 -1.2572 -1.8663 8.7112 35.4781
#
#
#
# Elastic Compliance Matrix: (Units=1/GPa)
#
#
# Indices 1 2 3 4 5 6 
#
# 1 0.010496 -0.002381 0.000420 0.000074 0.006139 -0.001173
# 2 -0.002381 0.006388 -0.001321 0.000909 0.001130 0.002247
# 3 0.000420 -0.001321 0.008592 -0.001738 -0.002061 0.000188
# 4 0.000074 0.000909 -0.001738 0.030036 -0.003854 0.002878
# 5 0.006139 0.001130 -0.002061 -0.003854 0.038521 -0.008431
# 6 -0.001173 0.002247 0.000188 0.002878 -0.008431 0.031258
#
#
# Mechanical properties :
#
#
# Convention : Reuss Voigt Hill
#
# Bulk Modulus (GPa) = 52.87657 62.89042 57.88349
# Shear Modulus (GPa) = 36.19006 44.80682 40.49844
#
# Velocity S-wave (km/s) = 3.88579 4.32372 4.11059
# Velocity P-wave (km/s) = 6.49569 7.15300 6.83226
#
# Compressibility (1/GPa) = 0.01891197
#
# Stress axis : x y z
#
# Youngs Moduli (GPa) = 95.27656 156.53343 116.38508
#
# Poissons Ratio (x) = 0.37266 -0.04885
# Poissons Ratio (y) = 0.22683 0.15376
# Poissons Ratio (z) = -0.03999 0.20680
#
# Static dielectric constant tensor:
#      x y z
#    x 4.967760 -0.523990 0.857980 
#    y -0.523990 6.417070 0.647080 
#    z 0.857980 0.647080 6.576160 
# 
# 
# High freq. dielectric constant tensor:
#      x y z
#    x 1.971290 -0.004080 0.001520 
#    y -0.004080 1.982080 -0.000400 
#    z 0.001520 -0.000400 1.963130 
# 
# From -- ./inp_files/614930.got.cif
#   From: 2010.06.25/outbox.cif.g09.slc.cpg/sg2_308_cif.got.tgz:614930.got - 2010.06.27 13:26:56.
