data_PCOD8012971
_publ_section_title
;
Structure prediction by ZEFSAII (Michael W. Deem and Ramdas Pophale) SiO2 
 PCOD8012971
Probable space group: P -1
;
_chemical_formula_sum "Si O2"
_cell_formula_units_Z 16
_cell_length_a 11.814099
_cell_length_b 15.025356
_cell_length_c 11.494345
_cell_angle_alpha 75.362901
_cell_angle_beta 55.750517
_cell_angle_gamma 31.103314
_cell_volume 735.112068
_symmetry_space_group_name_H-M "P -1"
_symmetry_group_IT_number 2
_symmetry_cell_setting 'triclinic'
loop_
_space_group_symop_operation_xyz
x,y,z
-x,-y,-z
loop_
_atom_site_type_symbol
_atom_site_label
_atom_site_fract_x
_atom_site_fract_y
_atom_site_fract_z
Si Si1 0.624598 0.971401 0.691835
Si Si2 0.639693 0.448950 0.054704
Si Si3 0.445347 0.387288 0.531909
Si Si4 0.139038 0.407747 0.820370
Si Si5 0.215097 0.565908 0.365753
Si Si6 0.971954 0.196557 0.294745
Si Si7 0.753277 0.969799 0.055065
Si Si8 0.345413 0.376135 0.123045
O O1 0.540943 0.918191 0.795622
O O2 0.874732 0.809896 0.498847
O O3 0.752080 0.961916 0.722092
O O4 0.311720 0.208402 0.759432
O O5 0.439866 0.520254 0.247359
O O6 0.500000 0.500000 0.000000
O O7 0.607028 0.579549 0.025875
O O8 0.988927 0.204768 0.939579
O O9 0.375236 0.347266 0.674622
O O10 0.334682 0.432034 0.448711
O O11 0.805485 0.196355 0.392826
O O12 0.265338 0.583169 0.612433
O O13 0.875247 0.568664 0.822441
O O14 0.000000 0.500000 0.000000
O O15 0.213680 0.505579 0.270268
O O16 0.101146 0.143435 0.113116
O O17 0.651385 0.138180 0.061304
#
# Coordination Sequence:
#
# PCOD8012971 Si02
#       8
#     2   2   2   2   2   2   2   2
#     4  11  24  40  67  97 134 178 221 281 336 390
#     4  10  23  45  67  99 136 176 222 277 332 397
#     4  10  22  40  67  91 134 177 216 277 340 386
#     4  12  25  42  64 104 136 174 231 278 329 404
#     4  10  23  46  64  98 135 173 227 275 336 401
#     4  10  21  40  64  95 128 177 220 273 332 397
#     4  12  22  43  71  98 132 182 223 270 342 398
#     4  11  25  43  71  98 136 180 224 277 332 399
#
# _framework density 21.765388999999999
#
# number of rings (size 3 to 8) (size 9 to 14) (size 15 to 20)
#    0.000    1.250    2.500    3.375    0.000    6.000 
#    4.500    0.000    0.000    0.000    0.000    0.000 
#    0.000    0.000    0.000    0.000    0.000    0.000 
#
# Total GULP energy -198324.157997 kJ/mol
# GULP energy per Si atom -12395.259875 kJ/mol
# Density = 2.171585 g / cm^3
# Si number density = 21.765389 Si / 1000 Ang^3
#
#
#
# Elastic Constant Matrix: (Units=GPa)
#
#
# Indices 1 2 3 4 5 6 
#
# 1 96.7465 8.5709 -19.9461 -42.1457 -40.1669 -62.9581
# 2 8.5709 -345.8031-1149.3924 -692.1152 -653.0617 -928.6851
# 3 -19.9461-1149.3924-2882.7204-1761.6310-1641.8565-2365.2272
# 4 -42.1457 -692.1152-1761.6310 -991.4075 -951.4253-1384.2787
# 5 -40.1669 -653.0617-1641.8565 -951.4253 -845.1850-1292.9347
# 6 -62.9581 -928.6851-2365.2272-1384.2787-1292.9347-1828.4433
#
#
#
# Elastic Compliance Matrix: (Units=1/GPa)
#
#
# Indices 1 2 3 4 5 6 
#
# 1 0.013832 -0.002797 -0.004289 0.001019 0.000774 0.005174
# 2 -0.002797 0.009676 -0.001848 -0.001104 0.000926 -0.002247
# 3 -0.004289 -0.001848 0.008506 -0.002398 -0.002455 -0.006366
# 4 0.001019 -0.001104 -0.002398 0.022907 -0.008038 -0.008031
# 5 0.000774 0.000926 -0.002455 -0.008038 0.018660 -0.004430
# 6 0.005174 -0.002247 -0.006366 -0.008031 -0.004430 0.017865
#
#
# Mechanical properties :
#
#
# Convention : Reuss Voigt Hill
#
# Bulk Modulus (GPa) = 70.68677 -605.92357 -267.61840
# Shear Modulus (GPa) = 43.84814 -864.40779 -410.27983
#
# Velocity S-wave (km/s) = 4.49328 -19.95019 -13.74446
# Velocity P-wave (km/s) = 7.71146 28.45475 19.36758
#
# Compressibility (1/GPa) = 0.01414692
#
# Stress axis : x y z
#
# Youngs Moduli (GPa) = 72.29589 103.34419 117.55946
#
# Poissons Ratio (x) = 0.28906 0.50423
# Poissons Ratio (y) = 0.20222 0.21721
# Poissons Ratio (z) = 0.31009 0.19094
#
# Static dielectric constant tensor:
#      x y z
#    x 4.285890 0.037250 -0.497750 
#    y 0.037250 4.263490 -0.373170 
#    z -0.497750 -0.373170 4.425410 
# 
# 
# High freq. dielectric constant tensor:
#      x y z
#    x 1.857740 -0.007430 -0.015510 
#    y -0.007430 1.850080 -0.003830 
#    z -0.015510 -0.003830 1.859080 
# 
# From -- ./inp_files/239638.got.cif
#   From: 2010.06.25/outbox.cif.g09.slc.cpg/sg2_120_cif.got.tgz:239638.got - 2010.06.27 13:26:56.
