data_PCOD8012779
_publ_section_title
;
Structure prediction by ZEFSAII (Michael W. Deem and Ramdas Pophale) SiO2 
 PCOD8012779
Probable space group: P -1
;
_chemical_formula_sum "Si O2"
_cell_formula_units_Z 16
_cell_length_a 11.832231
_cell_length_b 8.663600
_cell_length_c 18.952736
_cell_angle_alpha 54.005395
_cell_angle_beta 37.735643
_cell_angle_gamma 35.217596
_cell_volume 676.261024
_symmetry_space_group_name_H-M "P -1"
_symmetry_group_IT_number 2
_symmetry_cell_setting 'triclinic'
loop_
_space_group_symop_operation_xyz
x,y,z
-x,-y,-z
loop_
_atom_site_type_symbol
_atom_site_label
_atom_site_fract_x
_atom_site_fract_y
_atom_site_fract_z
Si Si1 0.813142 0.237235 0.972084
Si Si2 0.916617 0.479510 0.354206
Si Si3 0.603920 0.446018 0.617731
Si Si4 0.398392 0.313035 0.223524
Si Si5 0.747350 0.219094 0.749061
Si Si6 0.729316 0.010287 0.275317
Si Si7 0.310640 0.318710 0.999709
Si Si8 0.890635 0.380081 0.234140
O O1 0.725062 0.517406 0.959200
O O2 0.972070 0.129844 0.848407
O O3 0.551729 0.295995 0.085073
O O4 0.000000 0.000000 0.000000
O O5 0.773838 0.409355 0.481401
O O6 0.746275 0.796362 0.364512
O O7 0.941806 0.422640 0.274854
O O8 0.206025 0.291318 0.295354
O O9 0.800396 0.206657 0.642410
O O10 0.415004 0.422896 0.684510
O O11 0.431310 0.729184 0.667201
O O12 0.231590 0.596650 0.270545
O O13 0.595662 0.074240 0.247320
O O14 0.445733 0.354844 0.864293
O O15 0.963819 0.930719 0.757151
O O16 0.022110 0.433922 0.098535
O O17 0.500000 0.000000 0.000000
#
# Coordination Sequence:
#
# PCOD8012779 Si02
#       8
#     2   2   2   2   2   2   2   2
#     4   9  17  37  63  94 125 156 207 261 320 373
#     4  12  24  39  61  93 123 166 212 251 309 372
#     4  11  25  41  61  88 125 172 209 249 310 372
#     4   9  21  39  64  91 123 160 204 262 311 366
#     4   9  21  42  62  89 121 159 205 257 314 371
#     4  10  21  40  63  92 123 159 210 261 310 366
#     4   9  18  38  64  91 127 160 208 259 321 379
#     4  11  23  41  60  88 126 165 205 256 310 375
#
# _framework density 23.659504999999999
#
# number of rings (size 3 to 8) (size 9 to 14) (size 15 to 20)
#    0.000    2.000    1.250    2.250    0.000    5.500 
#    6.750    0.000    0.000    0.000    0.000    0.000 
#    0.000    0.000    0.000    0.000    0.000    0.000 
#
# Total GULP energy -198265.907343 kJ/mol
# GULP energy per Si atom -12391.619209 kJ/mol
# Density = 2.360565 g / cm^3
# Si number density = 23.659505 Si / 1000 Ang^3
#
#
#
# Elastic Constant Matrix: (Units=GPa)
#
#
# Indices 1 2 3 4 5 6 
#
# 1 75.7209 -5.1790 18.7014 6.3026 -16.7271 -2.7071
# 2 -5.1790 44.3629 -6.0450 5.4534 0.6943 3.9626
# 3 18.7014 -6.0450 103.2890 -1.6302 -18.5702 5.5813
# 4 6.3026 5.4534 -1.6302 27.6811 -4.5829 3.7191
# 5 -16.7271 0.6943 -18.5702 -4.5829 38.5264 3.4281
# 6 -2.7071 3.9626 5.5813 3.7191 3.4281 11.7222
#
#
#
# Elastic Compliance Matrix: (Units=1/GPa)
#
#
# Indices 1 2 3 4 5 6 
#
# 1 0.015333 0.001543 -0.002068 -0.003611 0.004871 0.003725
# 2 0.001543 0.024093 0.001732 -0.003726 0.001323 -0.007818
# 3 -0.002068 0.001732 0.011783 0.003070 0.005951 -0.009388
# 4 -0.003611 -0.003726 0.003070 0.041037 0.006275 -0.015891
# 5 0.004871 0.001323 0.005951 0.006275 0.032887 -0.013764
# 6 0.003725 -0.007818 -0.009388 -0.015891 -0.013764 0.102348
#
#
# Mechanical properties :
#
#
# Convention : Reuss Voigt Hill
#
# Bulk Modulus (GPa) = 18.64886 26.48085 22.56485
# Shear Modulus (GPa) = 20.58118 29.97898 25.28008
#
# Velocity S-wave (km/s) = 2.95259 3.56350 3.27233
# Velocity P-wave (km/s) = 4.41849 5.30548 4.88217
#
# Compressibility (1/GPa) = 0.05362259
#
# Stress axis : x y z
#
# Youngs Moduli (GPa) = 65.22076 41.50556 84.86754
#
# Poissons Ratio (x) = -0.06404 0.17553
# Poissons Ratio (y) = -0.10064 -0.14700
# Poissons Ratio (z) = 0.13489 -0.07189
#
# Static dielectric constant tensor:
#      x y z
#    x 3.891200 -0.042950 -0.010000 
#    y -0.042950 4.394750 -0.251370 
#    z -0.010000 -0.251370 4.769460 
# 
# 
# High freq. dielectric constant tensor:
#      x y z
#    x 1.912020 0.004120 -0.002360 
#    y 0.004120 1.938420 -0.004530 
#    z -0.002360 -0.004530 1.942260 
# 
# From -- ./inp_files/272051.got.cif
#   From: 2010.06.25/outbox.cif.g09.slc.cpg/sg2_137_cif.got.tgz:272051.got - 2010.06.27 13:26:56.
