data_PCOD8012835
_publ_section_title
;
Structure prediction by ZEFSAII (Michael W. Deem and Ramdas Pophale) SiO2 
 PCOD8012835
Probable space group: P -1
;
_chemical_formula_sum "Si O2"
_cell_formula_units_Z 14
_cell_length_a 17.099894
_cell_length_b 16.711297
_cell_length_c 6.198698
_cell_angle_alpha 110.142213
_cell_angle_beta 106.135886
_cell_angle_gamma 20.848445
_cell_volume 586.734245
_symmetry_space_group_name_H-M "P -1"
_symmetry_group_IT_number 2
_symmetry_cell_setting 'triclinic'
loop_
_space_group_symop_operation_xyz
x,y,z
-x,-y,-z
loop_
_atom_site_type_symbol
_atom_site_label
_atom_site_fract_x
_atom_site_fract_y
_atom_site_fract_z
Si Si1 0.573548 0.676536 0.894515
Si Si2 0.824580 0.698080 0.865971
Si Si3 0.427765 0.509550 0.764403
Si Si4 0.079855 0.735021 0.948661
Si Si5 0.776753 0.888427 0.708289
Si Si6 0.491982 0.888214 0.705672
Si Si7 0.712541 0.197422 0.315690
O O1 0.818724 0.428439 0.948465
O O2 0.568728 0.718913 0.686878
O O3 0.467382 0.685786 0.836434
O O4 0.448281 0.867703 0.118102
O O5 0.913132 0.677395 0.729855
O O6 0.720889 0.717047 0.677014
O O7 0.000000 0.500000 0.000000
O O8 0.626590 0.944194 0.043917
O O9 0.646756 0.257316 0.577065
O O10 0.295069 0.696541 0.663258
O O11 0.500000 0.500000 0.000000
O O12 0.265315 0.595039 0.806636
O O13 0.952414 0.928318 0.180041
O O14 0.926698 0.827727 0.759979
O O15 0.692512 0.939610 0.460092
#
# Coordination Sequence:
#
# PCOD8012835 Si02
#       7
#     2   2   2   2   2   2   2
#     4  10  22  42  61  97 135 170 224 282 329 402
#     4  10  21  40  63  96 133 174 223 275 335 399
#     4  11  23  45  68  96 137 178 224 285 341 403
#     4  11  23  44  70  98 136 181 227 281 341 407
#     4  10  23  41  63  98 133 175 229 273 336 405
#     4  10  22  39  64  92 136 176 216 283 333 393
#     4  10  24  44  64 100 135 173 230 281 340 406
#
# _framework density 23.860885
#
# number of rings (size 3 to 8) (size 9 to 14) (size 15 to 20)
#    0.000    1.714    1.429    1.714    2.000    2.286 
#   10.286    0.000    0.000    0.000    0.000    0.000 
#    0.000    0.000    0.000    0.000    0.000    0.000 
#
# Total GULP energy -173444.911596 kJ/mol
# GULP energy per Si atom -12388.922257 kJ/mol
# Density = 2.380658 g / cm^3
# Si number density = 23.860885 Si / 1000 Ang^3
#
#
#
# Elastic Constant Matrix: (Units=GPa)
#
#
# Indices 1 2 3 4 5 6 
#
# 1 133.7957 47.4686 44.5625 -11.5834 -13.3615 6.2402
# 2 47.4686 91.3188 32.5047 -16.1705 -11.7282 7.1678
# 3 44.5625 32.5047 102.8661 -12.2990 -6.8989 -8.8460
# 4 -11.5834 -16.1705 -12.2990 42.7890 -3.8090 -3.0597
# 5 -13.3615 -11.7282 -6.8989 -3.8090 32.3376 -5.3172
# 6 6.2402 7.1678 -8.8460 -3.0597 -5.3172 36.1584
#
#
#
# Elastic Compliance Matrix: (Units=1/GPa)
#
#
# Indices 1 2 3 4 5 6 
#
# 1 0.010147 -0.003686 -0.003160 0.000520 0.002004 -0.001455
# 2 -0.003686 0.015165 -0.002648 0.004134 0.003546 -0.002146
# 3 -0.003160 -0.002648 0.012687 0.002248 0.001459 0.004579
# 4 0.000520 0.004134 0.002248 0.026427 0.005754 0.002723
# 5 0.002004 0.003546 0.001459 0.005754 0.034835 0.004918
# 6 -0.001455 -0.002146 0.004579 0.002723 0.004918 0.030406
#
#
# Mechanical properties :
#
#
# Convention : Reuss Voigt Hill
#
# Bulk Modulus (GPa) = 52.59661 64.11691 58.35676
# Shear Modulus (GPa) = 32.25954 35.81999 34.03977
#
# Velocity S-wave (km/s) = 3.68092 3.87874 3.78112
# Velocity P-wave (km/s) = 6.33691 6.85485 6.60096
#
# Compressibility (1/GPa) = 0.01901263
#
# Stress axis : x y z
#
# Youngs Moduli (GPa) = 98.54872 65.93993 78.82041
#
# Poissons Ratio (x) = 0.24308 0.24904
# Poissons Ratio (y) = 0.36329 0.20868
# Poissons Ratio (z) = 0.31137 0.17458
#
# Static dielectric constant tensor:
#      x y z
#    x 4.846460 0.209930 -0.165740 
#    y 0.209930 4.145040 0.085930 
#    z -0.165740 0.085930 4.199460 
# 
# 
# High freq. dielectric constant tensor:
#      x y z
#    x 1.958740 0.010800 0.006510 
#    y 0.010800 1.934310 0.002450 
#    z 0.006510 0.002450 1.939080 
# 
# From -- ./inp_files/8104.got.cif
#   From: 2010.06.25/outbox.cif.g09.slc.cpg/sg2_5_cif.got.tgz:8104.got - 2010.06.27 13:26:56.
