data_PCOD8012545
_publ_section_title
;
Structure prediction by ZEFSAII (Michael W. Deem and Ramdas Pophale) SiO2 
 PCOD8012545
Probable space group: P -1
;
_chemical_formula_sum "Si O2"
_cell_formula_units_Z 16
_cell_length_a 16.948284
_cell_length_b 11.169234
_cell_length_c 9.016378
_cell_angle_alpha 142.623356
_cell_angle_beta 98.995010
_cell_angle_gamma 59.572401
_cell_volume 788.500653
_symmetry_space_group_name_H-M "P -1"
_symmetry_group_IT_number 2
_symmetry_cell_setting 'triclinic'
loop_
_space_group_symop_operation_xyz
x,y,z
-x,-y,-z
loop_
_atom_site_type_symbol
_atom_site_label
_atom_site_fract_x
_atom_site_fract_y
_atom_site_fract_z
Si Si1 0.904582 0.490247 0.300697
Si Si2 0.613344 0.101565 0.386998
Si Si3 0.623040 0.483691 0.241065
Si Si4 0.238763 0.455264 0.167571
Si Si5 0.201650 0.654220 0.028134
Si Si6 0.262552 0.977329 0.366001
Si Si7 0.709716 0.243287 0.340831
Si Si8 0.116439 0.350511 0.219911
O O1 0.894913 0.279553 0.031924
O O2 0.900981 0.503564 0.489660
O O3 0.009151 0.423743 0.204976
O O4 0.801930 0.747393 0.454156
O O5 0.495868 0.269239 0.570272
O O6 0.689724 0.032820 0.475529
O O7 0.623710 0.256878 0.420383
O O8 0.650457 0.831829 0.067730
O O9 0.691628 0.538702 0.227157
O O10 0.654116 0.430454 0.369505
O O11 0.644863 0.234852 0.927815
O O12 0.243091 0.657353 0.448232
O O13 0.150884 0.452942 0.208442
O O14 0.209919 0.527161 0.059238
O O15 0.184086 0.915288 0.307593
O O16 0.801663 0.954256 0.031087
#
# Coordination Sequence:
#
# PCOD8012545 Si02
#       8
#     2   2   2   2   2   2   2   2
#     4  11  21  44  64  89 115 157 199 247 300 354
#     4  11  22  40  61  89 123 159 201 240 296 350
#     4  10  22  39  63  89 118 164 196 245 295 346
#     4  11  23  39  61  89 126 156 195 248 291 358
#     4  10  22  39  60  90 122 155 198 244 291 355
#     4  10  21  40  61  87 122 153 201 247 287 352
#     4  11  21  43  58  91 125 154 197 249 293 351
#     4  10  24  39  67  88 117 155 198 247 303 351
#
# _framework density 20.291675999999999
#
# number of rings (size 3 to 8) (size 9 to 14) (size 15 to 20)
#    0.750    0.750    3.750    1.500    0.000    2.500 
#    2.250    4.375    0.000    0.000    0.000    0.000 
#    0.000    0.000    0.000    0.000    0.000    0.000 
#
# Total GULP energy -198366.061494 kJ/mol
# GULP energy per Si atom -12397.878843 kJ/mol
# Density = 2.024549 g / cm^3
# Si number density = 20.291676 Si / 1000 Ang^3
#
#
#
# Elastic Constant Matrix: (Units=GPa)
#
#
# Indices 1 2 3 4 5 6 
#
# 1 83.2489 24.2794 15.6983 -13.9632 1.0846 5.3824
# 2 24.2794 68.4166 6.4232 -22.5868 -3.8207 5.3557
# 3 15.6983 6.4232 46.2212 -9.3725 4.7411 1.0697
# 4 -13.9632 -22.5868 -9.3725 26.7330 -2.1432 -6.5355
# 5 1.0846 -3.8207 4.7411 -2.1432 34.5514 -5.8482
# 6 5.3824 5.3557 1.0697 -6.5355 -5.8482 24.3813
#
#
#
# Elastic Compliance Matrix: (Units=1/GPa)
#
#
# Indices 1 2 3 4 5 6 
#
# 1 0.014366 -0.003808 -0.003749 0.002543 -0.000471 -0.001602
# 2 -0.003808 0.021702 0.001417 0.017529 0.003682 0.001593
# 3 -0.003749 0.001417 0.024538 0.007883 -0.002440 0.000968
# 4 0.002543 0.017529 0.007883 0.060007 0.006688 0.012932
# 5 -0.000471 0.003682 -0.002440 0.006688 0.031599 0.008774
# 6 -0.001602 0.001593 0.000968 0.012932 0.008774 0.046547
#
#
# Mechanical properties :
#
#
# Convention : Reuss Voigt Hill
#
# Bulk Modulus (GPa) = 20.69218 32.29874 26.49546
# Shear Modulus (GPa) = 22.01214 27.23219 24.62217
#
# Velocity S-wave (km/s) = 3.29718 3.66736 3.48719
# Velocity P-wave (km/s) = 4.97139 5.82104 5.41291
#
# Compressibility (1/GPa) = 0.04832743
#
# Stress axis : x y z
#
# Youngs Moduli (GPa) = 69.60975 46.07778 40.75340
#
# Poissons Ratio (x) = 0.17544 0.15279
# Poissons Ratio (y) = 0.26504 -0.05776
# Poissons Ratio (z) = 0.26097 -0.06530
#
# Static dielectric constant tensor:
#      x y z
#    x 3.643820 0.078620 0.065200 
#    y 0.078620 3.453390 -0.112180 
#    z 0.065200 -0.112180 3.788170 
# 
# 
# High freq. dielectric constant tensor:
#      x y z
#    x 1.790710 0.008010 0.006380 
#    y 0.008010 1.786890 -0.014210 
#    z 0.006380 -0.014210 1.796140 
# 
# From -- ./inp_files/308805.got.cif
#   From: 2010.06.25/outbox.cif.g09.slc.cpg/sg2_155_cif.got.tgz:308805.got - 2010.06.27 13:26:56.
