data_PCOD8012928
_publ_section_title
;
Structure prediction by ZEFSAII (Michael W. Deem and Ramdas Pophale) SiO2 
 PCOD8012928
Probable space group: P -1
;
_chemical_formula_sum "Si O2"
_cell_formula_units_Z 12
_cell_length_a 10.233716
_cell_length_b 11.707066
_cell_length_c 6.654544
_cell_angle_alpha 67.871439
_cell_angle_beta 42.218440
_cell_angle_gamma 65.638175
_cell_volume 484.711878
_symmetry_space_group_name_H-M "P -1"
_symmetry_group_IT_number 2
_symmetry_cell_setting 'triclinic'
loop_
_space_group_symop_operation_xyz
x,y,z
-x,-y,-z
loop_
_atom_site_type_symbol
_atom_site_label
_atom_site_fract_x
_atom_site_fract_y
_atom_site_fract_z
Si Si1 0.991810 0.815725 0.559297
Si Si2 0.647020 0.908146 0.595773
Si Si3 0.216626 0.005585 0.006212
Si Si4 0.644151 0.495610 0.154850
Si Si5 0.054024 0.524275 0.650789
Si Si6 0.438696 0.345101 0.237779
O O1 0.779974 0.849914 0.667710
O O2 0.072046 0.666863 0.582976
O O3 0.946570 0.879548 0.788064
O O4 0.158745 0.872833 0.215854
O O5 0.778907 0.975866 0.252283
O O6 0.572619 0.799026 0.626175
O O7 0.441487 0.001936 0.836199
O O8 0.500000 0.500000 0.500000
O O9 0.638465 0.374884 0.094408
O O10 0.864663 0.488786 0.006911
O O11 0.577874 0.618468 0.004453
O O12 0.000000 0.500000 0.500000
O O13 0.262912 0.430413 0.517892
#
# Coordination Sequence:
#
# PCOD8012928 Si02
#       6
#     2   2   2   2   2   2
#     4  11  22  44  64  88 129 156 212 252 306 363
#     4  11  22  43  66  87 128 159 211 252 305 362
#     4  10  26  40  64  94 116 172 208 252 297 363
#     4  10  22  39  58  94 123 159 204 240 312 369
#     4  10  21  40  64  92 125 161 194 257 315 361
#     4  10  23  39  64  92 126 161 194 258 316 358
#
# _framework density 24.756974
#
# number of rings (size 3 to 8) (size 9 to 14) (size 15 to 20)
#    0.000    1.667    3.333    1.000    9.333    0.667 
#    0.000    0.000    0.000    0.000    0.000    0.000 
#    0.000    0.000    0.000    0.000    0.000    0.000 
#
# Total GULP energy -148754.182300 kJ/mol
# GULP energy per Si atom -12396.181858 kJ/mol
# Density = 2.470063 g / cm^3
# Si number density = 24.756974 Si / 1000 Ang^3
#
#
#
# Elastic Constant Matrix: (Units=GPa)
#
#
# Indices 1 2 3 4 5 6 
#
# 1 36.2628 -5.5120 0.6944 -5.6814 -13.5274 2.2354
# 2 -5.5120 85.4636 44.8416 -4.2108 0.1581 12.7444
# 3 0.6944 44.8416 160.3532 -10.2632 -5.3358 8.8033
# 4 -5.6814 -4.2108 -10.2632 29.6890 5.1480 -8.5012
# 5 -13.5274 0.1581 -5.3358 5.1480 27.9863 -4.6497
# 6 2.2354 12.7444 8.8033 -8.5012 -4.6497 29.4820
#
#
#
# Elastic Compliance Matrix: (Units=1/GPa)
#
#
# Indices 1 2 3 4 5 6 
#
# 1 0.034533 0.002409 -0.000029 0.004201 0.015911 0.000070
# 2 0.002409 0.014690 -0.003849 -0.000284 -0.000522 -0.005548
# 3 -0.000029 -0.003849 0.007462 0.001880 0.001110 0.000155
# 4 0.004201 -0.000284 0.001880 0.038444 -0.003045 0.009848
# 5 0.015911 -0.000522 0.001110 -0.003045 0.045013 0.004909
# 6 0.000070 -0.005548 0.000155 0.009848 0.004909 0.039879
#
#
# Mechanical properties :
#
#
# Convention : Reuss Voigt Hill
#
# Bulk Modulus (GPa) = 18.60570 40.23641 29.42106
# Shear Modulus (GPa) = 24.89119 33.56848 29.22984
#
# Velocity S-wave (km/s) = 3.17428 3.68628 3.43982
# Velocity P-wave (km/s) = 4.57891 5.86566 5.26177
#
# Compressibility (1/GPa) = 0.05374698
#
# Stress axis : x y z
#
# Youngs Moduli (GPa) = 28.95805 68.07216 134.02011
#
# Poissons Ratio (x) = -0.16402 0.00386
# Poissons Ratio (y) = -0.06977 0.51590
# Poissons Ratio (z) = 0.00083 0.26204
#
# Static dielectric constant tensor:
#      x y z
#    x 4.643580 0.148320 -0.599010 
#    y 0.148320 4.231750 0.030000 
#    z -0.599010 0.030000 5.173790 
# 
# 
# High freq. dielectric constant tensor:
#      x y z
#    x 1.972190 0.011250 -0.014480 
#    y 0.011250 1.964570 0.001040 
#    z -0.014480 0.001040 2.010390 
# 
# From -- ./inp_files/246159.got.cif
#   From: 2010.06.25/outbox.cif.g09.slc.cpg/sg2_124_cif.got.tgz:246159.got - 2010.06.27 13:26:56.
