data_PCOD8012162
_publ_section_title
;
Structure prediction by ZEFSAII (Michael W. Deem and Ramdas Pophale) SiO2 
 PCOD8012162
Probable space group: P -1
;
_chemical_formula_sum "Si O2"
_cell_formula_units_Z 16
_cell_length_a 8.344358
_cell_length_b 8.564320
_cell_length_c 11.551378
_cell_angle_alpha 82.767937
_cell_angle_beta 82.414120
_cell_angle_gamma 65.306502
_cell_volume 741.156060
_symmetry_space_group_name_H-M "P -1"
_symmetry_group_IT_number 2
_symmetry_cell_setting 'triclinic'
loop_
_space_group_symop_operation_xyz
x,y,z
-x,-y,-z
loop_
_atom_site_type_symbol
_atom_site_label
_atom_site_fract_x
_atom_site_fract_y
_atom_site_fract_z
Si Si1 0.935135 0.751728 0.443191
Si Si2 0.434936 0.572697 0.626200
Si Si3 0.564496 0.042547 0.815965
Si Si4 0.085689 0.587392 0.110703
Si Si5 0.069598 0.555692 0.664256
Si Si6 0.255328 0.719676 0.270723
Si Si7 0.268425 0.261092 0.994531
Si Si8 0.402029 0.951630 0.615770
O O1 0.868616 0.619963 0.398952
O O2 0.936298 0.716378 0.584403
O O3 0.132623 0.724291 0.391076
O O4 0.806337 0.942912 0.398834
O O5 0.500000 0.500000 0.500000
O O6 0.241052 0.588519 0.675789
O O7 0.563388 0.447339 0.720541
O O8 0.447580 0.752418 0.624883
O O9 0.706844 0.109544 0.746331
O O10 0.676418 0.873581 0.893655
O O11 0.457570 0.998239 0.729654
O O12 0.423684 0.196920 0.891113
O O13 0.162555 0.705159 0.161374
O O14 0.235194 0.453370 0.024584
O O15 0.028904 0.463297 0.209789
O O16 0.917349 0.722804 0.044807
O O17 0.500000 0.000000 0.500000
#
# Coordination Sequence:
#
# PCOD8012162 Si02
#       8
#     2   2   2   2   2   2   2   2
#     4  10  22  39  64  97 132 175 205 266 322 394
#     4  12  23  41  61  94 133 176 212 262 327 396
#     4  11  24  44  65  96 131 173 214 277 324 383
#     4  10  22  41  66  98 122 176 222 269 320 384
#     4  10  21  39  67  91 137 169 217 260 326 385
#     4  11  22  40  69  96 135 170 218 267 330 391
#     4  10  23  44  67  88 132 173 223 270 325 373
#     4  12  27  41  65  97 135 172 218 265 330 394
#
# _framework density 21.587896000000001
#
# number of rings (size 3 to 8) (size 9 to 14) (size 15 to 20)
#    0.000    1.250    1.250    5.250    5.250    2.500 
#    0.000    5.000    0.000    0.000    0.000    0.000 
#    0.000    0.000    0.000    0.000    0.000    0.000 
#
# Total GULP energy -198441.296290 kJ/mol
# GULP energy per Si atom -12402.581018 kJ/mol
# Density = 2.153876 g / cm^3
# Si number density = 21.587896 Si / 1000 Ang^3
#
#
#
# Elastic Constant Matrix: (Units=GPa)
#
#
# Indices 1 2 3 4 5 6 
#
# 1 97.5161 32.3983 30.8803 -7.8104 8.2575 7.3531
# 2 32.3983 77.1625 32.2988 -11.5672 7.6813 -5.7650
# 3 30.8803 32.2988 94.4901 -13.3881 13.9316 -12.9079
# 4 -7.8104 -11.5672 -13.3881 32.3185 -6.1386 2.9722
# 5 8.2575 7.6813 13.9316 -6.1386 29.7131 -13.3433
# 6 7.3531 -5.7650 -12.9079 2.9722 -13.3433 32.1301
#
#
#
# Elastic Compliance Matrix: (Units=1/GPa)
#
#
# Indices 1 2 3 4 5 6 
#
# 1 0.013664 -0.004449 -0.003250 0.000205 -0.004227 -0.007005
# 2 -0.004449 0.016984 -0.003589 0.003352 0.000320 0.002446
# 3 -0.003250 -0.003589 0.014248 0.002998 -0.002138 0.004658
# 4 0.000205 0.003352 0.002998 0.034334 0.005074 0.000690
# 5 -0.004227 0.000320 -0.002138 0.005074 0.045066 0.018412
# 6 -0.007005 0.002446 0.004658 0.000690 0.018412 0.042620
#
#
# Mechanical properties :
#
#
# Convention : Reuss Voigt Hill
#
# Bulk Modulus (GPa) = 44.80162 51.14705 47.97434
# Shear Modulus (GPa) = 25.38941 30.40506 27.89724
#
# Velocity S-wave (km/s) = 3.43314 3.75698 3.59871
# Velocity P-wave (km/s) = 6.04264 6.52409 6.28797
#
# Compressibility (1/GPa) = 0.02232062
#
# Stress axis : x y z
#
# Youngs Moduli (GPa) = 73.18242 58.88046 70.18284
#
# Poissons Ratio (x) = 0.26195 0.22807
# Poissons Ratio (y) = 0.32558 0.25192
# Poissons Ratio (z) = 0.23781 0.21135
#
# Static dielectric constant tensor:
#      x y z
#    x 3.908310 -0.219790 0.185050 
#    y -0.219790 3.913990 -0.064590 
#    z 0.185050 -0.064590 4.002770 
# 
# 
# High freq. dielectric constant tensor:
#      x y z
#    x 1.848700 -0.010860 0.013150 
#    y -0.010860 1.845240 -0.006280 
#    z 0.013150 -0.006280 1.854420 
# 
# From -- ./inp_files/215981.got.cif
#   From: 2010.06.25/outbox.cif.g09.slc.cpg/sg2_108_cif.got.tgz:215981.got - 2010.06.27 13:26:56.
