data_PCOD8012240
_publ_section_title
;
Structure prediction by ZEFSAII (Michael W. Deem and Ramdas Pophale) SiO2 
 PCOD8012240
Probable space group: P -1
;
_chemical_formula_sum "Si O2"
_cell_formula_units_Z 16
_cell_length_a 14.308891
_cell_length_b 11.874423
_cell_length_c 8.721816
_cell_angle_alpha 114.143855
_cell_angle_beta 33.930081
_cell_angle_gamma 104.158863
_cell_volume 741.640094
_symmetry_space_group_name_H-M "P -1"
_symmetry_group_IT_number 2
_symmetry_cell_setting 'triclinic'
loop_
_space_group_symop_operation_xyz
x,y,z
-x,-y,-z
loop_
_atom_site_type_symbol
_atom_site_label
_atom_site_fract_x
_atom_site_fract_y
_atom_site_fract_z
Si Si1 0.863128 0.713696 0.342262
Si Si2 0.316001 0.464803 0.343383
Si Si3 0.329329 0.541302 0.041492
Si Si4 0.294390 0.322015 0.784524
Si Si5 0.173627 0.745942 0.748097
Si Si6 0.007829 0.742735 0.663505
Si Si7 0.588018 0.096135 0.342380
Si Si8 0.856125 0.925832 0.703895
O O1 0.841993 0.593412 0.408282
O O2 0.749866 0.704115 0.343096
O O3 0.802229 0.838141 0.595214
O O4 0.055735 0.715836 0.032493
O O5 0.318137 0.446149 0.146647
O O6 0.295720 0.614190 0.476222
O O7 0.496685 0.401630 0.140894
O O8 0.163459 0.651039 0.316652
O O9 0.345653 0.458589 0.816652
O O10 0.451350 0.213339 0.543342
O O11 0.137452 0.329945 0.120493
O O12 0.073140 0.800275 0.761747
O O13 0.273825 0.854979 0.713518
O O14 0.925098 0.850645 0.720956
O O15 0.500000 0.000000 0.500000
O O16 0.683716 0.024524 0.026659
O O17 0.000000 0.000000 0.500000
#
# Coordination Sequence:
#
# PCOD8012240 Si02
#       8
#     2   2   2   2   2   2   2   2
#     4  11  25  41  67  97 137 177 221 282 340 394
#     4  10  21  39  68 101 137 171 218 281 343 396
#     4  10  21  39  68  99 136 170 225 278 334 403
#     4  11  23  43  66 101 133 177 229 270 334 409
#     4  10  22  44  67 100 133 176 226 276 336 407
#     4  10  23  41  69  97 130 179 224 275 334 402
#     4  12  25  44  73  94 134 184 226 278 327 405
#     4  12  26  45  66  97 138 177 226 280 332 394
#
# _framework density 21.573808
#
# number of rings (size 3 to 8) (size 9 to 14) (size 15 to 20)
#    0.000    1.250    3.750    1.500    0.000    6.500 
#    0.000    0.000    0.000    0.000    0.000    0.000 
#    0.000    0.000    0.000    0.000    0.000    0.000 
#
# Total GULP energy -198349.938698 kJ/mol
# GULP energy per Si atom -12396.871169 kJ/mol
# Density = 2.152470 g / cm^3
# Si number density = 21.573808 Si / 1000 Ang^3
#
#
#
# Elastic Constant Matrix: (Units=GPa)
#
#
# Indices 1 2 3 4 5 6 
#
# 1 100.5479 29.0316 28.2757 0.8486 9.3360 25.8932
# 2 29.0316 75.2922 21.2520 -12.4451 12.5726 21.8846
# 3 28.2757 21.2520 109.4053 6.3591 3.0626 11.9357
# 4 0.8486 -12.4451 6.3591 45.9085 0.3002 1.2571
# 5 9.3360 12.5726 3.0626 0.3002 33.9501 5.5915
# 6 25.8932 21.8846 11.9357 1.2571 5.5915 32.6905
#
#
#
# Elastic Compliance Matrix: (Units=1/GPa)
#
#
# Indices 1 2 3 4 5 6 
#
# 1 0.013365 -0.001967 -0.002119 -0.000252 -0.001395 -0.008247
# 2 -0.001967 0.019394 -0.002382 0.005928 -0.004839 -0.009956
# 3 -0.002119 -0.002382 0.010307 -0.002024 0.000639 -0.000522
# 4 -0.000252 0.005928 -0.002024 0.023785 -0.001548 -0.003680
# 5 -0.001395 -0.004839 0.000639 -0.001548 0.031795 -0.001268
# 6 -0.008247 -0.009956 -0.000522 -0.003680 -0.001268 0.044336
#
#
# Mechanical properties :
#
#
# Convention : Reuss Voigt Hill
#
# Bulk Modulus (GPa) = 33.18786 49.15157 41.16971
# Shear Modulus (GPa) = 30.12748 36.28889 33.20819
#
# Velocity S-wave (km/s) = 3.74101 4.10577 3.92763
# Velocity P-wave (km/s) = 5.83755 6.73119 6.30023
#
# Compressibility (1/GPa) = 0.03013150
#
# Stress axis : x y z
#
# Youngs Moduli (GPa) = 74.82411 51.56240 97.01863
#
# Poissons Ratio (x) = 0.10141 0.20555
# Poissons Ratio (y) = 0.14716 0.23109
# Poissons Ratio (z) = 0.15852 0.12282
#
# Static dielectric constant tensor:
#      x y z
#    x 4.031180 0.111170 0.080240 
#    y 0.111170 3.594760 -0.186840 
#    z 0.080240 -0.186840 4.075490 
# 
# 
# High freq. dielectric constant tensor:
#      x y z
#    x 1.853180 0.015970 0.002590 
#    y 0.015970 1.831000 -0.003730 
#    z 0.002590 -0.003730 1.862170 
# 
# From -- ./inp_files/176731.got.cif
#   From: 2010.06.25/outbox.cif.g09.slc.cpg/sg2_89_cif.got.tgz:176731.got - 2010.06.27 13:26:56.
