data_PCOD8012661
_publ_section_title
;
Structure prediction by ZEFSAII (Michael W. Deem and Ramdas Pophale) SiO2 
 PCOD8012661
Probable space group: P -1
;
_chemical_formula_sum "Si O2"
_cell_formula_units_Z 16
_cell_length_a 16.755599
_cell_length_b 11.047031
_cell_length_c 14.021991
_cell_angle_alpha 32.893846
_cell_angle_beta 44.176579
_cell_angle_gamma 65.933095
_cell_volume 842.774205
_symmetry_space_group_name_H-M "P -1"
_symmetry_group_IT_number 2
_symmetry_cell_setting 'triclinic'
loop_
_space_group_symop_operation_xyz
x,y,z
-x,-y,-z
loop_
_atom_site_type_symbol
_atom_site_label
_atom_site_fract_x
_atom_site_fract_y
_atom_site_fract_z
Si Si1 0.978847 0.532085 0.141570
Si Si2 0.149916 0.943195 0.580521
Si Si3 0.010668 0.854914 0.495128
Si Si4 0.296174 0.587491 0.505559
Si Si5 0.484954 0.442730 0.346990
Si Si6 0.695032 0.956688 0.920143
Si Si7 0.492379 0.106759 0.718716
Si Si8 0.538656 0.655967 0.960508
O O1 0.906748 0.272231 0.310815
O O2 0.030965 0.442946 0.247453
O O3 0.863256 0.597912 0.219106
O O4 0.106818 0.783418 0.822227
O O5 0.306272 0.125887 0.316245
O O6 0.087172 0.129813 0.508180
O O7 0.157567 0.995300 0.230925
O O8 0.000000 0.000000 0.500000
O O9 0.349930 0.423057 0.514388
O O10 0.372293 0.701758 0.465291
O O11 0.319626 0.817391 0.263594
O O12 0.499844 0.214931 0.533739
O O13 0.614054 0.713069 0.083321
O O14 0.490460 0.440374 0.228638
O O15 0.632118 0.900704 0.116474
O O16 0.462570 0.814832 0.930185
O O17 0.500000 0.500000 0.000000
#
# Coordination Sequence:
#
# PCOD8012661 Si02
#       8
#     2   2   2   2   2   2   2   2
#     4   9  18  31  54  86 115 140 169 226 287 348
#     4  10  20  34  53  79 114 146 178 225 280 334
#     4   9  18  29  49  83 117 144 171 212 281 350
#     4  10  16  33  57  88 123 141 172 228 302 341
#     4  11  21  33  57  86 114 147 186 237 282 339
#     4  10  17  32  58  89 124 145 170 233 299 346
#     4  11  21  34  56  87 114 148 188 232 286 337
#     4  12  25  43  57  75 113 158 200 236 267 324
#
# _framework density 18.984919999999999
#
# number of rings (size 3 to 8) (size 9 to 14) (size 15 to 20)
#    0.000    1.750    3.750    3.750    3.500    2.500 
#    0.000    0.000    0.000    1.500    0.000    0.000 
#    0.000    0.000    0.000    0.000    0.000    0.000 
#
# Total GULP energy -198302.791113 kJ/mol
# GULP energy per Si atom -12393.924445 kJ/mol
# Density = 1.894171 g / cm^3
# Si number density = 18.984920 Si / 1000 Ang^3
#
#
#
# Elastic Constant Matrix: (Units=GPa)
#
#
# Indices 1 2 3 4 5 6 
#
# 1 73.4930 33.7220 12.6636 7.9144 11.1366 -9.9777
# 2 33.7220 64.9144 12.4762 14.3239 -7.9781 -1.7462
# 3 12.6636 12.4762 6.8082 20.9360 -17.8557 -17.4622
# 4 7.9144 14.3239 20.9360 20.6082 3.8318 -2.0881
# 5 11.1366 -7.9781 -17.8557 3.8318 -2.5436 -2.7147
# 6 -9.9777 -1.7462 -17.4622 -2.0881 -2.7147 27.6940
#
#
#
# Elastic Compliance Matrix: (Units=1/GPa)
#
#
# Indices 1 2 3 4 5 6 
#
# 1 0.023367 -0.014596 0.018381 -0.012594 -0.017450 0.016429
# 2 -0.014596 0.028513 -0.021706 0.002737 0.019229 -0.015056
# 3 0.018381 -0.021706 0.027494 -0.005487 -0.069144 0.015398
# 4 -0.012594 0.002737 -0.005487 0.048317 0.047113 0.000437
# 5 -0.017450 0.019229 -0.069144 0.047113 0.067583 -0.038495
# 6 0.016429 -0.015056 0.015398 0.000437 -0.038495 0.047047
#
#
# Mechanical properties :
#
#
# Convention : Reuss Voigt Hill
#
# Bulk Modulus (GPa) = 22.97070 29.21548 26.09309
# Shear Modulus (GPa) = 17.08389 14.90862 15.99625
#
# Velocity S-wave (km/s) = 3.00303 2.80534 2.90587
# Velocity P-wave (km/s) = 4.91426 5.09072 5.00327
#
# Compressibility (1/GPa) = 0.04353372
#
# Stress axis : x y z
#
# Youngs Moduli (GPa) = 42.79462 35.07164 36.37179
#
# Poissons Ratio (x) = 0.51189 -0.66856
# Poissons Ratio (y) = 0.62461 0.78948
# Poissons Ratio (z) = -0.78661 0.76126
#
# Static dielectric constant tensor:
#      x y z
#    x 3.505640 -0.282570 0.468570 
#    y -0.282570 3.442430 0.271360 
#    z 0.468570 0.271360 3.353990 
# 
# 
# High freq. dielectric constant tensor:
#      x y z
#    x 1.726760 -0.037190 0.036670 
#    y -0.037190 1.717410 0.036310 
#    z 0.036670 0.036310 1.721660 
# 
# From -- ./inp_files/425615.got.cif
#   From: 2010.06.25/outbox.cif.g09.slc.cpg/sg2_213_cif.got.tgz:425615.got - 2010.06.27 13:26:56.
