data_PCOD8012202
_publ_section_title
;
Structure prediction by ZEFSAII (Michael W. Deem and Ramdas Pophale) SiO2 
 PCOD8012202
Probable space group: P -1
;
_chemical_formula_sum "Si O2"
_cell_formula_units_Z 14
_cell_length_a 12.493117
_cell_length_b 17.925450
_cell_length_c 8.338662
_cell_angle_alpha 109.375177
_cell_angle_beta 87.697606
_cell_angle_gamma 30.635316
_cell_volume 660.370333
_symmetry_space_group_name_H-M "P -1"
_symmetry_group_IT_number 2
_symmetry_cell_setting 'triclinic'
loop_
_space_group_symop_operation_xyz
x,y,z
-x,-y,-z
loop_
_atom_site_type_symbol
_atom_site_label
_atom_site_fract_x
_atom_site_fract_y
_atom_site_fract_z
Si Si1 0.229610 0.002339 0.687592
Si Si2 0.857034 0.548881 0.351235
Si Si3 0.310261 0.657985 0.479437
Si Si4 0.809000 0.536046 0.691852
Si Si5 0.503268 0.675319 0.293597
Si Si6 0.190930 0.607320 0.204302
Si Si7 0.859406 0.011902 0.990368
O O1 0.056959 0.192356 0.755689
O O2 0.556078 0.803436 0.568342
O O3 0.246821 0.915906 0.497668
O O4 0.076202 0.083031 0.920723
O O5 0.946048 0.449077 0.444952
O O6 0.806032 0.511694 0.203458
O O7 0.101015 0.444233 0.205852
O O8 0.500000 0.500000 0.500000
O O9 0.433623 0.656947 0.415148
O O10 0.323040 0.588623 0.282558
O O11 0.991552 0.882152 0.730418
O O12 0.940021 0.370468 0.656810
O O13 0.473375 0.752713 0.855749
O O14 0.544003 0.611351 0.068923
O O15 0.000000 0.000000 0.000000
#
# Coordination Sequence:
#
# PCOD8012202 Si02
#       7
#     2   2   2   2   2   2   2
#     4   9  22  42  62  95 123 172 204 263 319 374
#     4   8  19  44  67  86 126 172 215 256 317 373
#     4  12  24  40  65  95 128 166 215 266 315 381
#     4  10  21  39  67  96 122 170 217 261 312 379
#     4  10  22  43  62  88 136 166 203 265 321 375
#     4  12  25  37  64  99 130 162 212 261 326 382
#     4  11  20  40  67  89 128 169 217 256 313 373
#
# _framework density 21.200225
#
# number of rings (size 3 to 8) (size 9 to 14) (size 15 to 20)
#    0.857    0.857    1.429    3.000    2.000    2.857 
#    0.000    1.429    0.000    6.000    0.000    0.000 
#    0.000    0.000    0.000    0.000    0.000    0.000 
#
# Total GULP energy -173499.586917 kJ/mol
# GULP energy per Si atom -12392.827637 kJ/mol
# Density = 2.115197 g / cm^3
# Si number density = 21.200225 Si / 1000 Ang^3
#
#
#
# Elastic Constant Matrix: (Units=GPa)
#
#
# Indices 1 2 3 4 5 6 
#
# 1 143.5686 50.6456 39.9154 1.7220 -12.9166 1.5903
# 2 50.6456 95.3622 17.4330 -9.3331 -10.5170 20.6476
# 3 39.9154 17.4330 75.0945 -7.5241 14.1993 -8.8414
# 4 1.7220 -9.3331 -7.5241 18.1314 -7.0223 3.1765
# 5 -12.9166 -10.5170 14.1993 -7.0223 33.9447 -3.1710
# 6 1.5903 20.6476 -8.8414 3.1765 -3.1710 40.4833
#
#
#
# Elastic Compliance Matrix: (Units=1/GPa)
#
#
# Indices 1 2 3 4 5 6 
#
# 1 0.010674 -0.005010 -0.005545 -0.004616 0.004024 0.001602
# 2 -0.005010 0.017695 -0.002533 0.012721 0.006344 -0.009882
# 3 -0.005545 -0.002533 0.019587 0.002598 -0.010103 0.004792
# 4 -0.004616 0.012721 0.002598 0.070717 0.014781 -0.010130
# 5 0.004024 0.006344 -0.010103 0.014781 0.039901 -0.003635
# 6 0.001602 -0.009882 0.004792 -0.010130 -0.003635 0.031236
#
#
# Mechanical properties :
#
#
# Convention : Reuss Voigt Hill
#
# Bulk Modulus (GPa) = 45.91655 58.89036 52.40345
# Shear Modulus (GPa) = 22.39682 32.24731 27.32206
#
# Velocity S-wave (km/s) = 3.25382 3.90434 3.59383
# Velocity P-wave (km/s) = 5.98515 6.94000 6.48019
#
# Compressibility (1/GPa) = 0.02177864
#
# Stress axis : x y z
#
# Youngs Moduli (GPa) = 93.68562 56.51450 51.05419
#
# Poissons Ratio (x) = 0.28314 0.28311
# Poissons Ratio (y) = 0.46937 0.12933
# Poissons Ratio (z) = 0.51951 0.14316
#
# Static dielectric constant tensor:
#      x y z
#    x 4.861450 -1.173360 -0.009760 
#    y -1.173360 5.387690 -0.210570 
#    z -0.009760 -0.210570 4.106880 
# 
# 
# High freq. dielectric constant tensor:
#      x y z
#    x 1.832440 0.005240 -0.004660 
#    y 0.005240 1.829650 -0.015560 
#    z -0.004660 -0.015560 1.813190 
# 
# From -- ./inp_files/278124.got.cif
#   From: 2010.06.25/outbox.cif.g09.slc.cpg/sg2_140_cif.got.tgz:278124.got - 2010.06.27 13:26:56.
