data_PCOD8012431
_publ_section_title
;
Structure prediction by ZEFSAII (Michael W. Deem and Ramdas Pophale) SiO2 
 PCOD8012431
Probable space group: P -1
;
_chemical_formula_sum "Si O2"
_cell_formula_units_Z 12
_cell_length_a 18.680136
_cell_length_b 5.176106
_cell_length_c 18.506074
_cell_angle_alpha 116.675880
_cell_angle_beta 158.031416
_cell_angle_gamma 72.229417
_cell_volume 564.119197
_symmetry_space_group_name_H-M "P -1"
_symmetry_group_IT_number 2
_symmetry_cell_setting 'triclinic'
loop_
_space_group_symop_operation_xyz
x,y,z
-x,-y,-z
loop_
_atom_site_type_symbol
_atom_site_label
_atom_site_fract_x
_atom_site_fract_y
_atom_site_fract_z
Si Si1 0.267945 0.185803 0.996821
Si Si2 0.805232 0.087719 0.346618
Si Si3 0.620361 0.231911 0.051139
Si Si4 0.408518 0.568793 0.311079
Si Si5 0.235628 0.107297 0.217608
Si Si6 0.089697 0.517229 0.764626
O O1 0.414961 0.379593 0.221015
O O2 0.133589 0.375725 0.862146
O O3 0.399681 0.098574 0.046211
O O4 0.108575 0.870368 0.840863
O O5 0.746494 0.263263 0.247047
O O6 0.867480 0.325565 0.502076
O O7 0.000000 0.000000 0.500000
O O8 0.612639 0.785861 0.152476
O O9 0.742258 0.495234 0.141635
O O10 0.275745 0.344834 0.219422
O O11 0.639213 0.726382 0.573618
O O12 0.304939 0.820459 0.225800
O O13 0.000000 0.000000 0.000000
#
# Coordination Sequence:
#
# PCOD8012431 Si02
#       6
#     2   2   2   2   2   2
#     4  10  21  42  56  88 125 153 191 251 300 338
#     4  11  19  41  61  83 114 163 202 250 293 351
#     4   9  23  37  59  85 116 152 205 250 289 351
#     4  10  21  40  63  88 127 152 192 250 282 352
#     4  10  21  40  67  91 117 159 198 229 294 356
#     4  10  21  40  58  83 121 153 200 244 300 346
#
# _framework density 21.272100999999999
#
# number of rings (size 3 to 8) (size 9 to 14) (size 15 to 20)
#    1.000    1.000    1.667    2.000    0.000    0.667 
#   12.000    0.000    0.000    0.000    0.000    0.000 
#    0.000    0.000    0.000    0.000    0.000    0.000 
#
# Total GULP energy -148737.513507 kJ/mol
# GULP energy per Si atom -12394.792792 kJ/mol
# Density = 2.122368 g / cm^3
# Si number density = 21.272101 Si / 1000 Ang^3
#
#
#
# Elastic Constant Matrix: (Units=GPa)
#
#
# Indices 1 2 3 4 5 6 
#
# 1 40.0892 0.6642 40.3587 -5.1184 -18.5822 0.1562
# 2 0.6642 71.9838 31.0886 -3.1688 0.6918 21.1779
# 3 40.3587 31.0886 155.5911 -2.3394 -3.7578 -1.3413
# 4 -5.1184 -3.1688 -2.3394 27.1947 2.4632 -0.9174
# 5 -18.5822 0.6918 -3.7578 2.4632 41.6126 6.0716
# 6 0.1562 21.1779 -1.3413 -0.9174 6.0716 25.4912
#
#
#
# Elastic Compliance Matrix: (Units=1/GPa)
#
#
# Indices 1 2 3 4 5 6 
#
# 1 0.051559 0.010512 -0.014937 0.007024 0.023292 -0.015130
# 2 0.010512 0.023291 -0.007363 0.002745 0.006583 -0.021271
# 3 -0.014937 -0.007363 0.011658 -0.001787 -0.006605 0.008331
# 4 0.007024 0.002745 -0.001787 0.038141 0.000854 -0.001248
# 5 0.023292 0.006583 -0.006605 0.000854 0.035785 -0.014452
# 6 -0.015130 -0.021271 0.008331 -0.001248 -0.014452 0.060829
#
#
# Mechanical properties :
#
#
# Convention : Reuss Voigt Hill
#
# Bulk Modulus (GPa) = 15.89024 45.76520 30.82772
# Shear Modulus (GPa) = 18.80998 31.89653 25.35325
#
# Velocity S-wave (km/s) = 2.97687 3.87648 3.45607
# Velocity P-wave (km/s) = 4.39339 6.44957 5.51810
#
# Compressibility (1/GPa) = 0.06293172
#
# Stress axis : x y z
#
# Youngs Moduli (GPa) = 19.39513 42.93563 85.77639
#
# Poissons Ratio (x) = -0.45133 1.28121
# Poissons Ratio (y) = -0.20388 0.63161
# Poissons Ratio (z) = 0.28970 0.31615
#
# Static dielectric constant tensor:
#      x y z
#    x 3.533270 0.076960 -0.289470 
#    y 0.076960 3.858610 0.372740 
#    z -0.289470 0.372740 4.515140 
# 
# 
# High freq. dielectric constant tensor:
#      x y z
#    x 1.806420 0.012100 -0.019530 
#    y 0.012100 1.841890 0.015860 
#    z -0.019530 0.015860 1.839030 
# 
# From -- ./inp_files/600446.got.cif
#   From: 2010.06.25/outbox.cif.g09.slc.cpg/sg2_301_cif.got.tgz:600446.got - 2010.06.27 13:26:56.
