data_PCOD8012558
_publ_section_title
;
Structure prediction by ZEFSAII (Michael W. Deem and Ramdas Pophale) SiO2 
 PCOD8012558
Probable space group: P -1
;
_chemical_formula_sum "Si O2"
_cell_formula_units_Z 14
_cell_length_a 10.991204
_cell_length_b 14.145377
_cell_length_c 11.469136
_cell_angle_alpha 124.004121
_cell_angle_beta 65.671020
_cell_angle_gamma 149.639895
_cell_volume 736.471427
_symmetry_space_group_name_H-M "P -1"
_symmetry_group_IT_number 2
_symmetry_cell_setting 'triclinic'
loop_
_space_group_symop_operation_xyz
x,y,z
-x,-y,-z
loop_
_atom_site_type_symbol
_atom_site_label
_atom_site_fract_x
_atom_site_fract_y
_atom_site_fract_z
Si Si1 0.254449 0.136445 0.541351
Si Si2 0.522290 0.148391 0.279199
Si Si3 0.410654 0.431709 0.354820
Si Si4 0.577915 0.310377 0.148013
Si Si5 0.445108 0.839720 0.179731
Si Si6 0.133322 0.891472 0.625956
Si Si7 0.008355 0.587508 0.323185
O O1 0.377460 0.134470 0.404873
O O2 0.425989 0.368347 0.649907
O O3 0.223985 0.059443 0.626206
O O4 0.000000 0.000000 0.500000
O O5 0.454408 0.126967 0.155673
O O6 0.818771 0.378456 0.334159
O O7 0.441481 0.964637 0.216822
O O8 0.500000 0.500000 0.500000
O O9 0.421764 0.313676 0.216374
O O10 0.138509 0.280942 0.343966
O O11 0.851507 0.533399 0.242507
O O12 0.590534 0.275730 0.988340
O O13 0.220561 0.660876 0.234698
O O14 0.699256 0.995865 0.249074
O O15 0.147316 0.782443 0.476692
#
# Coordination Sequence:
#
# PCOD8012558 Si02
#       7
#     2   2   2   2   2   2   2
#     4  12  21  37  67  93 115 160 215 253 292 363
#     4  10  22  38  66  90 120 161 208 244 301 364
#     4  12  20  43  64  90 119 158 214 254 293 354
#     4  10  22  43  64  89 122 166 203 252 298 364
#     4  12  25  40  60  95 133 156 197 251 318 363
#     4  12  24  39  64  96 122 160 202 260 304 354
#     4  10  21  40  61  89 124 161 203 239 299 366
#
# _framework density 19.009563
#
# number of rings (size 3 to 8) (size 9 to 14) (size 15 to 20)
#    0.857    0.000    7.143    1.286    0.000    2.286 
#    0.000    0.714    0.000    0.000    0.000    0.000 
#    0.000    0.000    0.000    0.000    0.000    0.000 
#
# Total GULP energy -173580.800426 kJ/mol
# GULP energy per Si atom -12398.628602 kJ/mol
# Density = 1.896630 g / cm^3
# Si number density = 19.009563 Si / 1000 Ang^3
#
#
#
# Elastic Constant Matrix: (Units=GPa)
#
#
# Indices 1 2 3 4 5 6 
#
# 1 59.9363 25.7563 29.3962 -9.2988 -10.7767 16.5104
# 2 25.7563 108.9702 10.0686 -5.6570 -9.3919 8.5702
# 3 29.3962 10.0686 53.4958 3.8478 -7.1570 6.5153
# 4 -9.2988 -5.6570 3.8478 14.8699 5.2969 -4.3194
# 5 -10.7767 -9.3919 -7.1570 5.2969 28.6102 4.6305
# 6 16.5104 8.5702 6.5153 -4.3194 4.6305 36.1542
#
#
#
# Elastic Compliance Matrix: (Units=1/GPa)
#
#
# Indices 1 2 3 4 5 6 
#
# 1 0.033318 -0.004130 -0.017100 0.019186 0.004900 -0.009490
# 2 -0.004130 0.010354 0.000717 0.000125 0.002155 -0.000958
# 3 -0.017100 0.000717 0.030241 -0.020397 0.005285 -0.000925
# 4 0.019186 0.000125 -0.020397 0.092719 -0.016303 0.008050
# 5 0.004900 0.002155 0.005285 -0.016303 0.043666 -0.011241
# 6 -0.009490 -0.000958 -0.000925 0.008050 -0.011241 0.034788
#
#
# Mechanical properties :
#
#
# Convention : Reuss Voigt Hill
#
# Bulk Modulus (GPa) = 30.40687 39.20496 34.80591
# Shear Modulus (GPa) = 16.83076 26.40561 21.61818
#
# Velocity S-wave (km/s) = 2.97877 3.73107 3.37594
# Velocity P-wave (km/s) = 5.27836 6.26336 5.79184
#
# Compressibility (1/GPa) = 0.03288730
#
# Stress axis : x y z
#
# Youngs Moduli (GPa) = 30.01402 96.57725 33.06738
#
# Poissons Ratio (x) = 0.39890 0.56544
# Poissons Ratio (y) = 0.12397 -0.02370
# Poissons Ratio (z) = 0.51323 -0.06923
#
# Static dielectric constant tensor:
#      x y z
#    x 3.277960 0.137360 -0.232950 
#    y 0.137360 3.548690 0.038630 
#    z -0.232950 0.038630 3.258400 
# 
# 
# High freq. dielectric constant tensor:
#      x y z
#    x 1.733070 0.006330 -0.013110 
#    y 0.006330 1.751030 -0.006810 
#    z -0.013110 -0.006810 1.719510 
# 
# From -- ./inp_files/431754.got.cif
#   From: 2010.06.25/outbox.cif.g09.slc.cpg/sg2_216_cif.got.tgz:431754.got - 2010.06.27 13:26:56.
