data_PCOD8012349
_publ_section_title
;
Structure prediction by ZEFSAII (Michael W. Deem and Ramdas Pophale) SiO2 
 PCOD8012349
Probable space group: P -1
;
_chemical_formula_sum "Si O2"
_cell_formula_units_Z 16
_cell_length_a 11.153773
_cell_length_b 12.563951
_cell_length_c 9.378549
_cell_angle_alpha 133.165341
_cell_angle_beta 77.839831
_cell_angle_gamma 123.422782
_cell_volume 769.695350
_symmetry_space_group_name_H-M "P -1"
_symmetry_group_IT_number 2
_symmetry_cell_setting 'triclinic'
loop_
_space_group_symop_operation_xyz
x,y,z
-x,-y,-z
loop_
_atom_site_type_symbol
_atom_site_label
_atom_site_fract_x
_atom_site_fract_y
_atom_site_fract_z
Si Si1 0.024609 0.569210 0.275048
Si Si2 0.946840 0.223024 0.083178
Si Si3 0.375122 0.329491 0.461107
Si Si4 0.250089 0.686160 0.089695
Si Si5 0.935738 0.895559 0.274401
Si Si6 0.630189 0.016144 0.892835
Si Si7 0.954578 0.803555 0.673978
Si Si8 0.367969 0.454314 0.888219
O O1 0.176391 0.699646 0.266298
O O2 0.043280 0.434975 0.239352
O O3 0.989606 0.665089 0.489128
O O4 0.882547 0.466844 0.113762
O O5 0.017515 0.169403 0.138712
O O6 0.771995 0.132193 0.069053
O O7 0.949202 0.143762 0.855883
O O8 0.500000 0.500000 0.500000
O O9 0.212082 0.255709 0.372200
O O10 0.391298 0.394797 0.676934
O O11 0.405583 0.177052 0.307858
O O12 0.342948 0.877334 0.164209
O O13 0.359776 0.624497 0.036320
O O14 0.780692 0.710242 0.156818
O O15 0.000000 0.000000 0.500000
O O16 0.923237 0.017317 0.275564
O O17 0.500000 0.000000 0.000000
O O18 0.500000 0.500000 0.000000
#
# Coordination Sequence:
#
# PCOD8012349 Si02
#       8
#     2   2   2   2   2   2   2   2
#     4  10  21  39  69  98 135 168 230 281 341 397
#     4  11  24  43  69 102 132 179 231 286 336 406
#     4  12  27  44  68  96 139 184 223 281 354 407
#     4  10  21  42  68  96 131 182 221 281 342 406
#     4  12  23  44  72 101 134 176 236 280 337 404
#     4  11  25  44  68  95 140 180 225 275 353 418
#     4  12  25  41  72 101 137 176 237 287 336 407
#     4  12  26  46  70 103 137 178 228 286 342 410
#
# _framework density 20.787445000000002
#
# number of rings (size 3 to 8) (size 9 to 14) (size 15 to 20)
#    0.000    0.750    5.000    1.500    8.750    1.000 
#    2.250    0.625    0.000    0.000    0.000    0.000 
#    0.000    0.000    0.000    0.000    0.000    0.000 
#
# Total GULP energy -198395.753792 kJ/mol
# GULP energy per Si atom -12399.734612 kJ/mol
# Density = 2.074013 g / cm^3
# Si number density = 20.787445 Si / 1000 Ang^3
#
#
#
# Elastic Constant Matrix: (Units=GPa)
#
#
# Indices 1 2 3 4 5 6 
#
# 1 132.7816 67.9159 59.6397 -8.4600 -5.8770 -12.2758
# 2 67.9159 175.0672 51.1889 3.9750 -9.5507 -10.6101
# 3 59.6397 51.1889 88.9874 -6.4370 -21.4840 2.3895
# 4 -8.4600 3.9750 -6.4370 36.4979 -5.4176 -9.0035
# 5 -5.8770 -9.5507 -21.4840 -5.4176 41.7183 0.7804
# 6 -12.2758 -10.6101 2.3895 -9.0035 0.7804 36.8147
#
#
#
# Elastic Compliance Matrix: (Units=1/GPa)
#
#
# Indices 1 2 3 4 5 6 
#
# 1 0.012786 -0.002660 -0.007556 0.002720 -0.002434 0.004704
# 2 -0.002660 0.007669 -0.002866 -0.001739 -0.000341 0.001091
# 3 -0.007556 -0.002866 0.020472 0.002489 0.009225 -0.004261
# 4 0.002720 -0.001739 0.002489 0.031353 0.005193 0.007802
# 5 -0.002434 -0.000341 0.009225 0.005193 0.028990 -0.000853
# 6 0.004704 0.001091 -0.004261 0.007802 -0.000853 0.031249
#
#
# Mechanical properties :
#
#
# Convention : Reuss Voigt Hill
#
# Bulk Modulus (GPa) = 67.74050 83.81392 75.77721
# Shear Modulus (GPa) = 30.56121 37.54563 34.05342
#
# Velocity S-wave (km/s) = 3.83845 4.25452 4.05183
# Velocity P-wave (km/s) = 7.23207 8.03378 7.64344
#
# Compressibility (1/GPa) = 0.01476222
#
# Stress axis : x y z
#
# Youngs Moduli (GPa) = 78.20851 130.39195 48.84695
#
# Poissons Ratio (x) = 0.34689 0.36910
# Poissons Ratio (y) = 0.20806 0.14000
# Poissons Ratio (z) = 0.59096 0.37371
#
# Static dielectric constant tensor:
#      x y z
#    x 4.682660 0.557610 -0.157370 
#    y 0.557610 4.606360 0.090780 
#    z -0.157370 0.090780 3.833090 
# 
# 
# High freq. dielectric constant tensor:
#      x y z
#    x 1.807340 -0.009540 -0.024050 
#    y -0.009540 1.835450 -0.002180 
#    z -0.024050 -0.002180 1.812390 
# 
# From -- ./inp_files/244717.got.cif
#   From: 2010.06.25/outbox.cif.g09.slc.cpg/sg2_123_cif.got.tgz:244717.got - 2010.06.27 13:26:56.
