data_PCOD8012900
_publ_section_title
;
Structure prediction by ZEFSAII (Michael W. Deem and Ramdas Pophale) SiO2 
 PCOD8012900
Probable space group: P -1
;
_chemical_formula_sum "Si O2"
_cell_formula_units_Z 14
_cell_length_a 15.100786
_cell_length_b 9.751793
_cell_length_c 14.102030
_cell_angle_alpha 57.761473
_cell_angle_beta 28.314255
_cell_angle_gamma 74.903257
_cell_volume 710.922562
_symmetry_space_group_name_H-M "P -1"
_symmetry_group_IT_number 2
_symmetry_cell_setting 'triclinic'
loop_
_space_group_symop_operation_xyz
x,y,z
-x,-y,-z
loop_
_atom_site_type_symbol
_atom_site_label
_atom_site_fract_x
_atom_site_fract_y
_atom_site_fract_z
Si Si1 0.918291 0.167964 0.941686
Si Si2 0.820599 0.510821 0.104097
Si Si3 0.001185 0.864107 0.914066
Si Si4 0.477553 0.905361 0.197512
Si Si5 0.451423 0.900647 0.440101
Si Si6 0.945575 0.428354 0.332555
Si Si7 0.826401 0.060085 0.659448
O O1 0.657360 0.053766 0.251991
O O2 0.045486 0.208303 0.906669
O O3 0.975527 0.046489 0.861387
O O4 0.995586 0.373231 0.747922
O O5 0.882179 0.536347 0.926232
O O6 0.822582 0.696098 0.075017
O O7 0.000000 0.500000 0.000000
O O8 0.597376 0.308619 0.406103
O O9 0.246476 0.926573 0.632557
O O10 0.302801 0.677876 0.436219
O O11 0.535947 0.955205 0.232898
O O12 0.357884 0.010871 0.224773
O O13 0.704995 0.971239 0.905642
O O14 0.957809 0.292071 0.450957
O O15 0.000000 0.000000 0.500000
#
# Coordination Sequence:
#
# PCOD8012900 Si02
#       7
#     2   2   2   2   2   2   2
#     4  11  22  33  53  84 120 148 183 223 282 331
#     4  10  16  33  60  78 113 149 184 221 268 328
#     4  10  20  36  51  79 118 156 180 221 268 338
#     4   9  19  36  62  81 107 146 186 234 277 320
#     4  11  20  35  57  83 117 149 182 228 279 328
#     4  10  18  37  58  82 113 147 181 236 274 325
#     4   9  19  38  62  84 103 140 200 236 269 323
#
# _framework density 19.692722
#
# number of rings (size 3 to 8) (size 9 to 14) (size 15 to 20)
#    0.857    1.143    5.714    0.429    0.000    2.857 
#    2.571    0.714    0.000    1.714    0.000    0.000 
#    0.000    0.000    0.000    0.000    0.000    0.000 
#
# Total GULP energy -173460.159746 kJ/mol
# GULP energy per Si atom -12390.011410 kJ/mol
# Density = 1.964790 g / cm^3
# Si number density = 19.692722 Si / 1000 Ang^3
#
#
#
# Elastic Constant Matrix: (Units=GPa)
#
#
# Indices 1 2 3 4 5 6 
#
# 1 22.4919 16.0678 25.9119 -1.9017 4.7208 -1.0206
# 2 16.0678 143.9176 57.2522 -15.2804 4.6564 -11.6108
# 3 25.9119 57.2522 104.0985 -4.2263 16.4223 -5.0961
# 4 -1.9017 -15.2804 -4.2263 41.1481 3.9210 -2.8976
# 5 4.7208 4.6564 16.4223 3.9210 29.4837 5.3113
# 6 -1.0206 -11.6108 -5.0961 -2.8976 5.3113 21.9457
#
#
#
# Elastic Compliance Matrix: (Units=1/GPa)
#
#
# Indices 1 2 3 4 5 6 
#
# 1 0.062584 -0.000983 -0.014742 0.001145 -0.001723 -0.000465
# 2 -0.000983 0.009643 -0.004710 0.003360 0.000018 0.004402
# 3 -0.014742 -0.004710 0.017078 0.000153 -0.006874 0.002472
# 4 0.001145 0.003360 0.000153 0.026621 -0.005551 0.006725
# 5 -0.001723 0.000018 -0.006874 -0.005551 0.040976 -0.012317
# 6 -0.000465 0.004402 0.002472 0.006725 -0.012317 0.052317
#
#
# Mechanical properties :
#
#
# Convention : Reuss Voigt Hill
#
# Bulk Modulus (GPa) = 20.64626 52.10798 36.37712
# Shear Modulus (GPa) = 18.78056 29.93391 24.35724
#
# Velocity S-wave (km/s) = 3.09152 3.90301 3.52072
# Velocity P-wave (km/s) = 4.82186 6.84319 5.91944
#
# Compressibility (1/GPa) = 0.04843492
#
# Stress axis : x y z
#
# Youngs Moduli (GPa) = 15.97862 103.70171 58.55573
#
# Poissons Ratio (x) = 0.10192 0.86324
# Poissons Ratio (y) = 0.01570 0.27578
# Poissons Ratio (z) = 0.23556 0.48841
#
# Static dielectric constant tensor:
#      x y z
#    x 3.310100 0.127950 -0.002940 
#    y 0.127950 3.778490 -0.276590 
#    z -0.002940 -0.276590 3.712110 
# 
# 
# High freq. dielectric constant tensor:
#      x y z
#    x 1.736640 0.001650 0.001850 
#    y 0.001650 1.754200 -0.001400 
#    z 0.001850 -0.001400 1.766420 
# 
# From -- ./inp_files/536944.got.cif
#   From: 2010.06.25/outbox.cif.g09.slc.cpg/sg2_269_cif.got.tgz:536944.got - 2010.06.27 13:26:56.
