data_PCOD8012937
_publ_section_title
;
Structure prediction by ZEFSAII (Michael W. Deem and Ramdas Pophale) SiO2 
 PCOD8012937
Probable space group: P -1
;
_chemical_formula_sum "Si O2"
_cell_formula_units_Z 16
_cell_length_a 8.330632
_cell_length_b 14.389322
_cell_length_c 11.562301
_cell_angle_alpha 94.594046
_cell_angle_beta 140.325410
_cell_angle_gamma 66.701599
_cell_volume 750.877335
_symmetry_space_group_name_H-M "P -1"
_symmetry_group_IT_number 2
_symmetry_cell_setting 'triclinic'
loop_
_space_group_symop_operation_xyz
x,y,z
-x,-y,-z
loop_
_atom_site_type_symbol
_atom_site_label
_atom_site_fract_x
_atom_site_fract_y
_atom_site_fract_z
Si Si1 0.604525 0.275018 0.365020
Si Si2 0.172237 0.588375 0.870893
Si Si3 0.120270 0.835990 0.258666
Si Si4 0.430339 0.914770 0.301709
Si Si5 0.936002 0.208648 0.307402
Si Si6 0.763540 0.504864 0.707816
Si Si7 0.830239 0.072004 0.072188
Si Si8 0.966239 0.694989 0.005507
O O1 0.810084 0.224011 0.586287
O O2 0.805548 0.249137 0.364313
O O3 0.397229 0.405881 0.272069
O O4 0.375964 0.233828 0.218659
O O5 0.042388 0.695032 0.729437
O O6 0.952426 0.540703 0.735735
O O7 0.500000 0.500000 0.000000
O O8 0.181959 0.627514 0.011100
O O9 0.410723 0.828013 0.365634
O O10 0.027287 0.782111 0.103410
O O11 0.863847 0.965002 0.144479
O O12 0.741045 0.901301 0.504721
O O13 0.426292 0.884286 0.161643
O O14 0.145286 0.036914 0.179884
O O15 0.747090 0.170677 0.124787
O O16 0.500000 0.500000 0.500000
O O17 0.995784 0.389452 0.881458
#
# Coordination Sequence:
#
# PCOD8012937 Si02
#       8
#     2   2   2   2   2   2   2   2
#     4  11  24  40  62  94 128 173 213 261 327 387
#     4  11  24  43  68  99 130 170 218 268 329 386
#     4  10  21  40  64  93 119 169 219 250 319 389
#     4   9  20  40  64  90 124 162 217 262 314 377
#     4  12  23  40  65  94 134 163 211 272 318 379
#     4  11  22  44  66  91 130 171 217 267 323 391
#     4   9  22  40  65  94 128 164 219 263 326 372
#     4  11  22  41  69  85 132 171 210 266 322 380
#
# _framework density 21.308403999999999
#
# number of rings (size 3 to 8) (size 9 to 14) (size 15 to 20)
#    0.750    0.750    1.250    5.625    0.000    2.500 
#    4.500    2.500    0.000    0.000    0.000    0.000 
#    0.000    0.000    0.000    0.000    0.000    0.000 
#
# Total GULP energy -198258.051075 kJ/mol
# GULP energy per Si atom -12391.128192 kJ/mol
# Density = 2.125991 g / cm^3
# Si number density = 21.308404 Si / 1000 Ang^3
#
#
#
# Elastic Constant Matrix: (Units=GPa)
#
#
# Indices 1 2 3 4 5 6 
#
# 1 87.4419 38.9282 33.9350 7.5965 -5.1610 1.0041
# 2 38.9282 77.2997 21.6231 12.4900 4.3214 7.0015
# 3 33.9350 21.6231 86.7506 16.8206 -9.1713 -4.0355
# 4 7.5965 12.4900 16.8206 37.9444 2.8698 -1.9801
# 5 -5.1610 4.3214 -9.1713 2.8698 26.9645 -2.1596
# 6 1.0041 7.0015 -4.0355 -1.9801 -2.1596 19.5590
#
#
#
# Elastic Compliance Matrix: (Units=1/GPa)
#
#
# Indices 1 2 3 4 5 6 
#
# 1 0.016589 -0.007559 -0.004427 0.000982 0.002885 0.001359
# 2 -0.007559 0.018909 -0.001936 -0.003854 -0.005347 -0.007761
# 3 -0.004427 -0.001936 0.015631 -0.005618 0.005714 0.004207
# 4 0.000982 -0.003854 -0.005618 0.030373 -0.004114 0.002790
# 5 0.002885 -0.005347 0.005714 -0.004114 0.041445 0.007104
# 6 0.001359 -0.007761 0.004207 0.002790 0.007104 0.055771
#
#
# Mechanical properties :
#
#
# Convention : Reuss Voigt Hill
#
# Bulk Modulus (GPa) = 42.94519 48.94052 45.94286
# Shear Modulus (GPa) = 23.32928 27.36064 25.34496
#
# Velocity S-wave (km/s) = 3.31243 3.58722 3.45256
# Velocity P-wave (km/s) = 5.90148 6.33839 6.12383
#
# Compressibility (1/GPa) = 0.02328549
#
# Stress axis : x y z
#
# Youngs Moduli (GPa) = 60.28187 52.88451 63.97620
#
# Poissons Ratio (x) = 0.39974 0.28325
# Poissons Ratio (y) = 0.45565 0.12383
# Poissons Ratio (z) = 0.26689 0.10236
#
# Static dielectric constant tensor:
#      x y z
#    x 3.694660 0.046350 -0.047460 
#    y 0.046350 3.789730 0.119410 
#    z -0.047460 0.119410 3.950380 
# 
# 
# High freq. dielectric constant tensor:
#      x y z
#    x 1.819320 0.003720 -0.011290 
#    y 0.003720 1.830950 0.005870 
#    z -0.011290 0.005870 1.841160 
# 
# From -- ./inp_files/397520.got.cif
#   From: 2010.06.25/outbox.cif.g09.slc.cpg/sg2_199_cif.got.tgz:397520.got - 2010.06.27 13:26:56.
