data_PCOD8012293
_publ_section_title
;
Structure prediction by ZEFSAII (Michael W. Deem and Ramdas Pophale) SiO2 
 PCOD8012293
Probable space group: P -1
;
_chemical_formula_sum "Si O2"
_cell_formula_units_Z 16
_cell_length_a 13.825668
_cell_length_b 10.841334
_cell_length_c 8.980759
_cell_angle_alpha 125.736856
_cell_angle_beta 106.433042
_cell_angle_gamma 40.631855
_cell_volume 677.997819
_symmetry_space_group_name_H-M "P -1"
_symmetry_group_IT_number 2
_symmetry_cell_setting 'triclinic'
loop_
_space_group_symop_operation_xyz
x,y,z
-x,-y,-z
loop_
_atom_site_type_symbol
_atom_site_label
_atom_site_fract_x
_atom_site_fract_y
_atom_site_fract_z
Si Si1 0.505376 0.309268 0.197999
Si Si2 0.094936 0.741563 0.825008
Si Si3 0.393349 0.999640 0.533766
Si Si4 0.141723 0.089045 0.362177
Si Si5 0.375370 0.506186 0.595000
Si Si6 0.228673 0.649173 0.114426
Si Si7 0.754023 0.818494 0.095561
Si Si8 0.024549 0.697659 0.252693
O O1 0.388422 0.476414 0.402038
O O2 0.612299 0.333557 0.234966
O O3 0.398132 0.401306 0.072242
O O4 0.615588 0.037960 0.083742
O O5 0.208857 0.634603 0.660035
O O6 0.968432 0.761475 0.727349
O O7 0.193042 0.587344 0.907070
O O8 0.000000 0.000000 0.000000
O O9 0.487253 0.743105 0.441291
O O10 0.500000 0.000000 0.500000
O O11 0.260946 0.093102 0.426232
O O12 0.313329 0.160985 0.760229
O O13 0.029730 0.209323 0.539921
O O14 0.233025 0.823447 0.203607
O O15 0.091220 0.774385 0.261518
O O16 0.879118 0.808495 0.168335
O O17 0.833894 0.586166 0.884302
#
# Coordination Sequence:
#
# PCOD8012293 Si02
#       8
#     2   2   2   2   2   2   2   2
#     4  10  21  39  68  97 130 170 228 274 327 393
#     4  10  24  40  60  97 136 167 222 273 328 391
#     4  10  21  41  70  95 138 177 213 273 338 404
#     4  10  21  43  65 101 126 175 230 265 333 394
#     4  10  21  40  65  96 131 173 217 277 330 394
#     4  11  22  38  66 100 131 174 220 280 328 387
#     4   9  22  40  64 102 129 173 225 271 332 395
#     4  10  21  39  69  94 133 172 217 279 330 394
#
# _framework density 23.598897999999998
#
# number of rings (size 3 to 8) (size 9 to 14) (size 15 to 20)
#    0.000    2.000    1.250    1.125    7.000    1.000 
#    0.000    0.625   11.000    0.000    0.000    0.000 
#    0.000    0.000    0.000    0.000    0.000    0.000 
#
# Total GULP energy -198388.949749 kJ/mol
# GULP energy per Si atom -12399.309359 kJ/mol
# Density = 2.354519 g / cm^3
# Si number density = 23.598898 Si / 1000 Ang^3
#
#
#
# Elastic Constant Matrix: (Units=GPa)
#
#
# Indices 1 2 3 4 5 6 
#
# 1 113.3682 38.0334 16.2250 -15.8846 -0.0183 -14.4636
# 2 38.0334 151.2251 48.5073 -27.9821 11.4448 -22.1236
# 3 16.2250 48.5073 54.4881 -12.6995 4.8941 -12.4864
# 4 -15.8846 -27.9821 -12.6995 38.9430 -14.5004 5.8084
# 5 -0.0183 11.4448 4.8941 -14.5004 24.3967 0.1840
# 6 -14.4636 -22.1236 -12.4864 5.8084 0.1840 31.3809
#
#
#
# Elastic Compliance Matrix: (Units=1/GPa)
#
#
# Indices 1 2 3 4 5 6 
#
# 1 0.010275 -0.001603 -0.000431 0.003590 0.002959 0.002752
# 2 -0.001603 0.010575 -0.007247 0.003586 -0.001401 0.003177
# 3 -0.000431 -0.007247 0.026650 0.002368 -0.000576 0.004861
# 4 0.003590 0.003586 0.002368 0.038543 0.020770 -0.002131
# 5 0.002959 -0.001401 -0.000576 0.020770 0.054139 -0.004015
# 6 0.002752 0.003177 0.004861 -0.002131 -0.004015 0.037727
#
#
# Mechanical properties :
#
#
# Convention : Reuss Voigt Hill
#
# Bulk Modulus (GPa) = 34.55656 58.29031 46.42344
# Shear Modulus (GPa) = 24.25804 33.36517 28.81160
#
# Velocity S-wave (km/s) = 3.20961 3.76419 3.49791
# Velocity P-wave (km/s) = 5.33016 6.60653 6.00237
#
# Compressibility (1/GPa) = 0.02893806
#
# Stress axis : x y z
#
# Youngs Moduli (GPa) = 97.32458 94.56524 37.52317
#
# Poissons Ratio (x) = 0.15158 0.01617
# Poissons Ratio (y) = 0.15600 0.27193
# Poissons Ratio (z) = 0.04194 0.68532
#
# Static dielectric constant tensor:
#      x y z
#    x 2.147530 -1.091970 3.222620 
#    y -1.091970 4.022690 1.225110 
#    z 3.222620 1.225110 -1.100730 
# 
# 
# High freq. dielectric constant tensor:
#      x y z
#    x 1.927860 -0.018240 -0.001060 
#    y -0.018240 1.936660 -0.001730 
#    z -0.001060 -0.001730 1.926530 
# 
# From -- ./inp_files/308563.got.cif
#   From: 2010.06.25/outbox.cif.g09.slc.cpg/sg2_155_cif.got.tgz:308563.got - 2010.06.27 13:26:56.
