data_PCOD8012884
_publ_section_title
;
Structure prediction by ZEFSAII (Michael W. Deem and Ramdas Pophale) SiO2 
 PCOD8012884
Probable space group: P -1
;
_chemical_formula_sum "Si O2"
_cell_formula_units_Z 16
_cell_length_a 15.069701
_cell_length_b 9.135695
_cell_length_c 8.361321
_cell_angle_alpha 100.319321
_cell_angle_beta 76.457609
_cell_angle_gamma 44.007614
_cell_volume 666.677808
_symmetry_space_group_name_H-M "P -1"
_symmetry_group_IT_number 2
_symmetry_cell_setting 'triclinic'
loop_
_space_group_symop_operation_xyz
x,y,z
-x,-y,-z
loop_
_atom_site_type_symbol
_atom_site_label
_atom_site_fract_x
_atom_site_fract_y
_atom_site_fract_z
Si Si1 0.008039 0.691166 0.378252
Si Si2 0.454283 0.124124 0.305644
Si Si3 0.141376 0.422387 0.592878
Si Si4 0.082177 0.092032 0.070797
Si Si5 0.106931 0.919796 0.707489
Si Si6 0.572296 0.560756 0.436354
Si Si7 0.317279 0.356224 0.064708
Si Si8 0.634143 0.395806 0.024301
O O1 0.067615 0.615854 0.518784
O O2 0.886202 0.717559 0.424937
O O3 0.927090 0.953311 0.422015
O O4 0.155938 0.480688 0.162516
O O5 0.320286 0.217101 0.481358
O O6 0.515370 0.183163 0.400271
O O7 0.592203 0.831334 0.160821
O O8 0.403916 0.233999 0.171561
O O9 0.040113 0.616990 0.818153
O O10 0.119962 0.032486 0.856411
O O11 0.022380 0.020075 0.164787
O O12 0.246054 0.894499 0.050923
O O13 0.265816 0.628185 0.580048
O O14 0.500000 0.500000 0.500000
O O15 0.579082 0.549253 0.240005
O O16 0.289674 0.567637 0.096423
O O17 0.500000 0.500000 0.000000
#
# Coordination Sequence:
#
# PCOD8012884 Si02
#       8
#     2   2   2   2   2   2   2   2
#     4  10  22  39  63  95 129 167 218 262 322 383
#     4  10  22  41  63  90 133 173 212 265 327 387
#     4  10  22  38  63  97 128 167 214 270 316 382
#     4  10  21  40  65  89 122 166 212 263 321 380
#     4  10  21  40  64  89 125 165 212 261 321 383
#     4  11  24  41  64  95 131 168 217 271 325 386
#     4  10  22  40  64  92 130 175 214 260 325 393
#     4  11  24  41  66  95 126 170 219 269 327 390
#
# _framework density 23.999600000000001
#
# number of rings (size 3 to 8) (size 9 to 14) (size 15 to 20)
#    0.000    1.750    2.500    0.750    0.000   10.500 
#    0.000    0.000    0.000    0.000    0.000    0.000 
#    0.000    0.000    0.000    0.000    0.000    0.000 
#
# Total GULP energy -198254.600652 kJ/mol
# GULP energy per Si atom -12390.912541 kJ/mol
# Density = 2.394498 g / cm^3
# Si number density = 23.999600 Si / 1000 Ang^3
#
#
#
# Elastic Constant Matrix: (Units=GPa)
#
#
# Indices 1 2 3 4 5 6 
#
# 1 99.2704 0.4805 25.4905 1.5853 -4.8195 -5.2145
# 2 0.4805 44.8616 4.0726 -3.5704 2.6908 -1.4376
# 3 25.4905 4.0726 81.3055 19.4794 2.2958 -0.4195
# 4 1.5853 -3.5704 19.4794 39.8078 6.9913 -7.6847
# 5 -4.8195 2.6908 2.2958 6.9913 31.4720 2.2159
# 6 -5.2145 -1.4376 -0.4195 -7.6847 2.2159 26.0441
#
#
#
# Elastic Compliance Matrix: (Units=1/GPa)
#
#
# Indices 1 2 3 4 5 6 
#
# 1 0.011280 0.000388 -0.004016 0.001813 0.001399 0.002631
# 2 0.000388 0.023078 -0.002180 0.004165 -0.002876 0.002790
# 3 -0.004016 -0.002180 0.015649 -0.008402 0.000521 -0.003196
# 4 0.001813 0.004165 -0.008402 0.032948 -0.007547 0.010821
# 5 0.001399 -0.002876 0.000521 -0.007547 0.034226 -0.005009
# 6 0.002631 0.002790 -0.003196 0.010821 -0.005009 0.042645
#
#
# Mechanical properties :
#
#
# Convention : Reuss Voigt Hill
#
# Bulk Modulus (GPa) = 26.04720 31.72496 28.88608
# Shear Modulus (GPa) = 27.13874 32.49105 29.81489
#
# Velocity S-wave (km/s) = 3.36638 3.68342 3.52846
# Velocity P-wave (km/s) = 5.09773 5.59801 5.35371
#
# Compressibility (1/GPa) = 0.03839184
#
# Stress axis : x y z
#
# Youngs Moduli (GPa) = 88.65180 43.33141 63.90035
#
# Poissons Ratio (x) = -0.01683 0.25664
# Poissons Ratio (y) = -0.03444 0.13930
# Poissons Ratio (z) = 0.35605 0.09446
#
# Static dielectric constant tensor:
#      x y z
#    x 4.094470 -0.311930 -0.088530 
#    y -0.311930 5.169190 0.147350 
#    z -0.088530 0.147350 4.581470 
# 
# 
# High freq. dielectric constant tensor:
#      x y z
#    x 1.938270 -0.002400 -0.006130 
#    y -0.002400 1.946050 0.000000 
#    z -0.006130 0.000000 1.956760 
# 
# From -- ./inp_files/298767.got.cif
#   From: 2010.06.25/outbox.cif.g09.slc.cpg/sg2_150_cif.got.tgz:298767.got - 2010.06.27 13:26:56.
