data_PCOD8012019
_publ_section_title
;
Structure prediction by ZEFSAII (Michael W. Deem and Ramdas Pophale) SiO2 
 PCOD8012019
Probable space group: P -1
;
_chemical_formula_sum "Si O2"
_cell_formula_units_Z 16
_cell_length_a 12.378723
_cell_length_b 14.495108
_cell_length_c 9.128176
_cell_angle_alpha 103.896045
_cell_angle_beta 111.412369
_cell_angle_gamma 29.586121
_cell_volume 742.127525
_symmetry_space_group_name_H-M "P -1"
_symmetry_group_IT_number 2
_symmetry_cell_setting 'triclinic'
loop_
_space_group_symop_operation_xyz
x,y,z
-x,-y,-z
loop_
_atom_site_type_symbol
_atom_site_label
_atom_site_fract_x
_atom_site_fract_y
_atom_site_fract_z
Si Si1 0.351941 0.824854 0.865190
Si Si2 0.030252 0.811626 0.708347
Si Si3 0.102520 0.470495 0.687993
Si Si4 0.308690 0.704017 0.555681
Si Si5 0.141957 0.869966 0.235366
Si Si6 0.295800 0.111319 0.336248
Si Si7 0.427382 0.413685 0.843673
Si Si8 0.457203 0.120446 0.919439
O O1 0.396722 0.731963 0.704973
O O2 0.461579 0.676650 0.979681
O O3 0.479797 0.835106 0.928724
O O4 0.084604 0.035782 0.861302
O O5 0.833081 0.872493 0.616824
O O6 0.135973 0.758709 0.581295
O O7 0.229366 0.632555 0.846539
O O8 0.925944 0.977569 0.798911
O O9 0.313196 0.394544 0.724226
O O10 0.199283 0.323061 0.797789
O O11 0.000000 0.500000 0.500000
O O12 0.881041 0.681510 0.727134
O O13 0.500000 0.500000 0.500000
O O14 0.170528 0.854134 0.417183
O O15 0.382600 0.673175 0.203383
O O16 0.500000 0.000000 0.500000
O O17 0.379919 0.002340 0.188068
O O18 0.500000 0.000000 0.000000
#
# Coordination Sequence:
#
# PCOD8012019 Si02
#       8
#     2   2   2   2   2   2   2   2
#     4  10  23  43  65  96 137 173 219 282 331 405
#     4  10  21  39  66  94 128 169 225 263 330 397
#     4  10  21  43  68 100 134 177 238 279 329 412
#     4  11  23  44  64  95 138 175 220 274 335 402
#     4  11  22  40  65  93 133 170 218 273 335 397
#     4  11  23  41  73  96 132 184 231 281 337 407
#     4  10  21  39  65  97 129 170 222 272 330 398
#     4  11  25  47  68 103 141 176 229 288 346 397
#
# _framework density 21.559636000000001
#
# number of rings (size 3 to 8) (size 9 to 14) (size 15 to 20)
#    0.000    1.500    2.500    3.375    0.000    5.500 
#    9.000    0.000    0.000    0.000    0.000    0.000 
#    0.000    0.000    0.000    0.000    0.000    0.000 
#
# Total GULP energy -198212.545162 kJ/mol
# GULP energy per Si atom -12388.284073 kJ/mol
# Density = 2.151056 g / cm^3
# Si number density = 21.559636 Si / 1000 Ang^3
#
#
#
# Elastic Constant Matrix: (Units=GPa)
#
#
# Indices 1 2 3 4 5 6 
#
# 1 88.5117 30.3250 53.0465 -4.0890 -3.6989 6.4614
# 2 30.3250 108.1938 34.3314 -9.6292 6.3379 0.5779
# 3 53.0465 34.3314 121.0544 -18.6822 5.5233 8.9835
# 4 -4.0890 -9.6292 -18.6822 39.0488 4.3106 -0.7824
# 5 -3.6989 6.3379 5.5233 4.3106 33.6695 -4.4888
# 6 6.4614 0.5779 8.9835 -0.7824 -4.4888 30.9880
#
#
#
# Elastic Compliance Matrix: (Units=1/GPa)
#
#
# Indices 1 2 3 4 5 6 
#
# 1 0.016555 -0.002889 -0.006961 -0.002740 0.003734 -0.000908
# 2 -0.002889 0.010812 -0.001436 0.001941 -0.002294 0.000534
# 3 -0.006961 -0.001436 0.012925 0.005452 -0.003668 -0.002662
# 4 -0.002740 0.001941 0.005452 0.028985 -0.005418 -0.001098
# 5 0.003734 -0.002294 -0.003668 -0.005418 0.032491 0.004897
# 6 -0.000908 0.000534 -0.002662 -0.001098 0.004897 0.033903
#
#
# Mechanical properties :
#
#
# Convention : Reuss Voigt Hill
#
# Bulk Modulus (GPa) = 56.43190 61.46288 58.94739
# Shear Modulus (GPa) = 30.45984 34.07841 32.26913
#
# Velocity S-wave (km/s) = 3.76282 3.98006 3.87297
# Velocity P-wave (km/s) = 6.71640 7.04921 6.88482
#
# Compressibility (1/GPa) = 0.01772047
#
# Stress axis : x y z
#
# Youngs Moduli (GPa) = 60.40307 92.48706 77.37163
#
# Poissons Ratio (x) = 0.26720 0.53859
# Poissons Ratio (y) = 0.17451 0.11109
# Poissons Ratio (z) = 0.42047 0.13279
#
# Static dielectric constant tensor:
#      x y z
#    x 3.922520 0.113970 -0.017540 
#    y 0.113970 4.268930 -0.338830 
#    z -0.017540 -0.338830 3.885520 
# 
# 
# High freq. dielectric constant tensor:
#      x y z
#    x 1.832370 0.011010 0.002370 
#    y 0.011010 1.866390 -0.017800 
#    z 0.002370 -0.017800 1.847010 
# 
# From -- ./inp_files/273471.got.cif
#   From: 2010.06.25/outbox.cif.g09.slc.cpg/sg2_137_cif.got.tgz:273471.got - 2010.06.27 13:26:56.
