data_PCOD8012184
_publ_section_title
;
Structure prediction by ZEFSAII (Michael W. Deem and Ramdas Pophale) SiO2 
 PCOD8012184
Probable space group: P -1
;
_chemical_formula_sum "Si O2"
_cell_formula_units_Z 16
_cell_length_a 10.913196
_cell_length_b 12.304509
_cell_length_c 9.219795
_cell_angle_alpha 129.948616
_cell_angle_beta 127.211929
_cell_angle_gamma 69.806703
_cell_volume 753.989009
_symmetry_space_group_name_H-M "P -1"
_symmetry_group_IT_number 2
_symmetry_cell_setting 'triclinic'
loop_
_space_group_symop_operation_xyz
x,y,z
-x,-y,-z
loop_
_atom_site_type_symbol
_atom_site_label
_atom_site_fract_x
_atom_site_fract_y
_atom_site_fract_z
Si Si1 0.861893 0.788732 0.904856
Si Si2 0.260124 0.753072 0.757755
Si Si3 0.199341 0.794718 0.065685
Si Si4 0.838174 0.015304 0.321867
Si Si5 0.670853 0.899121 0.629001
Si Si6 0.628095 0.537693 0.505922
Si Si7 0.515670 0.360213 0.797236
Si Si8 0.477070 0.030376 0.840745
O O1 0.822065 0.837797 0.755364
O O2 0.763164 0.645721 0.757887
O O3 0.043935 0.771190 0.027661
O O4 0.812630 0.908019 0.079974
O O5 0.158076 0.767500 0.842534
O O6 0.278294 0.592229 0.591492
O O7 0.182056 0.829752 0.631518
O O8 0.431191 0.816503 0.984983
O O9 0.307371 0.676081 0.099927
O O10 0.280566 0.952733 0.288759
O O11 0.708300 0.976608 0.319230
O O12 0.000000 0.000000 0.500000
O O13 0.592900 0.783540 0.358426
O O14 0.546321 0.917696 0.685032
O O15 0.500000 0.500000 0.500000
O O16 0.534883 0.608898 0.374339
O O17 0.500000 0.500000 0.000000
O O18 0.500000 0.000000 0.000000
#
# Coordination Sequence:
#
# PCOD8012184 Si02
#       8
#     2   2   2   2   2   2   2   2
#     4  11  23  41  63  96 127 172 210 267 331 386
#     4  10  21  41  65  89 125 175 211 261 324 391
#     4  11  22  42  64  95 133 160 220 271 324 380
#     4  11  23  38  61  96 128 161 215 275 322 373
#     4  10  21  39  67  94 127 173 214 267 323 387
#     4  11  25  44  70  89 130 178 220 257 330 395
#     4  11  24  43  64 102 129 172 223 266 312 387
#     4   9  17  36  64  88 124 162 220 256 317 376
#
# _framework density 21.220469000000001
#
# number of rings (size 3 to 8) (size 9 to 14) (size 15 to 20)
#    0.000    1.500    5.000    1.500    7.000    0.500 
#    0.000    3.750    0.000    0.000    0.000    0.000 
#    0.000    0.000    0.000    0.000    0.000    0.000 
#
# Total GULP energy -198329.957970 kJ/mol
# GULP energy per Si atom -12395.622373 kJ/mol
# Density = 2.117217 g / cm^3
# Si number density = 21.220469 Si / 1000 Ang^3
#
#
#
# Elastic Constant Matrix: (Units=GPa)
#
#
# Indices 1 2 3 4 5 6 
#
# 1 114.6847 30.5931 29.1755 9.8443 23.4681 -6.5951
# 2 30.5931 97.7132 33.6432 9.9597 20.5792 -19.3516
# 3 29.1755 33.6432 91.2975 14.3820 13.1457 -6.5319
# 4 9.8443 9.9597 14.3820 41.4608 -8.6462 3.1957
# 5 23.4681 20.5792 13.1457 -8.6462 27.4073 -4.6801
# 6 -6.5951 -19.3516 -6.5319 3.1957 -4.6801 31.4165
#
#
#
# Elastic Compliance Matrix: (Units=1/GPa)
#
#
# Indices 1 2 3 4 5 6 
#
# 1 0.011715 -0.000410 -0.001346 -0.004436 -0.010334 0.000839
# 2 -0.000410 0.015641 -0.002679 -0.005534 -0.010490 0.007991
# 3 -0.001346 -0.002679 0.013915 -0.004952 -0.004948 0.000727
# 4 -0.004436 -0.005534 -0.004952 0.032769 0.019681 -0.005771
# 5 -0.010334 -0.010490 -0.004948 0.019681 0.061364 -0.002520
# 6 0.000839 0.007991 0.000727 -0.005771 -0.002520 0.037292
#
#
# Mechanical properties :
#
#
# Convention : Reuss Voigt Hill
#
# Bulk Modulus (GPa) = 30.86244 54.50211 42.68227
# Shear Modulus (GPa) = 25.99240 34.07584 30.03412
#
# Velocity S-wave (km/s) = 3.50362 4.01159 3.76618
# Velocity P-wave (km/s) = 5.56259 6.86998 6.25056
#
# Compressibility (1/GPa) = 0.03240185
#
# Stress axis : x y z
#
# Youngs Moduli (GPa) = 85.36083 63.93639 71.86497
#
# Poissons Ratio (x) = 0.02619 0.09672
# Poissons Ratio (y) = 0.03497 0.19251
# Poissons Ratio (z) = 0.11489 0.17127
#
# Static dielectric constant tensor:
#      x y z
#    x 4.016090 0.267100 0.066120 
#    y 0.267100 3.347540 0.206150 
#    z 0.066120 0.206150 3.995060 
# 
# 
# High freq. dielectric constant tensor:
#      x y z
#    x 1.824810 -0.010820 -0.001130 
#    y -0.010820 1.829220 0.002530 
#    z -0.001130 0.002530 1.833620 
# 
# From -- ./inp_files/263647.got.cif
#   From: 2010.06.25/outbox.cif.g09.slc.cpg/sg2_132_cif.got.tgz:263647.got - 2010.06.27 13:26:56.
