data_PCOD8012476
_publ_section_title
;
Structure prediction by ZEFSAII (Michael W. Deem and Ramdas Pophale) SiO2 
 PCOD8012476
Probable space group: P -1
;
_chemical_formula_sum "Si O2"
_cell_formula_units_Z 16
_cell_length_a 10.201101
_cell_length_b 17.629575
_cell_length_c 5.313336
_cell_angle_alpha 119.545787
_cell_angle_beta 67.151508
_cell_angle_gamma 110.857118
_cell_volume 749.756788
_symmetry_space_group_name_H-M "P -1"
_symmetry_group_IT_number 2
_symmetry_cell_setting 'triclinic'
loop_
_space_group_symop_operation_xyz
x,y,z
-x,-y,-z
loop_
_atom_site_type_symbol
_atom_site_label
_atom_site_fract_x
_atom_site_fract_y
_atom_site_fract_z
Si Si1 0.373586 0.418262 0.726432
Si Si2 0.379600 0.267924 0.103282
Si Si3 0.690603 0.017731 0.633698
Si Si4 0.141878 0.297371 0.007940
Si Si5 0.605646 0.917231 0.030326
Si Si6 0.383282 0.607094 0.140074
Si Si7 0.854537 0.292944 0.447321
Si Si8 0.124565 0.800054 0.206779
O O1 0.341107 0.353665 0.408974
O O2 0.532454 0.413403 0.706913
O O3 0.245389 0.386426 0.972134
O O4 0.370178 0.520672 0.825017
O O5 0.243721 0.237101 0.965273
O O6 0.396609 0.188155 0.144587
O O7 0.530898 0.301411 0.899727
O O8 0.557979 0.068930 0.825441
O O9 0.686155 0.958359 0.290723
O O10 0.838316 0.092653 0.637422
O O11 0.690812 0.958195 0.785115
O O12 0.028280 0.327868 0.338537
O O13 0.049809 0.235363 0.756956
O O14 0.223769 0.623060 0.352139
O O15 0.793371 0.231486 0.150057
O O16 0.821379 0.237140 0.637263
#
# Coordination Sequence:
#
# PCOD8012476 Si02
#       8
#     2   2   2   2   2   2   2   2
#     4  10  22  42  62  92 135 163 214 265 318 382
#     4  11  22  40  64  92 131 172 206 263 325 383
#     4  10  21  40  59  99 123 161 209 269 308 375
#     4   9  23  40  63  91 128 178 210 258 314 382
#     4  10  23  36  64  92 130 161 207 261 323 370
#     4  10  23  38  65  98 121 170 216 267 316 376
#     4  10  22  39  67  95 121 175 211 260 313 372
#     4  10  21  41  66  90 130 165 212 259 316 371
#
# _framework density 21.340256
#
# number of rings (size 3 to 8) (size 9 to 14) (size 15 to 20)
#    0.750    1.250    0.000    2.625    7.000    1.500 
#    0.000    2.500    0.000    0.000    0.000    0.000 
#    0.000    0.000    0.000    0.000    0.000    0.000 
#
# Total GULP energy -198331.547666 kJ/mol
# GULP energy per Si atom -12395.721729 kJ/mol
# Density = 2.129168 g / cm^3
# Si number density = 21.340256 Si / 1000 Ang^3
#
#
#
# Elastic Constant Matrix: (Units=GPa)
#
#
# Indices 1 2 3 4 5 6 
#
# 1 76.1197 52.5503 24.9625 -4.4532 -5.3151 4.2029
# 2 52.5503 103.8379 22.2216 0.5389 5.8014 -10.3866
# 3 24.9625 22.2216 89.6236 -7.4348 17.8118 -7.4985
# 4 -4.4532 0.5389 -7.4348 33.6199 -3.1701 8.0135
# 5 -5.3151 5.8014 17.8118 -3.1701 30.5640 -1.3353
# 6 4.2029 -10.3866 -7.4985 8.0135 -1.3353 23.9336
#
#
#
# Elastic Compliance Matrix: (Units=1/GPa)
#
#
# Indices 1 2 3 4 5 6 
#
# 1 0.027701 -0.014715 -0.007099 0.007068 0.011818 -0.015182
# 2 -0.014715 0.018427 0.001500 -0.005554 -0.006960 0.012522
# 3 -0.007099 0.001500 0.015296 0.000000 -0.010166 0.006123
# 4 0.007068 -0.005554 0.000000 0.034845 0.005241 -0.015026
# 5 0.011818 -0.006960 -0.010166 0.005241 0.042227 -0.007679
# 6 -0.015182 0.012522 0.006123 -0.015026 -0.007679 0.056403
#
#
# Mechanical properties :
#
#
# Convention : Reuss Voigt Hill
#
# Bulk Modulus (GPa) = 48.09038 52.11667 50.10352
# Shear Modulus (GPa) = 20.62195 28.94663 24.78429
#
# Velocity S-wave (km/s) = 3.11197 3.68697 3.41161
# Velocity P-wave (km/s) = 5.95789 6.52685 6.24885
#
# Compressibility (1/GPa) = 0.02079418
#
# Stress axis : x y z
#
# Youngs Moduli (GPa) = 36.09945 54.26900 65.37709
#
# Poissons Ratio (x) = 0.79858 0.46414
# Poissons Ratio (y) = 0.53121 -0.09806
# Poissons Ratio (z) = 0.25629 -0.08140
#
# Static dielectric constant tensor:
#      x y z
#    x 3.660020 0.066150 0.140090 
#    y 0.066150 3.773710 -0.078360 
#    z 0.140090 -0.078360 3.726290 
# 
# 
# High freq. dielectric constant tensor:
#      x y z
#    x 1.826680 0.002090 0.010860 
#    y 0.002090 1.834000 -0.008350 
#    z 0.010860 -0.008350 1.829150 
# 
# From -- ./inp_files/80908.got.cif
#   From: 2010.06.25/outbox.cif.g09.slc.cpg/sg2_41_cif.got.tgz:80908.got - 2010.06.27 13:26:56.
