data_PCOD8012745
_publ_section_title
;
Structure prediction by ZEFSAII (Michael W. Deem and Ramdas Pophale) SiO2 
 PCOD8012745
Probable space group: P -1
;
_chemical_formula_sum "Si O2"
_cell_formula_units_Z 16
_cell_length_a 15.679071
_cell_length_b 12.084536
_cell_length_c 14.798270
_cell_angle_alpha 150.009694
_cell_angle_beta 142.125628
_cell_angle_gamma 57.300685
_cell_volume 760.664209
_symmetry_space_group_name_H-M "P -1"
_symmetry_group_IT_number 2
_symmetry_cell_setting 'triclinic'
loop_
_space_group_symop_operation_xyz
x,y,z
-x,-y,-z
loop_
_atom_site_type_symbol
_atom_site_label
_atom_site_fract_x
_atom_site_fract_y
_atom_site_fract_z
Si Si1 0.479673 0.549229 0.914464
Si Si2 0.741833 0.886410 0.700282
Si Si3 0.039067 0.242743 0.098075
Si Si4 0.128656 0.048873 0.874991
Si Si5 0.036897 0.740642 0.406151
Si Si6 0.387815 0.972260 0.140621
Si Si7 0.617625 0.492155 0.665981
Si Si8 0.734348 0.752744 0.124458
O O1 0.378330 0.280609 0.594507
O O2 0.500000 0.500000 0.000000
O O3 0.385943 0.709025 0.942387
O O4 0.646648 0.697094 0.107775
O O5 0.809578 0.722767 0.693701
O O6 0.654721 0.991544 0.767509
O O7 0.882916 0.131179 0.947749
O O8 0.075528 0.511948 0.281718
O O9 0.014657 0.046780 0.857918
O O10 0.029458 0.849753 0.575657
O O11 0.260777 0.976636 0.968464
O O12 0.207301 0.333394 0.101637
O O13 0.863621 0.651471 0.157241
O O14 0.174074 0.948569 0.606043
O O15 0.564091 0.197598 0.426516
O O16 0.500000 0.500000 0.500000
O O17 0.606326 0.610295 0.837391
#
# Coordination Sequence:
#
# PCOD8012745 Si02
#       8
#     2   2   2   2   2   2   2   2
#     4  12  27  40  62  91 126 171 205 248 309 371
#     4  10  23  43  59  94 124 157 218 255 296 372
#     4  10  22  39  69  88 120 167 204 257 309 359
#     4   9  20  38  63  95 117 155 205 256 309 367
#     4  10  22  42  63  89 128 159 199 258 311 361
#     4  10  21  40  63  88 125 159 206 259 305 356
#     4   9  18  39  64  91 123 155 198 260 307 358
#     4  10  23  43  60  93 130 159 208 255 301 375
#
# _framework density 21.034248999999999
#
# number of rings (size 3 to 8) (size 9 to 14) (size 15 to 20)
#    0.000    2.000    1.250    0.750    5.250    1.500 
#    0.000    8.125    0.000    0.000    0.000    0.000 
#    0.000    0.000    0.000    0.000    0.000    0.000 
#
# Total GULP energy -198364.279850 kJ/mol
# GULP energy per Si atom -12397.767491 kJ/mol
# Density = 2.098637 g / cm^3
# Si number density = 21.034249 Si / 1000 Ang^3
#
#
#
# Elastic Constant Matrix: (Units=GPa)
#
#
# Indices 1 2 3 4 5 6 
#
# 1 92.3673 31.3474 25.0560 -8.7727 -0.5641 20.3100
# 2 31.3474 71.9262 23.8190 6.2657 3.9040 12.5288
# 3 25.0560 23.8190 65.8350 -9.3147 -7.4316 2.3459
# 4 -8.7727 6.2657 -9.3147 29.3805 7.1453 -5.9552
# 5 -0.5641 3.9040 -7.4316 7.1453 24.4070 -2.8616
# 6 20.3100 12.5288 2.3459 -5.9552 -2.8616 30.1077
#
#
#
# Elastic Compliance Matrix: (Units=1/GPa)
#
#
# Indices 1 2 3 4 5 6 
#
# 1 0.015295 -0.004213 -0.003794 0.003154 -0.001969 -0.007832
# 2 -0.004213 0.020247 -0.007085 -0.008304 -0.003888 -0.007043
# 3 -0.003794 -0.007085 0.020610 0.006610 0.006064 0.005785
# 4 0.003154 -0.008304 0.006610 0.042514 -0.008041 0.008458
# 5 -0.001969 -0.003888 0.006064 -0.008041 0.046369 0.005291
# 6 -0.007832 -0.007043 0.005785 0.008458 0.005291 0.043153
#
#
# Mechanical properties :
#
#
# Convention : Reuss Voigt Hill
#
# Bulk Modulus (GPa) = 38.50758 43.39704 40.95231
# Shear Modulus (GPa) = 22.02373 26.77278 24.39826
#
# Velocity S-wave (km/s) = 3.23931 3.57153 3.40947
# Velocity P-wave (km/s) = 5.68662 6.13874 5.91700
#
# Compressibility (1/GPa) = 0.02596891
#
# Stress axis : x y z
#
# Youngs Moduli (GPa) = 65.38079 49.39065 48.51993
#
# Poissons Ratio (x) = 0.20810 0.18407
# Poissons Ratio (y) = 0.27547 0.34374
# Poissons Ratio (z) = 0.24803 0.34991
#
# Static dielectric constant tensor:
#      x y z
#    x 3.814360 0.303730 0.061200 
#    y 0.303730 3.733840 0.007040 
#    z 0.061200 0.007040 3.848670 
# 
# 
# High freq. dielectric constant tensor:
#      x y z
#    x 1.824400 0.022490 0.001500 
#    y 0.022490 1.813790 -0.000690 
#    z 0.001500 -0.000690 1.823910 
# 
# From -- ./inp_files/425318.got.cif
#   From: 2010.06.25/outbox.cif.g09.slc.cpg/sg2_213_cif.got.tgz:425318.got - 2010.06.27 13:26:56.
