data_PCOD8012119
_publ_section_title
;
Structure prediction by ZEFSAII (Michael W. Deem and Ramdas Pophale) SiO2 
 PCOD8012119
Probable space group: P -1
;
_chemical_formula_sum "Si O2"
_cell_formula_units_Z 16
_cell_length_a 8.216548
_cell_length_b 9.404821
_cell_length_c 14.119247
_cell_angle_alpha 42.248607
_cell_angle_beta 73.035753
_cell_angle_gamma 80.935552
_cell_volume 698.754733
_symmetry_space_group_name_H-M "P -1"
_symmetry_group_IT_number 2
_symmetry_cell_setting 'triclinic'
loop_
_space_group_symop_operation_xyz
x,y,z
-x,-y,-z
loop_
_atom_site_type_symbol
_atom_site_label
_atom_site_fract_x
_atom_site_fract_y
_atom_site_fract_z
Si Si1 0.813844 0.778553 0.003651
Si Si2 0.241763 0.905787 0.525423
Si Si3 0.171153 0.850528 0.059492
Si Si4 0.604956 0.983324 0.218276
Si Si5 0.464614 0.712811 0.202472
Si Si6 0.609052 0.762980 0.519957
Si Si7 0.966923 0.545418 0.810564
Si Si8 0.724760 0.836612 0.784289
O O1 0.795063 0.888530 0.851662
O O2 0.917149 0.952376 0.972551
O O3 0.634772 0.689596 0.124187
O O4 0.926981 0.580029 0.069049
O O5 0.409686 0.781686 0.564795
O O6 0.075704 0.758858 0.656125
O O7 0.268363 0.113898 0.484383
O O8 0.203655 0.975166 0.390645
O O9 0.342967 0.853220 0.093165
O O10 0.066726 0.618356 0.192023
O O11 0.227805 0.900789 0.916489
O O12 0.481699 0.165059 0.181393
O O13 0.504041 0.819613 0.244373
O O14 0.663508 0.854430 0.362465
O O15 0.364346 0.484162 0.353485
O O16 0.787104 0.610692 0.851092
#
# Coordination Sequence:
#
# PCOD8012119 Si02
#       8
#     2   2   2   2   2   2   2   2
#     4  11  22  43  63  95 129 164 213 260 313 373
#     4  10  23  43  60  93 129 166 209 261 315 373
#     4  11  23  42  66  95 128 169 205 265 311 376
#     4  10  21  39  66  97 126 161 217 259 309 371
#     4  11  19  41  69  93 125 166 211 261 312 374
#     4  10  21  39  68  92 125 163 212 264 311 374
#     4  12  25  41  64  91 133 170 207 258 321 370
#     4  11  22  41  65  90 130 167 206 264 308 372
#
# _framework density 22.897877000000001
#
# number of rings (size 3 to 8) (size 9 to 14) (size 15 to 20)
#    0.000    1.250    3.750    3.000    0.000    2.500 
#    2.250    0.625    0.000    0.000    0.000    0.000 
#    0.000    0.000    0.000    0.000    0.000    0.000 
#
# Total GULP energy -198405.913820 kJ/mol
# GULP energy per Si atom -12400.369614 kJ/mol
# Density = 2.284576 g / cm^3
# Si number density = 22.897877 Si / 1000 Ang^3
#
#
#
# Elastic Constant Matrix: (Units=GPa)
#
#
# Indices 1 2 3 4 5 6 
#
# 1 53.9725 28.8513 40.2900 4.9565 -7.4580 -8.2689
# 2 28.8513 103.3069 56.3530 0.6264 -2.2498 -12.0450
# 3 40.2900 56.3530 117.8165 7.7330 6.2817 3.1124
# 4 4.9565 0.6264 7.7330 39.5614 11.3815 11.2525
# 5 -7.4580 -2.2498 6.2817 11.3815 28.9789 -6.0912
# 6 -8.2689 -12.0450 3.1124 11.2525 -6.0912 40.8571
#
#
#
# Elastic Compliance Matrix: (Units=1/GPa)
#
#
# Indices 1 2 3 4 5 6 
#
# 1 0.032949 -0.001077 -0.011337 -0.010627 0.017714 0.012782
# 2 -0.001077 0.014444 -0.006806 -0.001532 0.004096 0.005591
# 3 -0.011337 -0.006806 0.016133 0.003528 -0.010009 -0.007994
# 4 -0.010627 -0.001532 0.003528 0.036712 -0.021438 -0.016178
# 5 0.017714 0.004096 -0.010009 -0.021438 0.054078 0.019522
# 6 0.012782 0.005591 -0.007994 -0.016178 0.019522 0.036686
#
#
# Mechanical properties :
#
#
# Convention : Reuss Voigt Hill
#
# Bulk Modulus (GPa) = 39.86319 58.45384 49.15851
# Shear Modulus (GPa) = 21.02584 31.85294 26.43939
#
# Velocity S-wave (km/s) = 3.03354 3.73377 3.40172
# Velocity P-wave (km/s) = 5.45131 6.64617 6.07817
#
# Compressibility (1/GPa) = 0.02508580
#
# Stress axis : x y z
#
# Youngs Moduli (GPa) = 30.35032 69.23490 61.98374
#
# Poissons Ratio (x) = 0.07457 0.70271
# Poissons Ratio (y) = 0.03269 0.42185
# Poissons Ratio (z) = 0.34408 0.47119
#
# Static dielectric constant tensor:
#      x y z
#    x 4.195000 -0.155080 0.216250 
#    y -0.155080 4.168960 0.009250 
#    z 0.216250 0.009250 3.955990 
# 
# 
# High freq. dielectric constant tensor:
#      x y z
#    x 1.913730 -0.006000 0.019530 
#    y -0.006000 1.903300 -0.005040 
#    z 0.019530 -0.005040 1.897840 
# 
# From -- ./inp_files/227377.got.cif
#   From: 2010.06.25/outbox.cif.g09.slc.cpg/sg2_114_cif.got.tgz:227377.got - 2010.06.27 13:26:56.
