data_PCOD8012607
_publ_section_title
;
Structure prediction by ZEFSAII (Michael W. Deem and Ramdas Pophale) SiO2 
 PCOD8012607
Probable space group: P -1
;
_chemical_formula_sum "Si O2"
_cell_formula_units_Z 14
_cell_length_a 9.227885
_cell_length_b 11.575672
_cell_length_c 12.083783
_cell_angle_alpha 69.019827
_cell_angle_beta 142.059855
_cell_angle_gamma 95.397477
_cell_volume 700.006044
_symmetry_space_group_name_H-M "P -1"
_symmetry_group_IT_number 2
_symmetry_cell_setting 'triclinic'
loop_
_space_group_symop_operation_xyz
x,y,z
-x,-y,-z
loop_
_atom_site_type_symbol
_atom_site_label
_atom_site_fract_x
_atom_site_fract_y
_atom_site_fract_z
Si Si1 0.455589 0.895111 0.591829
Si Si2 0.558857 0.801349 0.110675
Si Si3 0.108195 0.039483 0.776275
Si Si4 0.213129 0.187064 0.976463
Si Si5 0.974236 0.461820 0.819606
Si Si6 0.396013 0.404206 0.260801
Si Si7 0.209213 0.460417 0.548809
O O1 0.605548 0.897743 0.792336
O O2 0.550024 0.751016 0.643245
O O3 0.167878 0.936816 0.442399
O O4 0.500000 0.000000 0.500000
O O5 0.740592 0.883494 0.231565
O O6 0.594725 0.679961 0.255168
O O7 0.627906 0.760590 0.037407
O O8 0.267745 0.886025 0.918815
O O9 0.085891 0.091252 0.872618
O O10 0.000924 0.311496 0.858380
O O11 0.742763 0.521346 0.740505
O O12 0.916336 0.546203 0.643275
O O13 0.230844 0.462955 0.031767
O O14 0.657901 0.429386 0.404244
O O15 0.000000 0.500000 0.500000
#
# Coordination Sequence:
#
# PCOD8012607 Si02
#       7
#     2   2   2   2   2   2   2
#     4  11  23  38  62  84 114 161 204 236 296 359
#     4   9  20  39  60  89 120 152 196 242 304 353
#     4   9  20  41  56  84 124 149 191 252 285 348
#     4   9  19  40  59  86 119 154 192 250 296 342
#     4  10  21  40  62  85 127 157 196 250 295 354
#     4  10  24  41  58  92 124 155 200 251 297 350
#     4  12  21  38  65  91 118 160 201 240 306 359
#
# _framework density 19.999827
#
# number of rings (size 3 to 8) (size 9 to 14) (size 15 to 20)
#    0.857    1.143    1.429    2.143    0.000    6.286 
#    2.571    0.000    0.000    0.000    0.000    0.000 
#    0.000    0.000    0.000    0.000    0.000    0.000 
#
# Total GULP energy -173545.346113 kJ/mol
# GULP energy per Si atom -12396.096151 kJ/mol
# Density = 1.995431 g / cm^3
# Si number density = 19.999827 Si / 1000 Ang^3
#
#
#
# Elastic Constant Matrix: (Units=GPa)
#
#
# Indices 1 2 3 4 5 6 
#
# 1 84.4189 33.1079 45.4771 -2.9658 -7.8888 -7.5568
# 2 33.1079 79.2175 35.4387 -17.5194 -5.7060 -5.9409
# 3 45.4771 35.4387 111.3387 -14.4402 -17.6791 2.7310
# 4 -2.9658 -17.5194 -14.4402 33.2881 -2.7305 3.2011
# 5 -7.8888 -5.7060 -17.6791 -2.7305 45.7221 -3.5565
# 6 -7.5568 -5.9409 2.7310 3.2011 -3.5565 31.7062
#
#
#
# Elastic Compliance Matrix: (Units=1/GPa)
#
#
# Indices 1 2 3 4 5 6 
#
# 1 0.017377 -0.005150 -0.006093 -0.004197 0.000070 0.004133
# 2 -0.005150 0.017774 -0.002432 0.007764 0.000981 0.001639
# 3 -0.006093 -0.002432 0.013550 0.004676 0.003922 -0.003107
# 4 -0.004197 0.007764 0.004676 0.036413 0.003980 -0.003178
# 5 0.000070 0.000981 0.003922 0.003980 0.023927 0.002145
# 6 0.004133 0.001639 -0.003107 -0.003178 0.002145 0.033661
#
#
# Mechanical properties :
#
#
# Convention : Reuss Voigt Hill
#
# Bulk Modulus (GPa) = 46.83447 55.89140 51.36294
# Shear Modulus (GPa) = 28.22193 32.87338 30.54765
#
# Velocity S-wave (km/s) = 3.76055 4.05863 3.91243
# Velocity P-wave (km/s) = 6.50568 7.06894 6.79315
#
# Compressibility (1/GPa) = 0.02135180
#
# Stress axis : x y z
#
# Youngs Moduli (GPa) = 57.54792 56.26201 73.80233
#
# Poissons Ratio (x) = 0.28974 0.44968
# Poissons Ratio (y) = 0.29636 0.17945
# Poissons Ratio (z) = 0.35064 0.13680
#
# Static dielectric constant tensor:
#      x y z
#    x 3.482720 -0.043990 -0.179660 
#    y -0.043990 3.815260 -0.315660 
#    z -0.179660 -0.315660 3.969170 
# 
# 
# High freq. dielectric constant tensor:
#      x y z
#    x 1.760820 -0.019380 0.003560 
#    y -0.019380 1.767900 -0.011230 
#    z 0.003560 -0.011230 1.795160 
# 
# From -- ./inp_files/389859.got.cif
#   From: 2010.06.25/outbox.cif.g09.slc.cpg/sg2_195_cif.got.tgz:389859.got - 2010.06.27 13:26:56.
