data_PCOD8012475
_publ_section_title
;
Structure prediction by ZEFSAII (Michael W. Deem and Ramdas Pophale) SiO2 
 PCOD8012475
Probable space group: P -1
;
_chemical_formula_sum "Si O2"
_cell_formula_units_Z 16
_cell_length_a 11.120278
_cell_length_b 8.597622
_cell_length_c 10.090654
_cell_angle_alpha 62.365808
_cell_angle_beta 68.507481
_cell_angle_gamma 62.273001
_cell_volume 742.475795
_symmetry_space_group_name_H-M "P -1"
_symmetry_group_IT_number 2
_symmetry_cell_setting 'triclinic'
loop_
_space_group_symop_operation_xyz
x,y,z
-x,-y,-z
loop_
_atom_site_type_symbol
_atom_site_label
_atom_site_fract_x
_atom_site_fract_y
_atom_site_fract_z
Si Si1 0.786832 0.032868 0.575949
Si Si2 0.384241 0.929065 0.128937
Si Si3 0.259229 0.598982 0.046675
Si Si4 0.596779 0.109830 0.376283
Si Si5 0.495364 0.475324 0.816299
Si Si6 0.777170 0.003188 0.096990
Si Si7 0.054069 0.720021 0.500198
Si Si8 0.005809 0.360704 0.734278
O O1 0.685567 0.979867 0.740118
O O2 0.724372 0.068681 0.440687
O O3 0.815547 0.216849 0.546751
O O4 0.926602 0.854241 0.583493
O O5 0.456527 0.707071 0.224059
O O6 0.500000 0.000000 0.000000
O O7 0.267082 0.984370 0.042528
O O8 0.386566 0.573923 0.101691
O O9 0.142138 0.524119 0.179487
O O10 0.340063 0.497161 0.922352
O O11 0.173401 0.820940 0.966157
O O12 0.510108 0.333292 0.328070
O O13 0.500000 0.000000 0.500000
O O14 0.649664 0.035211 0.237470
O O15 0.897383 0.803966 0.147504
O O16 0.023876 0.733451 0.350465
O O17 0.084393 0.505556 0.618111
#
# Coordination Sequence:
#
# PCOD8012475 Si02
#       8
#     2   2   2   2   2   2   2   2
#     4  11  24  44  60  95 138 165 206 270 334 372
#     4  11  24  41  65  89 131 172 208 265 332 382
#     4   9  19  35  63  87 127 156 205 270 312 365
#     4  11  23  39  69  93 126 169 218 267 314 388
#     4   9  21  38  56  94 123 162 212 262 320 376
#     4  10  21  40  59  98 121 161 220 264 307 389
#     4  10  24  40  63  94 133 173 205 267 328 383
#     4  11  21  39  69  95 119 174 227 256 310 397
#
# _framework density 21.549523000000001
#
# number of rings (size 3 to 8) (size 9 to 14) (size 15 to 20)
#    0.000    1.750    1.250    3.375    3.500    2.500 
#    2.250    0.625    0.000    0.000    0.000    0.000 
#    0.000    0.000    0.000    0.000    0.000    0.000 
#
# Total GULP energy -198310.692923 kJ/mol
# GULP energy per Si atom -12394.418308 kJ/mol
# Density = 2.150048 g / cm^3
# Si number density = 21.549523 Si / 1000 Ang^3
#
#
#
# Elastic Constant Matrix: (Units=GPa)
#
#
# Indices 1 2 3 4 5 6 
#
# 1 59.5729 27.6484 16.0156 -7.1617 -15.2323 -3.1570
# 2 27.6484 76.9608 27.2872 -11.0134 4.0828 -14.2259
# 3 16.0156 27.2872 90.1835 -0.8052 -12.2107 -10.6369
# 4 -7.1617 -11.0134 -0.8052 32.0364 -3.3802 0.1939
# 5 -15.2323 4.0828 -12.2107 -3.3802 36.4196 -0.3307
# 6 -3.1570 -14.2259 -10.6369 0.1939 -0.3307 29.2819
#
#
#
# Elastic Compliance Matrix: (Units=1/GPa)
#
#
# Indices 1 2 3 4 5 6 
#
# 1 0.024312 -0.009094 -0.000194 0.003521 0.011434 -0.001762
# 2 -0.009094 0.020134 -0.004582 0.003975 -0.007164 0.007029
# 3 -0.000194 -0.004582 0.013487 -0.000778 0.004907 0.002713
# 4 0.003521 0.003975 -0.000778 0.033750 0.003915 0.001849
# 5 0.011434 -0.007164 0.004907 0.003915 0.035051 -0.000095
# 6 -0.001762 0.007029 0.002713 0.001849 -0.000095 0.038348
#
#
# Mechanical properties :
#
#
# Convention : Reuss Voigt Hill
#
# Bulk Modulus (GPa) = 33.12152 40.95774 37.03963
# Shear Modulus (GPa) = 24.64435 29.93197 27.28816
#
# Velocity S-wave (km/s) = 3.38541 3.73095 3.56237
# Velocity P-wave (km/s) = 5.53937 6.13250 5.84347
#
# Compressibility (1/GPa) = 0.03019186
#
# Stress axis : x y z
#
# Youngs Moduli (GPa) = 41.13147 49.66845 74.14616
#
# Poissons Ratio (x) = 0.45167 0.01441
# Poissons Ratio (y) = 0.37404 0.33977
# Poissons Ratio (z) = 0.00799 0.22760
#
# Static dielectric constant tensor:
#      x y z
#    x 3.724670 -0.036510 -0.117440 
#    y -0.036510 4.062900 -0.015610 
#    z -0.117440 -0.015610 3.999300 
# 
# 
# High freq. dielectric constant tensor:
#      x y z
#    x 1.827990 -0.010520 -0.014290 
#    y -0.010520 1.847680 -0.003410 
#    z -0.014290 -0.003410 1.849730 
# 
# From -- ./inp_files/242513.got.cif
#   From: 2010.06.25/outbox.cif.g09.slc.cpg/sg2_122_cif.got.tgz:242513.got - 2010.06.27 13:26:56.
