data_PCOD8012525
_publ_section_title
;
Structure prediction by ZEFSAII (Michael W. Deem and Ramdas Pophale) SiO2 
 PCOD8012525
Probable space group: P -1
;
_chemical_formula_sum "Si O2"
_cell_formula_units_Z 16
_cell_length_a 14.623564
_cell_length_b 9.481739
_cell_length_c 11.562594
_cell_angle_alpha 79.832740
_cell_angle_beta 32.044151
_cell_angle_gamma 67.465701
_cell_volume 748.835291
_symmetry_space_group_name_H-M "P -1"
_symmetry_group_IT_number 2
_symmetry_cell_setting 'triclinic'
loop_
_space_group_symop_operation_xyz
x,y,z
-x,-y,-z
loop_
_atom_site_type_symbol
_atom_site_label
_atom_site_fract_x
_atom_site_fract_y
_atom_site_fract_z
Si Si1 0.962015 0.812623 0.691951
Si Si2 0.975144 0.274234 0.828201
Si Si3 0.712186 0.367030 0.305257
Si Si4 0.810296 0.357925 0.744515
Si Si5 0.517490 0.004397 0.115680
Si Si6 0.852153 0.498323 0.331980
Si Si7 0.220895 0.914299 0.555493
Si Si8 0.582046 0.647453 0.794945
O O1 0.029282 0.770490 0.493006
O O2 0.982403 0.655407 0.760440
O O3 0.092734 0.887586 0.597903
O O4 0.739597 0.937464 0.923030
O O5 0.909156 0.352402 0.761583
O O6 0.095323 0.355077 0.748536
O O7 0.793796 0.308034 0.098955
O O8 0.100278 0.085113 0.718342
O O9 0.500000 0.500000 0.500000
O O10 0.827134 0.450317 0.236118
O O11 0.718913 0.218330 0.391210
O O12 0.722035 0.538796 0.763394
O O13 0.638242 0.308607 0.950333
O O14 0.419083 0.901314 0.291626
O O15 0.399131 0.188264 0.257140
O O16 0.500000 0.000000 0.000000
O O17 0.654023 0.551295 0.610992
#
# Coordination Sequence:
#
# PCOD8012525 Si02
#       8
#     2   2   2   2   2   2   2   2
#     4  10  24  42  65  99 140 175 214 270 333 396
#     4  12  23  42  70  93 133 173 220 274 332 389
#     4  11  26  46  70  94 126 174 227 277 335 387
#     4  10  22  39  68  95 138 177 213 268 331 393
#     4  12  24  37  67 100 138 172 220 266 330 391
#     4  10  23  43  66  95 130 170 223 274 330 396
#     4  11  25  47  66  99 136 176 220 274 333 396
#     4  10  21  40  61 100 133 174 217 267 326 400
#
# _framework density 21.366513999999999
#
# number of rings (size 3 to 8) (size 9 to 14) (size 15 to 20)
#    0.000    1.250    1.250    3.750    3.500    4.500 
#    0.000    0.625    0.000    0.000    0.000    0.000 
#    0.000    0.000    0.000    0.000    0.000    0.000 
#
# Total GULP energy -198468.901207 kJ/mol
# GULP energy per Si atom -12404.306325 kJ/mol
# Density = 2.131788 g / cm^3
# Si number density = 21.366514 Si / 1000 Ang^3
#
#
#
# Elastic Constant Matrix: (Units=GPa)
#
#
# Indices 1 2 3 4 5 6 
#
# 1 92.2205 50.6707 42.9157 0.7966 8.7658 -8.0844
# 2 50.6707 133.5673 46.7633 5.9871 -7.3955 8.1783
# 3 42.9157 46.7633 123.8620 3.2078 0.8335 -8.0373
# 4 0.7966 5.9871 3.2078 34.0264 2.5329 -4.2884
# 5 8.7658 -7.3955 0.8335 2.5329 34.6442 3.6234
# 6 -8.0844 8.1783 -8.0373 -4.2884 3.6234 24.9475
#
#
#
# Elastic Compliance Matrix: (Units=1/GPa)
#
#
# Indices 1 2 3 4 5 6 
#
# 1 0.017072 -0.006402 -0.002995 0.002520 -0.006642 0.008064
# 2 -0.006402 0.011794 -0.002717 -0.003084 0.005277 -0.008113
# 3 -0.002995 -0.002717 0.010355 0.000022 -0.000420 0.003321
# 4 0.002520 -0.003084 0.000022 0.031185 -0.004396 0.007834
# 5 -0.006642 0.005277 -0.000420 -0.004396 0.033004 -0.009567
# 6 0.008064 -0.008113 0.003321 0.007834 -0.009567 0.049163
#
#
# Mechanical properties :
#
#
# Convention : Reuss Voigt Hill
#
# Bulk Modulus (GPa) = 66.70085 70.03880 68.36982
# Shear Modulus (GPa) = 27.50324 32.67696 30.09010
#
# Velocity S-wave (km/s) = 3.59167 3.91494 3.75678
# Velocity P-wave (km/s) = 6.96314 7.29976 7.13344
#
# Compressibility (1/GPa) = 0.01499231
#
# Stress axis : x y z
#
# Youngs Moduli (GPa) = 58.57714 84.78988 96.57527
#
# Poissons Ratio (x) = 0.54283 0.28926
# Poissons Ratio (y) = 0.37502 0.26235
# Poissons Ratio (z) = 0.17545 0.23034
#
# Static dielectric constant tensor:
#      x y z
#    x 3.840910 0.231230 0.079530 
#    y 0.231230 4.446290 0.141200 
#    z 0.079530 0.141200 3.948700 
# 
# 
# High freq. dielectric constant tensor:
#      x y z
#    x 1.829820 0.002280 0.003960 
#    y 0.002280 1.849860 0.004870 
#    z 0.003960 0.004870 1.849310 
# 
# From -- ./inp_files/180716.got.cif
#   From: 2010.06.25/outbox.cif.g09.slc.cpg/sg2_91_cif.got.tgz:180716.got - 2010.06.27 13:26:56.
