data_PCOD8012836
_publ_section_title
;
Structure prediction by ZEFSAII (Michael W. Deem and Ramdas Pophale) SiO2 
 PCOD8012836
Probable space group: P -1
;
_chemical_formula_sum "Si O2"
_cell_formula_units_Z 16
_cell_length_a 13.825451
_cell_length_b 6.471687
_cell_length_c 14.165268
_cell_angle_alpha 74.698644
_cell_angle_beta 141.636492
_cell_angle_gamma 81.143443
_cell_volume 605.378396
_symmetry_space_group_name_H-M "P -1"
_symmetry_group_IT_number 2
_symmetry_cell_setting 'triclinic'
loop_
_space_group_symop_operation_xyz
x,y,z
-x,-y,-z
loop_
_atom_site_type_symbol
_atom_site_label
_atom_site_fract_x
_atom_site_fract_y
_atom_site_fract_z
Si Si1 0.580720 0.207060 0.064898
Si Si2 0.497066 0.746976 0.530801
Si Si3 0.712936 0.704421 0.314972
Si Si4 0.161011 0.066799 0.355816
Si Si5 0.032878 0.181683 0.701311
Si Si6 0.885436 0.329683 0.960259
Si Si7 0.455285 0.178744 0.637624
Si Si8 0.894878 0.817327 0.035916
O O1 0.672589 0.996469 0.249825
O O2 0.748405 0.068021 0.129634
O O3 0.500000 0.500000 0.000000
O O4 0.382618 0.273472 0.861245
O O5 0.282287 0.855153 0.387449
O O6 0.653750 0.548295 0.752192
O O7 0.545589 0.638571 0.470657
O O8 0.500000 0.000000 0.500000
O O9 0.605755 0.674350 0.325440
O O10 0.938252 0.434630 0.525778
O O11 0.090774 0.935878 0.386168
O O12 0.299094 0.118578 0.508963
O O13 0.975279 0.339757 0.129109
O O14 0.025335 0.306528 0.783249
O O15 0.983048 0.368368 0.939436
O O16 0.915712 0.053263 0.019598
O O17 0.675865 0.908362 0.844422
#
# Coordination Sequence:
#
# PCOD8012836 Si02
#       8
#     2   2   2   2   2   2   2   2
#     4  11  27  53  80 108 143 181 230 310 376 439
#     4  10  22  39  61  96 144 192 236 286 337 403
#     4  11  26  49  78 111 142 185 241 293 372 442
#     4  10  24  41  65 107 141 194 240 287 350 415
#     4  11  24  48  76 107 142 189 242 292 361 440
#     4  10  21  40  63  96 142 191 246 285 340 413
#     4  11  22  43  64 104 147 188 235 298 352 415
#     4  10  21  40  69  99 140 192 237 294 346 412
#
# _framework density 26.429751
#
# number of rings (size 3 to 8) (size 9 to 14) (size 15 to 20)
#    0.000    1.500    2.500    1.125    3.500    3.000 
#   13.500    0.000    0.000    0.000    0.000    0.000 
#    0.000    0.000    0.000    0.000    0.000    0.000 
#
# Total GULP energy -198244.068509 kJ/mol
# GULP energy per Si atom -12390.254282 kJ/mol
# Density = 2.636960 g / cm^3
# Si number density = 26.429751 Si / 1000 Ang^3
#
#
#
# Elastic Constant Matrix: (Units=GPa)
#
#
# Indices 1 2 3 4 5 6 
#
# 1 82.1685 13.2098 16.9080 -0.2641 -16.0516 5.3733
# 2 13.2098 47.2067 34.3247 -9.0770 -9.4321 -3.9089
# 3 16.9080 34.3247 190.5846 -6.9606 -14.1860 15.8543
# 4 -0.2641 -9.0770 -6.9606 45.5050 7.7076 -2.8014
# 5 -16.0516 -9.4321 -14.1860 7.7076 42.5325 -0.8283
# 6 5.3733 -3.9089 15.8543 -2.8014 -0.8283 34.4046
#
#
#
# Elastic Compliance Matrix: (Units=1/GPa)
#
#
# Indices 1 2 3 4 5 6 
#
# 1 0.013801 -0.003345 -0.000125 -0.001548 0.004657 -0.002492
# 2 -0.003345 0.027565 -0.004835 0.004704 0.002508 0.006326
# 3 -0.000125 -0.004835 0.006486 -0.000366 0.001042 -0.003524
# 4 -0.001548 0.004704 -0.000366 0.023681 -0.003901 0.002779
# 5 0.004657 0.002508 0.001042 -0.003901 0.026868 -0.000593
# 6 -0.002492 0.006326 -0.003524 0.002779 -0.000593 0.032010
#
#
# Mechanical properties :
#
#
# Convention : Reuss Voigt Hill
#
# Bulk Modulus (GPa) = 32.00777 49.87165 40.93971
# Shear Modulus (GPa) = 31.75914 41.52290 36.64102
#
# Velocity S-wave (km/s) = 3.47023 3.96797 3.72742
# Velocity P-wave (km/s) = 5.30975 6.31692 5.83511
#
# Compressibility (1/GPa) = 0.03124241
#
# Stress axis : x y z
#
# Youngs Moduli (GPa) = 72.45699 36.27803 154.17284
#
# Poissons Ratio (x) = 0.12135 0.01920
# Poissons Ratio (y) = 0.24237 0.74550
# Poissons Ratio (z) = 0.00902 0.17542
#
# Static dielectric constant tensor:
#      x y z
#    x 5.241200 -0.148110 -0.283990 
#    y -0.148110 4.811090 -0.014070 
#    z -0.283990 -0.014070 5.252380 
# 
# 
# High freq. dielectric constant tensor:
#      x y z
#    x 2.053480 0.011490 -0.000380 
#    y 0.011490 2.055110 -0.006080 
#    z -0.000380 -0.006080 2.080030 
# 
# From -- ./inp_files/529556.got.cif
#   From: 2010.06.25/outbox.cif.g09.slc.cpg/sg2_265_cif.got.tgz:529556.got - 2010.06.27 13:26:56.
