data_PCOD8012705
_publ_section_title
;
Structure prediction by ZEFSAII (Michael W. Deem and Ramdas Pophale) SiO2 
 PCOD8012705
Probable space group: P -1
;
_chemical_formula_sum "Si O2"
_cell_formula_units_Z 16
_cell_length_a 6.528659
_cell_length_b 16.059806
_cell_length_c 11.976098
_cell_angle_alpha 54.520471
_cell_angle_beta 85.197050
_cell_angle_gamma 51.723345
_cell_volume 724.159230
_symmetry_space_group_name_H-M "P -1"
_symmetry_group_IT_number 2
_symmetry_cell_setting 'triclinic'
loop_
_space_group_symop_operation_xyz
x,y,z
-x,-y,-z
loop_
_atom_site_type_symbol
_atom_site_label
_atom_site_fract_x
_atom_site_fract_y
_atom_site_fract_z
Si Si1 0.242946 0.360951 0.438908
Si Si2 0.784570 0.459875 0.535494
Si Si3 0.148388 0.940423 0.375313
Si Si4 0.832481 0.995077 0.918622
Si Si5 0.205677 0.574693 0.892193
Si Si6 0.896759 0.584547 0.100804
Si Si7 0.219282 0.217403 0.873563
Si Si8 0.847023 0.891884 0.578262
O O1 0.308273 0.395727 0.526860
O O2 0.508073 0.197019 0.520594
O O3 0.952274 0.400212 0.455130
O O4 0.179662 0.454234 0.261916
O O5 0.500000 0.500000 0.500000
O O6 0.953479 0.349625 0.713275
O O7 0.066346 0.990832 0.212647
O O8 0.963178 0.906935 0.449135
O O9 0.070624 0.066569 0.352901
O O10 0.490184 0.121335 0.853890
O O11 0.892734 0.853044 0.023283
O O12 0.000000 0.000000 0.000000
O O13 0.276841 0.457909 0.892408
O O14 0.035088 0.723058 0.717006
O O15 0.500000 0.500000 0.000000
O O16 0.980277 0.614389 0.962445
O O17 0.705984 0.730800 0.068336
O O18 0.500000 0.000000 0.500000
#
# Coordination Sequence:
#
# PCOD8012705 Si02
#       8
#     2   2   2   2   2   2   2   2
#     4  10  21  40  62  96 133 174 222 279 331 409
#     4  10  22  37  64  92 131 171 222 269 333 399
#     4  11  24  44  68  98 140 179 231 288 342 416
#     4  11  25  42  67  96 139 185 226 280 344 416
#     4  11  24  44  69  99 131 178 231 289 353 411
#     4  10  23  41  68  94 134 172 222 288 340 405
#     4  10  23  43  62  98 133 175 227 275 339 415
#     4  11  26  45  71 102 134 182 235 290 354 413
#
# _framework density 22.094588999999999
#
# number of rings (size 3 to 8) (size 9 to 14) (size 15 to 20)
#    0.000    1.500    1.250    2.250    1.750   12.000 
#    0.000    0.000    0.000    0.000    0.000    0.000 
#    0.000    0.000    0.000    0.000    0.000    0.000 
#
# Total GULP energy -198335.807287 kJ/mol
# GULP energy per Si atom -12395.987955 kJ/mol
# Density = 2.204430 g / cm^3
# Si number density = 22.094589 Si / 1000 Ang^3
#
#
#
# Elastic Constant Matrix: (Units=GPa)
#
#
# Indices 1 2 3 4 5 6 
#
# 1 138.9700 41.3123 52.9569 -0.6514 -9.8487 4.9364
# 2 41.3123 96.9592 35.9813 2.9105 -18.5168 20.4174
# 3 52.9569 35.9813 117.5602 14.1107 -22.5246 11.0500
# 4 -0.6514 2.9105 14.1107 37.9451 -3.0460 -5.0846
# 5 -9.8487 -18.5168 -22.5246 -3.0460 39.4708 3.0824
# 6 4.9364 20.4174 11.0500 -5.0846 3.0824 39.7570
#
#
#
# Elastic Compliance Matrix: (Units=1/GPa)
#
#
# Indices 1 2 3 4 5 6 
#
# 1 0.009549 -0.003355 -0.003994 0.002060 -0.001470 0.002025
# 2 -0.003355 0.014923 -0.001014 -0.001357 0.006074 -0.007610
# 3 -0.003994 -0.001014 0.012587 -0.004691 0.005623 -0.003518
# 4 0.002060 -0.001357 -0.004691 0.028897 -0.001001 0.005519
# 5 -0.001470 0.006074 0.005623 -0.001001 0.031502 -0.007070
# 6 0.002025 -0.007610 -0.003518 0.005519 -0.007070 0.031041
#
#
# Mechanical properties :
#
#
# Convention : Reuss Voigt Hill
#
# Bulk Modulus (GPa) = 49.18193 68.22116 58.70154
# Shear Modulus (GPa) = 32.89443 38.31718 35.60580
#
# Velocity S-wave (km/s) = 3.86268 4.16893 4.01873
# Velocity P-wave (km/s) = 6.49629 7.35644 6.93970
#
# Compressibility (1/GPa) = 0.02033267
#
# Stress axis : x y z
#
# Youngs Moduli (GPa) = 104.72698 67.01179 79.44871
#
# Poissons Ratio (x) = 0.22485 0.31728
# Poissons Ratio (y) = 0.35140 0.08055
# Poissons Ratio (z) = 0.41823 0.06794
#
# Static dielectric constant tensor:
#      x y z
#    x 4.040250 0.223920 -0.263920 
#    y 0.223920 4.332170 0.007470 
#    z -0.263920 0.007470 3.912450 
# 
# 
# High freq. dielectric constant tensor:
#      x y z
#    x 1.865150 0.007370 -0.011680 
#    y 0.007370 1.877640 0.003970 
#    z -0.011680 0.003970 1.877350 
# 
# From -- ./inp_files/367599.got.cif
#   From: 2010.06.25/outbox.cif.g09.slc.cpg/sg2_184_cif.got.tgz:367599.got - 2010.06.27 13:26:56.
