data_PCOD8012474
_publ_section_title
;
Structure prediction by ZEFSAII (Michael W. Deem and Ramdas Pophale) SiO2 
 PCOD8012474
Probable space group: P -1
;
_chemical_formula_sum "Si O2"
_cell_formula_units_Z 16
_cell_length_a 9.294854
_cell_length_b 14.001897
_cell_length_c 14.667745
_cell_angle_alpha 139.473426
_cell_angle_beta 85.366676
_cell_angle_gamma 63.153353
_cell_volume 754.726036
_symmetry_space_group_name_H-M "P -1"
_symmetry_group_IT_number 2
_symmetry_cell_setting 'triclinic'
loop_
_space_group_symop_operation_xyz
x,y,z
-x,-y,-z
loop_
_atom_site_type_symbol
_atom_site_label
_atom_site_fract_x
_atom_site_fract_y
_atom_site_fract_z
Si Si1 0.518713 0.770792 0.563847
Si Si2 0.643325 0.795518 0.052846
Si Si3 0.747075 0.263274 0.724381
Si Si4 0.146002 0.495310 0.801033
Si Si5 0.350215 0.388827 0.902508
Si Si6 0.044349 0.036301 0.847488
Si Si7 0.689397 0.345081 0.299289
Si Si8 0.571380 0.308184 0.085073
O O1 0.616696 0.743447 0.439980
O O2 0.723112 0.494139 0.388241
O O3 0.475853 0.946155 0.758000
O O4 0.266400 0.882799 0.656094
O O5 0.617659 0.761569 0.132868
O O6 0.507625 0.798292 0.992140
O O7 0.920249 0.573682 0.849467
O O8 0.606156 0.233949 0.743439
O O9 0.623417 0.432333 0.764410
O O10 0.778902 0.361843 0.871467
O O11 0.000000 0.000000 0.500000
O O12 0.197425 0.444140 0.868799
O O13 0.074731 0.716295 0.935863
O O14 0.821670 0.122917 0.881366
O O15 0.093127 0.917295 0.856244
O O16 0.500000 0.500000 0.500000
O O17 0.593991 0.337094 0.209636
#
# Coordination Sequence:
#
# PCOD8012474 Si02
#       8
#     2   2   2   2   2   2   2   2
#     4  10  22  41  62  96 122 165 221 255 315 382
#     4  10  25  40  60  92 138 167 208 263 321 379
#     4  10  22  38  63  98 130 164 218 268 310 372
#     4  11  21  41  63  91 130 174 212 261 315 381
#     4  10  21  40  59  95 128 171 218 252 322 373
#     4  10  21  40  71  91 126 162 217 271 310 379
#     4  10  21  40  70 100 117 165 226 260 318 388
#     4  11  21  44  65  96 131 167 206 274 326 362
#
# _framework density 21.199746000000001
#
# number of rings (size 3 to 8) (size 9 to 14) (size 15 to 20)
#    0.000    1.750    2.500    0.750    0.000    7.500 
#    4.500    6.250    0.000    0.000    0.000    0.000 
#    0.000    0.000    0.000    0.000    0.000    0.000 
#
# Total GULP energy -198223.293412 kJ/mol
# GULP energy per Si atom -12388.955838 kJ/mol
# Density = 2.115149 g / cm^3
# Si number density = 21.199746 Si / 1000 Ang^3
#
#
#
# Elastic Constant Matrix: (Units=GPa)
#
#
# Indices 1 2 3 4 5 6 
#
# 1 139.9577 34.6949 46.0427 -3.4398 -4.3319 -12.0964
# 2 34.6949 85.7455 40.1231 4.8746 2.7008 -6.0229
# 3 46.0427 40.1231 92.3636 -8.0274 -10.6156 -12.8376
# 4 -3.4398 4.8746 -8.0274 28.7618 5.9994 -0.3157
# 5 -4.3319 2.7008 -10.6156 5.9994 29.4814 3.5492
# 6 -12.0964 -6.0229 -12.8376 -0.3157 3.5492 24.9888
#
#
#
# Elastic Compliance Matrix: (Units=1/GPa)
#
#
# Indices 1 2 3 4 5 6 
#
# 1 0.008897 -0.001958 -0.003241 0.000526 -0.000050 0.002183
# 2 -0.001958 0.015915 -0.006693 -0.004112 -0.003303 -0.000133
# 3 -0.003241 -0.006693 0.016973 0.004551 0.004730 0.004923
# 4 0.000526 -0.004112 0.004551 0.038084 -0.006011 0.002937
# 5 -0.000050 -0.003303 0.004730 -0.006011 0.037599 -0.003807
# 6 0.002183 -0.000133 0.004923 0.002937 -0.003807 0.044150
#
#
# Mechanical properties :
#
#
# Convention : Reuss Voigt Hill
#
# Bulk Modulus (GPa) = 55.55263 62.19869 58.87566
# Shear Modulus (GPa) = 26.12288 29.79348 27.95818
#
# Velocity S-wave (km/s) = 3.51412 3.75289 3.63547
# Velocity P-wave (km/s) = 6.53656 6.94132 6.74198
#
# Compressibility (1/GPa) = 0.01800095
#
# Stress axis : x y z
#
# Youngs Moduli (GPa) = 112.40105 62.83355 58.91638
#
# Poissons Ratio (x) = 0.12305 0.19094
# Poissons Ratio (y) = 0.22011 0.39432
# Poissons Ratio (z) = 0.36428 0.42054
#
# Static dielectric constant tensor:
#      x y z
#    x 4.035720 0.282720 -0.144600 
#    y 0.282720 4.518070 0.277180 
#    z -0.144600 0.277180 4.063980 
# 
# 
# High freq. dielectric constant tensor:
#      x y z
#    x 1.826030 0.017970 -0.012200 
#    y 0.017970 1.821330 0.001420 
#    z -0.012200 0.001420 1.836830 
# 
# From -- ./inp_files/504438.got.cif
#   From: 2010.06.25/outbox.cif.g09.slc.cpg/sg2_253_cif.got.tgz:504438.got - 2010.06.27 13:26:56.
