data_PCOD8012245
_publ_section_title
;
Structure prediction by ZEFSAII (Michael W. Deem and Ramdas Pophale) SiO2 
 PCOD8012245
Probable space group: P -1
;
_chemical_formula_sum "Si O2"
_cell_formula_units_Z 16
_cell_length_a 5.065270
_cell_length_b 17.252384
_cell_length_c 9.386249
_cell_angle_alpha 90.439448
_cell_angle_beta 104.596756
_cell_angle_gamma 55.142399
_cell_volume 641.672384
_symmetry_space_group_name_H-M "P -1"
_symmetry_group_IT_number 2
_symmetry_cell_setting 'triclinic'
loop_
_space_group_symop_operation_xyz
x,y,z
-x,-y,-z
loop_
_atom_site_type_symbol
_atom_site_label
_atom_site_fract_x
_atom_site_fract_y
_atom_site_fract_z
Si Si1 0.972023 0.990166 0.746942
Si Si2 0.432245 0.684094 0.851527
Si Si3 0.854171 0.761255 0.544920
Si Si4 0.173312 0.550711 0.550558
Si Si5 0.476420 0.917372 0.054851
Si Si6 0.064244 0.880710 0.483172
Si Si7 0.380617 0.508517 0.140529
Si Si8 0.054699 0.286203 0.978629
O O1 0.640082 0.065001 0.796336
O O2 0.079773 0.049535 0.674046
O O3 0.908247 0.936741 0.614326
O O4 0.232101 0.917941 0.903188
O O5 0.698783 0.570027 0.845775
O O6 0.119901 0.741375 0.702649
O O7 0.648138 0.727376 0.881051
O O8 0.264872 0.694502 0.981416
O O9 0.469200 0.824226 0.547054
O O10 0.930277 0.664333 0.487437
O O11 0.926397 0.816710 0.439698
O O12 0.500000 0.500000 0.500000
O O13 0.280726 0.530825 0.727676
O O14 0.000000 0.500000 0.500000
O O15 0.813065 0.808603 0.096845
O O16 0.500000 0.000000 0.000000
O O17 0.073074 0.619393 0.136337
O O18 0.500000 0.500000 0.000000
#
# Coordination Sequence:
#
# PCOD8012245 Si02
#       8
#     2   2   2   2   2   2   2   2
#     4  10  26  45  67  99 135 180 233 300 346 412
#     4  10  21  39  68 103 137 172 228 281 342 403
#     4  11  23  42  69 104 136 185 235 281 346 431
#     4  11  25  45  69 103 149 188 220 287 358 420
#     4  11  26  44  68  96 143 181 229 285 368 418
#     4  11  25  44  73  99 134 182 243 290 340 407
#     4   9  22  44  71 102 138 176 235 283 334 411
#     4  11  23  40  68  99 133 182 224 286 343 413
#
# _framework density 24.934842
#
# number of rings (size 3 to 8) (size 9 to 14) (size 15 to 20)
#    0.000    1.500    0.000    3.375    8.750    9.000 
#    2.250    0.000    0.000    0.000    0.000    0.000 
#    0.000    0.000    0.000    0.000    0.000    0.000 
#
# Total GULP energy -198234.715725 kJ/mol
# GULP energy per Si atom -12389.669733 kJ/mol
# Density = 2.487809 g / cm^3
# Si number density = 24.934842 Si / 1000 Ang^3
#
#
#
# Elastic Constant Matrix: (Units=GPa)
#
#
# Indices 1 2 3 4 5 6 
#
# 1 107.8400 41.4876 24.3297 15.6270 -7.2180 17.3975
# 2 41.4876 194.2309 30.6998 14.5655 -14.6584 11.9302
# 3 24.3297 30.6998 93.4593 6.0796 -26.0194 3.2361
# 4 15.6270 14.5655 6.0796 27.2625 -3.2312 2.0549
# 5 -7.2180 -14.6584 -26.0194 -3.2312 24.7563 3.2078
# 6 17.3975 11.9302 3.2361 2.0549 3.2078 45.7579
#
#
#
# Elastic Compliance Matrix: (Units=1/GPa)
#
#
# Indices 1 2 3 4 5 6 
#
# 1 0.011671 -0.001552 -0.002022 -0.005113 0.000167 -0.003672
# 2 -0.001552 0.005963 -0.000816 -0.001790 0.002113 -0.000975
# 3 -0.002022 -0.000816 0.015952 0.000012 0.015858 -0.001259
# 4 -0.005113 -0.001790 0.000012 0.040862 0.002746 0.000382
# 5 0.000167 0.002113 0.015858 0.002746 0.059500 -0.006030
# 6 -0.003672 -0.000975 -0.001259 0.000382 -0.006030 0.023999
#
#
# Mechanical properties :
#
#
# Convention : Reuss Voigt Hill
#
# Bulk Modulus (GPa) = 40.31448 65.39606 52.85527
# Shear Modulus (GPa) = 28.57234 39.48954 34.03094
#
# Velocity S-wave (km/s) = 3.38876 3.98390 3.69832
# Velocity P-wave (km/s) = 5.61379 6.88808 6.28332
#
# Compressibility (1/GPa) = 0.02480498
#
# Stress axis : x y z
#
# Youngs Moduli (GPa) = 85.68507 167.71424 62.68784
#
# Poissons Ratio (x) = 0.26023 0.12677
# Poissons Ratio (y) = 0.13295 0.05117
# Poissons Ratio (z) = 0.17327 0.13690
#
# Static dielectric constant tensor:
#      x y z
#    x 4.189430 0.058870 -0.019500 
#    y 0.058870 5.323520 -0.496690 
#    z -0.019500 -0.496690 4.757960 
# 
# 
# High freq. dielectric constant tensor:
#      x y z
#    x 1.983310 0.006120 0.000460 
#    y 0.006120 2.015470 -0.007820 
#    z 0.000460 -0.007820 1.982770 
# 
# From -- ./inp_files/139164.got.cif
#   From: 2010.06.25/outbox.cif.g09.slc.cpg/sg2_70_cif.got.tgz:139164.got - 2010.06.27 13:26:56.
