data_PCOD8012748
_publ_section_title
;
Structure prediction by ZEFSAII (Michael W. Deem and Ramdas Pophale) SiO2 
 PCOD8012748
Probable space group: P -1
;
_chemical_formula_sum "Si O2"
_cell_formula_units_Z 14
_cell_length_a 7.685872
_cell_length_b 5.331721
_cell_length_c 22.289645
_cell_angle_alpha 127.076913
_cell_angle_beta 58.853462
_cell_angle_gamma 90.000061
_cell_volume 554.853913
_symmetry_space_group_name_H-M "P -1"
_symmetry_group_IT_number 2
_symmetry_cell_setting 'triclinic'
loop_
_space_group_symop_operation_xyz
x,y,z
-x,-y,-z
loop_
_atom_site_type_symbol
_atom_site_label
_atom_site_fract_x
_atom_site_fract_y
_atom_site_fract_z
Si Si1 0.840930 0.430639 0.472785
Si Si2 0.650323 0.799281 0.824763
Si Si3 0.115150 0.249996 0.999998
Si Si4 0.622587 0.026243 0.311396
Si Si5 0.259284 0.069361 0.527216
Si Si6 0.443223 0.526244 0.311397
Si Si7 0.124617 0.700713 0.175235
O O1 0.883307 0.025044 0.411024
O O2 0.000000 0.500000 0.500000
O O3 0.571605 0.675528 0.569956
O O4 0.883619 0.525044 0.411024
O O5 0.716217 0.538676 0.717749
O O6 0.732846 0.571312 0.837576
O O7 0.754423 0.071312 0.837576
O O8 0.378874 0.010664 0.904053
O O9 0.091055 0.489315 0.095939
O O10 0.000000 0.500000 0.000000
O O11 0.000000 0.000000 0.000000
O O12 0.604169 0.660940 0.266944
O O13 0.869467 0.961315 0.282247
O O14 0.594999 0.160941 0.266944
O O15 0.281472 0.824473 0.430045
O O16 0.500000 0.000000 0.500000
#
# Coordination Sequence:
#
# PCOD8012748 Si02
#       7
#     2   2   2   2   2   2   2
#     4  10  21  40  63  89 121 160 205 259 316 379
#     4  12  24  41  64  96 130 166 212 263 310 369
#     4  12  24  42  68  94 130 174 210 256 310 370
#     4  10  21  41  62  88 124 164 209 254 312 378
#     4  10  21  40  63  89 121 160 205 259 316 379
#     4  10  21  41  62  88 124 164 209 254 312 378
#     4  12  24  41  64  96 130 166 212 263 310 369
#
# _framework density 25.231867000000001
#
# number of rings (size 3 to 8) (size 9 to 14) (size 15 to 20)
#    0.000    1.143    0.000    6.857    0.000    0.000 
#    0.000   34.286    0.000    0.000    0.000    0.000 
#    0.000    0.000    0.000    0.000    0.000    0.000 
#
# Total GULP energy -173535.824426 kJ/mol
# GULP energy per Si atom -12395.416030 kJ/mol
# Density = 2.517444 g / cm^3
# Si number density = 25.231867 Si / 1000 Ang^3
#
#
#
# Elastic Constant Matrix: (Units=GPa)
#
#
# Indices 1 2 3 4 5 6 
#
# 1 114.3324 65.0718 26.0509 -8.8076 2.3378 -10.3752
# 2 65.0718 279.5149 -7.4909 -12.8322 -3.3497 -8.3669
# 3 26.0509 -7.4909 73.2032 -7.2956 -3.2364 3.0747
# 4 -8.8076 -12.8322 -7.2956 9.9434 4.7492 -3.6153
# 5 2.3378 -3.3497 -3.2364 4.7492 53.3756 0.9405
# 6 -10.3752 -8.3669 3.0747 -3.6153 0.9405 70.7661
#
#
#
# Elastic Compliance Matrix: (Units=1/GPa)
#
#
# Indices 1 2 3 4 5 6 
#
# 1 0.011744 -0.002548 -0.004032 0.005535 -0.001445 0.001898
# 2 -0.002548 0.004457 0.001844 0.004939 0.000058 0.000325
# 3 -0.004032 0.001844 0.016364 0.010438 0.000366 -0.000556
# 4 0.005535 0.004939 0.010438 0.127410 -0.010770 0.007594
# 5 -0.001445 0.000058 0.000366 -0.010770 0.019801 -0.001034
# 6 0.001898 0.000325 -0.000556 0.007594 -0.001034 0.014874
#
#
# Mechanical properties :
#
#
# Convention : Reuss Voigt Hill
#
# Bulk Modulus (GPa) = 43.30370 70.47934 56.89152
# Shear Modulus (GPa) = 23.60504 52.37826 37.99165
#
# Velocity S-wave (km/s) = 3.06195 4.56112 3.88455
# Velocity P-wave (km/s) = 5.44980 7.46537 6.53575
#
# Compressibility (1/GPa) = 0.02309272
#
# Stress axis : x y z
#
# Youngs Moduli (GPa) = 85.15228 224.34242 61.10986
#
# Poissons Ratio (x) = 0.57172 0.24639
# Poissons Ratio (y) = 0.21700 -0.11270
# Poissons Ratio (z) = 0.34333 -0.41372
#
# Static dielectric constant tensor:
#      x y z
#    x 4.577540 -0.411520 -0.031930 
#    y -0.411520 8.661490 0.254440 
#    z -0.031930 0.254440 4.451280 
# 
# 
# High freq. dielectric constant tensor:
#      x y z
#    x 2.023050 -0.002790 -0.002980 
#    y -0.002790 2.050000 0.000320 
#    z -0.002980 0.000320 1.977240 
# 
# From -- ./inp_files/581062.got.cif
#   From: 2010.06.25/outbox.cif.g09.slc.cpg/sg2_291_cif.got.tgz:581062.got - 2010.06.27 13:26:56.
