data_PCOD8012290
_publ_section_title
;
Structure prediction by ZEFSAII (Michael W. Deem and Ramdas Pophale) SiO2 
 PCOD8012290
Probable space group: P -1
;
_chemical_formula_sum "Si O2"
_cell_formula_units_Z 16
_cell_length_a 9.083792
_cell_length_b 12.103401
_cell_length_c 8.897596
_cell_angle_alpha 98.165867
_cell_angle_beta 58.879816
_cell_angle_gamma 119.799440
_cell_volume 717.992016
_symmetry_space_group_name_H-M "P -1"
_symmetry_group_IT_number 2
_symmetry_cell_setting 'triclinic'
loop_
_space_group_symop_operation_xyz
x,y,z
-x,-y,-z
loop_
_atom_site_type_symbol
_atom_site_label
_atom_site_fract_x
_atom_site_fract_y
_atom_site_fract_z
Si Si1 0.376745 0.957795 0.902554
Si Si2 0.264948 0.430250 0.614258
Si Si3 0.123148 0.202767 0.436486
Si Si4 0.920721 0.625812 0.714560
Si Si5 0.693010 0.854444 0.217917
Si Si6 0.281286 0.039399 0.445994
Si Si7 0.735120 0.386547 0.589384
Si Si8 0.959334 0.728576 0.036751
O O1 0.506358 0.945997 0.697541
O O2 0.316932 0.062509 0.899448
O O3 0.179734 0.819769 0.004412
O O4 0.500000 0.000000 0.000000
O O5 0.500000 0.500000 0.500000
O O6 0.167376 0.283750 0.580615
O O7 0.202084 0.516591 0.567978
O O8 0.173196 0.402475 0.823795
O O9 0.190415 0.300360 0.278417
O O10 0.252998 0.132881 0.362907
O O11 0.889556 0.104052 0.528687
O O12 0.777325 0.471473 0.735980
O O13 0.119739 0.672301 0.516313
O O14 0.979884 0.667612 0.860361
O O15 0.738706 0.932804 0.364205
O O16 0.490049 0.721576 0.316864
O O17 0.860921 0.818380 0.084195
#
# Coordination Sequence:
#
# PCOD8012290 Si02
#       8
#     2   2   2   2   2   2   2   2
#     4  12  28  42  66 105 139 169 221 286 337 390
#     4  11  21  43  66  95 130 176 226 273 329 399
#     4  10  21  39  68  96 131 176 227 267 330 404
#     4  10  23  40  67 100 135 172 224 280 332 394
#     4  12  24  45  70  95 138 181 223 266 340 407
#     4  11  22  41  69  94 130 184 223 269 331 403
#     4  10  22  44  69  96 132 184 220 271 334 401
#     4  12  25  43  69 100 138 175 224 282 334 394
#
# _framework density 22.284369999999999
#
# number of rings (size 3 to 8) (size 9 to 14) (size 15 to 20)
#    0.000    1.000    2.500    3.750    3.500    3.000 
#    0.000    1.250    0.000    0.000    0.000    0.000 
#    0.000    0.000    0.000    0.000    0.000    0.000 
#
# Total GULP energy -198388.159329 kJ/mol
# GULP energy per Si atom -12399.259958 kJ/mol
# Density = 2.223365 g / cm^3
# Si number density = 22.284370 Si / 1000 Ang^3
#
#
#
# Elastic Constant Matrix: (Units=GPa)
#
#
# Indices 1 2 3 4 5 6 
#
# 1 100.2232 46.7895 31.8933 0.1169 6.5823 19.0828
# 2 46.7895 121.6526 48.0407 2.1239 5.9470 22.0683
# 3 31.8933 48.0407 84.7519 5.0286 7.9118 17.4749
# 4 0.1169 2.1239 5.0286 33.3266 4.1571 4.0245
# 5 6.5823 5.9470 7.9118 4.1571 36.5496 -2.7113
# 6 19.0828 22.0683 17.4749 4.0245 -2.7113 44.5064
#
#
#
# Elastic Compliance Matrix: (Units=1/GPa)
#
#
# Indices 1 2 3 4 5 6 
#
# 1 0.013022 -0.003514 -0.002159 0.001098 -0.001668 -0.003194
# 2 -0.003514 0.012001 -0.004926 0.000362 -0.000485 -0.002572
# 3 -0.002159 -0.004926 0.016348 -0.001475 -0.002408 -0.003064
# 4 0.001098 0.000362 -0.001475 0.031038 -0.003698 -0.003103
# 5 -0.001668 -0.000485 -0.002408 -0.003698 0.028978 0.004001
# 6 -0.003194 -0.002572 -0.003064 -0.003103 0.004001 0.026841
#
#
# Mechanical properties :
#
#
# Convention : Reuss Voigt Hill
#
# Bulk Modulus (GPa) = 49.57342 62.23052 55.90197
# Shear Modulus (GPa) = 32.02052 34.87014 33.44533
#
# Velocity S-wave (km/s) = 3.79477 3.96002 3.87827
# Velocity P-wave (km/s) = 6.44162 6.99252 6.72271
#
# Compressibility (1/GPa) = 0.02017210
#
# Stress axis : x y z
#
# Youngs Moduli (GPa) = 76.79466 83.32671 61.16933
#
# Poissons Ratio (x) = 0.29280 0.13209
# Poissons Ratio (y) = 0.26985 0.30133
# Poissons Ratio (z) = 0.16583 0.41048
#
# Static dielectric constant tensor:
#      x y z
#    x 4.269450 -0.052160 0.066790 
#    y -0.052160 4.169970 0.036800 
#    z 0.066790 0.036800 3.750360 
# 
# 
# High freq. dielectric constant tensor:
#      x y z
#    x 1.895110 0.003070 0.003860 
#    y 0.003070 1.889930 0.003800 
#    z 0.003860 0.003800 1.855350 
# 
# From -- ./inp_files/188317.got.cif
#   From: 2010.06.25/outbox.cif.g09.slc.cpg/sg2_95_cif.got.tgz:188317.got - 2010.06.27 13:26:56.
