data_PCOD8012419
_publ_section_title
;
Structure prediction by ZEFSAII (Michael W. Deem and Ramdas Pophale) SiO2 
 PCOD8012419
Probable space group: P -1
;
_chemical_formula_sum "Si O2"
_cell_formula_units_Z 16
_cell_length_a 15.008307
_cell_length_b 9.416323
_cell_length_c 8.951978
_cell_angle_alpha 112.842490
_cell_angle_beta 40.611720
_cell_angle_gamma 119.364270
_cell_volume 717.416881
_symmetry_space_group_name_H-M "P -1"
_symmetry_group_IT_number 2
_symmetry_cell_setting 'triclinic'
loop_
_space_group_symop_operation_xyz
x,y,z
-x,-y,-z
loop_
_atom_site_type_symbol
_atom_site_label
_atom_site_fract_x
_atom_site_fract_y
_atom_site_fract_z
Si Si1 0.111071 0.951976 0.558880
Si Si2 0.864186 0.428446 0.040153
Si Si3 0.723682 0.605327 0.742248
Si Si4 0.983761 0.173891 0.687335
Si Si5 0.922278 0.603539 0.733950
Si Si6 0.492216 0.728303 0.214324
Si Si7 0.541960 0.346371 0.443863
Si Si8 0.439090 0.027632 0.249628
O O1 0.102668 0.940349 0.383800
O O2 0.026924 0.788065 0.683520
O O3 0.024924 0.082582 0.741693
O O4 0.272520 0.015170 0.439735
O O5 0.711044 0.411655 0.301639
O O6 0.885690 0.548151 0.923835
O O7 0.000000 0.500000 0.000000
O O8 0.863344 0.250510 0.921848
O O9 0.867338 0.692196 0.501043
O O10 0.768897 0.581816 0.843926
O O11 0.647732 0.430291 0.694775
O O12 0.617610 0.714026 0.935938
O O13 0.000000 0.500000 0.500000
O O14 0.540165 0.730583 0.328950
O O15 0.455831 0.891334 0.287094
O O16 0.500000 0.500000 0.500000
O O17 0.516650 0.208265 0.291097
O O18 0.500000 0.000000 0.000000
#
# Coordination Sequence:
#
# PCOD8012419 Si02
#       8
#     2   2   2   2   2   2   2   2
#     4  10  22  39  71  97 138 172 232 295 341 408
#     4  12  26  43  72 101 141 186 235 287 357 421
#     4  10  21  39  77 101 142 179 248 285 364 423
#     4  10  21  42  66 107 136 177 234 299 343 414
#     4  11  21  41  68 100 133 177 234 292 336 422
#     4  11  25  44  71 103 143 195 235 297 362 432
#     4  12  30  49  71 104 157 189 236 298 368 437
#     4  12  27  44  75 106 142 191 246 290 360 432
#
# _framework density 22.302233999999999
#
# number of rings (size 3 to 8) (size 9 to 14) (size 15 to 20)
#    0.000    1.000    2.500    4.125   10.500    2.000 
#    0.000    1.875    0.000    0.000    0.000    0.000 
#    0.000    0.000    0.000    0.000    0.000    0.000 
#
# Total GULP energy -198341.873620 kJ/mol
# GULP energy per Si atom -12396.367101 kJ/mol
# Density = 2.225147 g / cm^3
# Si number density = 22.302234 Si / 1000 Ang^3
#
#
#
# Elastic Constant Matrix: (Units=GPa)
#
#
# Indices 1 2 3 4 5 6 
#
# 1 104.6932 46.8752 16.6922 11.3072 -14.1116 -3.8994
# 2 46.8752 125.2656 30.1581 16.2199 -2.7054 -21.2885
# 3 16.6922 30.1581 68.8161 5.2693 -9.5408 -4.4269
# 4 11.3072 16.2199 5.2693 18.8126 -4.8691 -2.4465
# 5 -14.1116 -2.7054 -9.5408 -4.8691 42.4055 1.9262
# 6 -3.8994 -21.2885 -4.4269 -2.4465 1.9262 49.8173
#
#
#
# Elastic Compliance Matrix: (Units=1/GPa)
#
#
# Indices 1 2 3 4 5 6 
#
# 1 0.012245 -0.004214 -0.000506 -0.002851 0.003417 -0.001160
# 2 -0.004214 0.012028 -0.003793 -0.006863 -0.002469 0.004231
# 3 -0.000506 -0.003793 0.016783 -0.000301 0.003345 -0.000313
# 4 -0.002851 -0.006863 -0.000301 0.062306 0.005715 -0.000344
# 5 0.003417 -0.002469 0.003345 0.005715 0.026026 -0.001216
# 6 -0.001160 0.004231 -0.000313 -0.000344 -0.001216 0.021793
#
#
# Mechanical properties :
#
#
# Convention : Reuss Voigt Hill
#
# Bulk Modulus (GPa) = 41.61677 54.02509 47.82093
# Shear Modulus (GPa) = 28.37413 35.87703 32.12558
#
# Velocity S-wave (km/s) = 3.57074 4.01518 3.79946
# Velocity P-wave (km/s) = 5.97504 6.76552 6.38253
#
# Compressibility (1/GPa) = 0.02402878
#
# Stress axis : x y z
#
# Youngs Moduli (GPa) = 81.66843 83.14034 59.58309
#
# Poissons Ratio (x) = 0.35039 0.03013
# Poissons Ratio (y) = 0.34419 0.22602
# Poissons Ratio (z) = 0.04130 0.31538
#
# Static dielectric constant tensor:
#      x y z
#    x 4.383150 0.216150 0.037180 
#    y 0.216150 3.833130 0.009350 
#    z 0.037180 0.009350 3.895360 
# 
# 
# High freq. dielectric constant tensor:
#      x y z
#    x 1.892040 -0.009700 -0.015050 
#    y -0.009700 1.887940 0.008070 
#    z -0.015050 0.008070 1.866520 
# 
# From -- ./inp_files/299068.got.cif
#   From: 2010.06.25/outbox.cif.g09.slc.cpg/sg2_150_cif.got.tgz:299068.got - 2010.06.27 13:26:56.
