data_PCOD8012609
_publ_section_title
;
Structure prediction by ZEFSAII (Michael W. Deem and Ramdas Pophale) SiO2 
 PCOD8012609
Probable space group: P -1
;
_chemical_formula_sum "Si O2"
_cell_formula_units_Z 14
_cell_length_a 11.423403
_cell_length_b 17.529683
_cell_length_c 15.337119
_cell_angle_alpha 148.282691
_cell_angle_beta 29.320097
_cell_angle_gamma 149.211389
_cell_volume 703.701666
_symmetry_space_group_name_H-M "P -1"
_symmetry_group_IT_number 2
_symmetry_cell_setting 'triclinic'
loop_
_space_group_symop_operation_xyz
x,y,z
-x,-y,-z
loop_
_atom_site_type_symbol
_atom_site_label
_atom_site_fract_x
_atom_site_fract_y
_atom_site_fract_z
Si Si1 0.920389 0.201228 0.799430
Si Si2 0.288195 0.379024 0.083347
Si Si3 0.733569 0.839044 0.614484
Si Si4 0.071307 0.964023 0.011934
Si Si5 0.598475 0.745701 0.806466
Si Si6 0.708995 0.268631 0.338750
Si Si7 0.549347 0.532649 0.237660
O O1 0.057298 0.199156 0.615169
O O2 0.127700 0.360090 0.873997
O O3 0.848598 0.034830 0.737347
O O4 0.655878 0.222566 0.979408
O O5 0.419399 0.407463 0.121637
O O6 0.199902 0.192190 0.929712
O O7 0.021370 0.405699 0.272546
O O8 0.500000 0.500000 0.000000
O O9 0.688766 0.756509 0.658182
O O10 0.436783 0.758248 0.686233
O O11 0.307561 0.906353 0.793216
O O12 0.148461 0.114448 0.172082
O O13 0.000000 0.000000 0.000000
O O14 0.535778 0.569939 0.716234
O O15 0.556957 0.331383 0.565457
#
# Coordination Sequence:
#
# PCOD8012609 Si02
#       7
#     2   2   2   2   2   2   2
#     4  10  22  38  59  96 123 156 201 254 290 366
#     4  10  22  37  60  88 115 156 203 249 294 358
#     4  10  22  39  64  91 122 161 205 239 310 357
#     4  10  21  40  62  86 118 156 205 246 302 356
#     4  12  22  40  65  90 123 165 195 254 299 361
#     4   9  21  40  62  83 119 163 194 247 298 366
#     4  11  23  39  61  89 123 159 202 246 308 352
#
# _framework density 19.894794999999998
#
# number of rings (size 3 to 8) (size 9 to 14) (size 15 to 20)
#    0.857    0.857    2.857    1.286    4.000    2.286 
#    2.571    0.000    0.000    2.571    0.000    0.000 
#    0.000    0.000    0.000    0.000    0.000    0.000 
#
# Total GULP energy -173440.164766 kJ/mol
# GULP energy per Si atom -12388.583198 kJ/mol
# Density = 1.984951 g / cm^3
# Si number density = 19.894795 Si / 1000 Ang^3
#
#
#
# Elastic Constant Matrix: (Units=GPa)
#
#
# Indices 1 2 3 4 5 6 
#
# 1 105.8391 38.0358 17.1014 -11.9317 16.5123 4.3349
# 2 38.0358 113.9338 7.6322 -4.2806 10.2392 12.6581
# 3 17.1014 7.6322 45.8019 -5.4833 -0.7797 -3.1874
# 4 -11.9317 -4.2806 -5.4833 31.9658 -0.6774 5.5982
# 5 16.5123 10.2392 -0.7797 -0.6774 18.6961 6.3725
# 6 4.3349 12.6581 -3.1874 5.5982 6.3725 42.9649
#
#
#
# Elastic Compliance Matrix: (Units=1/GPa)
#
#
# Indices 1 2 3 4 5 6 
#
# 1 0.013200 -0.003125 -0.004135 0.003529 -0.010100 0.000320
# 2 -0.003125 0.010354 -0.000711 0.000501 -0.002054 -0.002549
# 3 -0.004135 -0.000711 0.023951 0.002321 0.004643 0.001412
# 4 0.003529 0.000501 0.002321 0.033875 -0.000474 -0.004675
# 5 -0.010100 -0.002054 0.004643 -0.000474 0.066372 -0.007814
# 6 0.000320 -0.002549 0.001412 -0.004675 -0.007814 0.025866
#
#
# Mechanical properties :
#
#
# Convention : Reuss Voigt Hill
#
# Bulk Modulus (GPa) = 31.68235 43.45705 37.56970
# Shear Modulus (GPa) = 24.98984 32.24573 28.61778
#
# Velocity S-wave (km/s) = 3.54799 4.03030 3.79681
# Velocity P-wave (km/s) = 5.72223 6.59914 6.17626
#
# Compressibility (1/GPa) = 0.03156331
#
# Stress axis : x y z
#
# Youngs Moduli (GPa) = 75.75751 96.57697 41.75239
#
# Poissons Ratio (x) = 0.30180 0.17265
# Poissons Ratio (y) = 0.23674 0.02968
# Poissons Ratio (z) = 0.31326 0.06866
#
# Static dielectric constant tensor:
#      x y z
#    x 11.894630 -0.460550 -0.923170 
#    y -0.460550 3.902570 0.190200 
#    z -0.923170 0.190200 3.438810 
# 
# 
# High freq. dielectric constant tensor:
#      x y z
#    x 1.777450 0.019320 -0.004870 
#    y 0.019320 1.787300 0.014230 
#    z -0.004870 0.014230 1.747020 
# 
# From -- ./inp_files/195882.got.cif
#   From: 2010.06.25/outbox.cif.g09.slc.cpg/sg2_98_cif.got.tgz:195882.got - 2010.06.27 13:26:56.
