data_PCOD8012583
_publ_section_title
;
Structure prediction by ZEFSAII (Michael W. Deem and Ramdas Pophale) SiO2 
 PCOD8012583
Probable space group: P -1
;
_chemical_formula_sum "Si O2"
_cell_formula_units_Z 14
_cell_length_a 9.214913
_cell_length_b 12.578783
_cell_length_c 8.964408
_cell_angle_alpha 83.749324
_cell_angle_beta 135.855737
_cell_angle_gamma 101.245392
_cell_volume 709.061238
_symmetry_space_group_name_H-M "P -1"
_symmetry_group_IT_number 2
_symmetry_cell_setting 'triclinic'
loop_
_space_group_symop_operation_xyz
x,y,z
-x,-y,-z
loop_
_atom_site_type_symbol
_atom_site_label
_atom_site_fract_x
_atom_site_fract_y
_atom_site_fract_z
Si Si1 0.490497 0.848539 0.399868
Si Si2 0.023756 0.419903 0.242552
Si Si3 0.891440 0.339737 0.831801
Si Si4 0.297759 0.278980 0.639426
Si Si5 0.753984 0.961672 0.850318
Si Si6 0.237807 0.235912 0.925957
Si Si7 0.410228 0.607293 0.946412
O O1 0.330736 0.739597 0.344727
O O2 0.654548 0.825482 0.398112
O O3 0.634996 0.892910 0.638391
O O4 0.357279 0.934714 0.219237
O O5 0.842220 0.411945 0.237352
O O6 0.122190 0.546118 0.275350
O O7 0.194830 0.355429 0.443243
O O8 0.941141 0.361153 0.038349
O O9 0.077384 0.284179 0.907148
O O10 0.161866 0.239741 0.695407
O O11 0.520307 0.350645 0.842183
O O12 0.739613 0.886310 0.997093
O O13 0.000000 0.000000 0.000000
O O14 0.476332 0.305856 0.105201
O O15 0.500000 0.500000 0.000000
#
# Coordination Sequence:
#
# PCOD8012583 Si02
#       7
#     2   2   2   2   2   2   2
#     4  11  24  43  66  94 127 163 218 266 318 371
#     4  11  22  40  64  95 135 170 206 257 309 385
#     4  11  21  39  67  96 127 170 214 253 315 380
#     4  10  24  40  60  94 130 170 204 256 318 378
#     4  11  24  44  70  91 121 166 217 276 316 370
#     4  10  22  40  63  94 126 163 213 256 321 370
#     4  10  21  40  61  92 134 167 208 253 312 377
#
# _framework density 19.744415
#
# number of rings (size 3 to 8) (size 9 to 14) (size 15 to 20)
#    0.857    0.571    4.286    0.857    0.000    5.714 
#    0.000    0.714    0.000    0.000    0.000    0.000 
#    0.000    0.000    0.000    0.000    0.000    0.000 
#
# Total GULP energy -173495.912333 kJ/mol
# GULP energy per Si atom -12392.565167 kJ/mol
# Density = 1.969948 g / cm^3
# Si number density = 19.744415 Si / 1000 Ang^3
#
#
#
# Elastic Constant Matrix: (Units=GPa)
#
#
# Indices 1 2 3 4 5 6 
#
# 1 103.4849 52.0710 17.9224 -8.4471 5.7676 -0.2409
# 2 52.0710 136.0397 52.5588 -15.9828 6.3703 7.9574
# 3 17.9224 52.5588 73.9132 -15.4238 6.8790 5.4362
# 4 -8.4471 -15.9828 -15.4238 38.6235 2.7141 2.6470
# 5 5.7676 6.3703 6.8790 2.7141 24.0686 -1.4364
# 6 -0.2409 7.9574 5.4362 2.6470 -1.4364 43.4856
#
#
#
# Elastic Compliance Matrix: (Units=1/GPa)
#
#
# Indices 1 2 3 4 5 6 
#
# 1 0.012126 -0.004778 0.000814 0.001089 -0.001954 0.000709
# 2 -0.004778 0.012169 -0.007096 0.001276 -0.000279 -0.001453
# 3 0.000814 -0.007096 0.020153 0.005747 -0.004828 -0.001726
# 4 0.001089 0.001276 0.005747 0.029558 -0.005750 -0.002935
# 5 -0.001954 -0.000279 -0.004828 -0.005750 0.044265 0.002456
# 6 0.000709 -0.001453 -0.001726 -0.002935 0.002456 0.023741
#
#
# Mechanical properties :
#
#
# Convention : Reuss Voigt Hill
#
# Bulk Modulus (GPa) = 44.78411 62.06028 53.42219
# Shear Modulus (GPa) = 29.14209 33.96125 31.55167
#
# Velocity S-wave (km/s) = 3.84600 4.15184 4.00184
# Velocity P-wave (km/s) = 6.51563 7.38131 6.96194
#
# Compressibility (1/GPa) = 0.02232935
#
# Stress axis : x y z
#
# Youngs Moduli (GPa) = 82.46875 82.17637 49.62023
#
# Poissons Ratio (x) = 0.39263 -0.04040
# Poissons Ratio (y) = 0.39403 0.35208
# Poissons Ratio (z) = -0.06715 0.58308
#
# Static dielectric constant tensor:
#      x y z
#    x 3.961180 0.166890 0.365160 
#    y 0.166890 3.872450 0.217890 
#    z 0.365160 0.217890 3.527070 
# 
# 
# High freq. dielectric constant tensor:
#      x y z
#    x 1.775550 -0.005540 0.002820 
#    y -0.005540 1.779540 -0.001710 
#    z 0.002820 -0.001710 1.756430 
# 
# From -- ./inp_files/45798.got.cif
#   From: 2010.06.25/outbox.cif.g09.slc.cpg/sg2_23_cif.got.tgz:45798.got - 2010.06.27 13:26:56.
