data_PCOD8012597
_publ_section_title
;
Structure prediction by ZEFSAII (Michael W. Deem and Ramdas Pophale) SiO2 
 PCOD8012597
Probable space group: P -1
;
_chemical_formula_sum "Si O2"
_cell_formula_units_Z 16
_cell_length_a 9.005248
_cell_length_b 24.060144
_cell_length_c 8.417537
_cell_angle_alpha 124.792530
_cell_angle_beta 64.551964
_cell_angle_gamma 151.676433
_cell_volume 698.163966
_symmetry_space_group_name_H-M "P -1"
_symmetry_group_IT_number 2
_symmetry_cell_setting 'triclinic'
loop_
_space_group_symop_operation_xyz
x,y,z
-x,-y,-z
loop_
_atom_site_type_symbol
_atom_site_label
_atom_site_fract_x
_atom_site_fract_y
_atom_site_fract_z
Si Si1 0.163145 0.454372 0.703459
Si Si2 0.336914 0.904829 0.065215
Si Si3 0.715941 0.375471 0.244497
Si Si4 0.675285 0.993684 0.356440
Si Si5 0.191851 0.199757 0.681784
Si Si6 0.796927 0.623321 0.736109
Si Si7 0.375109 0.566824 0.342403
Si Si8 0.554855 0.231840 0.805240
O O1 0.075756 0.495637 0.736442
O O2 0.542421 0.595037 0.796622
O O3 0.109626 0.374246 0.473741
O O4 0.933463 0.364570 0.813112
O O5 0.619321 0.974175 0.160046
O O6 0.105436 0.877758 0.208304
O O7 0.126320 0.765518 0.888680
O O8 0.500000 0.000000 0.000000
O O9 0.512899 0.341450 0.420014
O O10 0.990736 0.427488 0.281829
O O11 0.493181 0.252196 0.029405
O O12 0.530698 0.876168 0.312297
O O13 0.500000 0.000000 0.500000
O O14 0.043802 0.123216 0.455037
O O15 0.440673 0.347894 0.764997
O O16 0.361206 0.197692 0.692627
O O17 0.572385 0.492181 0.727270
#
# Coordination Sequence:
#
# PCOD8012597 Si02
#       8
#     2   2   2   2   2   2   2   2
#     4  10  22  37  67 101 138 172 220 286 339 408
#     4  11  26  47  71  97 138 183 237 282 330 415
#     4  10  21  40  62 100 136 176 213 283 346 404
#     4  10  26  46  64  97 133 185 231 282 336 399
#     4  11  25  44  70 100 138 184 225 287 343 400
#     4  10  23  39  65 103 132 182 223 278 351 394
#     4  10  22  41  65  99 143 170 222 283 345 408
#     4  12  23  42  71 101 138 180 230 279 345 414
#
# _framework density 22.917251
#
# number of rings (size 3 to 8) (size 9 to 14) (size 15 to 20)
#    0.000    1.500    1.250    2.250    8.750    3.500 
#    0.000    1.250    0.000    0.000    0.000    0.000 
#    0.000    0.000    0.000    0.000    0.000    0.000 
#
# Total GULP energy -198263.456323 kJ/mol
# GULP energy per Si atom -12391.466020 kJ/mol
# Density = 2.286509 g / cm^3
# Si number density = 22.917251 Si / 1000 Ang^3
#
#
#
# Elastic Constant Matrix: (Units=GPa)
#
#
# Indices 1 2 3 4 5 6 
#
# 1 107.0222 39.2086 48.0832 6.0820 15.6606 -11.9545
# 2 39.2086 102.5702 32.3853 -0.4455 1.2905 -21.5027
# 3 48.0832 32.3853 96.4180 16.8523 14.8272 1.5334
# 4 6.0820 -0.4455 16.8523 29.5252 3.9382 6.6937
# 5 15.6606 1.2905 14.8272 3.9382 38.9303 3.7008
# 6 -11.9545 -21.5027 1.5334 6.6937 3.7008 35.7042
#
#
#
# Elastic Compliance Matrix: (Units=1/GPa)
#
#
# Indices 1 2 3 4 5 6 
#
# 1 0.013718 -0.002748 -0.005386 -0.000109 -0.003705 0.003574
# 2 -0.002748 0.013393 -0.003625 0.001088 0.001270 0.006966
# 3 -0.005386 -0.003625 0.015977 -0.006995 -0.002799 -0.003071
# 4 -0.000109 0.001088 -0.006995 0.039447 -0.000710 -0.006403
# 5 -0.003705 0.001270 -0.002799 -0.000710 0.028576 -0.003184
# 6 0.003574 0.006966 -0.003071 -0.006403 -0.003184 0.035062
#
#
# Mechanical properties :
#
#
# Convention : Reuss Voigt Hill
#
# Bulk Modulus (GPa) = 51.09607 60.59604 55.84606
# Shear Modulus (GPa) = 28.37466 33.25415 30.81440
#
# Velocity S-wave (km/s) = 3.52253 3.81340 3.67085
# Velocity P-wave (km/s) = 6.23607 6.77407 6.51063
#
# Compressibility (1/GPa) = 0.01957098
#
# Stress axis : x y z
#
# Youngs Moduli (GPa) = 72.89699 74.66400 62.59074
#
# Poissons Ratio (x) = 0.20516 0.33713
# Poissons Ratio (y) = 0.20031 0.22686
# Poissons Ratio (z) = 0.39264 0.27062
#
# Static dielectric constant tensor:
#      x y z
#    x 4.275670 0.002330 0.319160 
#    y 0.002330 3.749150 0.091030 
#    z 0.319160 0.091030 4.302480 
# 
# 
# High freq. dielectric constant tensor:
#      x y z
#    x 1.920490 -0.006000 0.009500 
#    y -0.006000 1.881290 0.004750 
#    z 0.009500 0.004750 1.903810 
# 
# From -- ./inp_files/226461.got.cif
#   From: 2010.06.25/outbox.cif.g09.slc.cpg/sg2_114_cif.got.tgz:226461.got - 2010.06.27 13:26:56.
