data_PCOD8012310
_publ_section_title
;
Structure prediction by ZEFSAII (Michael W. Deem and Ramdas Pophale) SiO2 
 PCOD8012310
Probable space group: P -1
;
_chemical_formula_sum "Si O2"
_cell_formula_units_Z 16
_cell_length_a 14.264396
_cell_length_b 5.367719
_cell_length_c 11.769263
_cell_angle_alpha 112.830123
_cell_angle_beta 64.840518
_cell_angle_gamma 75.932054
_cell_volume 655.691301
_symmetry_space_group_name_H-M "P -1"
_symmetry_group_IT_number 2
_symmetry_cell_setting 'triclinic'
loop_
_space_group_symop_operation_xyz
x,y,z
-x,-y,-z
loop_
_atom_site_type_symbol
_atom_site_label
_atom_site_fract_x
_atom_site_fract_y
_atom_site_fract_z
Si Si1 0.474331 0.178631 0.877212
Si Si2 0.687066 0.266018 0.811078
Si Si3 0.599484 0.778364 0.322692
Si Si4 0.288666 0.790103 0.674628
Si Si5 0.980953 0.837225 0.090405
Si Si6 0.890556 0.449219 0.576611
Si Si7 0.924760 0.129475 0.721883
Si Si8 0.341759 0.462725 0.356557
O O1 0.585064 0.188704 0.882963
O O2 0.457169 0.279104 0.771559
O O3 0.523961 0.808382 0.788519
O O4 0.355595 0.391072 0.048320
O O5 0.820801 0.023031 0.746790
O O6 0.698553 0.272912 0.670517
O O7 0.677661 0.440299 0.276829
O O8 0.500000 0.000000 0.500000
O O9 0.677482 0.939980 0.275623
O O10 0.352468 0.592022 0.495028
O O11 0.149181 0.946804 0.756051
O O12 0.074082 0.794433 0.133430
O O13 0.000000 0.500000 0.000000
O O14 0.000000 0.000000 0.000000
O O15 0.874398 0.432325 0.718605
O O16 0.760696 0.649374 0.616402
O O17 0.000000 0.500000 0.500000
O O18 0.943807 0.104800 0.432377
#
# Coordination Sequence:
#
# PCOD8012310 Si02
#       8
#     2   2   2   2   2   2   2   2
#     4  11  24  42  68  97 145 182 243 288 358 424
#     4  10  24  43  65 101 137 185 233 292 365 419
#     4  12  26  46  73 109 143 196 243 304 355 432
#     4  12  27  47  76 105 145 190 250 300 363 432
#     4  12  29  51  74 107 148 196 242 305 371 444
#     4  10  21  39  69 100 133 177 235 300 359 423
#     4  10  23  43  66 102 136 180 238 293 364 432
#     4  11  22  42  67 101 135 184 234 301 350 429
#
# _framework density 24.401727000000001
#
# number of rings (size 3 to 8) (size 9 to 14) (size 15 to 20)
#    0.000    1.000    2.500    3.000    7.000    1.000 
#    0.000    0.000    0.000    0.000    0.000    0.000 
#    0.000    0.000    0.000    0.000    0.000    0.000 
#
# Total GULP energy -198271.763021 kJ/mol
# GULP energy per Si atom -12391.985189 kJ/mol
# Density = 2.434619 g / cm^3
# Si number density = 24.401727 Si / 1000 Ang^3
#
#
#
# Elastic Constant Matrix: (Units=GPa)
#
#
# Indices 1 2 3 4 5 6 
#
# 1 100.1112 24.1580 18.0338 -13.2810 7.4058 -13.4827
# 2 24.1580 109.0862 10.3158 -19.1084 13.1222 -11.1355
# 3 18.0338 10.3158 83.3993 -10.4075 4.1328 -14.7419
# 4 -13.2810 -19.1084 -10.4075 34.8188 -14.3167 -3.6065
# 5 7.4058 13.1222 4.1328 -14.3167 46.1705 -4.2711
# 6 -13.4827 -11.1355 -14.7419 -3.6065 -4.2711 44.9106
#
#
#
# Elastic Compliance Matrix: (Units=1/GPa)
#
#
# Indices 1 2 3 4 5 6 
#
# 1 0.011441 -0.001512 -0.001346 0.003455 0.000055 0.002901
# 2 -0.001512 0.010791 0.000157 0.005266 -0.000965 0.002605
# 3 -0.001346 0.000157 0.013573 0.004401 0.000739 0.004514
# 4 0.003455 0.005266 0.004401 0.039385 0.010503 0.007949
# 5 0.000055 -0.000965 0.000739 0.010503 0.025419 0.003280
# 6 0.002901 0.002605 0.004514 0.007949 0.003280 0.026215
#
#
# Mechanical properties :
#
#
# Convention : Reuss Voigt Hill
#
# Bulk Modulus (GPa) = 32.88951 44.17911 38.53431
# Shear Modulus (GPa) = 35.12243 41.18593 38.15418
#
# Velocity S-wave (km/s) = 3.79798 4.11278 3.95851
# Velocity P-wave (km/s) = 5.72193 6.37946 6.05962
#
# Compressibility (1/GPa) = 0.03040483
#
# Stress axis : x y z
#
# Youngs Moduli (GPa) = 87.40415 92.66747 73.67811
#
# Poissons Ratio (x) = 0.14009 0.09915
# Poissons Ratio (y) = 0.13213 -0.01160
# Poissons Ratio (z) = 0.11763 -0.01459
#
# Static dielectric constant tensor:
#      x y z
#    x 4.926050 -0.482180 -0.516790 
#    y -0.482180 4.761170 0.697340 
#    z -0.516790 0.697340 5.074860 
# 
# 
# High freq. dielectric constant tensor:
#      x y z
#    x 1.978590 -0.013630 -0.006850 
#    y -0.013630 1.964270 0.009880 
#    z -0.006850 0.009880 1.974560 
# 
# From -- ./inp_files/441308.got.cif
#   From: 2010.06.25/outbox.cif.g09.slc.cpg/sg2_221_cif.got.tgz:441308.got - 2010.06.27 13:26:56.
