data_PCOD8012433
_publ_section_title
;
Structure prediction by ZEFSAII (Michael W. Deem and Ramdas Pophale) SiO2 
 PCOD8012433
Probable space group: P -1
;
_chemical_formula_sum "Si O2"
_cell_formula_units_Z 14
_cell_length_a 14.335766
_cell_length_b 14.300628
_cell_length_c 14.046126
_cell_angle_alpha 29.977077
_cell_angle_beta 129.793450
_cell_angle_gamma 149.902604
_cell_volume 649.092493
_symmetry_space_group_name_H-M "P -1"
_symmetry_group_IT_number 2
_symmetry_cell_setting 'triclinic'
loop_
_space_group_symop_operation_xyz
x,y,z
-x,-y,-z
loop_
_atom_site_type_symbol
_atom_site_label
_atom_site_fract_x
_atom_site_fract_y
_atom_site_fract_z
Si Si1 0.183496 0.845910 0.079793
Si Si2 0.300750 0.380942 0.957716
Si Si3 0.831922 0.767486 0.201130
Si Si4 0.956125 0.746078 0.745792
Si Si5 0.767647 0.416310 0.106159
Si Si6 0.300350 0.918588 0.893833
Si Si7 0.402774 0.771049 0.342241
O O1 0.251280 0.758771 0.266270
O O2 0.955218 0.527038 0.171060
O O3 0.337170 0.042633 0.915154
O O4 0.186805 0.032054 0.983533
O O5 0.290448 0.451170 0.781166
O O6 0.329049 0.577761 0.879910
O O7 0.500000 0.500000 0.000000
O O8 0.072454 0.999653 0.156269
O O9 0.719925 0.557331 0.407678
O O10 0.173572 0.912081 0.755562
O O11 0.845518 0.640437 0.869958
O O12 0.812247 0.425827 0.872779
O O13 0.000000 0.000000 0.500000
O O14 0.605347 0.059709 0.282402
O O15 0.527477 0.181933 0.762300
#
# Coordination Sequence:
#
# PCOD8012433 Si02
#       7
#     2   2   2   2   2   2   2
#     4  10  21  40  58  84 126 156 188 241 289 343
#     4  10  21  42  63  83 117 154 194 249 298 343
#     4  10  24  40  60  90 115 150 204 242 287 359
#     4   9  18  35  59  87 121 157 194 237 284 343
#     4   9  21  39  59  87 119 153 197 242 291 351
#     4   9  20  34  54  89 122 153 197 235 281 354
#     4  11  22  38  61  89 120 154 194 243 292 343
#
# _framework density 21.568577000000001
#
# number of rings (size 3 to 8) (size 9 to 14) (size 15 to 20)
#    0.000    2.286    0.000    2.143    0.000    9.143 
#    0.000   10.000    0.000    0.000    0.000    0.000 
#    0.000    0.000    0.000    0.000    0.000    0.000 
#
# Total GULP energy -173505.568805 kJ/mol
# GULP energy per Si atom -12393.254915 kJ/mol
# Density = 2.151949 g / cm^3
# Si number density = 21.568577 Si / 1000 Ang^3
#
#
#
# Elastic Constant Matrix: (Units=GPa)
#
#
# Indices 1 2 3 4 5 6 
#
# 1 121.3270 28.8357 12.6246 0.4392 -4.6878 4.3711
# 2 28.8357 80.3256 11.6067 1.7004 1.5092 15.0203
# 3 12.6246 11.6067 83.3091 4.5010 1.1439 15.9717
# 4 0.4392 1.7004 4.5010 12.6695 7.6014 3.1069
# 5 -4.6878 1.5092 1.1439 7.6014 25.5343 2.8370
# 6 4.3711 15.0203 15.9717 3.1069 2.8370 40.4197
#
#
#
# Elastic Compliance Matrix: (Units=1/GPa)
#
#
# Indices 1 2 3 4 5 6 
#
# 1 0.009193 -0.003276 -0.001021 -0.000938 0.002146 0.000548
# 2 -0.003276 0.014623 -0.000618 0.000105 -0.000938 -0.004778
# 3 -0.001021 -0.000618 0.013350 -0.004063 0.000982 -0.004692
# 4 -0.000938 0.000105 -0.004063 0.098715 -0.028951 -0.003888
# 5 0.002146 -0.000938 0.000982 -0.028951 0.048347 -0.001439
# 6 0.000548 -0.004778 -0.004692 -0.003888 -0.001439 0.028711
#
#
# Mechanical properties :
#
#
# Convention : Reuss Voigt Hill
#
# Bulk Modulus (GPa) = 36.57848 43.45508 40.01678
# Shear Modulus (GPa) = 21.56285 31.18433 26.37359
#
# Velocity S-wave (km/s) = 3.16529 3.80652 3.50062
# Velocity P-wave (km/s) = 5.50951 6.28575 5.91039
#
# Compressibility (1/GPa) = 0.02733848
#
# Stress axis : x y z
#
# Youngs Moduli (GPa) = 108.77266 68.38352 74.90783
#
# Poissons Ratio (x) = 0.22401 0.07645
# Poissons Ratio (y) = 0.35631 0.04627
# Poissons Ratio (z) = 0.11101 0.04224
#
# Static dielectric constant tensor:
#      x y z
#    x 4.268530 0.048990 -0.167520 
#    y 0.048990 3.981010 0.019680 
#    z -0.167520 0.019680 3.429080 
# 
# 
# High freq. dielectric constant tensor:
#      x y z
#    x 1.865210 0.002930 -0.008640 
#    y 0.002930 1.857660 0.003450 
#    z -0.008640 0.003450 1.801590 
# 
# From -- ./inp_files/313851.got.cif
#   From: 2010.06.25/outbox.cif.g09.slc.cpg/sg2_157_cif.got.tgz:313851.got - 2010.06.27 13:26:56.
