data_PCOD8012263
_publ_section_title
;
Structure prediction by ZEFSAII (Michael W. Deem and Ramdas Pophale) SiO2 
 PCOD8012263
Probable space group: P -1
;
_chemical_formula_sum "Si O2"
_cell_formula_units_Z 16
_cell_length_a 14.760227
_cell_length_b 9.563890
_cell_length_c 8.517662
_cell_angle_alpha 122.664704
_cell_angle_beta 108.137474
_cell_angle_gamma 106.333010
_cell_volume 795.957561
_symmetry_space_group_name_H-M "P -1"
_symmetry_group_IT_number 2
_symmetry_cell_setting 'triclinic'
loop_
_space_group_symop_operation_xyz
x,y,z
-x,-y,-z
loop_
_atom_site_type_symbol
_atom_site_label
_atom_site_fract_x
_atom_site_fract_y
_atom_site_fract_z
Si Si1 0.448662 0.514351 0.242238
Si Si2 0.104526 0.205992 0.116747
Si Si3 0.325653 0.759386 0.845826
Si Si4 0.648522 0.529810 0.511489
Si Si5 0.686838 0.943267 0.202036
Si Si6 0.075970 0.416436 0.475975
Si Si7 0.499682 0.129768 0.718534
Si Si8 0.073629 0.991442 0.669478
O O1 0.575626 0.599043 0.427120
O O2 0.378303 0.525111 0.353387
O O3 0.455401 0.648170 0.183054
O O4 0.391801 0.290057 0.018688
O O5 0.222263 0.270936 0.309364
O O6 0.086582 0.379743 0.271843
O O7 0.117299 0.184719 0.924383
O O8 0.000000 0.000000 0.000000
O O9 0.375138 0.673532 0.698722
O O10 0.199053 0.574491 0.717952
O O11 0.315987 0.931996 0.868970
O O12 0.411220 0.852787 0.094861
O O13 0.629728 0.975880 0.343645
O O14 0.818301 0.009308 0.339992
O O15 0.000000 0.500000 0.500000
O O16 0.015417 0.208965 0.407857
O O17 0.500000 0.000000 0.500000
O O18 0.000000 0.000000 0.500000
#
# Coordination Sequence:
#
# PCOD8012263 Si02
#       8
#     2   2   2   2   2   2   2   2
#     4  11  24  40  67  95 127 166 214 266 323 384
#     4   9  20  38  64  92 122 161 212 261 308 377
#     4  11  24  42  68  92 129 173 212 267 325 386
#     4  10  21  39  68  92 126 168 212 260 323 384
#     4  12  24  44  68  91 131 173 222 260 330 393
#     4  10  21  43  66  91 124 168 217 259 316 386
#     4  12  28  43  62  98 138 164 216 270 326 384
#     4  11  24  42  65  97 130 167 216 272 319 378
#
# _framework density 20.101573999999999
#
# number of rings (size 3 to 8) (size 9 to 14) (size 15 to 20)
#    0.000    1.250    3.750    1.500    5.250    2.000 
#    2.250    0.625    0.000    0.000    0.000    0.000 
#    0.000    0.000    0.000    0.000    0.000    0.000 
#
# Total GULP energy -198305.801568 kJ/mol
# GULP energy per Si atom -12394.112598 kJ/mol
# Density = 2.005582 g / cm^3
# Si number density = 20.101574 Si / 1000 Ang^3
#
#
#
# Elastic Constant Matrix: (Units=GPa)
#
#
# Indices 1 2 3 4 5 6 
#
# 1 160.3450 43.9450 70.1839 -7.3556 -0.7079 0.7085
# 2 43.9450 107.8705 45.4511 -5.1281 6.8881 -8.9266
# 3 70.1839 45.4511 124.6601 -3.7045 -2.4564 -1.2621
# 4 -7.3556 -5.1281 -3.7045 30.6523 1.8482 4.0475
# 5 -0.7079 6.8881 -2.4564 1.8482 37.3969 3.4874
# 6 0.7085 -8.9266 -1.2621 4.0475 3.4874 27.7877
#
#
#
# Elastic Compliance Matrix: (Units=1/GPa)
#
#
# Indices 1 2 3 4 5 6 
#
# 1 0.008626 -0.001813 -0.004161 0.001410 0.000269 -0.001230
# 2 -0.001813 0.011965 -0.003334 0.000811 -0.002868 0.003980
# 3 -0.004161 -0.003334 0.011596 -0.000159 0.001359 -0.000586
# 4 0.001410 0.000811 -0.000159 0.033760 -0.001380 -0.004527
# 5 0.000269 -0.002868 0.001359 -0.001380 0.027819 -0.004157
# 6 -0.001230 0.003980 -0.000586 -0.004527 -0.004157 0.038452
#
#
# Mechanical properties :
#
#
# Convention : Reuss Voigt Hill
#
# Bulk Modulus (GPa) = 73.68241 79.11507 76.39874
# Shear Modulus (GPa) = 32.18435 34.72043 33.45239
#
# Velocity S-wave (km/s) = 4.00570 4.16053 4.08385
# Velocity P-wave (km/s) = 7.62422 7.90715 7.76698
#
# Compressibility (1/GPa) = 0.01357176
#
# Stress axis : x y z
#
# Youngs Moduli (GPa) = 115.93050 83.57908 86.23765
#
# Poissons Ratio (x) = 0.15152 0.35880
# Poissons Ratio (y) = 0.21018 0.28750
# Poissons Ratio (z) = 0.48234 0.27863
#
# Static dielectric constant tensor:
#      x y z
#    x 4.202590 0.038260 -0.116610 
#    y 0.038260 3.464870 0.065250 
#    z -0.116610 0.065250 3.911940 
# 
# 
# High freq. dielectric constant tensor:
#      x y z
#    x 1.810760 0.004450 0.000190 
#    y 0.004450 1.762980 0.014680 
#    z 0.000190 0.014680 1.789730 
# 
# From -- ./inp_files/189544.got.cif
#   From: 2010.06.25/outbox.cif.g09.slc.cpg/sg2_95_cif.got.tgz:189544.got - 2010.06.27 13:26:56.
