data_PCOD8012671
_publ_section_title
;
Structure prediction by ZEFSAII (Michael W. Deem and Ramdas Pophale) SiO2 
 PCOD8012671
Probable space group: P -1
;
_chemical_formula_sum "Si O2"
_cell_formula_units_Z 16
_cell_length_a 16.305115
_cell_length_b 5.329311
_cell_length_c 8.460921
_cell_angle_alpha 93.711735
_cell_angle_beta 81.030371
_cell_angle_gamma 115.473251
_cell_volume 655.620203
_symmetry_space_group_name_H-M "P -1"
_symmetry_group_IT_number 2
_symmetry_cell_setting 'triclinic'
loop_
_space_group_symop_operation_xyz
x,y,z
-x,-y,-z
loop_
_atom_site_type_symbol
_atom_site_label
_atom_site_fract_x
_atom_site_fract_y
_atom_site_fract_z
Si Si1 0.045721 0.301544 0.424534
Si Si2 0.397605 0.361731 0.965393
Si Si3 0.362622 0.747639 0.422480
Si Si4 0.194623 0.369545 0.612386
Si Si5 0.941467 0.071800 0.156041
Si Si6 0.300301 0.748865 0.106439
Si Si7 0.547457 0.740225 0.374244
Si Si8 0.132350 0.532822 0.937045
O O1 0.148239 0.425049 0.469063
O O2 0.000000 0.500000 0.500000
O O3 0.034776 0.260649 0.234519
O O4 0.000000 0.000000 0.500000
O O5 0.398324 0.349167 0.775318
O O6 0.500000 0.500000 0.000000
O O7 0.343286 0.539581 0.034223
O O8 0.350686 0.050558 0.029269
O O9 0.299860 0.459177 0.524926
O O10 0.305695 0.785089 0.294376
O O11 0.459983 0.775378 0.326734
O O12 0.379663 0.987355 0.553467
O O13 0.193935 0.575876 0.762591
O O14 0.140804 0.059110 0.690508
O O15 0.919058 0.268074 0.050567
O O16 0.057174 0.200117 0.950994
O O17 0.194653 0.613403 0.078140
O O18 0.500000 0.500000 0.500000
#
# Coordination Sequence:
#
# PCOD8012671 Si02
#       8
#     2   2   2   2   2   2   2   2
#     4  10  16  33  57  90 125 154 202 256 305 366
#     4  12  25  45  68  86 121 167 218 252 318 377
#     4  11  25  43  60  95 126 163 211 260 323 365
#     4   9  21  34  62  91 122 158 204 260 306 361
#     4   9  18  35  59  92 117 161 203 253 304 363
#     4  12  26  43  63  92 124 171 209 260 307 385
#     4  11  26  43  67  88 127 163 209 270 314 371
#     4  10  20  35  59  86 121 158 203 251 299 365
#
# _framework density 24.404371000000001
#
# number of rings (size 3 to 8) (size 9 to 14) (size 15 to 20)
#    0.750    0.750    2.500    2.625    5.250    1.000 
#    0.000    0.000    0.000    1.500    0.000    0.000 
#    0.000    0.000    0.000    0.000    0.000    0.000 
#
# Total GULP energy -198289.300288 kJ/mol
# GULP energy per Si atom -12393.081268 kJ/mol
# Density = 2.434883 g / cm^3
# Si number density = 24.404371 Si / 1000 Ang^3
#
#
#
# Elastic Constant Matrix: (Units=GPa)
#
#
# Indices 1 2 3 4 5 6 
#
# 1 106.8325 69.4497 52.1793 6.2958 22.0524 -1.0227
# 2 69.4497 160.5150 39.7618 -10.6948 1.8223 -3.6267
# 3 52.1793 39.7618 100.0729 11.3762 20.8207 15.3007
# 4 6.2958 -10.6948 11.3762 42.2972 8.7865 3.8953
# 5 22.0524 1.8223 20.8207 8.7865 50.2089 3.7974
# 6 -1.0227 -3.6267 15.3007 3.8953 3.7974 50.1608
#
#
#
# Elastic Compliance Matrix: (Units=1/GPa)
#
#
# Indices 1 2 3 4 5 6 
#
# 1 0.017184 -0.006040 -0.005685 -0.001751 -0.004827 0.002149
# 2 -0.006040 0.009420 -0.001532 0.003149 0.002350 0.000603
# 3 -0.005685 -0.001532 0.015149 -0.002598 -0.002940 -0.004423
# 4 -0.001751 0.003149 -0.002598 0.026048 -0.002764 -0.000829
# 5 -0.004827 0.002350 -0.002940 -0.002764 0.023701 -0.000611
# 6 0.002149 0.000603 -0.004423 -0.000829 -0.000611 0.021483
#
#
# Mechanical properties :
#
#
# Convention : Reuss Voigt Hill
#
# Bulk Modulus (GPa) = 65.62806 76.68911 71.15858
# Shear Modulus (GPa) = 34.58307 42.26869 38.42588
#
# Velocity S-wave (km/s) = 3.76850 4.16626 3.97236
# Velocity P-wave (km/s) = 6.77391 7.39163 7.08950
#
# Compressibility (1/GPa) = 0.01523739
#
# Stress axis : x y z
#
# Youngs Moduli (GPa) = 58.19451 106.16184 66.00913
#
# Poissons Ratio (x) = 0.64120 0.37529
# Poissons Ratio (y) = 0.35148 0.10116
# Poissons Ratio (z) = 0.33086 0.16269
#
# Static dielectric constant tensor:
#      x y z
#    x 2.857310 0.783220 1.497590 
#    y 0.783220 3.975550 -0.426220 
#    z 1.497590 -0.426220 3.630630 
# 
# 
# High freq. dielectric constant tensor:
#      x y z
#    x 1.966770 0.016390 0.009740 
#    y 0.016390 1.981020 -0.001190 
#    z 0.009740 -0.001190 1.987000 
# 
# From -- ./inp_files/322621.got.cif
#   From: 2010.06.25/outbox.cif.g09.slc.cpg/sg2_162_cif.got.tgz:322621.got - 2010.06.27 13:26:56.
