data_PCOD8012442
_publ_section_title
;
Structure prediction by ZEFSAII (Michael W. Deem and Ramdas Pophale) SiO2 
 PCOD8012442
Probable space group: P -1
;
_chemical_formula_sum "Si O2"
_cell_formula_units_Z 14
_cell_length_a 9.671130
_cell_length_b 13.572186
_cell_length_c 12.548860
_cell_angle_alpha 119.040660
_cell_angle_beta 128.964966
_cell_angle_gamma 33.930162
_cell_volume 712.356343
_symmetry_space_group_name_H-M "P -1"
_symmetry_group_IT_number 2
_symmetry_cell_setting 'triclinic'
loop_
_space_group_symop_operation_xyz
x,y,z
-x,-y,-z
loop_
_atom_site_type_symbol
_atom_site_label
_atom_site_fract_x
_atom_site_fract_y
_atom_site_fract_z
Si Si1 0.348052 0.148026 0.218825
Si Si2 0.542397 0.639741 0.042163
Si Si3 0.980765 0.317813 0.938282
Si Si4 0.639700 0.594497 0.640120
Si Si5 0.240278 0.239986 0.807045
Si Si6 0.495577 0.471850 0.658858
Si Si7 0.164047 0.642140 0.787857
O O1 0.405513 0.251480 0.279015
O O2 0.160591 0.222828 0.273527
O O3 0.642152 0.939999 0.264604
O O4 0.187377 0.168770 0.051279
O O5 0.518377 0.786470 0.117487
O O6 0.636321 0.541462 0.148281
O O7 0.251075 0.726771 0.909410
O O8 0.783529 0.505010 0.999106
O O9 0.167875 0.282525 0.919265
O O10 0.777861 0.322387 0.789151
O O11 0.493245 0.594851 0.663500
O O12 0.502511 0.629980 0.478815
O O13 0.965766 0.401431 0.689492
O O14 0.221275 0.597416 0.666539
#
# Coordination Sequence:
#
# PCOD8012442 Si02
#       7
#     2   2   2   2   2   2   2
#     4  11  22  35  59  87 113 141 189 229 277 327
#     4   9  17  32  58  81 112 145 183 228 279 321
#     4   9  18  35  57  86 106 143 187 229 270 323
#     4  10  21  40  59  83 108 151 186 228 273 332
#     4  11  20  34  59  85 115 144 183 233 275 327
#     4   9  20  37  64  76 112 153 183 223 286 321
#     4   9  18  34  56  83 110 147 183 226 276 332
#
# _framework density 19.653085000000001
#
# number of rings (size 3 to 8) (size 9 to 14) (size 15 to 20)
#    0.000    2.286    2.857    1.714    4.000    1.143 
#    0.000    7.143    3.143    0.000    0.000    0.000 
#    0.000    0.000    0.000    0.000    0.000    0.000 
#
# Total GULP energy -173525.614041 kJ/mol
# GULP energy per Si atom -12394.686717 kJ/mol
# Density = 1.960835 g / cm^3
# Si number density = 19.653085 Si / 1000 Ang^3
#
#
#
# Elastic Constant Matrix: (Units=GPa)
#
#
# Indices 1 2 3 4 5 6 
#
# 1 110.8043 20.2631 27.4864 15.3342 -9.7877 4.1202
# 2 20.2631 87.0614 25.2135 8.0602 5.6449 15.4942
# 3 27.4864 25.2135 90.0608 6.6705 -9.8486 5.4553
# 4 15.3342 8.0602 6.6705 12.0990 -1.8179 2.4223
# 5 -9.7877 5.6449 -9.8486 -1.8179 23.4042 6.6761
# 6 4.1202 15.4942 5.4553 2.4223 6.6761 14.2119
#
#
#
# Elastic Compliance Matrix: (Units=1/GPa)
#
#
# Indices 1 2 3 4 5 6 
#
# 1 0.011780 -0.001085 -0.001893 -0.012364 0.003764 -0.001166
# 2 -0.001085 0.015670 -0.003069 -0.004896 -0.001958 -0.013837
# 3 -0.001893 -0.003069 0.013639 -0.001177 0.006838 -0.004352
# 4 -0.012364 -0.004896 -0.001177 0.105708 0.007149 -0.012001
# 5 0.003764 -0.001958 0.006838 0.007149 0.056587 -0.029381
# 6 -0.001166 -0.013837 -0.004352 -0.012001 -0.029381 0.103305
#
#
# Mechanical properties :
#
#
# Convention : Reuss Voigt Hill
#
# Bulk Modulus (GPa) = 34.49024 48.20586 41.34805
# Shear Modulus (GPa) = 15.22299 24.27393 19.74846
#
# Velocity S-wave (km/s) = 2.78616 3.51824 3.17338
# Velocity P-wave (km/s) = 5.28563 6.40981 5.87467
#
# Compressibility (1/GPa) = 0.02899371
#
# Stress axis : x y z
#
# Youngs Moduli (GPa) = 84.89022 63.81448 73.31777
#
# Poissons Ratio (x) = 0.06925 0.13882
# Poissons Ratio (y) = 0.09213 0.22503
# Poissons Ratio (z) = 0.16074 0.19586
#
# Static dielectric constant tensor:
#      x y z
#    x 3.760230 -0.018980 -0.001040 
#    y -0.018980 3.115580 -0.005820 
#    z -0.001040 -0.005820 3.593760 
# 
# 
# High freq. dielectric constant tensor:
#      x y z
#    x 1.780390 0.000450 -0.002090 
#    y 0.000450 1.715460 0.003830 
#    z -0.002090 0.003830 1.752560 
# 
# From -- ./inp_files/252728.got.cif
#   From: 2010.06.25/outbox.cif.g09.slc.cpg/sg2_127_cif.got.tgz:252728.got - 2010.06.27 13:26:56.
