data_PCOD8012146
_publ_section_title
;
Structure prediction by ZEFSAII (Michael W. Deem and Ramdas Pophale) SiO2 
 PCOD8012146
Probable space group: P -1
;
_chemical_formula_sum "Si O2"
_cell_formula_units_Z 16
_cell_length_a 11.741759
_cell_length_b 10.326012
_cell_length_c 8.637882
_cell_angle_alpha 128.134594
_cell_angle_beta 50.885823
_cell_angle_gamma 109.061243
_cell_volume 635.741992
_symmetry_space_group_name_H-M "P -1"
_symmetry_group_IT_number 2
_symmetry_cell_setting 'triclinic'
loop_
_space_group_symop_operation_xyz
x,y,z
-x,-y,-z
loop_
_atom_site_type_symbol
_atom_site_label
_atom_site_fract_x
_atom_site_fract_y
_atom_site_fract_z
Si Si1 0.426722 0.690094 0.049670
Si Si2 0.747096 0.031506 0.466316
Si Si3 0.871652 0.682556 0.234735
Si Si4 0.986691 0.860631 0.533620
Si Si5 0.108943 0.680048 0.775176
Si Si6 0.733631 0.550760 0.774326
Si Si7 0.864731 0.875694 0.967674
Si Si8 0.658221 0.408686 0.263748
O O1 0.410632 0.870576 0.282400
O O2 0.341253 0.557228 0.115924
O O3 0.600773 0.634258 0.842173
O O4 0.355604 0.714690 0.958653
O O5 0.857641 0.166632 0.529285
O O6 0.783288 0.857094 0.390555
O O7 0.754937 0.006904 0.255165
O O8 0.939594 0.701651 0.364755
O O9 0.757325 0.550948 0.237290
O O10 0.004222 0.620677 0.958251
O O11 0.868645 0.919554 0.814607
O O12 0.000000 0.000000 0.500000
O O13 0.141016 0.549421 0.512418
O O14 0.267061 0.699666 0.736804
O O15 0.027615 0.854163 0.902644
O O16 0.813411 0.691626 0.898149
O O17 0.500000 0.500000 0.500000
#
# Coordination Sequence:
#
# PCOD8012146 Si02
#       8
#     2   2   2   2   2   2   2   2
#     4  11  24  43  67  98 146 184 232 283 356 412
#     4  10  22  42  66  97 139 185 229 288 345 415
#     4  10  23  42  72 102 138 183 235 289 349 412
#     4  10  21  39  67 101 138 174 224 286 346 412
#     4  11  22  40  69 105 130 180 231 292 345 401
#     4  11  24  42  68 103 137 187 232 292 342 422
#     4  11  23  41  69 100 138 175 241 283 354 407
#     4  12  24  44  70 103 143 183 235 286 353 419
#
# _framework density 25.167442000000001
#
# number of rings (size 3 to 8) (size 9 to 14) (size 15 to 20)
#    0.000    1.250    1.250    4.875    0.000    5.500 
#    0.000    0.625    8.250    0.000    0.000    0.000 
#    0.000    0.000    0.000    0.000    0.000    0.000 
#
# Total GULP energy -198316.479452 kJ/mol
# GULP energy per Si atom -12394.779966 kJ/mol
# Density = 2.511016 g / cm^3
# Si number density = 25.167442 Si / 1000 Ang^3
#
#
#
# Elastic Constant Matrix: (Units=GPa)
#
#
# Indices 1 2 3 4 5 6 
#
# 1 89.5180 13.6724 42.1212 -0.6895 9.5844 -18.1642
# 2 13.6724 45.3742 30.2474 -5.5917 -7.4138 -10.8095
# 3 42.1212 30.2474 179.3314 2.8021 14.2362 -10.2807
# 4 -0.6895 -5.5917 2.8021 35.0691 -6.5376 1.3017
# 5 9.5844 -7.4138 14.2362 -6.5376 46.7332 -1.9493
# 6 -18.1642 -10.8095 -10.2807 1.3017 -1.9493 18.1114
#
#
#
# Elastic Compliance Matrix: (Units=1/GPa)
#
#
# Indices 1 2 3 4 5 6 
#
# 1 0.015420 0.000121 -0.002703 -0.000308 -0.001786 0.013833
# 2 0.000121 0.031427 -0.005131 0.006324 0.008092 0.016382
# 3 -0.002703 -0.005131 0.007223 -0.001903 -0.002803 -0.001838
# 4 -0.000308 0.006324 -0.001903 0.030754 0.005982 0.000819
# 5 -0.001786 0.008092 -0.002803 0.005982 0.024893 0.003696
# 6 0.013833 0.016382 -0.001838 0.000819 0.003696 0.078160
#
#
# Mechanical properties :
#
#
# Convention : Reuss Voigt Hill
#
# Bulk Modulus (GPa) = 25.87695 54.03394 39.95545
# Shear Modulus (GPa) = 23.12836 35.19492 29.16164
#
# Velocity S-wave (km/s) = 3.03476 3.74362 3.40767
# Velocity P-wave (km/s) = 4.75225 6.34055 5.60297
#
# Compressibility (1/GPa) = 0.03864442
#
# Stress axis : x y z
#
# Youngs Moduli (GPa) = 64.85176 31.81963 138.43878
#
# Poissons Ratio (x) = -0.00384 0.37414
# Poissons Ratio (y) = -0.00783 0.71035
# Poissons Ratio (z) = 0.17527 0.16327
#
# Static dielectric constant tensor:
#      x y z
#    x 5.118280 -0.034410 0.218490 
#    y -0.034410 4.391930 0.091940 
#    z 0.218490 0.091940 4.928570 
# 
# 
# High freq. dielectric constant tensor:
#      x y z
#    x 2.001600 -0.008070 0.015090 
#    y -0.008070 1.991160 0.003310 
#    z 0.015090 0.003310 2.021610 
# 
# From -- ./inp_files/263289.got.cif
#   From: 2010.06.25/outbox.cif.g09.slc.cpg/sg2_132_cif.got.tgz:263289.got - 2010.06.27 13:26:56.
