data_PCOD8012691
_publ_section_title
;
Structure prediction by ZEFSAII (Michael W. Deem and Ramdas Pophale) SiO2 
 PCOD8012691
Probable space group: P -1
;
_chemical_formula_sum "Si O2"
_cell_formula_units_Z 16
_cell_length_a 9.419876
_cell_length_b 14.646044
_cell_length_c 11.637300
_cell_angle_alpha 42.353153
_cell_angle_beta 70.104242
_cell_angle_gamma 47.997072
_cell_volume 764.696615
_symmetry_space_group_name_H-M "P -1"
_symmetry_group_IT_number 2
_symmetry_cell_setting 'triclinic'
loop_
_space_group_symop_operation_xyz
x,y,z
-x,-y,-z
loop_
_atom_site_type_symbol
_atom_site_label
_atom_site_fract_x
_atom_site_fract_y
_atom_site_fract_z
Si Si1 0.792845 0.569083 0.272457
Si Si2 0.558829 0.734775 0.408653
Si Si3 0.588736 0.456306 0.297081
Si Si4 0.718835 0.859382 0.871796
Si Si5 0.947516 0.177030 0.294203
Si Si6 0.662962 0.333669 0.031127
Si Si7 0.497787 0.854069 0.746145
Si Si8 0.749191 0.737659 0.582827
O O1 0.732560 0.621679 0.372269
O O2 0.630664 0.561815 0.267797
O O3 0.014754 0.375547 0.386128
O O4 0.814981 0.707148 0.084246
O O5 0.429945 0.671884 0.507463
O O6 0.661643 0.707855 0.526654
O O7 0.405307 0.944589 0.218635
O O8 0.775320 0.345104 0.261891
O O9 0.376677 0.592695 0.157705
O O10 0.577564 0.837720 0.865536
O O11 0.860134 0.838791 0.751085
O O12 0.880735 0.221241 0.135837
O O13 0.000000 0.000000 0.500000
O O14 0.649881 0.181853 0.170915
O O15 0.500000 0.500000 0.000000
O O16 0.679200 0.701090 0.751686
O O17 0.353953 0.058344 0.554489
#
# Coordination Sequence:
#
# PCOD8012691 Si02
#       8
#     2   2   2   2   2   2   2   2
#     4  12  25  41  65  92 126 171 222 252 294 384
#     4  11  24  45  62  87 131 178 207 252 315 371
#     4  11  23  41  63  92 128 163 210 260 318 368
#     4  11  24  41  65  94 127 162 211 264 317 370
#     4  11  23  39  66  97 126 158 204 263 325 375
#     4  10  22  37  60  91 130 160 196 253 326 376
#     4  10  21  40  62  95 128 156 199 271 331 365
#     4  10  23  37  66  92 123 162 210 263 318 370
#
# _framework density 20.92333
#
# number of rings (size 3 to 8) (size 9 to 14) (size 15 to 20)
#    0.000    1.250    2.500    3.375   10.500    1.000 
#    0.000    0.000    0.000    1.500    0.000    0.000 
#    0.000    0.000    0.000    0.000    0.000    0.000 
#
# Total GULP energy -198257.791323 kJ/mol
# GULP energy per Si atom -12391.111958 kJ/mol
# Density = 2.087571 g / cm^3
# Si number density = 20.923330 Si / 1000 Ang^3
#
#
#
# Elastic Constant Matrix: (Units=GPa)
#
#
# Indices 1 2 3 4 5 6 
#
# 1 64.7533 15.0876 39.3654 -9.3737 -12.1246 5.0252
# 2 15.0876 105.4600 40.6481 3.2833 -2.9161 -4.1360
# 3 39.3654 40.6481 64.4720 0.5060 -5.1355 8.2931
# 4 -9.3737 3.2833 0.5060 19.4729 -8.0565 -1.4301
# 5 -12.1246 -2.9161 -5.1355 -8.0565 34.7794 -5.0154
# 6 5.0252 -4.1360 8.2931 -1.4301 -5.0154 28.1658
#
#
#
# Elastic Compliance Matrix: (Units=1/GPa)
#
#
# Indices 1 2 3 4 5 6 
#
# 1 0.034240 0.003853 -0.022977 0.022971 0.014916 0.005044
# 2 0.003853 0.013542 -0.011404 0.000956 0.001739 0.005017
# 3 -0.022977 -0.011404 0.037576 -0.014347 -0.008305 -0.010846
# 4 0.022971 0.000956 -0.014347 0.073211 0.024123 0.008279
# 5 0.014916 0.001739 -0.008305 0.024123 0.039661 0.008327
# 6 0.005044 0.005017 -0.010846 0.008279 0.008327 0.040438
#
#
# Mechanical properties :
#
#
# Convention : Reuss Voigt Hill
#
# Bulk Modulus (GPa) = 41.14967 47.20971 44.17969
# Shear Modulus (GPa) = 16.24296 25.78924 21.01610
#
# Velocity S-wave (km/s) = 2.78925 3.51459 3.17272
# Velocity P-wave (km/s) = 5.48478 6.25156 5.88068
#
# Compressibility (1/GPa) = 0.02430153
#
# Stress axis : x y z
#
# Youngs Moduli (GPa) = 29.20520 73.84473 26.61258
#
# Poissons Ratio (x) = -0.28449 0.61147
# Poissons Ratio (y) = -0.11251 0.30350
# Poissons Ratio (z) = 0.67104 0.84216
#
# Static dielectric constant tensor:
#      x y z
#    x 4.025330 -0.072460 0.171140 
#    y -0.072460 3.727190 -0.140160 
#    z 0.171140 -0.140160 4.114370 
# 
# 
# High freq. dielectric constant tensor:
#      x y z
#    x 1.824440 0.012890 -0.004400 
#    y 0.012890 1.797550 -0.008220 
#    z -0.004400 -0.008220 1.827800 
# 
# From -- ./inp_files/199755.got.cif
#   From: 2010.06.25/outbox.cif.g09.slc.cpg/sg2_100_cif.got.tgz:199755.got - 2010.06.27 13:26:56.
