data_PCOD8012411
_publ_section_title
;
Structure prediction by ZEFSAII (Michael W. Deem and Ramdas Pophale) SiO2 
 PCOD8012411
Probable space group: P -1
;
_chemical_formula_sum "Si O2"
_cell_formula_units_Z 10
_cell_length_a 7.971343
_cell_length_b 12.907640
_cell_length_c 5.541162
_cell_angle_alpha 101.809216
_cell_angle_beta 61.944065
_cell_angle_gamma 128.900512
_cell_volume 388.132276
_symmetry_space_group_name_H-M "P -1"
_symmetry_group_IT_number 2
_symmetry_cell_setting 'triclinic'
loop_
_space_group_symop_operation_xyz
x,y,z
-x,-y,-z
loop_
_atom_site_type_symbol
_atom_site_label
_atom_site_fract_x
_atom_site_fract_y
_atom_site_fract_z
Si Si1 0.258463 0.986839 0.628839
Si Si2 0.884288 0.692373 0.823075
Si Si3 0.424730 0.557952 0.377895
Si Si4 0.405567 0.086549 0.077272
Si Si5 0.798396 0.347092 0.128024
O O1 0.016904 0.835155 0.671158
O O2 0.500000 0.000000 0.500000
O O3 0.273633 0.065816 0.415773
O O4 0.238650 0.042821 0.928691
O O5 0.821466 0.573836 0.631344
O O6 0.076113 0.716600 0.898107
O O7 0.634424 0.646463 0.083751
O O8 0.500000 0.500000 0.500000
O O9 0.372078 0.656171 0.560511
O O10 0.626162 0.247352 0.979394
O O11 0.500000 0.000000 0.000000
O O12 0.000000 0.500000 0.000000
#
# Coordination Sequence:
#
# PCOD8012411 Si02
#       5
#     2   2   2   2   2
#     4  10  21  39  73  96 137 185 232 283 353 413
#     4  11  24  45  69  99 141 187 228 297 344 420
#     4  11  26  43  65 105 142 177 238 287 355 413
#     4  10  22  41  67 106 134 179 240 282 348 422
#     4  12  24  42  76 102 136 189 234 287 353 420
#
# _framework density 25.764413999999999
#
# number of rings (size 3 to 8) (size 9 to 14) (size 15 to 20)
#    0.000    1.200    6.000    0.600    8.400    1.600 
#    0.000    2.000    0.000    0.000    0.000    0.000 
#    0.000    0.000    0.000    0.000    0.000    0.000 
#
# Total GULP energy -123933.833672 kJ/mol
# GULP energy per Si atom -12393.383367 kJ/mol
# Density = 2.570577 g / cm^3
# Si number density = 25.764414 Si / 1000 Ang^3
#
#
#
# Elastic Constant Matrix: (Units=GPa)
#
#
# Indices 1 2 3 4 5 6 
#
# 1 41.5534 11.9176 17.9271 2.1147 5.8895 16.5640
# 2 11.9176 204.0010 55.0796 -6.5843 -4.6420 25.7135
# 3 17.9271 55.0796 106.9260 7.1002 28.4307 9.4135
# 4 2.1147 -6.5843 7.1002 49.1750 -0.1909 6.1410
# 5 5.8895 -4.6420 28.4307 -0.1909 37.7082 4.8862
# 6 16.5640 25.7135 9.4135 6.1410 4.8862 31.0245
#
#
#
# Elastic Compliance Matrix: (Units=1/GPa)
#
#
# Indices 1 2 3 4 5 6 
#
# 1 0.032732 0.001927 -0.005435 0.001895 0.001571 -0.018046
# 2 0.001927 0.007189 -0.004985 0.002467 0.005234 -0.006788
# 3 -0.005435 -0.004985 0.015934 -0.003385 -0.012420 0.004825
# 4 0.001895 0.002467 -0.003385 0.021953 0.003570 -0.006937
# 5 0.001571 0.005234 -0.012420 0.003570 0.037337 -0.007995
# 6 -0.018046 -0.006788 0.004825 -0.006937 -0.007995 0.048662
#
#
# Mechanical properties :
#
#
# Convention : Reuss Voigt Hill
#
# Bulk Modulus (GPa) = 25.72708 58.03657 41.88182
# Shear Modulus (GPa) = 25.80650 41.41861 33.61255
#
# Velocity S-wave (km/s) = 3.16829 4.01383 3.61586
# Velocity P-wave (km/s) = 4.83645 6.63746 5.80720
#
# Compressibility (1/GPa) = 0.03886955
#
# Stress axis : x y z
#
# Youngs Moduli (GPa) = 30.55104 139.09178 62.76034
#
# Poissons Ratio (x) = -0.26800 0.34111
# Poissons Ratio (y) = -0.05887 0.31283
# Poissons Ratio (z) = 0.16605 0.69330
#
# Static dielectric constant tensor:
#      x y z
#    x 6.596430 -0.866540 1.963990 
#    y -0.866540 5.536270 -0.590660 
#    z 1.963990 -0.590660 6.766770 
# 
# 
# High freq. dielectric constant tensor:
#      x y z
#    x 1.999710 0.013690 0.004510 
#    y 0.013690 2.052150 0.001390 
#    z 0.004510 0.001390 2.030370 
# 
# From -- ./inp_files/15143.got.cif
#   From: 2010.06.25/outbox.cif.g09.slc.cpg/sg2_8_cif.got.tgz:15143.got - 2010.06.27 13:26:56.
