data_PCOD8012037
_publ_section_title
;
Structure prediction by ZEFSAII (Michael W. Deem and Ramdas Pophale) SiO2 
 PCOD8012037
Probable space group: P -1
;
_chemical_formula_sum "Si O2"
_cell_formula_units_Z 14
_cell_length_a 10.647090
_cell_length_b 9.319941
_cell_length_c 18.262983
_cell_angle_alpha 138.907423
_cell_angle_beta 151.770949
_cell_angle_gamma 54.600095
_cell_volume 542.079292
_symmetry_space_group_name_H-M "P -1"
_symmetry_group_IT_number 2
_symmetry_cell_setting 'triclinic'
loop_
_space_group_symop_operation_xyz
x,y,z
-x,-y,-z
loop_
_atom_site_type_symbol
_atom_site_label
_atom_site_fract_x
_atom_site_fract_y
_atom_site_fract_z
Si Si1 0.851768 0.265799 0.236027
Si Si2 0.831355 0.879252 0.770418
Si Si3 0.844061 0.617146 0.909637
Si Si4 0.984007 0.466158 0.172893
Si Si5 0.397056 0.384067 0.824506
Si Si6 0.598052 0.163623 0.212234
Si Si7 0.716191 0.131981 0.428407
O O1 0.801126 0.506524 0.282906
O O2 0.853382 0.227227 0.310199
O O3 0.141337 0.239232 0.340853
O O4 0.590133 0.087367 0.995915
O O5 0.528601 0.831732 0.631349
O O6 0.017406 0.766879 0.875530
O O7 0.966606 0.143078 0.931099
O O8 0.571248 0.651315 0.820231
O O9 0.778511 0.469851 0.743621
O O10 0.000000 0.500000 0.000000
O O11 0.016751 0.675192 0.328398
O O12 0.702707 0.415861 0.960222
O O13 0.234391 0.115739 0.636812
O O14 0.500000 0.500000 0.000000
O O15 0.684903 0.192799 0.351919
#
# Coordination Sequence:
#
# PCOD8012037 Si02
#       7
#     2   2   2   2   2   2   2
#     4  10  22  41  68  96 138 180 223 279 346 401
#     4  11  22  44  70  99 132 184 228 276 337 409
#     4  11  22  40  71 101 135 181 231 282 344 400
#     4  12  24  42  73 102 137 180 233 283 334 409
#     4  12  22  43  70  98 139 180 225 281 343 407
#     4  10  21  39  65  99 135 178 226 279 342 405
#     4  12  25  43  74 104 134 179 238 277 337 410
#
# _framework density 25.82648
#
# number of rings (size 3 to 8) (size 9 to 14) (size 15 to 20)
#    0.000    0.857    5.714    2.571    0.000    0.571 
#    0.000    2.857    0.000    0.000    0.000    0.000 
#    0.000    0.000    0.000    0.000    0.000    0.000 
#
# Total GULP energy -173463.585627 kJ/mol
# GULP energy per Si atom -12390.256116 kJ/mol
# Density = 2.576770 g / cm^3
# Si number density = 25.826480 Si / 1000 Ang^3
#
#
#
# Elastic Constant Matrix: (Units=GPa)
#
#
# Indices 1 2 3 4 5 6 
#
# 1 184.0091 53.5037 27.2254 -1.5678 -31.8956 12.4706
# 2 53.5037 151.9242 37.4236 26.2864 -27.2160 -3.0551
# 3 27.2254 37.4236 95.0629 24.7548 -5.8174 12.3715
# 4 -1.5678 26.2864 24.7548 18.7820 1.6719 -3.9784
# 5 -31.8956 -27.2160 -5.8174 1.6719 32.3191 -0.5844
# 6 12.4706 -3.0551 12.3715 -3.9784 -0.5844 28.8000
#
#
#
# Elastic Compliance Matrix: (Units=1/GPa)
#
#
# Indices 1 2 3 4 5 6 
#
# 1 0.007406 -0.002317 -0.002366 0.006258 0.004581 -0.001479
# 2 -0.002317 0.012212 0.002144 -0.021241 0.009457 -0.001364
# 3 -0.002366 0.002144 0.021166 -0.034164 0.004822 -0.012462
# 4 0.006258 -0.021241 -0.034164 0.136646 -0.024421 0.028093
# 5 0.004581 0.009457 0.004822 -0.024421 0.045458 -0.005503
# 6 -0.001479 -0.001364 -0.012462 0.028093 -0.005503 0.044340
#
#
# Mechanical properties :
#
#
# Convention : Reuss Voigt Hill
#
# Bulk Modulus (GPa) = 28.00658 74.14461 51.07559
# Shear Modulus (GPa) = 17.59264 36.83645 27.21454
#
# Velocity S-wave (km/s) = 2.61279 3.78074 3.24967
# Velocity P-wave (km/s) = 4.46877 6.91591 5.82236
#
# Compressibility (1/GPa) = 0.03570590
#
# Stress axis : x y z
#
# Youngs Moduli (GPa) = 135.02609 81.88511 47.24489
#
# Poissons Ratio (x) = 0.18976 0.11176
# Poissons Ratio (y) = 0.31290 -0.10128
# Poissons Ratio (z) = 0.31942 -0.17553
#
# Static dielectric constant tensor:
#      x y z
#    x 5.850070 -0.762770 0.179380 
#    y -0.762770 4.901600 0.031440 
#    z 0.179380 0.031440 4.619580 
# 
# 
# High freq. dielectric constant tensor:
#      x y z
#    x 2.076490 -0.022810 -0.003910 
#    y -0.022810 2.029950 0.021940 
#    z -0.003910 0.021940 2.007760 
# 
# From -- ./inp_files/526114.got.cif
#   From: 2010.06.25/outbox.cif.g09.slc.cpg/sg2_264_cif.got.tgz:526114.got - 2010.06.27 13:26:56.
