data_PCOD8012155
_publ_section_title
;
Structure prediction by ZEFSAII (Michael W. Deem and Ramdas Pophale) SiO2 
 PCOD8012155
Probable space group: P -1
;
_chemical_formula_sum "Si O2"
_cell_formula_units_Z 16
_cell_length_a 16.897599
_cell_length_b 19.633156
_cell_length_c 6.796172
_cell_angle_alpha 71.796416
_cell_angle_beta 111.520308
_cell_angle_gamma 158.917769
_cell_volume 751.462896
_symmetry_space_group_name_H-M "P -1"
_symmetry_group_IT_number 2
_symmetry_cell_setting 'triclinic'
loop_
_space_group_symop_operation_xyz
x,y,z
-x,-y,-z
loop_
_atom_site_type_symbol
_atom_site_label
_atom_site_fract_x
_atom_site_fract_y
_atom_site_fract_z
Si Si1 0.319070 0.648356 0.949529
Si Si2 0.790045 0.209207 0.883145
Si Si3 0.393045 0.253750 0.798163
Si Si4 0.729221 0.698629 0.130803
Si Si5 0.667462 0.566593 0.553355
Si Si6 0.022273 0.869870 0.921232
Si Si7 0.461884 0.081702 0.781459
Si Si8 0.649992 0.982089 0.694408
O O1 0.051309 0.434272 0.910715
O O2 0.400940 0.764083 0.741682
O O3 0.420785 0.648393 0.004407
O O4 0.423670 0.762242 0.143584
O O5 0.657494 0.178937 0.819552
O O6 0.706658 0.108214 0.694293
O O7 0.735192 0.109666 0.097311
O O8 0.299915 0.246524 0.850086
O O9 0.507557 0.370651 0.592115
O O10 0.177895 0.035294 0.759739
O O11 0.788073 0.679487 0.356385
O O12 0.500000 0.500000 0.000000
O O13 0.922209 0.848379 0.006541
O O14 0.500000 0.500000 0.500000
O O15 0.835557 0.686500 0.781796
O O16 0.159029 0.917511 0.122433
O O17 0.343603 0.019110 0.533552
#
# Coordination Sequence:
#
# PCOD8012155 Si02
#       8
#     2   2   2   2   2   2   2   2
#     4  10  22  40  60  90 126 158 201 254 296 363
#     4  10  21  39  67  88 126 162 198 249 304 358
#     4  10  22  40  59  85 120 157 198 244 305 345
#     4  11  22  40  60  85 117 153 202 250 290 357
#     4  10  21  40  59  83 115 153 200 251 297 353
#     4  11  22  40  60  85 121 159 198 251 299 352
#     4  10  22  41  61  96 121 160 204 245 302 368
#     4  10  23  39  61  91 128 156 205 250 300 361
#
# _framework density 21.291802000000001
#
# number of rings (size 3 to 8) (size 9 to 14) (size 15 to 20)
#    0.000    1.750    2.500    1.875    0.000    7.500 
#    6.750    0.000    0.000    0.000    0.000    0.000 
#    0.000    0.000    0.000    0.000    0.000    0.000 
#
# Total GULP energy -198278.688945 kJ/mol
# GULP energy per Si atom -12392.418059 kJ/mol
# Density = 2.124334 g / cm^3
# Si number density = 21.291802 Si / 1000 Ang^3
#
#
#
# Elastic Constant Matrix: (Units=GPa)
#
#
# Indices 1 2 3 4 5 6 
#
# 1 70.4464 23.1621 13.3797 -7.6947 0.9163 3.5752
# 2 23.1621 124.4797 38.8641 -7.4270 9.5216 7.0576
# 3 13.3797 38.8641 113.1139 6.0793 3.0536 -7.3121
# 4 -7.6947 -7.4270 6.0793 13.1842 -3.7652 6.7243
# 5 0.9163 9.5216 3.0536 -3.7652 25.1845 0.0128
# 6 3.5752 7.0576 -7.3121 6.7243 0.0128 29.3280
#
#
#
# Elastic Compliance Matrix: (Units=1/GPa)
#
#
# Indices 1 2 3 4 5 6 
#
# 1 0.016920 -0.001329 -0.002716 0.013894 0.002296 -0.005606
# 2 -0.001329 0.010684 -0.004340 0.009562 -0.002032 -0.005682
# 3 -0.002716 -0.004340 0.011935 -0.013887 -0.001787 0.007536
# 4 0.013894 0.009562 -0.013887 0.117643 0.015169 -0.034437
# 5 0.002296 -0.002032 -0.001787 0.015169 0.042878 -0.003733
# 6 -0.005606 -0.005682 0.007536 -0.034437 -0.003733 0.045924
#
#
# Mechanical properties :
#
#
# Convention : Reuss Voigt Hill
#
# Bulk Modulus (GPa) = 43.91961 50.98352 47.45157
# Shear Modulus (GPa) = 18.49498 29.04828 23.77163
#
# Velocity S-wave (km/s) = 2.95047 3.69764 3.34498
# Velocity P-wave (km/s) = 5.68149 6.49825 6.10354
#
# Compressibility (1/GPa) = 0.02276887
#
# Stress axis : x y z
#
# Youngs Moduli (GPa) = 59.10055 93.59887 83.78862
#
# Poissons Ratio (x) = 0.12442 0.22756
# Poissons Ratio (y) = 0.07856 0.36364
# Poissons Ratio (z) = 0.16051 0.40621
#
# Static dielectric constant tensor:
#      x y z
#    x 3.348770 0.084880 0.771950 
#    y 0.084880 4.967570 -1.843300 
#    z 0.771950 -1.843300 5.388690 
# 
# 
# High freq. dielectric constant tensor:
#      x y z
#    x 1.837790 0.003470 0.006780 
#    y 0.003470 1.844570 -0.014950 
#    z 0.006780 -0.014950 1.820110 
# 
# From -- ./inp_files/112370.got.cif
#   From: 2010.06.25/outbox.cif.g09.slc.cpg/sg2_57_cif.got.tgz:112370.got - 2010.06.27 13:26:56.
