data_PCOD8012755
_publ_section_title
;
Structure prediction by ZEFSAII (Michael W. Deem and Ramdas Pophale) SiO2 
 PCOD8012755
Probable space group: P -1
;
_chemical_formula_sum "Si O2"
_cell_formula_units_Z 16
_cell_length_a 26.403086
_cell_length_b 23.133400
_cell_length_c 10.117106
_cell_angle_alpha 153.216502
_cell_angle_beta 144.529713
_cell_angle_gamma 17.156015
_cell_volume 786.028742
_symmetry_space_group_name_H-M "P -1"
_symmetry_group_IT_number 2
_symmetry_cell_setting 'triclinic'
loop_
_space_group_symop_operation_xyz
x,y,z
-x,-y,-z
loop_
_atom_site_type_symbol
_atom_site_label
_atom_site_fract_x
_atom_site_fract_y
_atom_site_fract_z
Si Si1 0.099696 0.443554 0.481488
Si Si2 0.822798 0.387002 0.878229
Si Si3 0.256483 0.830053 0.044052
Si Si4 0.476397 0.943778 0.209427
Si Si5 0.945398 0.071860 0.734109
Si Si6 0.371855 0.530604 0.929671
Si Si7 0.106681 0.290389 0.683423
Si Si8 0.527640 0.053506 0.291070
O O1 0.000000 0.500000 0.500000
O O2 0.001218 0.594746 0.444448
O O3 0.279169 0.134281 0.191081
O O4 0.140802 0.525759 0.800449
O O5 0.832158 0.270726 0.776174
O O6 0.625844 0.640207 0.907080
O O7 0.961359 0.178462 0.629022
O O8 0.443150 0.634850 0.968534
O O9 0.174612 0.063689 0.416081
O O10 0.312965 0.652093 0.907683
O O11 0.105045 0.963816 0.899384
O O12 0.500000 0.000000 0.500000
O O13 0.482421 0.029521 0.273193
O O14 0.799910 0.219088 0.833949
O O15 0.399095 0.342537 0.601396
O O16 0.266247 0.173920 0.735347
O O17 0.000000 0.500000 0.000000
O O18 0.500000 0.000000 0.000000
#
# Coordination Sequence:
#
# PCOD8012755 Si02
#       8
#     2   2   2   2   2   2   2   2
#     4  11  22  41  63  93 131 164 207 271 320 378
#     4  10  23  41  64  94 120 170 220 250 327 385
#     4  10  23  42  64  93 131 165 217 264 317 390
#     4  10  21  40  63  89 127 165 207 262 318 381
#     4  11  22  43  67  89 130 170 213 268 313 389
#     4  10  23  42  65  92 129 172 209 263 332 379
#     4  11  23  40  65  96 128 166 214 267 322 383
#     4  11  24  39  65  96 127 166 214 267 322 388
#
# _framework density 20.35549
#
# number of rings (size 3 to 8) (size 9 to 14) (size 15 to 20)
#    0.000    1.500    1.250    4.125    3.500    3.000 
#    4.500    1.250    0.000    0.000    0.000    0.000 
#    0.000    0.000    0.000    0.000    0.000    0.000 
#
# Total GULP energy -198274.393493 kJ/mol
# GULP energy per Si atom -12392.149593 kJ/mol
# Density = 2.030916 g / cm^3
# Si number density = 20.355490 Si / 1000 Ang^3
#
#
#
# Elastic Constant Matrix: (Units=GPa)
#
#
# Indices 1 2 3 4 5 6 
#
# 1 125.1634 62.5873 42.5622 18.0918 -14.6401 0.2302
# 2 62.5873 136.1495 58.2923 21.5942 -0.7667 -9.5629
# 3 42.5622 58.2923 101.0081 18.7573 -15.1134 -1.8440
# 4 18.0918 21.5942 18.7573 37.3681 2.6566 -1.2870
# 5 -14.6401 -0.7667 -15.1134 2.6566 26.2398 8.6118
# 6 0.2302 -9.5629 -1.8440 -1.2870 8.6118 37.5037
#
#
#
# Elastic Compliance Matrix: (Units=1/GPa)
#
#
# Indices 1 2 3 4 5 6 
#
# 1 0.012036 -0.004978 -0.000480 -0.003369 0.007701 -0.003251
# 2 -0.004978 0.012673 -0.005985 -0.001237 -0.007234 0.004587
# 3 -0.000480 -0.005985 0.016017 -0.005201 0.010392 -0.003301
# 4 -0.003369 -0.001237 -0.005201 0.032453 -0.009065 0.002645
# 5 0.007701 -0.007234 0.010392 -0.009065 0.053701 -0.014023
# 6 -0.003251 0.004587 -0.003301 0.002645 -0.014023 0.031002
#
#
# Mechanical properties :
#
#
# Convention : Reuss Voigt Hill
#
# Bulk Modulus (GPa) = 56.05523 76.57828 66.31676
# Shear Modulus (GPa) = 26.77866 33.48096 30.12981
#
# Velocity S-wave (km/s) = 3.63099 4.06003 3.85149
# Velocity P-wave (km/s) = 6.72136 7.72532 7.24076
#
# Compressibility (1/GPa) = 0.01783955
#
# Stress axis : x y z
#
# Youngs Moduli (GPa) = 83.08632 78.90585 62.43221
#
# Poissons Ratio (x) = 0.39277 0.02999
# Poissons Ratio (y) = 0.41358 0.37368
# Poissons Ratio (z) = 0.03991 0.47228
#
# Static dielectric constant tensor:
#      x y z
#    x 3.730700 0.260610 0.084520 
#    y 0.260610 4.760590 0.727300 
#    z 0.084520 0.727300 4.067810 
# 
# 
# High freq. dielectric constant tensor:
#      x y z
#    x 1.795880 0.002230 -0.004340 
#    y 0.002230 1.815500 0.016660 
#    z -0.004340 0.016660 1.792860 
# 
# From -- ./inp_files/352188.got.cif
#   From: 2010.06.25/outbox.cif.g09.slc.cpg/sg2_177_cif.got.tgz:352188.got - 2010.06.27 13:26:56.
