data_PCOD8012723
_publ_section_title
;
Structure prediction by ZEFSAII (Michael W. Deem and Ramdas Pophale) SiO2 
 PCOD8012723
Probable space group: P -1
;
_chemical_formula_sum "Si O2"
_cell_formula_units_Z 16
_cell_length_a 11.205971
_cell_length_b 8.893404
_cell_length_c 9.808910
_cell_angle_alpha 62.996767
_cell_angle_beta 61.744852
_cell_angle_gamma 67.836584
_cell_volume 750.612772
_symmetry_space_group_name_H-M "P -1"
_symmetry_group_IT_number 2
_symmetry_cell_setting 'triclinic'
loop_
_space_group_symop_operation_xyz
x,y,z
-x,-y,-z
loop_
_atom_site_type_symbol
_atom_site_label
_atom_site_fract_x
_atom_site_fract_y
_atom_site_fract_z
Si Si1 0.687340 0.006011 0.483830
Si Si2 0.437862 0.672296 0.045751
Si Si3 0.206867 0.576963 0.400629
Si Si4 0.951484 0.658755 0.861250
Si Si5 0.753773 0.355774 0.343130
Si Si6 0.903443 0.705890 0.564781
Si Si7 0.401405 0.992710 0.758432
Si Si8 0.668500 0.717277 0.104458
O O1 0.663235 0.211232 0.437808
O O2 0.702235 0.966891 0.330311
O O3 0.824513 0.905539 0.529823
O O4 0.557676 0.939721 0.641878
O O5 0.316409 0.646044 0.221613
O O6 0.556331 0.742658 0.034730
O O7 0.500000 0.500000 0.000000
O O8 0.368199 0.826220 0.920344
O O9 0.260356 0.566139 0.530318
O O10 0.191899 0.387367 0.440383
O O11 0.054492 0.700462 0.420302
O O12 0.916112 0.611878 0.744445
O O13 0.087602 0.741957 0.740743
O O14 0.810639 0.772582 0.953151
O O15 0.000000 0.500000 0.000000
O O16 0.695805 0.514890 0.209741
O O17 0.385781 0.161043 0.790752
#
# Coordination Sequence:
#
# PCOD8012723 Si02
#       8
#     2   2   2   2   2   2   2   2
#     4  11  23  41  61  86 119 156 198 246 296 348
#     4  12  24  39  61  89 121 156 196 244 297 352
#     4  10  22  39  62  89 116 153 202 240 287 354
#     4   9  20  38  61  89 121 154 195 242 293 346
#     4  10  22  39  62  89 116 156 203 244 289 348
#     4  10  21  40  63  86 120 159 194 242 295 345
#     4  11  25  40  59  88 121 155 197 245 297 352
#     4  11  22  39  62  87 121 159 194 243 299 351
#
# _framework density 21.315916999999999
#
# number of rings (size 3 to 8) (size 9 to 14) (size 15 to 20)
#    0.000    1.500    0.000    4.875    0.000   10.000 
#    0.000    1.250    0.000    0.000    0.000    0.000 
#    0.000    0.000    0.000    0.000    0.000    0.000 
#
# Total GULP energy -198362.724495 kJ/mol
# GULP energy per Si atom -12397.670281 kJ/mol
# Density = 2.126740 g / cm^3
# Si number density = 21.315917 Si / 1000 Ang^3
#
#
#
# Elastic Constant Matrix: (Units=GPa)
#
#
# Indices 1 2 3 4 5 6 
#
# 1 77.2606 18.7181 39.3646 7.5439 10.5738 -4.1620
# 2 18.7181 82.9135 23.8785 1.7620 14.7025 -0.3394
# 3 39.3646 23.8785 119.9034 7.2752 0.8332 -12.5625
# 4 7.5439 1.7620 7.2752 31.5649 3.2666 2.3181
# 5 10.5738 14.7025 0.8332 3.2666 35.4941 9.7960
# 6 -4.1620 -0.3394 -12.5625 2.3181 9.7960 36.0192
#
#
#
# Elastic Compliance Matrix: (Units=1/GPa)
#
#
# Indices 1 2 3 4 5 6 
#
# 1 0.016711 -0.001534 -0.004834 -0.002452 -0.004445 0.001597
# 2 -0.001534 0.014017 -0.002219 0.000621 -0.005532 0.000645
# 3 -0.004834 -0.002219 0.010755 -0.001562 0.001457 0.002876
# 4 -0.002452 0.000621 -0.001562 0.032963 -0.001850 -0.002440
# 5 -0.004445 -0.005532 0.001457 -0.001850 0.034498 -0.009321
# 6 0.001597 0.000645 0.002876 -0.002440 -0.009321 0.031649
#
#
# Mechanical properties :
#
#
# Convention : Reuss Voigt Hill
#
# Bulk Modulus (GPa) = 41.13747 49.33333 45.23540
# Shear Modulus (GPa) = 30.14417 33.82340 31.98378
#
# Velocity S-wave (km/s) = 3.76461 3.98775 3.87779
# Velocity P-wave (km/s) = 6.18363 6.66310 6.42784
#
# Compressibility (1/GPa) = 0.02430874
#
# Stress axis : x y z
#
# Youngs Moduli (GPa) = 59.83918 71.34371 92.98008
#
# Poissons Ratio (x) = 0.10942 0.44947
# Poissons Ratio (y) = 0.09178 0.20637
# Poissons Ratio (z) = 0.28926 0.15834
#
# Static dielectric constant tensor:
#      x y z
#    x 4.021480 -0.087050 -0.044060 
#    y -0.087050 3.579680 0.200270 
#    z -0.044060 0.200270 4.038090 
# 
# 
# High freq. dielectric constant tensor:
#      x y z
#    x 1.843910 -0.005960 0.003000 
#    y -0.005960 1.818230 0.010610 
#    z 0.003000 0.010610 1.849430 
# 
# From -- ./inp_files/184940.got.cif
#   From: 2010.06.25/outbox.cif.g09.slc.cpg/sg2_93_cif.got.tgz:184940.got - 2010.06.27 13:26:56.
