data_PCOD8012807
_publ_section_title
;
Structure prediction by ZEFSAII (Michael W. Deem and Ramdas Pophale) SiO2 
 PCOD8012807
Probable space group: P -1
;
_chemical_formula_sum "Si O2"
_cell_formula_units_Z 14
_cell_length_a 12.855978
_cell_length_b 5.428979
_cell_length_c 8.911951
_cell_angle_alpha 94.831318
_cell_angle_beta 81.252992
_cell_angle_gamma 75.371466
_cell_volume 589.934417
_symmetry_space_group_name_H-M "P -1"
_symmetry_group_IT_number 2
_symmetry_cell_setting 'triclinic'
loop_
_space_group_symop_operation_xyz
x,y,z
-x,-y,-z
loop_
_atom_site_type_symbol
_atom_site_label
_atom_site_fract_x
_atom_site_fract_y
_atom_site_fract_z
Si Si1 0.928367 0.096909 0.878010
Si Si2 0.279609 0.507732 0.089267
Si Si3 0.299741 0.748934 0.622972
Si Si4 0.613171 0.221963 0.707951
Si Si5 0.923944 0.902485 0.400448
Si Si6 0.368993 0.228492 0.771271
Si Si7 0.824889 0.766465 0.683063
O O1 0.810291 0.270871 0.967932
O O2 0.002664 0.234655 0.763602
O O3 0.908718 0.860226 0.775834
O O4 0.000000 0.000000 0.000000
O O5 0.381727 0.585492 0.145562
O O6 0.203957 0.471405 0.244668
O O7 0.325734 0.271293 0.955051
O O8 0.371223 0.661264 0.452248
O O9 0.320674 0.495533 0.707529
O O10 0.171783 0.852404 0.620785
O O11 0.334547 0.985231 0.704756
O O12 0.499259 0.152520 0.736796
O O13 0.709040 0.970872 0.701730
O O14 0.874342 0.704517 0.499890
O O15 0.000000 0.000000 0.500000
#
# Coordination Sequence:
#
# PCOD8012807 Si02
#       7
#     2   2   2   2   2   2   2
#     4  10  21  40  63  93 135 172 227 283 347 395
#     4  11  25  41  68  99 135 180 229 283 338 420
#     4  11  26  46  70 104 137 177 236 284 337 410
#     4  10  24  45  69  95 137 183 227 279 341 414
#     4   9  20  44  66  93 134 180 228 278 337 409
#     4  12  27  44  71 103 142 179 226 289 348 396
#     4   9  22  40  63  96 130 173 234 274 336 414
#
# _framework density 23.731451
#
# number of rings (size 3 to 8) (size 9 to 14) (size 15 to 20)
#    0.000    1.714    0.000    3.000   12.000    1.714 
#    5.143    0.000    0.000    0.000    0.000    0.000 
#    0.000    0.000    0.000    0.000    0.000    0.000 
#
# Total GULP energy -173475.330544 kJ/mol
# GULP energy per Si atom -12391.095039 kJ/mol
# Density = 2.367744 g / cm^3
# Si number density = 23.731451 Si / 1000 Ang^3
#
#
#
# Elastic Constant Matrix: (Units=GPa)
#
#
# Indices 1 2 3 4 5 6 
#
# 1 135.9373 21.6938 42.4357 1.2033 13.7353 -1.2497
# 2 21.6938 61.8635 13.2232 -2.0339 16.2170 8.7299
# 3 42.4357 13.2232 116.4254 5.6377 -0.5583 -6.5741
# 4 1.2033 -2.0339 5.6377 29.7435 0.4077 -4.4823
# 5 13.7353 16.2170 -0.5583 0.4077 38.5576 -1.7843
# 6 -1.2497 8.7299 -6.5741 -4.4823 -1.7843 16.2699
#
#
#
# Elastic Compliance Matrix: (Units=1/GPa)
#
#
# Indices 1 2 3 4 5 6 
#
# 1 0.008837 -0.001852 -0.003017 0.000156 -0.002404 0.000233
# 2 -0.001852 0.021732 -0.002624 0.000098 -0.009160 -0.013841
# 3 -0.003017 -0.002624 0.010359 -0.001258 0.002587 0.005299
# 4 0.000156 0.000098 -0.001258 0.035240 -0.000064 0.009152
# 5 -0.002404 -0.009160 0.002587 -0.000064 0.031107 0.009170
# 6 0.000233 -0.013841 0.005299 0.009152 0.009170 0.074576
#
#
# Mechanical properties :
#
#
# Convention : Reuss Voigt Hill
#
# Bulk Modulus (GPa) = 38.54317 52.10350 45.32334
# Shear Modulus (GPa) = 24.33287 32.70578 28.51933
#
# Velocity S-wave (km/s) = 3.20557 3.71639 3.47039
# Velocity P-wave (km/s) = 5.47518 6.35756 5.93279
#
# Compressibility (1/GPa) = 0.02594493
#
# Stress axis : x y z
#
# Youngs Moduli (GPa) = 113.15795 46.01409 96.53233
#
# Poissons Ratio (x) = 0.08521 0.29121
# Poissons Ratio (y) = 0.20954 0.25326
# Poissons Ratio (z) = 0.34136 0.12072
#
# Static dielectric constant tensor:
#      x y z
#    x 4.676450 0.024030 -0.329280 
#    y 0.024030 3.992170 -0.198260 
#    z -0.329280 -0.198260 5.158680 
# 
# 
# High freq. dielectric constant tensor:
#      x y z
#    x 1.960810 -0.009650 -0.000860 
#    y -0.009650 1.909560 -0.009950 
#    z -0.000860 -0.009950 1.954750 
# 
# From -- ./inp_files/26733.got.cif
#   From: 2010.06.25/outbox.cif.g09.slc.cpg/sg2_14_cif.got.tgz:26733.got - 2010.06.27 13:26:56.
