data_PCOD8012773
_publ_section_title
;
Structure prediction by ZEFSAII (Michael W. Deem and Ramdas Pophale) SiO2 
 PCOD8012773
Probable space group: P -1
;
_chemical_formula_sum "Si O2"
_cell_formula_units_Z 16
_cell_length_a 6.734661
_cell_length_b 18.968393
_cell_length_c 15.494411
_cell_angle_alpha 143.730257
_cell_angle_beta 58.950740
_cell_angle_gamma 140.735778
_cell_volume 709.328140
_symmetry_space_group_name_H-M "P -1"
_symmetry_group_IT_number 2
_symmetry_cell_setting 'triclinic'
loop_
_space_group_symop_operation_xyz
x,y,z
-x,-y,-z
loop_
_atom_site_type_symbol
_atom_site_label
_atom_site_fract_x
_atom_site_fract_y
_atom_site_fract_z
Si Si1 0.605769 0.450950 0.690816
Si Si2 0.766635 0.337104 0.129314
Si Si3 0.497962 0.661604 0.974886
Si Si4 0.676221 0.901879 0.622769
Si Si5 0.529863 0.486471 0.379909
Si Si6 0.764674 0.166375 0.489117
Si Si7 0.612898 0.858172 0.297819
Si Si8 0.263552 0.931473 0.065647
O O1 0.417351 0.490541 0.821907
O O2 0.361436 0.252840 0.535874
O O3 0.729025 0.544951 0.660073
O O4 0.897355 0.510554 0.745131
O O5 0.755404 0.361896 0.054388
O O6 0.503953 0.333819 0.226658
O O7 0.682858 0.169156 0.990961
O O8 0.439179 0.696286 0.116520
O O9 0.882662 0.812884 0.008548
O O10 0.420367 0.884793 0.609535
O O11 0.622088 0.916517 0.750212
O O12 0.042178 0.071239 0.676766
O O13 0.500000 0.500000 0.500000
O O14 0.863782 0.660769 0.437453
O O15 0.621757 0.201417 0.629007
O O16 0.715426 0.011340 0.371261
O O17 0.500000 0.000000 0.000000
#
# Coordination Sequence:
#
# PCOD8012773 Si02
#       8
#     2   2   2   2   2   2   2   2
#     4  10  21  40  63  91 129 159 209 257 308 377
#     4  10  21  41  59  85 129 161 208 253 305 380
#     4   9  21  41  60  87 124 168 204 254 320 369
#     4  11  21  39  67  92 126 159 212 261 314 368
#     4  11  24  38  63  92 126 165 207 254 312 372
#     4  11  22  39  64  97 120 168 211 256 320 365
#     4  10  22  41  67  89 130 160 211 265 305 379
#     4  10  23  37  61  92 123 164 208 261 313 370
#
# _framework density 22.556556
#
# number of rings (size 3 to 8) (size 9 to 14) (size 15 to 20)
#    0.000    1.750    2.500    1.125    1.750    4.000 
#    0.000    3.125    2.750    0.000    0.000    0.000 
#    0.000    0.000    0.000    0.000    0.000    0.000 
#
# Total GULP energy -198252.014505 kJ/mol
# GULP energy per Si atom -12390.750907 kJ/mol
# Density = 2.250522 g / cm^3
# Si number density = 22.556556 Si / 1000 Ang^3
#
#
#
# Elastic Constant Matrix: (Units=GPa)
#
#
# Indices 1 2 3 4 5 6 
#
# 1 109.2686 7.0365 23.8223 1.3351 19.4703 -8.6785
# 2 7.0365 72.3328 32.9540 -16.7596 1.6072 6.9053
# 3 23.8223 32.9540 165.1182 -10.6623 4.6058 -2.1462
# 4 1.3351 -16.7596 -10.6623 28.5494 -4.9056 -5.2593
# 5 19.4703 1.6072 4.6058 -4.9056 37.2724 -2.1620
# 6 -8.6785 6.9053 -2.1462 -5.2593 -2.1620 18.7970
#
#
#
# Elastic Compliance Matrix: (Units=1/GPa)
#
#
# Indices 1 2 3 4 5 6 
#
# 1 0.010821 -0.001191 -0.001236 -0.001838 -0.005450 0.004151
# 2 -0.001191 0.017705 -0.002895 0.008661 0.001076 -0.004837
# 3 -0.001236 -0.002895 0.006911 0.001276 0.000181 0.001660
# 4 -0.001838 0.008661 0.001276 0.043489 0.006678 0.009051
# 5 -0.005450 0.001076 0.000181 0.006678 0.030632 0.002501
# 6 0.004151 -0.004837 0.001660 0.009051 0.002501 0.059903
#
#
# Mechanical properties :
#
#
# Convention : Reuss Voigt Hill
#
# Bulk Modulus (GPa) = 40.33422 52.70502 46.51962
# Shear Modulus (GPa) = 26.54356 35.78421 31.16389
#
# Velocity S-wave (km/s) = 3.43411 3.98731 3.72101
# Velocity P-wave (km/s) = 5.80037 6.67942 6.25536
#
# Compressibility (1/GPa) = 0.02479284
#
# Stress axis : x y z
#
# Youngs Moduli (GPa) = 92.41098 56.48251 144.68826
#
# Poissons Ratio (x) = 0.06725 0.17888
# Poissons Ratio (y) = 0.11002 0.41891
# Poissons Ratio (z) = 0.11425 0.16353
#
# Static dielectric constant tensor:
#      x y z
#    x 4.410000 -0.082280 0.055160 
#    y -0.082280 3.607830 -0.006150 
#    z 0.055160 -0.006150 4.380810 
# 
# 
# High freq. dielectric constant tensor:
#      x y z
#    x 1.909540 -0.004760 0.005620 
#    y -0.004760 1.837460 -0.002680 
#    z 0.005620 -0.002680 1.916700 
# 
# From -- ./inp_files/485253.got.cif
#   From: 2010.06.25/outbox.cif.g09.slc.cpg/sg2_243_cif.got.tgz:485253.got - 2010.06.27 13:26:56.
