data_PCOD8012953
_publ_section_title
;
Structure prediction by ZEFSAII (Michael W. Deem and Ramdas Pophale) SiO2 
 PCOD8012953
Probable space group: P -1
;
_chemical_formula_sum "Si O2"
_cell_formula_units_Z 16
_cell_length_a 9.392404
_cell_length_b 12.520467
_cell_length_c 8.649003
_cell_angle_alpha 85.744105
_cell_angle_beta 47.672129
_cell_angle_gamma 86.259283
_cell_volume 749.710878
_symmetry_space_group_name_H-M "P -1"
_symmetry_group_IT_number 2
_symmetry_cell_setting 'triclinic'
loop_
_space_group_symop_operation_xyz
x,y,z
-x,-y,-z
loop_
_atom_site_type_symbol
_atom_site_label
_atom_site_fract_x
_atom_site_fract_y
_atom_site_fract_z
Si Si1 0.686709 0.049661 0.780619
Si Si2 0.157662 0.215231 0.780860
Si Si3 0.066514 0.413163 0.253372
Si Si4 0.893730 0.219741 0.237601
Si Si5 0.537859 0.248564 0.679637
Si Si6 0.454891 0.471102 0.861380
Si Si7 0.072468 0.022342 0.663799
Si Si8 0.220400 0.406360 0.487606
O O1 0.621843 0.162973 0.747476
O O2 0.858929 0.068600 0.774460
O O3 0.778189 0.972327 0.589518
O O4 0.500000 0.000000 0.000000
O O5 0.322346 0.222897 0.789265
O O6 0.160365 0.095284 0.725715
O O7 0.187174 0.296634 0.610976
O O8 0.954518 0.241326 0.013119
O O9 0.145206 0.398159 0.369781
O O10 0.013835 0.294654 0.255120
O O11 0.889071 0.495557 0.358638
O O12 0.225600 0.461675 0.014200
O O13 0.667841 0.245474 0.428624
O O14 0.949883 0.097686 0.247772
O O15 0.554295 0.359628 0.746881
O O16 0.551484 0.565000 0.678390
O O17 0.500000 0.500000 0.000000
#
# Coordination Sequence:
#
# PCOD8012953 Si02
#       8
#     2   2   2   2   2   2   2   2
#     4  10  23  41  70  98 127 171 223 269 317 384
#     4  12  26  42  65 100 137 171 213 272 330 388
#     4  10  21  42  68  91 127 172 216 267 324 383
#     4  11  23  43  68  90 135 176 213 265 330 389
#     4  11  24  42  64  95 135 174 212 270 331 387
#     4  10  21  40  64  94 124 170 217 268 320 382
#     4  10  25  42  67  99 131 173 221 267 319 392
#     4  10  24  39  66  97 127 165 222 271 318 385
#
# _framework density 21.341562
#
# number of rings (size 3 to 8) (size 9 to 14) (size 15 to 20)
#    0.000    1.500    2.500    1.125    5.250    6.000 
#    0.000    0.000    0.000    0.000    0.000    0.000 
#    0.000    0.000    0.000    0.000    0.000    0.000 
#
# Total GULP energy -198347.611958 kJ/mol
# GULP energy per Si atom -12396.725747 kJ/mol
# Density = 2.129299 g / cm^3
# Si number density = 21.341562 Si / 1000 Ang^3
#
#
#
# Elastic Constant Matrix: (Units=GPa)
#
#
# Indices 1 2 3 4 5 6 
#
# 1 45.3205 30.1586 14.4693 1.8635 -7.8579 5.7010
# 2 30.1586 129.2781 45.9224 0.1992 -0.1843 25.0033
# 3 14.4693 45.9224 157.7506 -3.6772 -21.2127 4.8702
# 4 1.8635 0.1992 -3.6772 32.8185 5.4389 0.7603
# 5 -7.8579 -0.1843 -21.2127 5.4389 22.3018 -0.8465
# 6 5.7010 25.0033 4.8702 0.7603 -0.8465 28.9524
#
#
#
# Elastic Compliance Matrix: (Units=1/GPa)
#
#
# Indices 1 2 3 4 5 6 
#
# 1 0.028599 -0.007138 0.000933 -0.003446 0.011776 0.000811
# 2 -0.007138 0.012350 -0.003494 0.001200 -0.006366 -0.008890
# 3 0.000933 -0.003494 0.008339 -0.000533 0.008426 0.001691
# 4 -0.003446 0.001200 -0.000533 0.032227 -0.009624 -0.001396
# 5 0.011776 -0.006366 0.008426 -0.009624 0.059440 0.003752
# 6 0.000811 -0.008890 0.001691 -0.001396 0.003752 0.041919
#
#
# Mechanical properties :
#
#
# Convention : Reuss Voigt Hill
#
# Bulk Modulus (GPa) = 33.45630 57.04997 45.25313
# Shear Modulus (GPa) = 23.55890 32.93446 28.24668
#
# Velocity S-wave (km/s) = 3.32610 3.93263 3.64201
# Velocity P-wave (km/s) = 5.51917 6.88554 6.23987
#
# Compressibility (1/GPa) = 0.02988974
#
# Stress axis : x y z
#
# Youngs Moduli (GPa) = 34.96687 80.97169 119.91693
#
# Poissons Ratio (x) = 0.57795 -0.11187
# Poissons Ratio (y) = 0.24958 0.41901
# Poissons Ratio (z) = -0.03262 0.28293
#
# Static dielectric constant tensor:
#      x y z
#    x 3.616100 0.155480 -0.326660 
#    y 0.155480 3.821400 0.046790 
#    z -0.326660 0.046790 4.565730 
# 
# 
# High freq. dielectric constant tensor:
#      x y z
#    x 1.812080 0.015150 -0.012840 
#    y 0.015150 1.842060 0.002710 
#    z -0.012840 0.002710 1.864430 
# 
# From -- ./inp_files/186455.got.cif
#   From: 2010.06.25/outbox.cif.g09.slc.cpg/sg2_94_cif.got.tgz:186455.got - 2010.06.27 13:26:56.
