data_PCOD8012556
_publ_section_title
;
Structure prediction by ZEFSAII (Michael W. Deem and Ramdas Pophale) SiO2 
 PCOD8012556
Probable space group: P -1
;
_chemical_formula_sum "Si O2"
_cell_formula_units_Z 16
_cell_length_a 8.626787
_cell_length_b 23.678288
_cell_length_c 13.777814
_cell_angle_alpha 159.864891
_cell_angle_beta 65.384683
_cell_angle_gamma 104.230066
_cell_volume 780.148678
_symmetry_space_group_name_H-M "P -1"
_symmetry_group_IT_number 2
_symmetry_cell_setting 'triclinic'
loop_
_space_group_symop_operation_xyz
x,y,z
-x,-y,-z
loop_
_atom_site_type_symbol
_atom_site_label
_atom_site_fract_x
_atom_site_fract_y
_atom_site_fract_z
Si Si1 0.224360 0.666985 0.154559
Si Si2 0.022610 0.983718 0.581301
Si Si3 0.036082 0.452739 0.572183
Si Si4 0.939268 0.920915 0.795805
Si Si5 0.688792 0.202754 0.157951
Si Si6 0.177478 0.235719 0.005215
Si Si7 0.372752 0.419490 0.148717
Si Si8 0.731655 0.681612 0.519058
O O1 0.102716 0.776947 0.268797
O O2 0.122600 0.766363 0.440839
O O3 0.434199 0.660115 0.093492
O O4 0.245007 0.459799 0.803812
O O5 0.000000 0.000000 0.500000
O O6 0.186765 0.039603 0.663100
O O7 0.808866 0.110593 0.881912
O O8 0.160738 0.441925 0.614967
O O9 0.820321 0.491889 0.725434
O O10 0.141056 0.265022 0.177690
O O11 0.011874 0.616486 0.767879
O O12 0.813066 0.821855 0.698553
O O13 0.815049 0.098816 0.050404
O O14 0.000000 0.000000 0.000000
O O15 0.633797 0.418904 0.519630
O O16 0.491169 0.188694 0.187290
O O17 0.364493 0.257161 0.956050
#
# Coordination Sequence:
#
# PCOD8012556 Si02
#       8
#     2   2   2   2   2   2   2   2
#     4  10  24  39  60  89 123 148 202 249 294 356
#     4  11  21  37  55  90 128 162 190 242 299 348
#     4   9  17  34  61  88 111 163 193 240 289 345
#     4  11  24  43  64  87 115 158 197 253 305 345
#     4  10  21  40  61  89 120 150 205 245 287 363
#     4   9  18  34  60  81 128 155 197 240 286 344
#     4   9  18  38  61  84 115 157 194 246 287 347
#     4  11  22  40  65  86 118 158 198 244 308 349
#
# _framework density 20.508911999999999
#
# number of rings (size 3 to 8) (size 9 to 14) (size 15 to 20)
#    0.750    1.250    1.250    2.250    1.750    1.500 
#    2.250   10.000    0.000    0.000    0.000    0.000 
#    0.000    0.000    0.000    0.000    0.000    0.000 
#
# Total GULP energy -198267.802689 kJ/mol
# GULP energy per Si atom -12391.737668 kJ/mol
# Density = 2.046223 g / cm^3
# Si number density = 20.508912 Si / 1000 Ang^3
#
#
#
# Elastic Constant Matrix: (Units=GPa)
#
#
# Indices 1 2 3 4 5 6 
#
# 1 97.9227 40.9117 52.7442 -30.7836 -1.4414 18.4837
# 2 40.9117 92.2283 47.8688 -18.9796 7.0354 22.1014
# 3 52.7442 47.8688 94.2447 -19.9955 7.7904 19.0577
# 4 -30.7836 -18.9796 -19.9955 31.8367 7.3442 3.4457
# 5 -1.4414 7.0354 7.7904 7.3442 31.0040 -5.2869
# 6 18.4837 22.1014 19.0577 3.4457 -5.2869 45.3290
#
#
#
# Elastic Compliance Matrix: (Units=1/GPa)
#
#
# Indices 1 2 3 4 5 6 
#
# 1 0.020187 -0.000556 -0.005736 0.016993 -0.002740 -0.007160
# 2 -0.000556 0.017876 -0.004533 0.009673 -0.006614 -0.008090
# 3 -0.005736 -0.004533 0.018615 0.005279 -0.005911 -0.004368
# 4 0.016993 0.009673 0.005279 0.064199 -0.021565 -0.021261
# 5 -0.002740 -0.006614 -0.005911 -0.021565 0.042510 0.013425
# 6 -0.007160 -0.008090 -0.004368 -0.021261 0.013425 0.033944
#
#
# Mechanical properties :
#
#
# Convention : Reuss Voigt Hill
#
# Bulk Modulus (GPa) = 28.54834 63.04945 45.79890
# Shear Modulus (GPa) = 21.67718 31.15867 26.41792
#
# Velocity S-wave (km/s) = 3.25463 3.90202 3.59293
# Velocity P-wave (km/s) = 5.29846 7.14914 6.29221
#
# Compressibility (1/GPa) = 0.03502831
#
# Stress axis : x y z
#
# Youngs Moduli (GPa) = 49.53696 55.94019 53.71963
#
# Poissons Ratio (x) = 0.03110 0.30811
# Poissons Ratio (y) = 0.02754 0.24354
# Poissons Ratio (z) = 0.28412 0.25360
#
# Static dielectric constant tensor:
#      x y z
#    x 3.602870 0.224120 -0.053460 
#    y 0.224120 3.679160 0.003670 
#    z -0.053460 0.003670 3.709900 
# 
# 
# High freq. dielectric constant tensor:
#      x y z
#    x 1.786760 0.019580 -0.001530 
#    y 0.019580 1.797240 0.002920 
#    z -0.001530 0.002920 1.799390 
# 
# From -- ./inp_files/509002.got.cif
#   From: 2010.06.25/outbox.cif.g09.slc.cpg/sg2_255_cif.got.tgz:509002.got - 2010.06.27 13:26:56.
