data_PCOD8012083
_publ_section_title
;
Structure prediction by ZEFSAII (Michael W. Deem and Ramdas Pophale) SiO2 
 PCOD8012083
Probable space group: P -1
;
_chemical_formula_sum "Si O2"
_cell_formula_units_Z 14
_cell_length_a 8.583399
_cell_length_b 11.489089
_cell_length_c 8.247919
_cell_angle_alpha 82.719546
_cell_angle_beta 107.310366
_cell_angle_gamma 129.507936
_cell_volume 596.957392
_symmetry_space_group_name_H-M "P -1"
_symmetry_group_IT_number 2
_symmetry_cell_setting 'triclinic'
loop_
_space_group_symop_operation_xyz
x,y,z
-x,-y,-z
loop_
_atom_site_type_symbol
_atom_site_label
_atom_site_fract_x
_atom_site_fract_y
_atom_site_fract_z
Si Si1 0.519519 0.766849 0.040796
Si Si2 0.278206 0.306416 0.107090
Si Si3 0.342567 0.527451 0.580433
Si Si4 0.789908 0.312999 0.301219
Si Si5 0.209145 0.505050 0.200778
Si Si6 0.002720 0.191910 0.527769
Si Si7 0.972993 0.022430 0.239737
O O1 0.330496 0.670058 0.129269
O O2 0.721108 0.922076 0.154180
O O3 0.595084 0.669891 0.021487
O O4 0.426751 0.794377 0.851233
O O5 0.425973 0.364689 0.298636
O O6 0.184973 0.395483 0.069650
O O7 0.094907 0.124104 0.099840
O O8 0.217045 0.586370 0.588297
O O9 0.358615 0.531918 0.389762
O O10 0.211367 0.353338 0.625485
O O11 0.822186 0.206277 0.428946
O O12 0.979107 0.429014 0.212941
O O13 0.045109 0.140806 0.385092
O O14 0.950611 0.075617 0.675764
#
# Coordination Sequence:
#
# PCOD8012083 Si02
#       7
#     2   2   2   2   2   2   2
#     4  11  25  39  61  94 131 165 203 253 318 371
#     4  11  22  40  63  94 127 166 208 259 303 369
#     4  10  21  39  69  92 123 158 214 263 307 357
#     4  10  22  44  66  93 126 159 210 263 312 362
#     4  11  20  38  66  94 121 163 213 258 305 364
#     4  10  21  39  66  93 119 163 212 253 306 365
#     4  11  23  39  64  92 130 164 209 249 309 377
#
# _framework density 23.452261
#
# number of rings (size 3 to 8) (size 9 to 14) (size 15 to 20)
#    0.000    1.429    2.857    4.286    4.000    1.714 
#    0.000    4.286    6.286    0.000    0.000    0.000 
#    0.000    0.000    0.000    0.000    0.000    0.000 
#
# Total GULP energy -173505.333599 kJ/mol
# GULP energy per Si atom -12393.238114 kJ/mol
# Density = 2.339888 g / cm^3
# Si number density = 23.452261 Si / 1000 Ang^3
#
#
#
# Elastic Constant Matrix: (Units=GPa)
#
#
# Indices 1 2 3 4 5 6 
#
# 1 75.5005 33.1024 3.7611 -2.1765 -2.6469 -2.5475
# 2 33.1024 111.9611 28.9813 2.9573 16.3286 -5.2475
# 3 3.7611 28.9813 49.2633 7.5676 10.0376 10.5863
# 4 -2.1765 2.9573 7.5676 32.5481 6.2543 -0.4408
# 5 -2.6469 16.3286 10.0376 6.2543 32.8185 5.9817
# 6 -2.5475 -5.2475 10.5863 -0.4408 5.9817 29.3539
#
#
#
# Elastic Compliance Matrix: (Units=1/GPa)
#
#
# Indices 1 2 3 4 5 6 
#
# 1 0.015755 -0.005637 0.001482 0.000499 0.003695 -0.000920
# 2 -0.005637 0.013834 -0.007981 0.001518 -0.006310 0.006171
# 3 0.001482 -0.007981 0.028494 -0.005672 -0.001473 -0.011359
# 4 0.000499 0.001518 -0.005672 0.033155 -0.006044 0.004090
# 5 0.003695 -0.006310 -0.001473 -0.006044 0.036950 -0.007897
# 6 -0.000920 0.006171 -0.011359 0.004090 -0.007897 0.040858
#
#
# Mechanical properties :
#
#
# Convention : Reuss Voigt Hill
#
# Bulk Modulus (GPa) = 29.57764 40.93495 35.25630
# Shear Modulus (GPa) = 24.43926 30.33609 27.38767
#
# Velocity S-wave (km/s) = 3.23164 3.60046 3.42102
# Velocity P-wave (km/s) = 5.15401 5.89720 5.53809
#
# Compressibility (1/GPa) = 0.03380932
#
# Stress axis : x y z
#
# Youngs Moduli (GPa) = 63.47006 72.28696 35.09530
#
# Poissons Ratio (x) = 0.40748 -0.05199
# Poissons Ratio (y) = 0.35778 0.28011
# Poissons Ratio (z) = -0.09403 0.57696
#
# Static dielectric constant tensor:
#      x y z
#    x 4.201070 -0.130610 -0.024820 
#    y -0.130610 4.170200 0.161440 
#    z -0.024820 0.161440 4.184860 
# 
# 
# High freq. dielectric constant tensor:
#      x y z
#    x 1.922910 -0.001470 -0.001360 
#    y -0.001470 1.917510 0.016760 
#    z -0.001360 0.016760 1.931150 
# 
# From -- ./inp_files/155526.got.cif
#   From: 2010.06.25/outbox.cif.g09.slc.cpg/sg2_78_cif.got.tgz:155526.got - 2010.06.27 13:26:56.
