data_PCOD8012784
_publ_section_title
;
Structure prediction by ZEFSAII (Michael W. Deem and Ramdas Pophale) SiO2 
 PCOD8012784
Probable space group: P -1
;
_chemical_formula_sum "Si O2"
_cell_formula_units_Z 16
_cell_length_a 9.222478
_cell_length_b 16.525786
_cell_length_c 8.314868
_cell_angle_alpha 146.639159
_cell_angle_beta 89.067143
_cell_angle_gamma 90.449090
_cell_volume 696.747401
_symmetry_space_group_name_H-M "P -1"
_symmetry_group_IT_number 2
_symmetry_cell_setting 'triclinic'
loop_
_space_group_symop_operation_xyz
x,y,z
-x,-y,-z
loop_
_atom_site_type_symbol
_atom_site_label
_atom_site_fract_x
_atom_site_fract_y
_atom_site_fract_z
Si Si1 0.150081 0.039441 0.475827
Si Si2 0.719377 0.149775 0.316092
Si Si3 0.161526 0.516811 0.465267
Si Si4 0.340730 0.783137 0.937032
Si Si5 0.356961 0.260106 0.986042
Si Si6 0.534215 0.671340 0.247791
Si Si7 0.205738 0.164710 0.335788
Si Si8 0.954411 0.370465 0.666449
O O1 0.241409 0.134592 0.754577
O O2 0.133029 0.110704 0.416320
O O3 0.000000 0.000000 0.500000
O O4 0.254027 0.901452 0.234533
O O5 0.668161 0.195297 0.216237
O O6 0.593924 0.205558 0.531495
O O7 0.857143 0.240866 0.528944
O O8 0.755394 0.972899 0.013307
O O9 0.254941 0.639736 0.755977
O O10 0.144563 0.549202 0.330448
O O11 0.000000 0.500000 0.500000
O O12 0.259091 0.377653 0.275252
O O13 0.510056 0.788030 0.984375
O O14 0.416631 0.328789 0.935982
O O15 0.656294 0.734147 0.467523
O O16 0.500000 0.500000 0.000000
O O17 0.092661 0.278473 0.441669
O O18 0.000000 0.500000 0.000000
#
# Coordination Sequence:
#
# PCOD8012784 Si02
#       8
#     2   2   2   2   2   2   2   2
#     4  10  21  40  63  92 126 161 205 258 310 370
#     4  10  22  40  60  88 124 160 203 256 312 370
#     4  11  24  41  61  90 125 163 208 259 311 368
#     4  10  22  40  61  89 124 161 204 255 308 369
#     4  11  23  41  63  91 123 161 208 256 307 371
#     4  11  22  39  62  90 123 162 205 254 307 370
#     4  10  22  39  61  90 125 162 206 258 311 372
#     4  11  22  40  63  90 122 162 211 260 309 370
#
# _framework density 22.963847999999999
#
# number of rings (size 3 to 8) (size 9 to 14) (size 15 to 20)
#    0.000    1.500    0.000    6.000    0.000    4.000 
#    0.000    2.500    0.000    0.000    0.000    0.000 
#    0.000    0.000    0.000    0.000    0.000    0.000 
#
# Total GULP energy -198221.109768 kJ/mol
# GULP energy per Si atom -12388.819361 kJ/mol
# Density = 2.291158 g / cm^3
# Si number density = 22.963848 Si / 1000 Ang^3
#
#
#
# Elastic Constant Matrix: (Units=GPa)
#
#
# Indices 1 2 3 4 5 6 
#
# 1 165.7388 21.5081 67.5239 9.0606 -4.5624 -0.8235
# 2 21.5081 28.7622 23.3704 12.3371 0.3817 2.5301
# 3 67.5239 23.3704 171.0988 21.1576 3.4170 0.8499
# 4 9.0606 12.3371 21.1576 30.2042 -1.9822 -2.4781
# 5 -4.5624 0.3817 3.4170 -1.9822 58.1069 8.1549
# 6 -0.8235 2.5301 0.8499 -2.4781 8.1549 41.3458
#
#
#
# Elastic Compliance Matrix: (Units=1/GPa)
#
#
# Indices 1 2 3 4 5 6 
#
# 1 0.007587 -0.004173 -0.002607 0.001337 0.000767 0.000389
# 2 -0.004173 0.047606 -0.002774 -0.016598 -0.000505 -0.003834
# 3 -0.002607 -0.002774 0.007705 -0.003540 -0.000746 -0.000106
# 4 0.001337 -0.016598 -0.003540 0.042335 0.001392 0.003378
# 5 0.000767 -0.000505 -0.000746 0.001392 0.017838 -0.003373
# 6 0.000389 -0.003834 -0.000106 0.003378 -0.003373 0.025299
#
#
# Mechanical properties :
#
#
# Convention : Reuss Voigt Hill
#
# Bulk Modulus (GPa) = 22.83607 65.60051 44.21829
# Shear Modulus (GPa) = 27.46124 42.81120 35.13622
#
# Velocity S-wave (km/s) = 3.46185 4.32242 3.91585
# Velocity P-wave (km/s) = 5.09364 7.31710 6.30417
#
# Compressibility (1/GPa) = 0.04379038
#
# Stress axis : x y z
#
# Youngs Moduli (GPa) = 131.80117 21.00578 129.77874
#
# Poissons Ratio (x) = 0.08766 0.33831
# Poissons Ratio (y) = 0.55005 0.36000
# Poissons Ratio (z) = 0.34358 0.05827
#
# Static dielectric constant tensor:
#      x y z
#    x 4.375580 0.007810 0.063870 
#    y 0.007810 3.706010 0.080150 
#    z 0.063870 0.080150 4.365100 
# 
# 
# High freq. dielectric constant tensor:
#      x y z
#    x 1.929670 -0.001410 0.001710 
#    y -0.001410 1.881920 0.014890 
#    z 0.001710 0.014890 1.927260 
# 
# From -- ./inp_files/219047.got.cif
#   From: 2010.06.25/outbox.cif.g09.slc.cpg/sg2_110_cif.got.tgz:219047.got - 2010.06.27 13:26:56.
