data_PCOD8012256
_publ_section_title
;
Structure prediction by ZEFSAII (Michael W. Deem and Ramdas Pophale) SiO2 
 PCOD8012256
Probable space group: P -1
;
_chemical_formula_sum "Si O2"
_cell_formula_units_Z 14
_cell_length_a 8.765870
_cell_length_b 28.443595
_cell_length_c 10.075200
_cell_angle_alpha 26.256270
_cell_angle_beta 135.876270
_cell_angle_gamma 143.224181
_cell_volume 665.324340
_symmetry_space_group_name_H-M "P -1"
_symmetry_group_IT_number 2
_symmetry_cell_setting 'triclinic'
loop_
_space_group_symop_operation_xyz
x,y,z
-x,-y,-z
loop_
_atom_site_type_symbol
_atom_site_label
_atom_site_fract_x
_atom_site_fract_y
_atom_site_fract_z
Si Si1 0.833720 0.535668 0.551641
Si Si2 0.239417 0.772434 0.108711
Si Si3 0.152505 0.691386 0.747120
Si Si4 0.686582 0.643827 0.418432
Si Si5 0.032497 0.940606 0.537820
Si Si6 0.489199 0.120577 0.725321
Si Si7 0.500247 0.172064 0.150105
O O1 0.808895 0.629706 0.396057
O O2 0.602778 0.473087 0.458856
O O3 0.091981 0.622927 0.410501
O O4 0.850067 0.435220 0.907549
O O5 0.433775 0.841619 0.172454
O O6 0.027430 0.812915 0.878180
O O7 0.399575 0.805539 0.991817
O O8 0.337190 0.765567 0.552290
O O9 0.258916 0.776053 0.730679
O O10 0.862707 0.656289 0.623052
O O11 0.672129 0.766789 0.085591
O O12 0.800517 0.912805 0.369217
O O13 0.307133 0.028000 0.419737
O O14 0.000000 0.000000 0.500000
O O15 0.500000 0.000000 0.000000
#
# Coordination Sequence:
#
# PCOD8012256 Si02
#       7
#     2   2   2   2   2   2   2
#     4  10  23  39  66  97 125 167 218 263 305 369
#     4  12  26  42  63  96 135 162 208 267 322 374
#     4  11  22  40  69  94 128 167 216 261 307 379
#     4  10  21  39  68  90 127 166 216 257 305 375
#     4  12  23  41  69  92 123 166 217 260 310 374
#     4  12  24  40  69  98 121 165 218 262 313 375
#     4  11  25  43  62  96 133 167 203 266 326 370
#
# _framework density 21.042369000000001
#
# number of rings (size 3 to 8) (size 9 to 14) (size 15 to 20)
#    0.000    0.857    4.286    2.571    4.000    4.000 
#    0.000    1.429    0.000    0.000    0.000    0.000 
#    0.000    0.000    0.000    0.000    0.000    0.000 
#
# Total GULP energy -173596.152578 kJ/mol
# GULP energy per Si atom -12399.725184 kJ/mol
# Density = 2.099448 g / cm^3
# Si number density = 21.042369 Si / 1000 Ang^3
#
#
#
# Elastic Constant Matrix: (Units=GPa)
#
#
# Indices 1 2 3 4 5 6 
#
# 1 50.1549 34.5334 39.7211 6.8190 -20.9875 1.4446
# 2 34.5334 170.2940 56.5556 32.5585 -6.5568 16.8065
# 3 39.7211 56.5556 114.0844 2.6413 -5.4026 8.1259
# 4 6.8190 32.5585 2.6413 43.2867 6.4153 0.7982
# 5 -20.9875 -6.5568 -5.4026 6.4153 41.1796 7.6871
# 6 1.4446 16.8065 8.1259 0.7982 7.6871 30.5465
#
#
#
# Elastic Compliance Matrix: (Units=1/GPa)
#
#
# Indices 1 2 3 4 5 6 
#
# 1 0.039917 -0.001806 -0.011694 -0.007151 0.020133 -0.002663
# 2 -0.001806 0.009103 -0.003331 -0.006565 0.001927 -0.004350
# 3 -0.011694 -0.003331 0.014152 0.004268 -0.005268 -0.000165
# 4 -0.007151 -0.006565 0.004268 0.030258 -0.009676 0.004459
# 5 0.020133 0.001927 -0.005268 -0.009676 0.037496 -0.009794
# 6 -0.002663 -0.004350 -0.000165 0.004459 -0.009794 0.037649
#
#
# Mechanical properties :
#
#
# Convention : Reuss Voigt Hill
#
# Bulk Modulus (GPa) = 33.88662 66.23929 50.06296
# Shear Modulus (GPa) = 23.57683 36.58409 30.08046
#
# Velocity S-wave (km/s) = 3.35094 4.17417 3.78500
# Velocity P-wave (km/s) = 5.57769 7.40128 6.55323
#
# Compressibility (1/GPa) = 0.02951017
#
# Stress axis : x y z
#
# Youngs Moduli (GPa) = 25.05219 109.85049 70.66258
#
# Poissons Ratio (x) = 0.19835 0.82633
# Poissons Ratio (y) = 0.04524 0.23538
# Poissons Ratio (z) = 0.29296 0.36591
#
# Static dielectric constant tensor:
#      x y z
#    x 3.474760 0.244900 0.107540 
#    y 0.244900 4.098270 0.000950 
#    z 0.107540 0.000950 3.937270 
# 
# 
# High freq. dielectric constant tensor:
#      x y z
#    x 1.799690 0.008520 0.003550 
#    y 0.008520 1.844000 -0.004860 
#    z 0.003550 -0.004860 1.834500 
# 
# From -- ./inp_files/177258.got.cif
#   From: 2010.06.25/outbox.cif.g09.slc.cpg/sg2_89_cif.got.tgz:177258.got - 2010.06.27 13:26:56.
