data_PCOD8012403
_publ_section_title
;
Structure prediction by ZEFSAII (Michael W. Deem and Ramdas Pophale) SiO2 
 PCOD8012403
Probable space group: P -1
;
_chemical_formula_sum "Si O2"
_cell_formula_units_Z 16
_cell_length_a 8.508716
_cell_length_b 11.201230
_cell_length_c 8.428562
_cell_angle_alpha 93.787064
_cell_angle_beta 123.301682
_cell_angle_gamma 84.889759
_cell_volume 668.589024
_symmetry_space_group_name_H-M "P -1"
_symmetry_group_IT_number 2
_symmetry_cell_setting 'triclinic'
loop_
_space_group_symop_operation_xyz
x,y,z
-x,-y,-z
loop_
_atom_site_type_symbol
_atom_site_label
_atom_site_fract_x
_atom_site_fract_y
_atom_site_fract_z
Si Si1 0.111358 0.273962 0.918825
Si Si2 0.812726 0.391062 0.975676
Si Si3 0.518677 0.472617 0.324512
Si Si4 0.165105 0.463042 0.703428
Si Si5 0.526452 0.215610 0.214387
Si Si6 0.294689 0.020277 0.606840
Si Si7 0.642876 0.152405 0.917521
Si Si8 0.950210 0.980247 0.216381
O O1 0.142500 0.338646 0.772701
O O2 0.994414 0.155020 0.824395
O O3 0.004048 0.372961 0.980409
O O4 0.302351 0.228029 0.107770
O O5 0.692819 0.509207 0.856888
O O6 0.698615 0.273214 0.875903
O O7 0.841451 0.419405 0.177804
O O8 0.500000 0.500000 0.500000
O O9 0.646542 0.558827 0.300442
O O10 0.608147 0.339291 0.328305
O O11 0.000000 0.500000 0.500000
O O12 0.615909 0.115137 0.372632
O O13 0.575057 0.180432 0.059353
O O14 0.144009 0.042473 0.380054
O O15 0.472480 0.104011 0.713466
O O16 0.183562 0.037921 0.709800
O O17 0.830145 0.059256 0.024902
#
# Coordination Sequence:
#
# PCOD8012403 Si02
#       8
#     2   2   2   2   2   2   2   2
#     4  12  24  44  71  99 147 192 233 296 359 420
#     4  12  27  45  70 103 148 189 238 294 357 427
#     4  12  27  47  72 106 141 185 241 299 356 434
#     4  12  27  45  70 104 140 188 242 293 360 429
#     4  11  21  43  73  94 141 186 238 290 365 416
#     4  10  21  39  72 104 134 190 240 294 358 424
#     4  11  21  46  69 105 138 195 235 294 362 416
#     4  10  22  39  69 105 139 182 246 295 347 435
#
# _framework density 23.930996
#
# number of rings (size 3 to 8) (size 9 to 14) (size 15 to 20)
#    0.000    0.750    5.000    3.000    5.250    1.500 
#    0.000    0.625    0.000    0.000    0.000    0.000 
#    0.000    0.000    0.000    0.000    0.000    0.000 
#
# Total GULP energy -198360.931389 kJ/mol
# GULP energy per Si atom -12397.558212 kJ/mol
# Density = 2.387653 g / cm^3
# Si number density = 23.930996 Si / 1000 Ang^3
#
#
#
# Elastic Constant Matrix: (Units=GPa)
#
#
# Indices 1 2 3 4 5 6 
#
# 1 100.0254 23.9931 40.1577 -2.4465 -3.2620 -14.7130
# 2 23.9931 116.5426 28.2226 8.9102 -0.0489 -11.1778
# 3 40.1577 28.2226 128.0124 3.4102 17.9308 -1.9766
# 4 -2.4465 8.9102 3.4102 30.7104 -6.5864 7.2068
# 5 -3.2620 -0.0489 17.9308 -6.5864 35.8997 0.5766
# 6 -14.7130 -11.1778 -1.9766 7.2068 0.5766 42.5305
#
#
#
# Elastic Compliance Matrix: (Units=1/GPa)
#
#
# Indices 1 2 3 4 5 6 
#
# 1 0.012669 -0.001409 -0.004149 0.001816 0.003499 0.003465
# 2 -0.001409 0.009758 -0.001582 -0.003368 0.000016 0.002574
# 3 -0.004149 -0.001582 0.010329 -0.002063 -0.005902 -0.000941
# 4 0.001816 -0.003368 -0.002063 0.037247 0.008133 -0.006775
# 5 0.003499 0.000016 -0.005902 0.008133 0.032627 -0.000880
# 6 0.003465 0.002574 -0.000941 -0.006775 -0.000880 0.026504
#
#
# Mechanical properties :
#
#
# Convention : Reuss Voigt Hill
#
# Bulk Modulus (GPa) = 54.12107 58.81411 56.46759
# Shear Modulus (GPa) = 33.42841 38.64192 36.03516
#
# Velocity S-wave (km/s) = 3.74152 4.02272 3.88467
# Velocity P-wave (km/s) = 6.42883 6.79752 6.61574
#
# Compressibility (1/GPa) = 0.01847709
#
# Stress axis : x y z
#
# Youngs Moduli (GPa) = 78.93219 102.47823 96.81362
#
# Poissons Ratio (x) = 0.14436 0.40166
# Poissons Ratio (y) = 0.11119 0.15318
# Poissons Ratio (z) = 0.32747 0.16215
#
# Static dielectric constant tensor:
#      x y z
#    x 4.454790 -0.099560 0.649350 
#    y -0.099560 4.628130 0.082510 
#    z 0.649350 0.082510 4.732190 
# 
# 
# High freq. dielectric constant tensor:
#      x y z
#    x 1.948910 -0.012470 0.015360 
#    y -0.012470 1.959490 0.005380 
#    z 0.015360 0.005380 1.938800 
# 
# From -- ./inp_files/188868.got.cif
#   From: 2010.06.25/outbox.cif.g09.slc.cpg/sg2_95_cif.got.tgz:188868.got - 2010.06.27 13:26:56.
