data_PCOD8012069
_publ_section_title
;
Structure prediction by ZEFSAII (Michael W. Deem and Ramdas Pophale) SiO2 
 PCOD8012069
Probable space group: P -1
;
_chemical_formula_sum "Si O2"
_cell_formula_units_Z 16
_cell_length_a 15.870245
_cell_length_b 14.409957
_cell_length_c 8.373655
_cell_angle_alpha 108.495183
_cell_angle_beta 120.626169
_cell_angle_gamma 29.868941
_cell_volume 785.239512
_symmetry_space_group_name_H-M "P -1"
_symmetry_group_IT_number 2
_symmetry_cell_setting 'triclinic'
loop_
_space_group_symop_operation_xyz
x,y,z
-x,-y,-z
loop_
_atom_site_type_symbol
_atom_site_label
_atom_site_fract_x
_atom_site_fract_y
_atom_site_fract_z
Si Si1 0.816412 0.954410 0.072016
Si Si2 0.161385 0.866405 0.948442
Si Si3 0.875927 0.430981 0.022849
Si Si4 0.811374 0.857869 0.338116
Si Si5 0.430583 0.225060 0.325784
Si Si6 0.053910 0.469413 0.218801
Si Si7 0.524060 0.271511 0.722452
Si Si8 0.850601 0.340398 0.262139
O O1 0.754664 0.978370 0.203078
O O2 0.889308 0.004672 0.159700
O O3 0.991899 0.731508 0.073736
O O4 0.633821 0.099281 0.852639
O O5 0.180341 0.748999 0.808372
O O6 0.363856 0.720931 0.153890
O O7 0.000000 0.000000 0.000000
O O8 0.817174 0.402560 0.081986
O O9 0.996202 0.416203 0.217295
O O10 0.682581 0.635812 0.860807
O O11 0.926069 0.662811 0.286232
O O12 0.936038 0.813999 0.558567
O O13 0.607915 0.004696 0.309627
O O14 0.286161 0.291165 0.344477
O O15 0.526583 0.230671 0.521648
O O16 0.000000 0.500000 0.000000
O O17 0.301321 0.475736 0.669251
#
# Coordination Sequence:
#
# PCOD8012069 Si02
#       8
#     2   2   2   2   2   2   2   2
#     4  10  21  40  64  92 127 163 210 256 317 373
#     4  10  21  39  66  90 129 166 210 258 325 369
#     4  11  22  41  67  91 131 167 209 266 318 370
#     4  12  23  42  67  94 130 170 211 262 317 375
#     4  11  22  43  65  94 131 169 211 263 316 376
#     4  10  22  42  66  92 130 164 216 261 318 374
#     4  10  22  41  63  94 127 169 210 262 315 378
#     4  12  22  42  65  93 132 167 212 267 313 377
#
# _framework density 20.375948000000001
#
# number of rings (size 3 to 8) (size 9 to 14) (size 15 to 20)
#    0.750    0.500    5.000    2.625    0.000    3.000 
#    2.250    1.875    0.000    0.000    0.000    0.000 
#    0.000    0.000    0.000    0.000    0.000    0.000 
#
# Total GULP energy -198317.647064 kJ/mol
# GULP energy per Si atom -12394.852941 kJ/mol
# Density = 2.032957 g / cm^3
# Si number density = 20.375948 Si / 1000 Ang^3
#
#
#
# Elastic Constant Matrix: (Units=GPa)
#
#
# Indices 1 2 3 4 5 6 
#
# 1 80.0473 36.9473 22.9315 1.1745 10.5591 4.5107
# 2 36.9473 131.3543 27.2303 1.4917 13.1584 -26.0996
# 3 22.9315 27.2303 88.8855 0.2882 14.2312 -1.0978
# 4 1.1745 1.4917 0.2882 31.6052 -0.2073 4.6934
# 5 10.5591 13.1584 14.2312 -0.2073 29.6157 5.3776
# 6 4.5107 -26.0996 -1.0978 4.6934 5.3776 30.3365
#
#
#
# Elastic Compliance Matrix: (Units=1/GPa)
#
#
# Indices 1 2 3 4 5 6 
#
# 1 0.016182 -0.005356 -0.002477 0.000715 -0.000914 -0.007052
# 2 -0.005356 0.012522 -0.001439 -0.002317 -0.005306 0.012817
# 3 -0.002477 -0.001439 0.013116 -0.000062 -0.004867 0.000477
# 4 0.000715 -0.002317 -0.000062 0.032871 0.002417 -0.007616
# 5 -0.000914 -0.005306 -0.004867 0.002417 0.041030 -0.012252
# 6 -0.007052 0.012817 0.000477 -0.007616 -0.012252 0.048406
#
#
# Mechanical properties :
#
#
# Convention : Reuss Voigt Hill
#
# Bulk Modulus (GPa) = 42.96338 52.72281 47.84309
# Shear Modulus (GPa) = 26.25650 32.52334 29.38992
#
# Velocity S-wave (km/s) = 3.59361 3.99954 3.80199
# Velocity P-wave (km/s) = 6.19272 6.87456 6.54253
#
# Compressibility (1/GPa) = 0.02327564
#
# Stress axis : x y z
#
# Youngs Moduli (GPa) = 61.79777 79.85731 76.24461
#
# Poissons Ratio (x) = 0.42771 0.18886
# Poissons Ratio (y) = 0.33099 0.10973
# Poissons Ratio (z) = 0.15307 0.11492
#
# Static dielectric constant tensor:
#      x y z
#    x 4.005080 -0.017960 0.279880 
#    y -0.017960 3.692430 0.001780 
#    z 0.279880 0.001780 3.598430 
# 
# 
# High freq. dielectric constant tensor:
#      x y z
#    x 1.786510 -0.010610 0.008100 
#    y -0.010610 1.804930 0.003770 
#    z 0.008100 0.003770 1.787890 
# 
# From -- ./inp_files/315664.got.cif
#   From: 2010.06.25/outbox.cif.g09.slc.cpg/sg2_158_cif.got.tgz:315664.got - 2010.06.27 13:26:56.
