data_PCOD8012880
_publ_section_title
;
Structure prediction by ZEFSAII (Michael W. Deem and Ramdas Pophale) SiO2 
 PCOD8012880
Probable space group: P -1
;
_chemical_formula_sum "Si O2"
_cell_formula_units_Z 14
_cell_length_a 14.379060
_cell_length_b 11.589473
_cell_length_c 12.609161
_cell_angle_alpha 38.071070
_cell_angle_beta 47.048216
_cell_angle_gamma 27.787110
_cell_volume 603.216330
_symmetry_space_group_name_H-M "P -1"
_symmetry_group_IT_number 2
_symmetry_cell_setting 'triclinic'
loop_
_space_group_symop_operation_xyz
x,y,z
-x,-y,-z
loop_
_atom_site_type_symbol
_atom_site_label
_atom_site_fract_x
_atom_site_fract_y
_atom_site_fract_z
Si Si1 0.902296 0.143887 0.724016
Si Si2 0.054070 0.392416 0.156243
Si Si3 0.417676 0.387877 0.517695
Si Si4 0.996950 0.796272 0.192035
Si Si5 0.214442 0.827760 0.532130
Si Si6 0.654647 0.747233 0.821084
Si Si7 0.254070 0.039305 0.905045
O O1 0.690527 0.460521 0.619711
O O2 0.999164 0.192453 0.691321
O O3 0.047818 0.943171 0.657848
O O4 0.864388 0.991052 0.921427
O O5 0.224449 0.347936 0.095875
O O6 0.851446 0.648998 0.197232
O O7 0.141238 0.086454 0.329793
O O8 0.000000 0.500000 0.000000
O O9 0.262060 0.598803 0.583400
O O10 0.591195 0.344519 0.426057
O O11 0.511105 0.079094 0.662129
O O12 0.193517 0.463701 0.239855
O O13 0.796700 0.923638 0.208704
O O14 0.000000 0.000000 0.000000
O O15 0.491683 0.763172 0.945617
#
# Coordination Sequence:
#
# PCOD8012880 Si02
#       7
#     2   2   2   2   2   2   2
#     4  11  22  38  64  90 120 164 203 250 306 356
#     4  10  21  40  64  89 120 162 206 247 299 362
#     4  10  22  39  61  89 122 160 199 248 309 363
#     4   9  22  41  61  88 120 162 208 248 300 358
#     4  10  22  41  61  89 126 158 201 253 301 364
#     4  10  22  41  62  90 124 156 203 255 298 362
#     4  10  22  39  61  91 123 159 204 253 303 354
#
# _framework density 23.208919999999999
#
# number of rings (size 3 to 8) (size 9 to 14) (size 15 to 20)
#    0.000    2.000    0.000    2.143    0.000    9.143 
#    0.000   11.429    0.000    0.000    0.000    0.000 
#    0.000    0.000    0.000    0.000    0.000    0.000 
#
# Total GULP energy -173515.811271 kJ/mol
# GULP energy per Si atom -12393.986519 kJ/mol
# Density = 2.315610 g / cm^3
# Si number density = 23.208920 Si / 1000 Ang^3
#
#
#
# Elastic Constant Matrix: (Units=GPa)
#
#
# Indices 1 2 3 4 5 6 
#
# 1 116.5139 39.6608 21.9635 -7.8242 20.1982 -14.4491
# 2 39.6608 97.4673 25.4853 -14.3500 2.3983 -5.8789
# 3 21.9635 25.4853 61.9083 -14.8211 14.5563 5.3367
# 4 -7.8242 -14.3500 -14.8211 26.8778 -12.3318 -10.3444
# 5 20.1982 2.3983 14.5563 -12.3318 29.3078 -11.9635
# 6 -14.4491 -5.8789 5.3367 -10.3444 -11.9635 42.9590
#
#
#
# Elastic Compliance Matrix: (Units=1/GPa)
#
#
# Indices 1 2 3 4 5 6 
#
# 1 0.011675 -0.004802 -0.001017 -0.003644 -0.008635 0.000114
# 2 -0.004802 0.015835 -0.005555 0.013619 0.013933 0.008402
# 3 -0.001017 -0.005555 0.022571 0.000420 -0.012898 -0.007397
# 4 -0.003644 0.013619 0.000420 0.077770 0.047155 0.032445
# 5 -0.008635 0.013933 -0.012898 0.047155 0.079046 0.033973
# 6 0.000114 0.008402 -0.007397 0.032445 0.033973 0.042659
#
#
# Mechanical properties :
#
#
# Convention : Reuss Voigt Hill
#
# Bulk Modulus (GPa) = 36.58456 50.01207 43.29831
# Shear Modulus (GPa) = 17.76728 32.41426 25.09077
#
# Velocity S-wave (km/s) = 2.76983 3.74120 3.29155
# Velocity P-wave (km/s) = 5.10164 6.34489 5.75692
#
# Compressibility (1/GPa) = 0.02733393
#
# Stress axis : x y z
#
# Youngs Moduli (GPa) = 85.65069 63.14971 44.30401
#
# Poissons Ratio (x) = 0.30324 0.04507
# Poissons Ratio (y) = 0.41129 0.24610
# Poissons Ratio (z) = 0.08712 0.35079
#
# Static dielectric constant tensor:
#      x y z
#    x 5.077080 0.077220 0.256090 
#    y 0.077220 4.954910 -0.031970 
#    z 0.256090 -0.031970 3.881800 
# 
# 
# High freq. dielectric constant tensor:
#      x y z
#    x 1.949260 -0.006870 0.005610 
#    y -0.006870 1.919330 -0.024850 
#    z 0.005610 -0.024850 1.884910 
# 
# From -- ./inp_files/450969.got.cif
#   From: 2010.06.25/outbox.cif.g09.slc.cpg/sg2_226_cif.got.tgz:450969.got - 2010.06.27 13:26:56.
