data_PCOD8012535
_publ_section_title
;
Structure prediction by ZEFSAII (Michael W. Deem and Ramdas Pophale) SiO2 
 PCOD8012535
Probable space group: P -1
;
_chemical_formula_sum "Si O2"
_cell_formula_units_Z 16
_cell_length_a 12.319166
_cell_length_b 19.896299
_cell_length_c 9.830625
_cell_angle_alpha 138.096334
_cell_angle_beta 104.112553
_cell_angle_gamma 42.656293
_cell_volume 808.812253
_symmetry_space_group_name_H-M "P -1"
_symmetry_group_IT_number 2
_symmetry_cell_setting 'triclinic'
loop_
_space_group_symop_operation_xyz
x,y,z
-x,-y,-z
loop_
_atom_site_type_symbol
_atom_site_label
_atom_site_fract_x
_atom_site_fract_y
_atom_site_fract_z
Si Si1 0.342818 0.997894 0.435219
Si Si2 0.119274 0.483826 0.408795
Si Si3 0.386892 0.862097 0.973516
Si Si4 0.334183 0.685922 0.821325
Si Si5 0.867357 0.966046 0.364098
Si Si6 0.829548 0.661518 0.078452
Si Si7 0.680751 0.317939 0.880135
Si Si8 0.070181 0.150327 0.070500
O O1 0.262663 0.961379 0.432074
O O2 0.177626 0.212680 0.754441
O O3 0.587893 0.822556 0.297413
O O4 0.336051 0.989259 0.257747
O O5 0.367104 0.315290 0.269745
O O6 0.000000 0.500000 0.500000
O O7 0.009263 0.677101 0.661109
O O8 0.102834 0.446980 0.200620
O O9 0.325335 0.804897 0.939693
O O10 0.243196 0.985812 0.985318
O O11 0.500000 0.500000 0.500000
O O12 0.108433 0.800645 0.913582
O O13 0.414275 0.629586 0.918306
O O14 0.122511 0.755281 0.153843
O O15 0.790203 0.138480 0.569040
O O16 0.812794 0.939144 0.175851
O O17 0.000000 0.500000 0.000000
O O18 0.500000 0.500000 0.000000
#
# Coordination Sequence:
#
# PCOD8012535 Si02
#       8
#     2   2   2   2   2   2   2   2
#     4  10  21  40  61  85 120 153 197 256 294 354
#     4  11  24  42  61  90 126 158 208 260 301 365
#     4  11  23  41  63  92 125 163 204 252 307 364
#     4  11  22  41  63  91 130 159 204 251 297 373
#     4  10  22  39  56  88 120 154 201 242 290 359
#     4  10  22  39  62  87 114 154 203 248 304 353
#     4  10  23  39  59  87 122 161 197 242 298 355
#     4  11  24  38  64  92 124 166 203 245 313 362
#
# _framework density 19.782094000000001
#
# number of rings (size 3 to 8) (size 9 to 14) (size 15 to 20)
#    0.000    1.500    2.500    1.875    1.750    3.500 
#    0.000    0.000    0.000    0.000    0.000    0.000 
#    0.000    0.000    0.000    0.000    0.000    0.000 
#
# Total GULP energy -198339.170972 kJ/mol
# GULP energy per Si atom -12396.198186 kJ/mol
# Density = 1.973707 g / cm^3
# Si number density = 19.782094 Si / 1000 Ang^3
#
#
#
# Elastic Constant Matrix: (Units=GPa)
#
#
# Indices 1 2 3 4 5 6 
#
# 1 103.7407 47.3209 30.0597 7.6561 -1.6107 9.8074
# 2 47.3209 183.9749 70.7388 12.1162 0.2363 1.1648
# 3 30.0597 70.7388 118.5887 -6.4753 12.2014 4.5331
# 4 7.6561 12.1162 -6.4753 30.4724 -1.6610 1.5652
# 5 -1.6107 0.2363 12.2014 -1.6610 33.6258 -6.2729
# 6 9.8074 1.1648 4.5331 1.5652 -6.2729 21.9024
#
#
#
# Elastic Compliance Matrix: (Units=1/GPa)
#
#
# Indices 1 2 3 4 5 6 
#
# 1 0.011715 -0.002226 -0.001604 -0.002153 0.000197 -0.004585
# 2 -0.002226 0.008041 -0.004706 -0.003659 0.001796 0.002319
# 3 -0.001604 -0.004706 0.012555 0.004845 -0.004996 -0.003407
# 4 -0.002153 -0.003659 0.004845 0.035945 -0.000539 -0.002567
# 5 0.000197 0.001796 -0.004996 -0.000539 0.033476 0.010476
# 6 -0.004585 0.002319 -0.003407 -0.002567 0.010476 0.051476
#
#
# Mechanical properties :
#
#
# Convention : Reuss Voigt Hill
#
# Bulk Modulus (GPa) = 65.61947 78.06034 71.83991
# Shear Modulus (GPa) = 28.51278 34.41243 31.46261
#
# Velocity S-wave (km/s) = 3.80062 4.17535 3.99238
# Velocity P-wave (km/s) = 7.24588 7.92404 7.59254
#
# Compressibility (1/GPa) = 0.01523938
#
# Stress axis : x y z
#
# Youngs Moduli (GPa) = 85.36062 124.35579 79.64942
#
# Poissons Ratio (x) = 0.27679 0.12779
# Poissons Ratio (y) = 0.19000 0.37482
# Poissons Ratio (z) = 0.13695 0.58520
#
# Static dielectric constant tensor:
#      x y z
#    x 5.416570 -0.026600 0.045400 
#    y -0.026600 3.542340 -0.189420 
#    z 0.045400 -0.189420 3.842770 
# 
# 
# High freq. dielectric constant tensor:
#      x y z
#    x 1.773810 -0.004420 0.006040 
#    y -0.004420 1.768630 -0.011880 
#    z 0.006040 -0.011880 1.788420 
# 
# From -- ./inp_files/126840.got.cif
#   From: 2010.06.25/outbox.cif.g09.slc.cpg/sg2_64_cif.got.tgz:126840.got - 2010.06.27 13:26:56.
