data_PCOD8012340
_publ_section_title
;
Structure prediction by ZEFSAII (Michael W. Deem and Ramdas Pophale) SiO2 
 PCOD8012340
Probable space group: P -1
;
_chemical_formula_sum "Si O2"
_cell_formula_units_Z 16
_cell_length_a 18.867894
_cell_length_b 6.083439
_cell_length_c 7.743446
_cell_angle_alpha 90.168046
_cell_angle_beta 57.596969
_cell_angle_gamma 114.196334
_cell_volume 656.834361
_symmetry_space_group_name_H-M "P -1"
_symmetry_group_IT_number 2
_symmetry_cell_setting 'triclinic'
loop_
_space_group_symop_operation_xyz
x,y,z
-x,-y,-z
loop_
_atom_site_type_symbol
_atom_site_label
_atom_site_fract_x
_atom_site_fract_y
_atom_site_fract_z
Si Si1 0.041862 0.799365 0.955932
Si Si2 0.214056 0.189724 0.227753
Si Si3 0.949519 0.829048 0.733881
Si Si4 0.394430 0.490956 0.808258
Si Si5 0.891013 0.291973 0.805925
Si Si6 0.221013 0.236020 0.596051
Si Si7 0.728365 0.323884 0.230759
Si Si8 0.606345 0.799263 0.521207
O O1 0.983825 0.895791 0.898037
O O2 0.151205 0.950843 0.748158
O O3 0.050612 0.831775 0.160830
O O4 0.000000 0.500000 0.000000
O O5 0.165753 0.274459 0.135919
O O6 0.191761 0.269557 0.441084
O O7 0.159122 0.882796 0.295000
O O8 0.327594 0.312839 0.049198
O O9 0.963058 0.584191 0.674209
O O10 0.000000 0.000000 0.500000
O O11 0.343797 0.645030 0.804319
O O12 0.500138 0.685261 0.742195
O O13 0.402363 0.305049 0.660921
O O14 0.804088 0.260974 0.041248
O O15 0.208960 0.431923 0.732610
O O16 0.329869 0.286466 0.449042
O O17 0.657594 0.099109 0.448869
#
# Coordination Sequence:
#
# PCOD8012340 Si02
#       8
#     2   2   2   2   2   2   2   2
#     4  10  22  45  64  94 126 178 219 267 315 394
#     4  12  24  43  65  94 134 169 211 273 330 382
#     4  11  24  44  63  99 133 170 213 274 332 381
#     4  10  21  39  69  96 125 165 220 262 323 384
#     4  11  23  43  69  94 127 172 222 265 319 386
#     4  11  24  41  63  94 133 168 211 270 332 379
#     4  11  20  41  67  93 124 168 215 265 321 381
#     4  10  21  41  66  96 126 169 213 269 316 392
#
# _framework density 24.359259999999999
#
# number of rings (size 3 to 8) (size 9 to 14) (size 15 to 20)
#    0.000    1.250    5.000    1.125    0.000    2.500 
#    4.500    0.625    0.000    0.000    0.000    0.000 
#    0.000    0.000    0.000    0.000    0.000    0.000 
#
# Total GULP energy -198259.220551 kJ/mol
# GULP energy per Si atom -12391.201284 kJ/mol
# Density = 2.430382 g / cm^3
# Si number density = 24.359260 Si / 1000 Ang^3
#
#
#
# Elastic Constant Matrix: (Units=GPa)
#
#
# Indices 1 2 3 4 5 6 
#
# 1 113.3503 49.1777 39.2737 -4.0723 0.6606 4.0599
# 2 49.1777 82.0818 29.0598 -18.4470 2.2518 5.6867
# 3 39.2737 29.0598 78.0265 -16.1007 -0.0541 8.2681
# 4 -4.0723 -18.4470 -16.1007 43.3697 7.7100 2.3335
# 5 0.6606 2.2518 -0.0541 7.7100 38.3988 -0.9992
# 6 4.0599 5.6867 8.2681 2.3335 -0.9992 37.3197
#
#
#
# Elastic Compliance Matrix: (Units=1/GPa)
#
#
# Indices 1 2 3 4 5 6 
#
# 1 0.013556 -0.007331 -0.005014 -0.003941 0.001008 0.001027
# 2 -0.007331 0.019040 -0.001641 0.007373 -0.002532 -0.002269
# 3 -0.005014 -0.001641 0.017492 0.005694 -0.001026 -0.003463
# 4 -0.003941 0.007373 0.005694 0.029277 -0.006338 -0.003957
# 5 0.001008 -0.002532 -0.001026 -0.006338 0.027487 0.001636
# 6 0.001027 -0.002269 -0.003463 -0.003957 0.001636 0.028088
#
#
# Mechanical properties :
#
#
# Convention : Reuss Voigt Hill
#
# Bulk Modulus (GPa) = 45.21692 56.49790 50.85741
# Shear Modulus (GPa) = 29.36252 34.21414 31.78833
#
# Velocity S-wave (km/s) = 3.47565 3.75182 3.61637
# Velocity P-wave (km/s) = 5.89149 6.48168 6.19362
#
# Compressibility (1/GPa) = 0.02211561
#
# Stress axis : x y z
#
# Youngs Moduli (GPa) = 73.76852 52.52128 57.16777
#
# Poissons Ratio (x) = 0.38504 0.28665
# Poissons Ratio (y) = 0.54080 0.09381
# Poissons Ratio (z) = 0.36989 0.08619
#
# Static dielectric constant tensor:
#      x y z
#    x 4.773560 0.093660 -0.176860 
#    y 0.093660 4.863470 -0.173400 
#    z -0.176860 -0.173400 4.224190 
# 
# 
# High freq. dielectric constant tensor:
#      x y z
#    x 1.975510 -0.002310 -0.005340 
#    y -0.002310 1.987090 -0.012280 
#    z -0.005340 -0.012280 1.960650 
# 
# From -- ./inp_files/339710.got.cif
#   From: 2010.06.25/outbox.cif.g09.slc.cpg/sg2_170_cif.got.tgz:339710.got - 2010.06.27 13:26:56.
