data_PCOD8012216
_publ_section_title
;
Structure prediction by ZEFSAII (Michael W. Deem and Ramdas Pophale) SiO2 
 PCOD8012216
Probable space group: P -1
;
_chemical_formula_sum "Si O2"
_cell_formula_units_Z 16
_cell_length_a 13.149465
_cell_length_b 19.424954
_cell_length_c 23.761710
_cell_angle_alpha 163.548189
_cell_angle_beta 28.939349
_cell_angle_gamma 156.317155
_cell_volume 690.173947
_symmetry_space_group_name_H-M "P -1"
_symmetry_group_IT_number 2
_symmetry_cell_setting 'triclinic'
loop_
_space_group_symop_operation_xyz
x,y,z
-x,-y,-z
loop_
_atom_site_type_symbol
_atom_site_label
_atom_site_fract_x
_atom_site_fract_y
_atom_site_fract_z
Si Si1 0.075304 0.282545 0.038096
Si Si2 0.990060 0.059748 0.722781
Si Si3 0.522127 0.202697 0.385461
Si Si4 0.889570 0.776960 0.445459
Si Si5 0.785453 0.256566 0.574297
Si Si6 0.584918 0.252948 0.262271
Si Si7 0.030411 0.339616 0.409794
Si Si8 0.245315 0.604155 0.098210
O O1 0.191609 0.489851 0.198984
O O2 0.270236 0.471287 0.040279
O O3 0.787212 0.183667 0.086739
O O4 0.073666 0.991239 0.816625
O O5 0.037389 0.846251 0.568625
O O6 0.181615 0.388159 0.908225
O O7 0.075847 0.057951 0.615033
O O8 0.701408 0.981258 0.804349
O O9 0.241934 0.141778 0.474194
O O10 0.620894 0.255219 0.314653
O O11 0.681803 0.482604 0.567829
O O12 0.493726 0.917814 0.205331
O O13 0.679408 0.567901 0.433564
O O14 0.008223 0.627106 0.240579
O O15 0.882075 0.382581 0.564662
O O16 0.500000 0.000000 0.500000
O O17 0.000000 0.500000 0.500000
#
# Coordination Sequence:
#
# PCOD8012216 Si02
#       8
#     2   2   2   2   2   2   2   2
#     4  11  25  47  72 104 129 188 231 275 353 413
#     4  11  21  41  68 104 137 182 227 274 345 400
#     4  11  23  44  64 103 145 176 226 294 332 401
#     4  10  21  39  67  97 143 183 222 275 346 413
#     4  12  26  48  72 100 140 183 231 284 336 412
#     4  10  21  41  73  99 144 179 225 280 344 416
#     4  12  28  48  72 101 135 179 237 288 341 404
#     4  11  24  38  69 103 140 175 227 277 346 410
#
# _framework density 23.182562000000001
#
# number of rings (size 3 to 8) (size 9 to 14) (size 15 to 20)
#    0.000    1.000    5.000    2.625    3.500    5.000 
#    4.500    0.000    0.000    0.000    0.000    0.000 
#    0.000    0.000    0.000    0.000    0.000    0.000 
#
# Total GULP energy -198277.304618 kJ/mol
# GULP energy per Si atom -12392.331539 kJ/mol
# Density = 2.312980 g / cm^3
# Si number density = 23.182562 Si / 1000 Ang^3
#
#
#
# Elastic Constant Matrix: (Units=GPa)
#
#
# Indices 1 2 3 4 5 6 
#
# 1 136.8447 39.6910 59.7828 8.6220 6.7213 -18.4122
# 2 39.6910 47.9824 31.7355 15.1408 0.6205 -8.9081
# 3 59.7828 31.7355 174.1914 19.2456 15.7784 -19.1002
# 4 8.6220 15.1408 19.2456 28.4869 -2.2103 -2.4466
# 5 6.7213 0.6205 15.7784 -2.2103 35.5718 10.3651
# 6 -18.4122 -8.9081 -19.1002 -2.4466 10.3651 28.0545
#
#
#
# Elastic Compliance Matrix: (Units=1/GPa)
#
#
# Indices 1 2 3 4 5 6 
#
# 1 0.010925 -0.007620 -0.001916 0.002248 -0.002245 0.004472
# 2 -0.007620 0.033204 -0.001466 -0.014083 -0.000370 0.003453
# 3 -0.001916 -0.001466 0.008159 -0.004086 -0.005041 0.005338
# 4 0.002248 -0.014083 -0.004086 0.044763 0.005559 -0.003929
# 5 -0.002245 -0.000370 -0.005041 0.005559 0.036361 -0.017972
# 6 0.004472 0.003453 0.005338 -0.003929 -0.017972 0.049607
#
#
# Mechanical properties :
#
#
# Convention : Reuss Voigt Hill
#
# Bulk Modulus (GPa) = 33.02132 69.04858 51.03495
# Shear Modulus (GPa) = 23.24321 33.60990 28.42655
#
# Velocity S-wave (km/s) = 3.16985 3.81174 3.50552
# Velocity P-wave (km/s) = 5.26044 7.01583 6.20057
#
# Compressibility (1/GPa) = 0.03028347
#
# Stress axis : x y z
#
# Youngs Moduli (GPa) = 91.53347 30.11728 122.56875
#
# Poissons Ratio (x) = 0.22949 0.23483
# Poissons Ratio (y) = 0.69749 0.17968
# Poissons Ratio (z) = 0.17537 0.04415
#
# Static dielectric constant tensor:
#      x y z
#    x 4.281650 -0.099820 0.111870 
#    y -0.099820 4.145150 -0.001370 
#    z 0.111870 -0.001370 4.157730 
# 
# 
# High freq. dielectric constant tensor:
#      x y z
#    x 1.919350 -0.008780 0.006810 
#    y -0.008780 1.912410 -0.000900 
#    z 0.006810 -0.000900 1.912910 
# 
# From -- ./inp_files/596050.got.cif
#   From: 2010.06.25/outbox.cif.g09.slc.cpg/sg2_299_cif.got.tgz:596050.got - 2010.06.27 13:26:56.
