data_PCOD8012877
_publ_section_title
;
Structure prediction by ZEFSAII (Michael W. Deem and Ramdas Pophale) SiO2 
 PCOD8012877
Probable space group: P -1
;
_chemical_formula_sum "Si O2"
_cell_formula_units_Z 14
_cell_length_a 9.086651
_cell_length_b 8.988867
_cell_length_c 9.160256
_cell_angle_alpha 76.172987
_cell_angle_beta 109.577262
_cell_angle_gamma 81.779516
_cell_volume 663.859207
_symmetry_space_group_name_H-M "P -1"
_symmetry_group_IT_number 2
_symmetry_cell_setting 'triclinic'
loop_
_space_group_symop_operation_xyz
x,y,z
-x,-y,-z
loop_
_atom_site_type_symbol
_atom_site_label
_atom_site_fract_x
_atom_site_fract_y
_atom_site_fract_z
Si Si1 0.878686 0.782045 0.825059
Si Si2 0.587747 0.068304 0.642893
Si Si3 0.159402 0.399681 0.400478
Si Si4 0.880574 0.133863 0.339895
Si Si5 0.713123 0.876389 0.285813
Si Si6 0.068632 0.302061 0.812224
Si Si7 0.228387 0.695920 0.453505
O O1 0.752312 0.947561 0.772568
O O2 0.791269 0.666901 0.730948
O O3 0.033651 0.802596 0.780994
O O4 0.941687 0.700799 0.016806
O O5 0.500000 0.000000 0.500000
O O6 0.470825 0.110377 0.733972
O O7 0.625944 0.230350 0.564842
O O8 0.163305 0.245458 0.536144
O O9 0.275878 0.506679 0.476427
O O10 0.976990 0.514582 0.302735
O O11 0.800891 0.276337 0.389584
O O12 0.742251 0.051544 0.254859
O O13 0.000000 0.000000 0.500000
O O14 0.754036 0.794663 0.159663
O O15 0.933302 0.221625 0.713631
#
# Coordination Sequence:
#
# PCOD8012877 Si02
#       7
#     2   2   2   2   2   2   2
#     4  12  23  40  65  86 128 155 200 251 300 349
#     4  12  22  39  62  90 120 163 197 247 297 360
#     4  10  21  40  64  89 119 159 202 248 292 357
#     4  12  18  37  62  91 113 159 204 249 289 347
#     4  12  22  39  64  89 124 157 202 243 299 359
#     4  10  24  39  61  94 120 156 201 251 298 349
#     4  10  22  37  62  92 118 150 209 240 303 347
#
# _framework density 21.088809000000001
#
# number of rings (size 3 to 8) (size 9 to 14) (size 15 to 20)
#    0.857    0.000    7.143    0.857    2.000    3.429 
#    0.000    0.000    0.000    0.857    0.000    0.000 
#    0.000    0.000    0.000    0.000    0.000    0.000 
#
# Total GULP energy -173469.994120 kJ/mol
# GULP energy per Si atom -12390.713866 kJ/mol
# Density = 2.104081 g / cm^3
# Si number density = 21.088809 Si / 1000 Ang^3
#
#
#
# Elastic Constant Matrix: (Units=GPa)
#
#
# Indices 1 2 3 4 5 6 
#
# 1 102.0715 45.1109 29.3372 2.6606 -34.9558 0.9001
# 2 45.1109 135.8481 43.5187 6.9911 -18.4697 4.6642
# 3 29.3372 43.5187 87.9424 12.8937 -21.2422 2.2468
# 4 2.6606 6.9911 12.8937 25.0188 -8.7848 -7.7674
# 5 -34.9558 -18.4697 -21.2422 -8.7848 29.5507 0.9066
# 6 0.9001 4.6642 2.2468 -7.7674 0.9066 26.8295
#
#
#
# Elastic Compliance Matrix: (Units=1/GPa)
#
#
# Indices 1 2 3 4 5 6 
#
# 1 0.018740 -0.003578 -0.000309 0.007259 0.021825 0.001383
# 2 -0.003578 0.009683 -0.003635 -0.001355 -0.001147 -0.001612
# 3 -0.000309 -0.003635 0.015875 -0.005355 0.007258 -0.002483
# 4 0.007259 -0.001355 -0.005355 0.053949 0.019456 0.015402
# 5 0.021825 -0.001147 0.007258 0.019456 0.069876 0.002131
# 6 0.001383 -0.001612 -0.002483 0.015402 0.002131 0.042101
#
#
# Mechanical properties :
#
#
# Convention : Reuss Voigt Hill
#
# Bulk Modulus (GPa) = 34.18371 62.42171 48.30271
# Shear Modulus (GPa) = 21.27486 30.13949 25.70717
#
# Velocity S-wave (km/s) = 3.17964 3.78454 3.49520
# Velocity P-wave (km/s) = 5.45204 6.98288 6.26440
#
# Compressibility (1/GPa) = 0.02925370
#
# Stress axis : x y z
#
# Youngs Moduli (GPa) = 53.36239 103.27417 62.99302
#
# Poissons Ratio (x) = 0.36949 0.01946
# Poissons Ratio (y) = 0.19092 0.22900
# Poissons Ratio (z) = 0.01649 0.37543
#
# Static dielectric constant tensor:
#      x y z
#    x 3.696320 -0.043040 -0.284760 
#    y -0.043040 4.168120 0.171610 
#    z -0.284760 0.171610 3.523210 
# 
# 
# High freq. dielectric constant tensor:
#      x y z
#    x 1.798130 -0.003960 -0.026360 
#    y -0.003960 1.844130 0.011020 
#    z -0.026360 0.011020 1.796290 
# 
# From -- ./inp_files/149382.got.cif
#   From: 2010.06.25/outbox.cif.g09.slc.cpg/sg2_75_cif.got.tgz:149382.got - 2010.06.27 13:26:56.
