data_PCOD8012468
_publ_section_title
;
Structure prediction by ZEFSAII (Michael W. Deem and Ramdas Pophale) SiO2 
 PCOD8012468
Probable space group: P -1
;
_chemical_formula_sum "Si O2"
_cell_formula_units_Z 16
_cell_length_a 9.164140
_cell_length_b 21.216168
_cell_length_c 9.100786
_cell_angle_alpha 121.568663
_cell_angle_beta 133.285581
_cell_angle_gamma 35.690050
_cell_volume 749.135249
_symmetry_space_group_name_H-M "P -1"
_symmetry_group_IT_number 2
_symmetry_cell_setting 'triclinic'
loop_
_space_group_symop_operation_xyz
x,y,z
-x,-y,-z
loop_
_atom_site_type_symbol
_atom_site_label
_atom_site_fract_x
_atom_site_fract_y
_atom_site_fract_z
Si Si1 0.857128 0.349033 0.950790
Si Si2 0.437282 0.295054 0.858984
Si Si3 0.962245 0.934773 0.480332
Si Si4 0.135992 0.814631 0.720414
Si Si5 0.861287 0.759249 0.293536
Si Si6 0.598170 0.994643 0.779596
Si Si7 0.211481 0.483654 0.740793
Si Si8 0.017455 0.839870 0.115470
O O1 0.506913 0.429680 0.795775
O O2 0.993683 0.245853 0.017995
O O3 0.990021 0.314649 0.838333
O O4 0.940356 0.402591 0.156402
O O5 0.210187 0.289096 0.705622
O O6 0.274765 0.412254 0.834187
O O7 0.691431 0.203764 0.808695
O O8 0.575513 0.271112 0.087004
O O9 0.178410 0.867066 0.687538
O O10 0.025563 0.850939 0.308817
O O11 0.632284 0.010806 0.405233
O O12 0.000000 0.000000 0.500000
O O13 0.086101 0.750744 0.525472
O O14 0.852343 0.913227 0.738820
O O15 0.557800 0.884151 0.199464
O O16 0.733853 0.954859 0.988415
O O17 0.000000 0.500000 0.500000
#
# Coordination Sequence:
#
# PCOD8012468 Si02
#       8
#     2   2   2   2   2   2   2   2
#     4  10  22  43  67  94 129 161 209 272 324 377
#     4  10  25  40  65  93 122 167 214 261 322 377
#     4  11  22  33  59  92 126 173 220 254 297 362
#     4  10  23  42  58  92 139 173 210 252 308 378
#     4  11  22  39  65  93 133 171 205 258 311 372
#     4  10  22  38  59  89 136 177 209 245 309 370
#     4  10  24  48  69  93 121 161 212 273 336 385
#     4  10  21  40  59  93 128 172 216 253 307 373
#
# _framework density 21.357958
#
# number of rings (size 3 to 8) (size 9 to 14) (size 15 to 20)
#    0.000    1.750    2.500    1.875    5.250    6.500 
#    2.250    1.250    0.000    0.000    0.000    0.000 
#    0.000    0.000    0.000    0.000    0.000    0.000 
#
# Total GULP energy -198378.177249 kJ/mol
# GULP energy per Si atom -12398.636078 kJ/mol
# Density = 2.130935 g / cm^3
# Si number density = 21.357958 Si / 1000 Ang^3
#
#
#
# Elastic Constant Matrix: (Units=GPa)
#
#
# Indices 1 2 3 4 5 6 
#
# 1 107.8545 34.3239 32.0556 2.5632 -4.9196 28.4626
# 2 34.3239 92.8346 43.9128 9.7452 -2.7961 21.3217
# 3 32.0556 43.9128 117.4805 0.3309 -14.8012 9.7277
# 4 2.5632 9.7452 0.3309 33.6558 7.6100 -6.4019
# 5 -4.9196 -2.7961 -14.8012 7.6100 34.6263 3.3187
# 6 28.4626 21.3217 9.7277 -6.4019 3.3187 31.0306
#
#
#
# Elastic Compliance Matrix: (Units=1/GPa)
#
#
# Indices 1 2 3 4 5 6 
#
# 1 0.013633 -0.000710 -0.002021 -0.003887 0.003070 -0.012514
# 2 -0.000710 0.016672 -0.004885 -0.007214 0.001792 -0.010953
# 3 -0.002021 -0.004885 0.011244 0.000878 0.003792 0.001461
# 4 -0.003887 -0.007214 0.000878 0.037780 -0.010710 0.017187
# 5 0.003070 0.001792 0.003792 -0.010710 0.034502 -0.011135
# 6 -0.012514 -0.010953 0.001461 0.017187 -0.011135 0.055509
#
#
# Mechanical properties :
#
#
# Convention : Reuss Voigt Hill
#
# Bulk Modulus (GPa) = 37.99817 59.86156 48.92987
# Shear Modulus (GPa) = 25.86078 33.72102 29.79090
#
# Velocity S-wave (km/s) = 3.48347 3.97779 3.73881
# Velocity P-wave (km/s) = 5.83173 7.01325 6.44960
#
# Compressibility (1/GPa) = 0.02631705
#
# Stress axis : x y z
#
# Youngs Moduli (GPa) = 73.35136 59.98092 88.93987
#
# Poissons Ratio (x) = 0.04260 0.17971
# Poissons Ratio (y) = 0.05210 0.43446
# Poissons Ratio (z) = 0.14821 0.29300
#
# Static dielectric constant tensor:
#      x y z
#    x 4.012790 0.090020 -0.129980 
#    y 0.090020 3.800680 -0.018770 
#    z -0.129980 -0.018770 3.905560 
# 
# 
# High freq. dielectric constant tensor:
#      x y z
#    x 1.854440 0.007430 -0.010610 
#    y 0.007430 1.823290 0.004870 
#    z -0.010610 0.004870 1.829520 
# 
# From -- ./inp_files/223893.got.cif
#   From: 2010.06.25/outbox.cif.g09.slc.cpg/sg2_112_cif.got.tgz:223893.got - 2010.06.27 13:26:56.
