data_PCOD8012456
_publ_section_title
;
Structure prediction by ZEFSAII (Michael W. Deem and Ramdas Pophale) SiO2 
 PCOD8012456
Probable space group: P -1
;
_chemical_formula_sum "Si O2"
_cell_formula_units_Z 16
_cell_length_a 15.483130
_cell_length_b 10.304707
_cell_length_c 13.552501
_cell_angle_alpha 123.668553
_cell_angle_beta 124.995326
_cell_angle_gamma 24.703112
_cell_volume 736.750826
_symmetry_space_group_name_H-M "P -1"
_symmetry_group_IT_number 2
_symmetry_cell_setting 'triclinic'
loop_
_space_group_symop_operation_xyz
x,y,z
-x,-y,-z
loop_
_atom_site_type_symbol
_atom_site_label
_atom_site_fract_x
_atom_site_fract_y
_atom_site_fract_z
Si Si1 0.245839 0.250776 0.120237
Si Si2 0.307387 0.832275 0.965867
Si Si3 0.032735 0.599776 0.721613
Si Si4 0.034583 0.964018 0.123062
Si Si5 0.820498 0.747031 0.136725
Si Si6 0.547498 0.175373 0.617360
Si Si7 0.565736 0.934210 0.353496
Si Si8 0.513789 0.384113 0.219074
O O1 0.012257 0.603021 0.151750
O O2 0.424031 0.118429 0.239226
O O3 0.278825 0.221338 0.009912
O O4 0.259560 0.053431 0.084604
O O5 0.388994 0.774848 0.889847
O O6 0.500000 0.500000 0.000000
O O7 0.098615 0.995931 0.892220
O O8 0.098277 0.482000 0.827510
O O9 0.197817 0.321593 0.632465
O O10 0.043716 0.768953 0.780530
O O11 0.799138 0.834475 0.649159
O O12 0.275491 0.630390 0.172765
O O13 0.000000 0.000000 0.000000
O O14 0.668414 0.059089 0.235419
O O15 0.440394 0.225856 0.661738
O O16 0.468034 0.456373 0.674588
O O17 0.477859 0.179810 0.472801
#
# Coordination Sequence:
#
# PCOD8012456 Si02
#       8
#     2   2   2   2   2   2   2   2
#     4  10  21  40  59  88 126 162 193 240 300 365
#     4  11  19  34  59  86 119 150 195 249 296 346
#     4  11  22  39  62  91 123 152 199 250 298 356
#     4  11  21  33  57  89 115 154 196 240 299 352
#     4  10  22  40  59  87 129 161 187 245 305 359
#     4  10  22  42  65  88 116 154 209 256 286 346
#     4  11  22  39  67  89 114 160 206 247 300 343
#     4  10  22  39  57  85 119 155 198 244 295 349
#
# _framework density 21.716975000000001
#
# number of rings (size 3 to 8) (size 9 to 14) (size 15 to 20)
#    0.000    1.500    2.500    3.375    1.750    0.500 
#    6.750    1.250    0.000    0.000    0.000    0.000 
#    0.000    0.000    0.000    0.000    0.000    0.000 
#
# Total GULP energy -198269.231377 kJ/mol
# GULP energy per Si atom -12391.826961 kJ/mol
# Density = 2.166755 g / cm^3
# Si number density = 21.716975 Si / 1000 Ang^3
#
#
#
# Elastic Constant Matrix: (Units=GPa)
#
#
# Indices 1 2 3 4 5 6 
#
# 1 65.9359 26.5147 20.4041 -6.5255 -0.7255 -18.6394
# 2 26.5147 110.2082 34.4214 8.5787 6.4719 -2.2507
# 3 20.4041 34.4214 92.3745 -3.9350 4.0845 2.2986
# 4 -6.5255 8.5787 -3.9350 25.6235 -1.2377 -3.9434
# 5 -0.7255 6.4719 4.0845 -1.2377 29.7266 2.3703
# 6 -18.6394 -2.2507 2.2986 -3.9434 2.3703 27.1699
#
#
#
# Elastic Compliance Matrix: (Units=1/GPa)
#
#
# Indices 1 2 3 4 5 6 
#
# 1 0.024535 -0.005316 -0.003503 0.010332 0.001226 0.018080
# 2 -0.005316 0.011987 -0.003390 -0.006476 -0.002296 -0.003107
# 3 -0.003503 -0.003390 0.013055 0.001674 -0.000794 -0.003476
# 4 0.010332 -0.006476 0.001674 0.046182 0.002326 0.012910
# 5 0.001226 -0.002296 -0.000794 0.002326 0.034532 -0.001957
# 6 0.018080 -0.003107 -0.003476 0.012910 -0.001957 0.051290
#
#
# Mechanical properties :
#
#
# Convention : Reuss Voigt Hill
#
# Bulk Modulus (GPa) = 39.74392 47.91098 43.82745
# Shear Modulus (GPa) = 23.32266 28.98256 26.15261
#
# Velocity S-wave (km/s) = 3.28065 3.65712 3.47399
# Velocity P-wave (km/s) = 5.71759 6.31998 6.02632
#
# Compressibility (1/GPa) = 0.02516108
#
# Stress axis : x y z
#
# Youngs Moduli (GPa) = 40.75832 83.42521 76.59824
#
# Poissons Ratio (x) = 0.44347 0.26829
# Poissons Ratio (y) = 0.21666 0.25963
# Poissons Ratio (z) = 0.14276 0.28277
#
# Static dielectric constant tensor:
#      x y z
#    x 3.549910 -0.343510 -0.015790 
#    y -0.343510 3.927670 0.069620 
#    z -0.015790 0.069620 3.664590 
# 
# 
# High freq. dielectric constant tensor:
#      x y z
#    x 1.853510 -0.006560 0.001400 
#    y -0.006560 1.866480 0.010070 
#    z 0.001400 0.010070 1.826790 
# 
# From -- ./inp_files/307099.got.cif
#   From: 2010.06.25/outbox.cif.g09.slc.cpg/sg2_154_cif.got.tgz:307099.got - 2010.06.27 13:26:56.
