data_PCOD8012448
_publ_section_title
;
Structure prediction by ZEFSAII (Michael W. Deem and Ramdas Pophale) SiO2 
 PCOD8012448
Probable space group: P -1
;
_chemical_formula_sum "Si O2"
_cell_formula_units_Z 16
_cell_length_a 5.292395
_cell_length_b 13.064165
_cell_length_c 11.340518
_cell_angle_alpha 103.239973
_cell_angle_beta 85.131097
_cell_angle_gamma 76.412505
_cell_volume 733.876013
_symmetry_space_group_name_H-M "P -1"
_symmetry_group_IT_number 2
_symmetry_cell_setting 'triclinic'
loop_
_space_group_symop_operation_xyz
x,y,z
-x,-y,-z
loop_
_atom_site_type_symbol
_atom_site_label
_atom_site_fract_x
_atom_site_fract_y
_atom_site_fract_z
Si Si1 0.855456 0.432137 0.912395
Si Si2 0.260566 0.961399 0.628030
Si Si3 0.179081 0.117121 0.461700
Si Si4 0.655816 0.145759 0.028152
Si Si5 0.997654 0.343924 0.650364
Si Si6 0.427627 0.615077 0.866860
Si Si7 0.231083 0.071377 0.890871
Si Si8 0.573573 0.533317 0.377681
O O1 0.032538 0.343919 0.792645
O O2 0.690537 0.521512 0.852398
O O3 0.718189 0.372480 0.997053
O O4 0.000000 0.500000 0.000000
O O5 0.552084 0.881331 0.616378
O O6 0.043404 0.891542 0.628002
O O7 0.241921 0.008620 0.509657
O O8 0.207435 0.060575 0.748957
O O9 0.085005 0.220954 0.574127
O O10 0.449293 0.135211 0.931393
O O11 0.947621 0.137032 0.966697
O O12 0.543624 0.263533 0.126658
O O13 0.672263 0.052260 0.098544
O O14 0.691285 0.386470 0.640898
O O15 0.189212 0.409507 0.601797
O O16 0.310918 0.571033 0.742457
O O17 0.500000 0.500000 0.500000
#
# Coordination Sequence:
#
# PCOD8012448 Si02
#       8
#     2   2   2   2   2   2   2   2
#     4  10  21  40  61  91 128 156 206 260 296 371
#     4  10  21  40  59  85 124 154 198 248 297 354
#     4  10  22  37  59  90 116 157 200 244 297 358
#     4  10  23  38  62  90 120 157 205 246 300 361
#     4  11  23  40  63  91 122 160 208 248 305 362
#     4  10  23  39  61  94 123 165 203 251 314 356
#     4  10  22  42  59  90 122 156 203 251 294 365
#     4  11  24  43  62  89 127 159 204 252 296 369
#
# _framework density 21.802050000000001
#
# number of rings (size 3 to 8) (size 9 to 14) (size 15 to 20)
#    0.000    1.750    1.250    1.875    3.500    2.000 
#    0.000    0.000    0.000    0.000    0.000    0.000 
#    0.000    0.000    0.000    0.000    0.000    0.000 
#
# Total GULP energy -198264.938551 kJ/mol
# GULP energy per Si atom -12391.558659 kJ/mol
# Density = 2.175243 g / cm^3
# Si number density = 21.802050 Si / 1000 Ang^3
#
#
#
# Elastic Constant Matrix: (Units=GPa)
#
#
# Indices 1 2 3 4 5 6 
#
# 1 138.9523 21.4516 26.9236 14.5958 11.8410 5.3909
# 2 21.4516 63.4247 21.9987 28.2534 2.4188 2.2484
# 3 26.9236 21.9987 96.4731 22.2152 5.6621 -10.8025
# 4 14.5958 28.2534 22.2152 34.5021 5.1525 9.4445
# 5 11.8410 2.4188 5.6621 5.1525 35.6772 7.1067
# 6 5.3909 2.2484 -10.8025 9.4445 7.1067 2.0558
#
#
#
# Elastic Compliance Matrix: (Units=1/GPa)
#
#
# Indices 1 2 3 4 5 6 
#
# 1 0.007815 -0.001125 -0.000262 -0.003417 -0.003205 0.006138
# 2 -0.001125 0.023021 -0.005181 -0.010211 0.005187 -0.020470
# 3 -0.000262 -0.005181 0.004692 0.010650 0.005538 -0.037063
# 4 -0.003417 -0.010211 0.010650 0.012259 -0.017896 0.081635
# 5 -0.003205 0.005187 0.005538 -0.017896 0.024821 0.028243
# 6 0.006138 -0.020470 -0.037063 0.081635 0.028243 -0.174700
#
#
# Mechanical properties :
#
#
# Convention : Reuss Voigt Hill
#
# Bulk Modulus (GPa) = 44.65896 48.84421 46.75158
# Shear Modulus (GPa) = -61.35612 29.67877 -15.83867
#
# Velocity S-wave (km/s) = -5.31069 3.69356 -2.69825
# Velocity P-wave (km/s) = 4.13235 6.37511 3.43261
#
# Compressibility (1/GPa) = 0.02239192
#
# Stress axis : x y z
#
# Youngs Moduli (GPa) = 127.95564 43.43928 213.10900
#
# Poissons Ratio (x) = 0.04889 0.05587
# Poissons Ratio (y) = 0.14401 1.10402
# Poissons Ratio (z) = 0.03355 0.22504
#
# Static dielectric constant tensor:
#      x y z
#    x 4.188800 -0.075900 0.124700 
#    y -0.075900 3.599130 0.199440 
#    z 0.124700 0.199440 3.512390 
# 
# 
# High freq. dielectric constant tensor:
#      x y z
#    x 1.865670 -0.000300 0.005710 
#    y -0.000300 1.833620 0.014940 
#    z 0.005710 0.014940 1.865440 
# 
# From -- ./inp_files/118319.got.cif
#   From: 2010.06.25/outbox.cif.g09.slc.cpg/sg2_60_cif.got.tgz:118319.got - 2010.06.27 13:26:56.
