data_PCOD8012434
_publ_section_title
;
Structure prediction by ZEFSAII (Michael W. Deem and Ramdas Pophale) SiO2 
 PCOD8012434
Probable space group: P -1
;
_chemical_formula_sum "Si O2"
_cell_formula_units_Z 14
_cell_length_a 20.086496
_cell_length_b 5.140744
_cell_length_c 7.116803
_cell_angle_alpha 98.674022
_cell_angle_beta 115.189793
_cell_angle_gamma 90.414133
_cell_volume 655.288751
_symmetry_space_group_name_H-M "P -1"
_symmetry_group_IT_number 2
_symmetry_cell_setting 'triclinic'
loop_
_space_group_symop_operation_xyz
x,y,z
-x,-y,-z
loop_
_atom_site_type_symbol
_atom_site_label
_atom_site_fract_x
_atom_site_fract_y
_atom_site_fract_z
Si Si1 0.326754 0.685440 0.783556
Si Si2 0.230791 0.157764 0.661083
Si Si3 0.888002 0.756129 0.175144
Si Si4 0.545480 0.312641 0.778988
Si Si5 0.966457 0.254248 0.200529
Si Si6 0.454755 0.786947 0.667635
Si Si7 0.889096 0.896440 0.788162
O O1 0.285001 0.398120 0.675909
O O2 0.375817 0.751102 0.666413
O O3 0.271884 0.914973 0.765553
O O4 0.375423 0.679537 0.028466
O O5 0.180779 0.047272 0.415180
O O6 0.183985 0.271605 0.785743
O O7 0.863070 0.724334 0.922455
O O8 0.943076 0.535341 0.270479
O O9 0.934269 0.038654 0.291674
O O10 0.509084 0.585693 0.800334
O O11 0.559465 0.266670 0.573041
O O12 0.491169 0.080762 0.778335
O O13 0.055076 0.260044 0.291148
O O14 0.931652 0.172252 0.942747
#
# Coordination Sequence:
#
# PCOD8012434 Si02
#       7
#     2   2   2   2   2   2   2
#     4  12  25  40  57  92 126 162 188 242 291 365
#     4  12  27  37  59  87 129 164 198 225 314 365
#     4  10  21  40  58  87 114 157 196 259 295 350
#     4  10  21  40  67  91 116 148 205 245 287 340
#     4   9  20  40  66  83 113 151 210 263 303 320
#     4  10  21  40  68  90 112 157 198 246 288 335
#     4   9  23  39  63  87 115 155 206 256 298 356
#
# _framework density 21.364626000000001
#
# number of rings (size 3 to 8) (size 9 to 14) (size 15 to 20)
#    0.857    0.857    0.000    3.857    2.000    3.429 
#    0.000    0.000    0.000    0.000    0.000    0.000 
#    0.000    0.000    0.000    0.000    0.000    0.000 
#
# Total GULP energy -173616.618364 kJ/mol
# GULP energy per Si atom -12401.187026 kJ/mol
# Density = 2.131600 g / cm^3
# Si number density = 21.364626 Si / 1000 Ang^3
#
#
#
# Elastic Constant Matrix: (Units=GPa)
#
#
# Indices 1 2 3 4 5 6 
#
# 1 69.7646 16.1796 23.8570 -10.7675 8.7013 5.4215
# 2 16.1796 126.8218 29.2601 -14.5022 6.3706 -1.8303
# 3 23.8570 29.2601 76.9636 -11.4376 25.5602 7.0315
# 4 -10.7675 -14.5022 -11.4376 25.7371 -2.6361 5.6161
# 5 8.7013 6.3706 25.5602 -2.6361 20.7999 -3.1326
# 6 5.4215 -1.8303 7.0315 5.6161 -3.1326 35.6639
#
#
#
# Elastic Compliance Matrix: (Units=1/GPa)
#
#
# Indices 1 2 3 4 5 6 
#
# 1 0.017012 -0.000755 -0.002716 0.005868 -0.003302 -0.003303
# 2 -0.000755 0.009088 -0.003734 0.003191 0.002684 0.001051
# 3 -0.002716 -0.003734 0.028198 0.008001 -0.032785 -0.009478
# 4 0.005868 0.003191 0.008001 0.048088 -0.008773 -0.010649
# 5 -0.003302 0.002684 -0.032785 -0.008773 0.090284 0.016415
# 6 -0.003303 0.001051 -0.009478 -0.010649 0.016415 0.033583
#
#
# Mechanical properties :
#
#
# Convention : Reuss Voigt Hill
#
# Bulk Modulus (GPa) = 25.07027 45.79370 35.43198
# Shear Modulus (GPa) = 19.68822 30.05708 24.87265
#
# Velocity S-wave (km/s) = 3.03897 3.75489 3.41574
# Velocity P-wave (km/s) = 4.90650 6.34663 5.67246
#
# Compressibility (1/GPa) = 0.03988789
#
# Stress axis : x y z
#
# Youngs Moduli (GPa) = 58.78269 110.03285 35.46383
#
# Poissons Ratio (x) = 0.08302 0.09633
# Poissons Ratio (y) = 0.04435 0.13243
# Poissons Ratio (z) = 0.15967 0.41089
#
# Static dielectric constant tensor:
#      x y z
#    x 3.786390 0.032340 -0.054340 
#    y 0.032340 3.890470 -0.070690 
#    z -0.054340 -0.070690 3.677060 
# 
# 
# High freq. dielectric constant tensor:
#      x y z
#    x 1.839710 0.001470 -0.006030 
#    y 0.001470 1.844080 -0.007980 
#    z -0.006030 -0.007980 1.831160 
# 
# From -- ./inp_files/33338.got.cif
#   From: 2010.06.25/outbox.cif.g09.slc.cpg/sg2_17_cif.got.tgz:33338.got - 2010.06.27 13:26:56.
