data_PCOD8012117
_publ_section_title
;
Structure prediction by ZEFSAII (Michael W. Deem and Ramdas Pophale) SiO2 
 PCOD8012117
Probable space group: P -1
;
_chemical_formula_sum "Si O2"
_cell_formula_units_Z 16
_cell_length_a 21.581971
_cell_length_b 5.489926
_cell_length_c 12.420142
_cell_angle_alpha 121.598095
_cell_angle_beta 31.332834
_cell_angle_gamma 111.754499
_cell_volume 641.881772
_symmetry_space_group_name_H-M "P -1"
_symmetry_group_IT_number 2
_symmetry_cell_setting 'triclinic'
loop_
_space_group_symop_operation_xyz
x,y,z
-x,-y,-z
loop_
_atom_site_type_symbol
_atom_site_label
_atom_site_fract_x
_atom_site_fract_y
_atom_site_fract_z
Si Si1 0.467260 0.207959 0.939127
Si Si2 0.081711 0.185314 0.789099
Si Si3 0.958089 0.366446 0.363672
Si Si4 0.777358 0.828477 0.645547
Si Si5 0.615596 0.271004 0.418534
Si Si6 0.372475 0.254204 0.860692
Si Si7 0.306418 0.132919 0.583944
Si Si8 0.867355 0.335366 0.723167
O O1 0.382247 0.279734 0.978649
O O2 0.588915 0.981337 0.684972
O O3 0.500000 0.500000 0.000000
O O4 0.368830 0.105070 0.142938
O O5 0.162312 0.150869 0.554337
O O6 0.172780 0.111077 0.736404
O O7 0.999452 0.930190 0.838496
O O8 0.000000 0.500000 0.000000
O O9 0.828039 0.506594 0.540077
O O10 0.949787 0.296200 0.485112
O O11 0.053058 0.597820 0.274463
O O12 0.812113 0.040420 0.738236
O O13 0.477557 0.407550 0.686669
O O14 0.689186 0.523250 0.333937
O O15 0.609140 0.083228 0.277690
O O16 0.673344 0.055879 0.380517
O O17 0.240451 0.395572 0.053164
#
# Coordination Sequence:
#
# PCOD8012117 Si02
#       8
#     2   2   2   2   2   2   2   2
#     4  11  24  42  75 108 145 182 234 301 371 437
#     4  11  28  45  67 100 142 190 242 297 356 440
#     4  10  22  42  63  99 135 175 239 288 354 422
#     4  11  23  42  71 100 140 184 235 298 368 432
#     4  10  25  45  71 104 142 190 242 299 357 437
#     4  10  22  42  69 102 141 183 237 294 358 428
#     4  11  26  47  73 104 146 190 246 296 368 431
#     4  10  21  39  66  96 136 179 229 293 349 422
#
# _framework density 24.926708999999999
#
# number of rings (size 3 to 8) (size 9 to 14) (size 15 to 20)
#    0.000    1.500    1.250    1.875    8.750    7.500 
#    0.000    0.000    0.000    0.000    0.000    0.000 
#    0.000    0.000    0.000    0.000    0.000    0.000 
#
# Total GULP energy -198245.212564 kJ/mol
# GULP energy per Si atom -12390.325785 kJ/mol
# Density = 2.486997 g / cm^3
# Si number density = 24.926709 Si / 1000 Ang^3
#
#
#
# Elastic Constant Matrix: (Units=GPa)
#
#
# Indices 1 2 3 4 5 6 
#
# 1 90.9042 34.8108 23.5677 1.6800 -7.6324 25.3752
# 2 34.8108 126.0651 13.1870 11.1096 6.0388 31.1747
# 3 23.5677 13.1870 86.3957 6.2953 -11.1963 12.0528
# 4 1.6800 11.1096 6.2953 29.1312 2.7302 -1.7010
# 5 -7.6324 6.0388 -11.1963 2.7302 36.1329 4.1871
# 6 25.3752 31.1747 12.0528 -1.7010 4.1871 42.8546
#
#
#
# Elastic Compliance Matrix: (Units=1/GPa)
#
#
# Indices 1 2 3 4 5 6 
#
# 1 0.014641 -0.002298 -0.002224 -0.000216 0.003584 -0.006731
# 2 -0.002298 0.010566 0.000057 -0.004172 -0.001178 -0.006392
# 3 -0.002224 0.000057 0.013397 -0.003368 0.004279 -0.003045
# 4 -0.000216 -0.004172 -0.003368 0.037374 -0.003908 0.005975
# 5 0.003584 -0.001178 0.004279 -0.003908 0.030905 -0.005644
# 6 -0.006731 -0.006392 -0.003045 0.005975 -0.005644 0.033615
#
#
# Mechanical properties :
#
#
# Convention : Reuss Voigt Hill
#
# Bulk Modulus (GPa) = 33.69945 49.61066 41.65505
# Shear Modulus (GPa) = 31.38362 37.07706 34.23034
#
# Velocity S-wave (km/s) = 3.55214 3.86092 3.70974
# Velocity P-wave (km/s) = 5.51111 6.31042 5.92426
#
# Compressibility (1/GPa) = 0.02967408
#
# Stress axis : x y z
#
# Youngs Moduli (GPa) = 68.30126 94.64491 74.64221
#
# Poissons Ratio (x) = 0.21754 0.16600
# Poissons Ratio (y) = 0.15699 -0.00428
# Poissons Ratio (z) = 0.15189 -0.00543
#
# Static dielectric constant tensor:
#      x y z
#    x 4.160310 0.044200 0.084100 
#    y 0.044200 4.181120 0.096400 
#    z 0.084100 0.096400 4.561880 
# 
# 
# High freq. dielectric constant tensor:
#      x y z
#    x 1.990190 0.024620 -0.000970 
#    y 0.024620 1.989920 0.005850 
#    z -0.000970 0.005850 1.996900 
# 
# From -- ./inp_files/542085.got.cif
#   From: 2010.06.25/outbox.cif.g09.slc.cpg/sg2_272_cif.got.tgz:542085.got - 2010.06.27 13:26:56.
