data_PCOD8012994
_publ_section_title
;
Structure prediction by ZEFSAII (Michael W. Deem and Ramdas Pophale) SiO2 
 PCOD8012994
Probable space group: P -1
;
_chemical_formula_sum "Si O2"
_cell_formula_units_Z 14
_cell_length_a 12.009145
_cell_length_b 12.739763
_cell_length_c 8.977178
_cell_angle_alpha 57.718373
_cell_angle_beta 53.270802
_cell_angle_gamma 36.091004
_cell_volume 644.669038
_symmetry_space_group_name_H-M "P -1"
_symmetry_group_IT_number 2
_symmetry_cell_setting 'triclinic'
loop_
_space_group_symop_operation_xyz
x,y,z
-x,-y,-z
loop_
_atom_site_type_symbol
_atom_site_label
_atom_site_fract_x
_atom_site_fract_y
_atom_site_fract_z
Si Si1 0.145366 0.418129 0.749906
Si Si2 0.809406 0.041430 0.739564
Si Si3 0.538254 0.164400 0.438435
Si Si4 0.796616 0.832021 0.682433
Si Si5 0.247078 0.774198 0.622424
Si Si6 0.508647 0.808107 0.892286
Si Si7 0.804223 0.476384 0.077213
O O1 0.324262 0.272290 0.603598
O O2 0.241608 0.403413 0.838235
O O3 0.993550 0.620964 0.649868
O O4 0.026846 0.365438 0.919698
O O5 0.845964 0.888068 0.739768
O O6 0.018803 0.972123 0.669294
O O7 0.682060 0.220809 0.602098
O O8 0.705294 0.078532 0.949886
O O9 0.604771 0.263862 0.343168
O O10 0.514479 0.155964 0.290754
O O11 0.721958 0.960796 0.503570
O O12 0.611432 0.860964 0.847479
O O13 0.234257 0.636416 0.750163
O O14 0.649098 0.599605 0.973508
#
# Coordination Sequence:
#
# PCOD8012994 Si02
#       7
#     2   2   2   2   2   2   2
#     4  10  22  41  68  95 124 160 217 264 306 362
#     4  10  21  40  66  91 122 161 217 265 300 367
#     4  11  25  42  61  96 135 168 199 252 323 386
#     4  10  21  42  66  95 120 166 216 260 306 362
#     4  10  22  41  63  92 123 165 211 257 315 364
#     4  11  24  39  64  96 129 165 205 255 324 374
#     4  10  21  40  64  97 118 162 217 263 305 363
#
# _framework density 21.716570000000001
#
# number of rings (size 3 to 8) (size 9 to 14) (size 15 to 20)
#    0.000    1.714    1.429    2.571    2.000    5.714 
#    2.571    0.000    0.000    0.000    0.000    0.000 
#    0.000    0.000    0.000    0.000    0.000    0.000 
#
# Total GULP energy -173514.410315 kJ/mol
# GULP energy per Si atom -12393.886451 kJ/mol
# Density = 2.166714 g / cm^3
# Si number density = 21.716570 Si / 1000 Ang^3
#
#
#
# Elastic Constant Matrix: (Units=GPa)
#
#
# Indices 1 2 3 4 5 6 
#
# 1 60.8117 12.3769 32.0891 10.4533 2.6840 -4.0428
# 2 12.3769 52.0938 26.8148 -8.1654 7.7107 -4.2558
# 3 32.0891 26.8148 109.5689 8.3831 7.8693 4.9085
# 4 10.4533 -8.1654 8.3831 32.9219 -0.3001 -5.6058
# 5 2.6840 7.7107 7.8693 -0.3001 30.2034 -10.9231
# 6 -4.0428 -4.2558 4.9085 -5.6058 -10.9231 27.4592
#
#
#
# Elastic Compliance Matrix: (Units=1/GPa)
#
#
# Indices 1 2 3 4 5 6 
#
# 1 0.020896 -0.003152 -0.005139 -0.005609 0.001267 0.002866
# 2 -0.003152 0.025464 -0.006129 0.009805 -0.002508 0.005582
# 3 -0.005139 -0.006129 0.013017 -0.004327 -0.003728 -0.006399
# 4 -0.005609 0.009805 -0.004327 0.037493 0.003264 0.010420
# 5 0.001267 -0.002508 -0.003728 0.003264 0.040938 0.017416
# 6 0.002866 0.005582 -0.006399 0.010420 0.017416 0.047904
#
#
# Mechanical properties :
#
#
# Convention : Reuss Voigt Hill
#
# Bulk Modulus (GPa) = 32.74645 40.55957 36.65301
# Shear Modulus (GPa) = 22.24887 28.19646 25.22267
#
# Velocity S-wave (km/s) = 3.20427 3.60722 3.41170
# Velocity P-wave (km/s) = 5.36671 6.00556 5.69510
#
# Compressibility (1/GPa) = 0.03053766
#
# Stress axis : x y z
#
# Youngs Moduli (GPa) = 47.85606 39.27144 76.82321
#
# Poissons Ratio (x) = 0.12379 0.39476
# Poissons Ratio (y) = 0.15085 0.47083
# Poissons Ratio (z) = 0.24591 0.24068
#
# Static dielectric constant tensor:
#      x y z
#    x 3.995440 -0.297390 -0.220650 
#    y -0.297390 3.836830 -0.311310 
#    z -0.220650 -0.311310 3.960660 
# 
# 
# High freq. dielectric constant tensor:
#      x y z
#    x 1.850360 -0.023310 -0.022450 
#    y -0.023310 1.837380 -0.024160 
#    z -0.022450 -0.024160 1.854070 
# 
# From -- ./inp_files/154255.got.cif
#   From: 2010.06.25/outbox.cif.g09.slc.cpg/sg2_78_cif.got.tgz:154255.got - 2010.06.27 13:26:56.
