data_PCOD8012715
_publ_section_title
;
Structure prediction by ZEFSAII (Michael W. Deem and Ramdas Pophale) SiO2 
 PCOD8012715
Probable space group: P -1
;
_chemical_formula_sum "Si O2"
_cell_formula_units_Z 16
_cell_length_a 14.665848
_cell_length_b 5.214739
_cell_length_c 23.294237
_cell_angle_alpha 103.825989
_cell_angle_beta 22.992748
_cell_angle_gamma 106.605436
_cell_volume 665.478590
_symmetry_space_group_name_H-M "P -1"
_symmetry_group_IT_number 2
_symmetry_cell_setting 'triclinic'
loop_
_space_group_symop_operation_xyz
x,y,z
-x,-y,-z
loop_
_atom_site_type_symbol
_atom_site_label
_atom_site_fract_x
_atom_site_fract_y
_atom_site_fract_z
Si Si1 0.161735 0.834754 0.431321
Si Si2 0.284970 0.167417 0.133897
Si Si3 0.983758 0.697094 0.134536
Si Si4 0.630124 0.522383 0.784005
Si Si5 0.184196 0.986309 0.548460
Si Si6 0.476827 0.541829 0.368759
Si Si7 0.570914 0.255355 0.189944
Si Si8 0.826121 0.719423 0.919595
O O1 0.156981 0.562655 0.382175
O O2 0.070016 0.815519 0.549171
O O3 0.438823 0.984291 0.282674
O O4 0.000000 0.000000 0.500000
O O5 0.309698 0.382666 0.181770
O O6 0.264200 0.333088 0.096447
O O7 0.029440 0.979374 0.282886
O O8 0.500000 0.000000 0.000000
O O9 0.721780 0.566568 0.261869
O O10 0.057404 0.525402 0.136235
O O11 0.993821 0.001101 0.166366
O O12 0.147610 0.711978 0.982797
O O13 0.543222 0.748618 0.807789
O O14 0.409713 0.271157 0.904818
O O15 0.305786 0.286158 0.479857
O O16 0.367657 0.809160 0.458842
O O17 0.520214 0.501935 0.273202
#
# Coordination Sequence:
#
# PCOD8012715 Si02
#       8
#     2   2   2   2   2   2   2   2
#     4  11  23  39  67 105 149 184 220 286 367 432
#     4  12  28  48  72 101 142 196 240 288 348 422
#     4  11  23  45  73  99 140 187 239 294 352 404
#     4  11  23  42  71 102 143 182 228 286 358 424
#     4  11  27  46  69 106 148 176 240 291 354 432
#     4  11  24  45  72 105 139 186 230 298 364 413
#     4  10  21  40  63 106 145 176 228 283 349 440
#     4  11  25  45  67 104 137 183 248 292 328 419
#
# _framework density 24.042845
#
# number of rings (size 3 to 8) (size 9 to 14) (size 15 to 20)
#    0.000    1.000    2.500    3.750    5.250    3.000 
#    0.000    7.500    0.000    0.000    0.000    0.000 
#    0.000    0.000    0.000    0.000    0.000    0.000 
#
# Total GULP energy -198309.616800 kJ/mol
# GULP energy per Si atom -12394.351050 kJ/mol
# Density = 2.398812 g / cm^3
# Si number density = 24.042845 Si / 1000 Ang^3
#
#
#
# Elastic Constant Matrix: (Units=GPa)
#
#
# Indices 1 2 3 4 5 6 
#
# 1 102.3212 17.0401 44.7097 -3.7643 7.0827 -10.9874
# 2 17.0401 87.1005 19.4491 -1.1169 5.8802 -13.6386
# 3 44.7097 19.4491 139.3975 2.4626 7.5877 -11.3718
# 4 -3.7643 -1.1169 2.4626 31.9181 -3.2329 -0.0176
# 5 7.0827 5.8802 7.5877 -3.2329 30.6735 0.9658
# 6 -10.9874 -13.6386 -11.3718 -0.0176 0.9658 37.2796
#
#
#
# Elastic Compliance Matrix: (Units=1/GPa)
#
#
# Indices 1 2 3 4 5 6 
#
# 1 0.011835 -0.001101 -0.003411 0.001461 -0.001590 0.002087
# 2 -0.001101 0.012693 -0.000977 0.000185 -0.002046 0.004074
# 3 -0.003411 -0.000977 0.008604 -0.001234 -0.001324 0.001295
# 4 0.001461 0.000185 -0.001234 0.031938 0.003297 0.000051
# 5 -0.001590 -0.002046 -0.001324 0.003297 0.034115 -0.002503
# 6 0.002087 0.004074 0.001295 0.000051 -0.002503 0.029390
#
#
# Mechanical properties :
#
#
# Convention : Reuss Voigt Hill
#
# Bulk Modulus (GPa) = 45.14146 54.57965 49.86056
# Shear Modulus (GPa) = 34.02804 36.48225 35.25514
#
# Velocity S-wave (km/s) = 3.76614 3.89959 3.83344
# Velocity P-wave (km/s) = 6.14231 6.55942 6.35429
#
# Compressibility (1/GPa) = 0.02215258
#
# Stress axis : x y z
#
# Youngs Moduli (GPa) = 84.49580 78.78317 116.22816
#
# Poissons Ratio (x) = 0.08673 0.39649
# Poissons Ratio (y) = 0.09302 0.11360
# Poissons Ratio (z) = 0.28824 0.07700
#
# Static dielectric constant tensor:
#      x y z
#    x 4.311230 0.003710 0.285890 
#    y 0.003710 4.193130 -0.296170 
#    z 0.285890 -0.296170 4.837710 
# 
# 
# High freq. dielectric constant tensor:
#      x y z
#    x 1.940850 -0.002360 0.009420 
#    y -0.002360 1.955370 -0.017910 
#    z 0.009420 -0.017910 1.971660 
# 
# From -- ./inp_files/95178.got.cif
#   From: 2010.06.25/outbox.cif.g09.slc.cpg/sg2_48_cif.got.tgz:95178.got - 2010.06.27 13:26:56.
