data_PCOD8012445
_publ_section_title
;
Structure prediction by ZEFSAII (Michael W. Deem and Ramdas Pophale) SiO2 
 PCOD8012445
Probable space group: P -1
;
_chemical_formula_sum "Si O2"
_cell_formula_units_Z 16
_cell_length_a 8.017024
_cell_length_b 15.852051
_cell_length_c 16.358312
_cell_angle_alpha 28.722789
_cell_angle_beta 101.243486
_cell_angle_gamma 84.476027
_cell_volume 807.164253
_symmetry_space_group_name_H-M "P -1"
_symmetry_group_IT_number 2
_symmetry_cell_setting 'triclinic'
loop_
_space_group_symop_operation_xyz
x,y,z
-x,-y,-z
loop_
_atom_site_type_symbol
_atom_site_label
_atom_site_fract_x
_atom_site_fract_y
_atom_site_fract_z
Si Si1 0.965833 0.057438 0.570276
Si Si2 0.880508 0.834219 0.877820
Si Si3 0.500352 0.007537 0.397631
Si Si4 0.736605 0.073809 0.824684
Si Si5 0.015632 0.221486 0.750640
Si Si6 0.142864 0.345594 0.359254
Si Si7 0.250693 0.328368 0.570953
Si Si8 0.678157 0.254078 0.234761
O O1 0.023659 0.230588 0.433177
O O2 0.738812 0.187107 0.393547
O O3 0.107710 0.841121 0.712940
O O4 0.969998 0.967255 0.738042
O O5 0.726132 0.865793 0.766306
O O6 0.774383 0.922688 0.880464
O O7 0.032937 0.581666 0.112864
O O8 0.592581 0.141404 0.271022
O O9 0.500000 0.000000 0.500000
O O10 0.642559 0.777218 0.565103
O O11 0.492900 0.230183 0.684923
O O12 0.850536 0.190575 0.716721
O O13 0.840940 0.948456 0.023621
O O14 0.180844 0.190232 0.725837
O O15 0.876383 0.447576 0.587389
O O16 0.186011 0.353407 0.450635
O O17 0.500000 0.500000 0.000000
#
# Coordination Sequence:
#
# PCOD8012445 Si02
#       8
#     2   2   2   2   2   2   2   2
#     4  10  23  39  59  88 120 162 208 266 313 374
#     4  12  23  40  66  91 128 169 210 267 323 372
#     4  11  23  40  62  90 122 166 214 263 317 381
#     4  11  22  41  65  97 130 167 216 262 316 395
#     4  10  23  40  68  97 127 170 210 259 331 380
#     4  11  24  41  62  93 130 165 212 267 319 377
#     4  11  21  42  66  93 133 169 209 266 322 384
#     4  10  21  40  59  84 120 157 213 263 316 381
#
# _framework density 19.822483999999999
#
# number of rings (size 3 to 8) (size 9 to 14) (size 15 to 20)
#    0.000    1.250    3.750    2.250    1.750    0.500 
#    0.000    0.000    0.000    0.000    0.000    0.000 
#    0.000    0.000    0.000    0.000    0.000    0.000 
#
# Total GULP energy -198250.600683 kJ/mol
# GULP energy per Si atom -12390.662543 kJ/mol
# Density = 1.977737 g / cm^3
# Si number density = 19.822484 Si / 1000 Ang^3
#
#
#
# Elastic Constant Matrix: (Units=GPa)
#
#
# Indices 1 2 3 4 5 6 
#
# 1 81.8479 10.1969 54.7489 10.0021 1.4304 2.0907
# 2 10.1969 103.0762 37.9153 11.0508 8.0975 2.7956
# 3 54.7489 37.9153 141.6880 1.5982 5.9133 -13.6872
# 4 10.0021 11.0508 1.5982 29.8975 -0.7568 1.8803
# 5 1.4304 8.0975 5.9133 -0.7568 32.1954 1.8375
# 6 2.0907 2.7956 -13.6872 1.8803 1.8375 36.1726
#
#
#
# Elastic Compliance Matrix: (Units=1/GPa)
#
#
# Indices 1 2 3 4 5 6 
#
# 1 0.018008 0.001800 -0.007750 -0.006029 0.000247 -0.003812
# 2 0.001800 0.011685 -0.003879 -0.004639 -0.002295 -0.002117
# 3 -0.007750 -0.003879 0.011584 0.003066 -0.001022 0.005024
# 4 -0.006029 -0.004639 0.003066 0.037069 0.001751 -0.000149
# 5 0.000247 -0.002295 -0.001022 0.001751 0.031966 -0.001939
# 6 -0.003812 -0.002117 0.005024 -0.000149 -0.001939 0.030036
#
#
# Mechanical properties :
#
#
# Convention : Reuss Voigt Hill
#
# Bulk Modulus (GPa) = 46.25731 59.14827 52.70279
# Shear Modulus (GPa) = 29.90190 34.56984 32.23587
#
# Velocity S-wave (km/s) = 3.88813 4.18062 4.03703
# Velocity P-wave (km/s) = 6.59873 7.29433 6.95523
#
# Compressibility (1/GPa) = 0.02161820
#
# Stress axis : x y z
#
# Youngs Moduli (GPa) = 55.53152 85.57742 86.32665
#
# Poissons Ratio (x) = -0.15403 0.66907
# Poissons Ratio (y) = -0.09995 0.33485
# Poissons Ratio (z) = 0.43039 0.33194
#
# Static dielectric constant tensor:
#      x y z
#    x 4.186700 0.159290 -0.150120 
#    y 0.159290 3.933920 0.027450 
#    z -0.150120 0.027450 3.825010 
# 
# 
# High freq. dielectric constant tensor:
#      x y z
#    x 1.779980 0.001290 0.003660 
#    y 0.001290 1.783040 0.002830 
#    z 0.003660 0.002830 1.774400 
# 
# From -- ./inp_files/38514.got.cif
#   From: 2010.06.25/outbox.cif.g09.slc.cpg/sg2_20_cif.got.tgz:38514.got - 2010.06.27 13:26:56.
