data_PCOD8012576
_publ_section_title
;
Structure prediction by ZEFSAII (Michael W. Deem and Ramdas Pophale) SiO2 
 PCOD8012576
Probable space group: P -1
;
_chemical_formula_sum "Si O2"
_cell_formula_units_Z 16
_cell_length_a 9.153089
_cell_length_b 11.673388
_cell_length_c 10.923123
_cell_angle_alpha 114.087683
_cell_angle_beta 132.671157
_cell_angle_gamma 86.659134
_cell_volume 740.790965
_symmetry_space_group_name_H-M "P -1"
_symmetry_group_IT_number 2
_symmetry_cell_setting 'triclinic'
loop_
_space_group_symop_operation_xyz
x,y,z
-x,-y,-z
loop_
_atom_site_type_symbol
_atom_site_label
_atom_site_fract_x
_atom_site_fract_y
_atom_site_fract_z
Si Si1 0.609041 0.187806 0.258946
Si Si2 0.611472 0.098981 0.969655
Si Si3 0.244691 0.746711 0.122617
Si Si4 0.140031 0.756305 0.322712
Si Si5 0.583778 0.615086 0.195884
Si Si6 0.167918 0.478644 0.238019
Si Si7 0.831044 0.863583 0.300289
Si Si8 0.590993 0.470606 0.367451
O O1 0.746751 0.194887 0.461978
O O2 0.527425 0.312056 0.252597
O O3 0.407063 0.055223 0.100983
O O4 0.728605 0.174252 0.192406
O O5 0.725144 0.153572 0.930781
O O6 0.377849 0.110243 0.850313
O O7 0.284226 0.818336 0.311008
O O8 0.386768 0.654577 0.147268
O O9 0.000631 0.659737 0.952828
O O10 0.074723 0.596876 0.206637
O O11 0.935495 0.803930 0.223883
O O12 0.768350 0.746880 0.316216
O O13 0.679208 0.547408 0.326470
O O14 0.500000 0.500000 0.000000
O O15 0.385409 0.506058 0.302479
O O16 0.215432 0.474615 0.406751
O O17 0.000000 0.000000 0.500000
#
# Coordination Sequence:
#
# PCOD8012576 Si02
#       8
#     2   2   2   2   2   2   2   2
#     4  10  22  41  66  84 130 171 208 254 321 384
#     4  10  23  44  63  90 127 172 212 254 321 391
#     4  11  23  39  65  98 124 161 217 272 311 380
#     4  11  22  39  66  94 123 165 211 267 320 374
#     4  11  23  40  66  97 128 167 217 266 318 383
#     4  10  22  38  61  92 130 158 206 263 330 371
#     4  11  23  42  64  96 128 171 211 265 323 383
#     4  10  21  40  61  92 124 167 204 262 318 377
#
# _framework density 21.598534999999998
#
# number of rings (size 3 to 8) (size 9 to 14) (size 15 to 20)
#    0.000    1.500    2.500    2.625    3.500    1.500 
#    0.000    3.750    0.000    0.000    0.000    0.000 
#    0.000    0.000    0.000    0.000    0.000    0.000 
#
# Total GULP energy -198281.915556 kJ/mol
# GULP energy per Si atom -12392.619722 kJ/mol
# Density = 2.154938 g / cm^3
# Si number density = 21.598535 Si / 1000 Ang^3
#
#
#
# Elastic Constant Matrix: (Units=GPa)
#
#
# Indices 1 2 3 4 5 6 
#
# 1 110.7516 48.5677 36.9417 -4.4273 -17.6666 18.2164
# 2 48.5677 123.6667 38.0865 10.7612 -17.7912 26.8869
# 3 36.9417 38.0865 79.8404 9.2529 -13.1065 19.7158
# 4 -4.4273 10.7612 9.2529 25.1381 4.9068 -12.1375
# 5 -17.6666 -17.7912 -13.1065 4.9068 31.2549 -10.4232
# 6 18.2164 26.8869 19.7158 -12.1375 -10.4232 47.6497
#
#
#
# Elastic Compliance Matrix: (Units=1/GPa)
#
#
# Indices 1 2 3 4 5 6 
#
# 1 0.012729 -0.004022 -0.004549 0.005777 0.002528 0.001310
# 2 -0.004022 0.012905 -0.000674 -0.010241 0.003996 -0.007199
# 3 -0.004549 -0.000674 0.019021 -0.012172 0.004293 -0.007912
# 4 0.005777 -0.010241 -0.012172 0.062388 -0.010024 0.022305
# 5 0.002528 0.003996 0.004293 -0.010024 0.039431 0.001074
# 6 0.001310 -0.007199 -0.007912 0.022305 0.001074 0.033738
#
#
# Mechanical properties :
#
#
# Convention : Reuss Voigt Hill
#
# Bulk Modulus (GPa) = 38.22095 62.38340 50.30218
# Shear Modulus (GPa) = 24.10528 33.51938 28.81233
#
# Velocity S-wave (km/s) = 3.34437 3.94373 3.65635
# Velocity P-wave (km/s) = 5.71381 7.04863 6.41603
#
# Compressibility (1/GPa) = 0.02616366
#
# Stress axis : x y z
#
# Youngs Moduli (GPa) = 78.56072 77.49066 52.57447
#
# Poissons Ratio (x) = 0.31166 0.23916
# Poissons Ratio (y) = 0.31596 0.03546
# Poissons Ratio (z) = 0.35738 0.05226
#
# Static dielectric constant tensor:
#      x y z
#    x 4.000430 0.156010 -0.391920 
#    y 0.156010 4.238240 -0.168110 
#    z -0.391920 -0.168110 3.921130 
# 
# 
# High freq. dielectric constant tensor:
#      x y z
#    x 1.841360 0.005250 -0.025720 
#    y 0.005250 1.862520 -0.005060 
#    z -0.025720 -0.005060 1.837650 
# 
# From -- ./inp_files/343649.got.cif
#   From: 2010.06.25/outbox.cif.g09.slc.cpg/sg2_172_cif.got.tgz:343649.got - 2010.06.27 13:26:56.
