data_PCOD8012421
_publ_section_title
;
Structure prediction by ZEFSAII (Michael W. Deem and Ramdas Pophale) SiO2 
 PCOD8012421
Probable space group: P -1
;
_chemical_formula_sum "Si O2"
_cell_formula_units_Z 16
_cell_length_a 12.099079
_cell_length_b 8.195555
_cell_length_c 18.287841
_cell_angle_alpha 70.081226
_cell_angle_beta 151.531803
_cell_angle_gamma 98.819219
_cell_volume 768.238033
_symmetry_space_group_name_H-M "P -1"
_symmetry_group_IT_number 2
_symmetry_cell_setting 'triclinic'
loop_
_space_group_symop_operation_xyz
x,y,z
-x,-y,-z
loop_
_atom_site_type_symbol
_atom_site_label
_atom_site_fract_x
_atom_site_fract_y
_atom_site_fract_z
Si Si1 0.253825 0.107568 0.297052
Si Si2 0.186298 0.724796 0.602056
Si Si3 0.870675 0.111770 0.192288
Si Si4 0.824101 0.887827 0.491181
Si Si5 0.953519 0.311224 0.630800
Si Si6 0.429061 0.775068 0.357694
Si Si7 0.570383 0.591225 0.617977
Si Si8 0.597154 0.568987 0.116958
O O1 0.290337 0.302426 0.264586
O O2 0.015483 0.150541 0.201156
O O3 0.500000 0.000000 0.500000
O O4 0.237916 0.973911 0.240640
O O5 0.395837 0.570713 0.791277
O O6 0.940029 0.802012 0.495207
O O7 0.122003 0.635655 0.504973
O O8 0.286479 0.891071 0.613594
O O9 0.972809 0.168166 0.318238
O O10 0.889091 0.901286 0.237350
O O11 0.587601 0.231908 0.998843
O O12 0.605492 0.810248 0.393419
O O13 0.129245 0.425415 0.740184
O O14 0.715915 0.359240 0.536191
O O15 0.589072 0.665677 0.535824
O O16 0.302289 0.631824 0.271083
O O17 0.500000 0.500000 0.000000
#
# Coordination Sequence:
#
# PCOD8012421 Si02
#       8
#     2   2   2   2   2   2   2   2
#     4  10  16  33  55  89 123 153 198 264 303 352
#     4  10  22  38  60  89 123 169 206 250 309 379
#     4  11  20  37  60  89 124 160 197 261 317 361
#     4  10  18  36  63  87 123 157 209 252 306 364
#     4  11  22  40  62  91 124 164 205 253 308 380
#     4  10  18  30  56  93 117 153 203 266 296 350
#     4  10  19  31  61  96 120 147 213 263 302 348
#     4  12  25  38  58  90 130 162 206 256 315 370
#
# _framework density 20.826878000000001
#
# number of rings (size 3 to 8) (size 9 to 14) (size 15 to 20)
#    0.000    1.500    6.250    2.250    0.000    0.000 
#    0.000    0.000    0.000    3.000    0.000    7.000 
#    0.000    0.000    0.000    0.000    0.000    0.000 
#
# Total GULP energy -198328.910849 kJ/mol
# GULP energy per Si atom -12395.556928 kJ/mol
# Density = 2.077948 g / cm^3
# Si number density = 20.826878 Si / 1000 Ang^3
#
#
#
# Elastic Constant Matrix: (Units=GPa)
#
#
# Indices 1 2 3 4 5 6 
#
# 1 99.3949 36.7789 23.3145 2.9275 3.3509 8.5843
# 2 36.7789 163.0512 32.8282 6.5454 -8.7388 4.5451
# 3 23.3145 32.8282 61.7077 -7.6133 -7.9612 5.3272
# 4 2.9275 6.5454 -7.6133 27.0677 1.1874 1.1298
# 5 3.3509 -8.7388 -7.9612 1.1874 19.7421 -0.2025
# 6 8.5843 4.5451 5.3272 1.1298 -0.2025 35.8425
#
#
#
# Elastic Compliance Matrix: (Units=1/GPa)
#
#
# Indices 1 2 3 4 5 6 
#
# 1 0.012160 -0.002029 -0.004138 -0.001705 -0.004549 -0.002012
# 2 -0.002029 0.007475 -0.003217 -0.002608 0.002514 0.000113
# 3 -0.004138 -0.003217 0.021485 0.007022 0.007500 -0.001973
# 4 -0.001705 -0.002608 0.007022 0.039819 -0.000444 -0.001562
# 5 -0.004549 0.002514 0.007500 -0.000444 0.055589 -0.000016
# 6 -0.002012 0.000113 -0.001973 -0.001562 -0.000016 0.028710
#
#
# Mechanical properties :
#
#
# Convention : Reuss Voigt Hill
#
# Bulk Modulus (GPa) = 44.74203 56.66635 50.70419
# Shear Modulus (GPa) = 26.11567 31.94595 29.03081
#
# Velocity S-wave (km/s) = 3.54494 3.92073 3.73756
# Velocity P-wave (km/s) = 6.18749 6.91111 6.55929
#
# Compressibility (1/GPa) = 0.02235035
#
# Stress axis : x y z
#
# Youngs Moduli (GPa) = 82.23912 133.78482 46.54461
#
# Poissons Ratio (x) = 0.27143 0.19262
# Poissons Ratio (y) = 0.16685 0.14974
# Poissons Ratio (z) = 0.34034 0.43040
#
# Static dielectric constant tensor:
#      x y z
#    x 3.818990 -0.105500 0.036620 
#    y -0.105500 4.676060 -0.119020 
#    z 0.036620 -0.119020 3.250210 
# 
# 
# High freq. dielectric constant tensor:
#      x y z
#    x 1.821050 -0.000300 0.008120 
#    y -0.000300 1.848450 -0.007630 
#    z 0.008120 -0.007630 1.740730 
# 
# From -- ./inp_files/566699.got.cif
#   From: 2010.06.25/outbox.cif.g09.slc.cpg/sg2_284_cif.got.tgz:566699.got - 2010.06.27 13:26:56.
