data_PCOD8012136
_publ_section_title
;
Structure prediction by ZEFSAII (Michael W. Deem and Ramdas Pophale) SiO2 
 PCOD8012136
Probable space group: P -1
;
_chemical_formula_sum "Si O2"
_cell_formula_units_Z 14
_cell_length_a 7.650119
_cell_length_b 21.865024
_cell_length_c 9.122278
_cell_angle_alpha 137.053877
_cell_angle_beta 46.617036
_cell_angle_gamma 147.947172
_cell_volume 542.316057
_symmetry_space_group_name_H-M "P -1"
_symmetry_group_IT_number 2
_symmetry_cell_setting 'triclinic'
loop_
_space_group_symop_operation_xyz
x,y,z
-x,-y,-z
loop_
_atom_site_type_symbol
_atom_site_label
_atom_site_fract_x
_atom_site_fract_y
_atom_site_fract_z
Si Si1 0.810852 0.503888 0.931186
Si Si2 0.892588 0.888229 0.697113
Si Si3 0.190702 0.969638 0.203603
Si Si4 0.636833 0.222594 0.952873
Si Si5 0.196518 0.247071 0.753878
Si Si6 0.650079 0.139708 0.501251
Si Si7 0.161879 0.412326 0.631090
O O1 0.446369 0.398045 0.879777
O O2 0.903596 0.424250 0.763335
O O3 0.735199 0.547062 0.189146
O O4 0.123020 0.629668 0.888252
O O5 0.685632 0.777261 0.500885
O O6 0.240059 0.929415 0.616677
O O7 0.966182 0.000845 0.770083
O O8 0.702423 0.853539 0.896942
O O9 0.864049 0.825244 0.187539
O O10 0.338213 0.051718 0.413911
O O11 0.500000 0.000000 0.000000
O O12 0.556119 0.187256 0.765987
O O13 0.818793 0.181464 0.832797
O O14 0.974684 0.268466 0.459342
O O15 0.500000 0.500000 0.500000
#
# Coordination Sequence:
#
# PCOD8012136 Si02
#       7
#     2   2   2   2   2   2   2
#     4  10  22  39  66 101 136 178 222 284 337 402
#     4  11  24  46  71 101 133 186 226 280 351 398
#     4  12  26  48  69 101 138 183 232 283 341 406
#     4  10  22  45  68 102 138 175 228 281 348 402
#     4  11  24  43  66 100 141 174 232 283 332 410
#     4  10  25  46  68 100 139 177 229 288 333 411
#     4  10  21  39  66  98 136 181 226 275 343 404
#
# _framework density 25.815204000000001
#
# number of rings (size 3 to 8) (size 9 to 14) (size 15 to 20)
#    0.000    1.429    1.429    2.571    2.000    4.571 
#    5.143    0.000    0.000    0.000    0.000    0.000 
#    0.000    0.000    0.000    0.000    0.000    0.000 
#
# Total GULP energy -173499.766267 kJ/mol
# GULP energy per Si atom -12392.840448 kJ/mol
# Density = 2.575645 g / cm^3
# Si number density = 25.815204 Si / 1000 Ang^3
#
#
#
# Elastic Constant Matrix: (Units=GPa)
#
#
# Indices 1 2 3 4 5 6 
#
# 1 82.1645 33.9906 6.6595 12.6601 3.1264 -13.9588
# 2 33.9906 172.4221 48.3942 -4.6836 14.4061 -0.3254
# 3 6.6595 48.3942 79.6887 -9.6364 3.0995 -2.5856
# 4 12.6601 -4.6836 -9.6364 43.1092 -1.3153 2.4173
# 5 3.1264 14.4061 3.0995 -1.3153 32.6776 5.1416
# 6 -13.9588 -0.3254 -2.5856 2.4173 5.1416 37.8595
#
#
#
# Elastic Compliance Matrix: (Units=1/GPa)
#
#
# Indices 1 2 3 4 5 6 
#
# 1 0.015328 -0.003107 0.000230 -0.005172 -0.001294 0.006146
# 2 -0.003107 0.007869 -0.004361 0.000775 -0.002557 -0.001078
# 3 0.000230 -0.004361 0.015540 0.002896 0.000406 0.000869
# 4 -0.005172 0.000775 0.002896 0.025691 0.001470 -0.003542
# 5 -0.001294 -0.002557 0.000406 0.001470 0.032661 -0.005001
# 6 0.006146 -0.001078 0.000869 -0.003542 -0.005001 0.029635
#
#
# Mechanical properties :
#
#
# Convention : Reuss Voigt Hill
#
# Bulk Modulus (GPa) = 41.21688 56.92930 49.07309
# Shear Modulus (GPa) = 33.49283 39.07800 36.28541
#
# Velocity S-wave (km/s) = 3.60586 3.89493 3.75318
# Velocity P-wave (km/s) = 5.77383 6.50598 6.15081
#
# Compressibility (1/GPa) = 0.02426190
#
# Stress axis : x y z
#
# Youngs Moduli (GPa) = 65.24156 127.08280 64.34820
#
# Poissons Ratio (x) = 0.39485 -0.01482
# Poissons Ratio (y) = 0.20271 0.28061
# Poissons Ratio (z) = -0.01503 0.55419
#
# Static dielectric constant tensor:
#      x y z
#    x 4.720990 -0.137150 -0.046360 
#    y -0.137150 4.950860 0.180620 
#    z -0.046360 0.180620 4.793850 
# 
# 
# High freq. dielectric constant tensor:
#      x y z
#    x 2.041050 -0.002530 -0.008030 
#    y -0.002530 2.048080 0.005930 
#    z -0.008030 0.005930 2.028820 
# 
# From -- ./inp_files/226607.got.cif
#   From: 2010.06.25/outbox.cif.g09.slc.cpg/sg2_114_cif.got.tgz:226607.got - 2010.06.27 13:26:56.
