data_PCOD8012820
_publ_section_title
;
Structure prediction by ZEFSAII (Michael W. Deem and Ramdas Pophale) SiO2 
 PCOD8012820
Probable space group: P -1
;
_chemical_formula_sum "Si O2"
_cell_formula_units_Z 14
_cell_length_a 11.368038
_cell_length_b 13.388415
_cell_length_c 7.720868
_cell_angle_alpha 133.683264
_cell_angle_beta 58.969957
_cell_angle_gamma 95.704939
_cell_volume 662.819361
_symmetry_space_group_name_H-M "P -1"
_symmetry_group_IT_number 2
_symmetry_cell_setting 'triclinic'
loop_
_space_group_symop_operation_xyz
x,y,z
-x,-y,-z
loop_
_atom_site_type_symbol
_atom_site_label
_atom_site_fract_x
_atom_site_fract_y
_atom_site_fract_z
Si Si1 0.054625 0.646445 0.475387
Si Si2 0.921768 0.865900 0.132507
Si Si3 0.787840 0.575283 0.605004
Si Si4 0.218747 0.790202 0.316313
Si Si5 0.436402 0.675167 0.316427
Si Si6 0.755047 0.314561 0.194317
Si Si7 0.622868 0.838466 0.272657
O O1 0.175338 0.527781 0.371398
O O2 0.138783 0.677717 0.285974
O O3 0.940624 0.576235 0.411135
O O4 0.965093 0.807729 0.833397
O O5 0.765736 0.849260 0.275607
O O6 0.901419 0.036734 0.380449
O O7 0.062406 0.766959 0.028793
O O8 0.714276 0.495799 0.432813
O O9 0.672520 0.744040 0.942335
O O10 0.343933 0.773706 0.342554
O O11 0.294486 0.740917 0.010502
O O12 0.332439 0.716571 0.615170
O O13 0.561184 0.743032 0.333203
O O14 0.500000 0.500000 0.000000
O O15 0.500000 0.000000 0.500000
#
# Coordination Sequence:
#
# PCOD8012820 Si02
#       7
#     2   2   2   2   2   2   2
#     4   9  18  34  64  87 121 164 207 263 307 365
#     4  10  21  40  63  95 129 162 216 261 313 378
#     4   9  18  37  57  90 121 160 213 255 312 369
#     4  12  22  38  66  96 127 167 213 260 320 376
#     4  12  24  44  65  92 130 171 211 261 321 376
#     4  11  24  39  66  95 127 165 217 263 314 379
#     4  11  21  38  68  91 124 175 212 257 319 379
#
# _framework density 21.121894999999999
#
# number of rings (size 3 to 8) (size 9 to 14) (size 15 to 20)
#    0.000    1.429    5.714    1.714    0.000    1.143 
#    0.000    0.714    3.143    0.000    0.000    0.000 
#    0.000    0.000    0.000    0.000    0.000    0.000 
#
# Total GULP energy -173499.906407 kJ/mol
# GULP energy per Si atom -12392.850458 kJ/mol
# Density = 2.107382 g / cm^3
# Si number density = 21.121895 Si / 1000 Ang^3
#
#
#
# Elastic Constant Matrix: (Units=GPa)
#
#
# Indices 1 2 3 4 5 6 
#
# 1 50.3185 40.9405 20.9939 -20.5282 -2.0503 12.1042
# 2 40.9405 95.8525 36.4231 -3.7379 -1.1964 21.2891
# 3 20.9939 36.4231 101.5512 5.5749 -3.5452 -10.8752
# 4 -20.5282 -3.7379 5.5749 37.3106 -1.3008 2.1736
# 5 -2.0503 -1.1964 -3.5452 -1.3008 30.4699 -6.8757
# 6 12.1042 21.2891 -10.8752 2.1736 -6.8757 30.1952
#
#
#
# Elastic Compliance Matrix: (Units=1/GPa)
#
#
# Indices 1 2 3 4 5 6 
#
# 1 0.049582 -0.013229 -0.008771 0.028169 -0.000582 -0.015868
# 2 -0.013229 0.020847 -0.005962 -0.003721 -0.003656 -0.012107
# 3 -0.008771 -0.005962 0.016020 -0.008551 0.004066 0.015031
# 4 0.028169 -0.003721 -0.008551 0.044058 -0.000771 -0.015095
# 5 -0.000582 -0.003656 0.004066 -0.000771 0.035899 0.012506
# 6 -0.015868 -0.012107 0.015031 -0.015095 0.012506 0.057363
#
#
# Mechanical properties :
#
#
# Convention : Reuss Voigt Hill
#
# Bulk Modulus (GPa) = 32.76118 49.38192 41.07155
# Shear Modulus (GPa) = 17.24924 29.55280 23.40102
#
# Velocity S-wave (km/s) = 2.86081 3.74459 3.33213
# Velocity P-wave (km/s) = 5.14359 6.49047 5.85588
#
# Compressibility (1/GPa) = 0.03052393
#
# Stress axis : x y z
#
# Youngs Moduli (GPa) = 20.16872 47.96891 62.42144
#
# Poissons Ratio (x) = 0.63457 0.54753
# Poissons Ratio (y) = 0.26681 0.37217
# Poissons Ratio (z) = 0.17691 0.28600
#
# Static dielectric constant tensor:
#      x y z
#    x 3.811040 0.380390 -0.095700 
#    y 0.380390 3.681060 0.162010 
#    z -0.095700 0.162010 4.000520 
# 
# 
# High freq. dielectric constant tensor:
#      x y z
#    x 1.810720 0.035750 -0.013040 
#    y 0.035750 1.808620 0.017610 
#    z -0.013040 0.017610 1.834310 
# 
# From -- ./inp_files/271160.got.cif
#   From: 2010.06.25/outbox.cif.g09.slc.cpg/sg2_136_cif.got.tgz:271160.got - 2010.06.27 13:26:56.
