data_PCOD8012952
_publ_section_title
;
Structure prediction by ZEFSAII (Michael W. Deem and Ramdas Pophale) SiO2 
 PCOD8012952
Probable space group: P -1
;
_chemical_formula_sum "Si O2"
_cell_formula_units_Z 16
_cell_length_a 14.312731
_cell_length_b 11.726396
_cell_length_c 14.070170
_cell_angle_alpha 29.265381
_cell_angle_beta 48.949343
_cell_angle_gamma 40.289783
_cell_volume 746.232507
_symmetry_space_group_name_H-M "P -1"
_symmetry_group_IT_number 2
_symmetry_cell_setting 'triclinic'
loop_
_space_group_symop_operation_xyz
x,y,z
-x,-y,-z
loop_
_atom_site_type_symbol
_atom_site_label
_atom_site_fract_x
_atom_site_fract_y
_atom_site_fract_z
Si Si1 0.061560 0.069838 0.638836
Si Si2 0.683277 0.709441 0.851415
Si Si3 0.390111 0.700650 0.713274
Si Si4 0.607935 0.296505 0.499705
Si Si5 0.991611 0.528477 0.198947
Si Si6 0.894725 0.088479 0.917045
Si Si7 0.094808 0.743730 0.686179
Si Si8 0.408022 0.404583 0.188403
O O1 0.228160 0.963897 0.630965
O O2 0.055642 0.824908 0.764741
O O3 0.002847 0.322308 0.422721
O O4 0.962916 0.167577 0.726544
O O5 0.854255 0.493399 0.899784
O O6 0.630714 0.769091 0.731977
O O7 0.651925 0.987461 0.720519
O O8 0.605675 0.573197 0.056305
O O9 0.460977 0.635712 0.608607
O O10 0.491502 0.764719 0.666100
O O11 0.500000 0.500000 0.500000
O O12 0.740795 0.343903 0.376888
O O13 0.935433 0.486815 0.164465
O O14 0.876692 0.834961 0.084879
O O15 0.739514 0.339940 0.861338
O O16 0.000000 0.000000 0.000000
O O17 0.000000 0.000000 0.500000
O O18 0.500000 0.500000 0.000000
#
# Coordination Sequence:
#
# PCOD8012952 Si02
#       8
#     2   2   2   2   2   2   2   2
#     4  10  21  40  64  94 122 159 212 254 305 365
#     4  11  20  42  66  85 125 169 196 256 321 351
#     4  10  21  41  63  93 126 165 205 251 309 375
#     4  11  24  41  63  93 128 162 208 253 304 374
#     4  11  21  40  67  93 124 162 206 258 314 353
#     4  12  23  40  64  93 123 161 212 257 298 369
#     4   9  19  38  61  89 121 158 202 256 298 362
#     4  10  23  42  63  90 128 163 205 255 308 372
#
# _framework density 21.441039
#
# number of rings (size 3 to 8) (size 9 to 14) (size 15 to 20)
#    0.000    1.500    6.250    0.750    0.000    6.000 
#    0.000    0.000    0.000    0.000    0.000    0.000 
#    0.000    0.000    0.000    0.000    0.000    0.000 
#
# Total GULP energy -198322.013335 kJ/mol
# GULP energy per Si atom -12395.125833 kJ/mol
# Density = 2.139224 g / cm^3
# Si number density = 21.441039 Si / 1000 Ang^3
#
#
#
# Elastic Constant Matrix: (Units=GPa)
#
#
# Indices 1 2 3 4 5 6 
#
# 1 111.8459 26.6803 -5.1391 -0.9760 1.0815 3.7461
# 2 26.6803 139.2745 9.4216 8.2593 2.0474 9.2129
# 3 -5.1391 9.4216 38.2155 2.2728 -1.6512 6.6207
# 4 -0.9760 8.2593 2.2728 33.2155 8.3839 -0.4673
# 5 1.0815 2.0474 -1.6512 8.3839 35.9395 -3.1632
# 6 3.7461 9.2129 6.6207 -0.4673 -3.1632 25.7957
#
#
#
# Elastic Compliance Matrix: (Units=1/GPa)
#
#
# Indices 1 2 3 4 5 6 
#
# 1 0.009535 -0.001911 0.001908 0.000699 -0.000361 -0.001224
# 2 -0.001911 0.007922 -0.001732 -0.001881 -0.000225 -0.002169
# 3 0.001908 -0.001732 0.028185 -0.001832 0.001166 -0.006783
# 4 0.000699 -0.001881 -0.001832 0.032635 -0.007549 0.000706
# 5 -0.000361 -0.000225 0.001166 -0.007549 0.029959 0.003371
# 6 -0.001224 -0.002169 -0.006783 0.000706 0.003371 0.041885
#
#
# Mechanical properties :
#
#
# Convention : Reuss Voigt Hill
#
# Bulk Modulus (GPa) = 23.71212 39.02904 31.37058
# Shear Modulus (GPa) = 29.82416 36.21502 33.01959
#
# Velocity S-wave (km/s) = 3.73364 4.11427 3.92856
# Velocity P-wave (km/s) = 5.44701 6.38843 5.93641
#
# Compressibility (1/GPa) = 0.04217253
#
# Stress axis : x y z
#
# Youngs Moduli (GPa) = 104.87738 126.23684 35.47928
#
# Poissons Ratio (x) = 0.24122 -0.06770
# Poissons Ratio (y) = 0.20040 0.06145
# Poissons Ratio (z) = -0.20012 0.21865
#
# Static dielectric constant tensor:
#      x y z
#    x 4.725560 0.285300 0.002890 
#    y 0.285300 3.856040 0.041880 
#    z 0.002890 0.041880 3.775910 
# 
# 
# High freq. dielectric constant tensor:
#      x y z
#    x 1.860320 0.013340 0.002440 
#    y 0.013340 1.823450 0.004310 
#    z 0.002440 0.004310 1.838610 
# 
# From -- ./inp_files/452357.got.cif
#   From: 2010.06.25/outbox.cif.g09.slc.cpg/sg2_227_cif.got.tgz:452357.got - 2010.06.27 13:26:56.
