data_PCOD8012945
_publ_section_title
;
Structure prediction by ZEFSAII (Michael W. Deem and Ramdas Pophale) SiO2 
 PCOD8012945
Probable space group: P -1
;
_chemical_formula_sum "Si O2"
_cell_formula_units_Z 16
_cell_length_a 14.266539
_cell_length_b 8.880676
_cell_length_c 20.950576
_cell_angle_alpha 56.187058
_cell_angle_beta 20.207760
_cell_angle_gamma 65.931913
_cell_volume 698.656241
_symmetry_space_group_name_H-M "P -1"
_symmetry_group_IT_number 2
_symmetry_cell_setting 'triclinic'
loop_
_space_group_symop_operation_xyz
x,y,z
-x,-y,-z
loop_
_atom_site_type_symbol
_atom_site_label
_atom_site_fract_x
_atom_site_fract_y
_atom_site_fract_z
Si Si1 0.672996 0.968742 0.200368
Si Si2 0.459660 0.131324 0.406667
Si Si3 0.790134 0.565972 0.519324
Si Si4 0.433777 0.652327 0.051125
Si Si5 0.642324 0.477015 0.497198
Si Si6 0.681795 0.232572 0.026719
Si Si7 0.235837 0.695633 0.705642
Si Si8 0.610148 0.541278 0.082984
O O1 0.449522 0.747811 0.415012
O O2 0.609387 0.132910 0.242769
O O3 0.652016 0.026125 0.126117
O O4 0.000000 0.000000 0.000000
O O5 0.201221 0.211130 0.543247
O O6 0.712838 0.278131 0.257315
O O7 0.327590 0.911277 0.568078
O O8 0.601289 0.451084 0.605918
O O9 0.639402 0.464718 0.705744
O O10 0.111528 0.562418 0.310902
O O11 0.453160 0.821931 0.946765
O O12 0.650665 0.708639 0.961660
O O13 0.500000 0.500000 0.000000
O O14 0.427575 0.577875 0.582180
O O15 0.977268 0.610871 0.232525
O O16 0.511311 0.336850 0.153999
O O17 0.897816 0.573093 0.933018
#
# Coordination Sequence:
#
# PCOD8012945 Si02
#       8
#     2   2   2   2   2   2   2   2
#     4  12  23  35  64  95 131 171 213 254 318 380
#     4  10  22  39  59  94 134 170 206 261 319 380
#     4  10  21  40  64  93 126 163 213 266 317 379
#     4   9  21  41  68  91 122 167 211 263 325 375
#     4  10  23  40  62  95 132 171 209 260 321 384
#     4  10  21  41  63  93 131 167 212 264 317 376
#     4  10  22  39  63  92 134 169 207 263 319 377
#     4  11  20  37  68  90 123 168 215 260 315 378
#
# _framework density 22.901105999999999
#
# number of rings (size 3 to 8) (size 9 to 14) (size 15 to 20)
#    0.000    1.750    1.250    2.625    1.750    3.500 
#    0.000    0.625    5.500    7.500    0.000    0.000 
#    0.000    0.000    0.000    0.000    0.000    0.000 
#
# Total GULP energy -198223.306324 kJ/mol
# GULP energy per Si atom -12388.956645 kJ/mol
# Density = 2.284898 g / cm^3
# Si number density = 22.901106 Si / 1000 Ang^3
#
#
#
# Elastic Constant Matrix: (Units=GPa)
#
#
# Indices 1 2 3 4 5 6 
#
# 1 117.9605 34.4114 25.6640 7.2343 21.5727 -22.4112
# 2 34.4114 99.3667 35.1683 15.9921 0.8136 -3.4713
# 3 25.6640 35.1683 62.4659 22.9054 9.6368 -0.2171
# 4 7.2343 15.9921 22.9054 43.1721 -1.3791 6.5898
# 5 21.5727 0.8136 9.6368 -1.3791 30.3301 0.7112
# 6 -22.4112 -3.4713 -0.2171 6.5898 0.7112 33.7368
#
#
#
# Elastic Compliance Matrix: (Units=1/GPa)
#
#
# Indices 1 2 3 4 5 6 
#
# 1 0.013296 -0.003416 -0.001389 -0.001900 -0.009223 0.009038
# 2 -0.003416 0.013657 -0.006686 -0.000674 0.004177 -0.000863
# 3 -0.001389 -0.006686 0.025639 -0.011274 -0.007514 0.000915
# 4 -0.001900 -0.000674 -0.011274 0.031084 0.006544 -0.007614
# 5 -0.009223 0.004177 -0.007514 0.006544 0.042289 -0.007915
# 6 0.009038 -0.000863 0.000915 -0.007614 -0.007915 0.037216
#
#
# Mechanical properties :
#
#
# Convention : Reuss Voigt Hill
#
# Bulk Modulus (GPa) = 33.76978 52.25340 43.01159
# Shear Modulus (GPa) = 25.50591 33.75111 29.62851
#
# Velocity S-wave (km/s) = 3.34090 3.84314 3.60079
# Velocity P-wave (km/s) = 5.44610 6.52377 6.00914
#
# Compressibility (1/GPa) = 0.02961227
#
# Stress axis : x y z
#
# Youngs Moduli (GPa) = 75.20862 73.22194 39.00235
#
# Poissons Ratio (x) = 0.25014 0.05416
# Poissons Ratio (y) = 0.25692 0.26076
# Poissons Ratio (z) = 0.10443 0.48954
#
# Static dielectric constant tensor:
#      x y z
#    x 4.851060 -0.173210 0.206150 
#    y -0.173210 4.060610 0.235500 
#    z 0.206150 0.235500 3.666970 
# 
# 
# High freq. dielectric constant tensor:
#      x y z
#    x 1.933630 -0.012490 0.024720 
#    y -0.012490 1.897100 0.031180 
#    z 0.024720 0.031180 1.869060 
# 
# From -- ./inp_files/294060.got.cif
#   From: 2010.06.25/outbox.cif.g09.slc.cpg/sg2_148_cif.got.tgz:294060.got - 2010.06.27 13:26:56.
