data_PCOD8012104
_publ_section_title
;
Structure prediction by ZEFSAII (Michael W. Deem and Ramdas Pophale) SiO2 
 PCOD8012104
Probable space group: P -1
;
_chemical_formula_sum "Si O2"
_cell_formula_units_Z 16
_cell_length_a 11.136333
_cell_length_b 11.689346
_cell_length_c 12.537328
_cell_angle_alpha 46.722332
_cell_angle_beta 100.856244
_cell_angle_gamma 64.616209
_cell_volume 730.067927
_symmetry_space_group_name_H-M "P -1"
_symmetry_group_IT_number 2
_symmetry_cell_setting 'triclinic'
loop_
_space_group_symop_operation_xyz
x,y,z
-x,-y,-z
loop_
_atom_site_type_symbol
_atom_site_label
_atom_site_fract_x
_atom_site_fract_y
_atom_site_fract_z
Si Si1 0.566704 0.245362 0.953456
Si Si2 0.984398 0.689623 0.833895
Si Si3 0.793176 0.421530 0.713162
Si Si4 0.740038 0.663600 0.067831
Si Si5 0.886462 0.695003 0.261698
Si Si6 0.282648 0.671323 0.456964
Si Si7 0.128376 0.821861 0.910054
Si Si8 0.621233 0.085138 0.642930
O O1 0.439191 0.278927 0.997254
O O2 0.433294 0.451849 0.707182
O O3 0.676440 0.273446 0.019941
O O4 0.728097 0.973943 0.100188
O O5 0.067621 0.610629 0.777703
O O6 0.122929 0.667141 0.940292
O O7 0.754376 0.964390 0.633825
O O8 0.000000 0.500000 0.000000
O O9 0.707094 0.433955 0.583385
O O10 0.608428 0.693886 0.565561
O O11 0.962697 0.374957 0.748730
O O12 0.876992 0.208434 0.944310
O O13 0.780582 0.664442 0.196942
O O14 0.679881 0.878105 0.855812
O O15 0.000000 0.500000 0.500000
O O16 0.333588 0.801357 0.355703
O O17 0.063289 0.879889 0.335703
#
# Coordination Sequence:
#
# PCOD8012104 Si02
#       8
#     2   2   2   2   2   2   2   2
#     4  12  25  43  68 100 137 170 221 271 334 398
#     4   9  21  45  67  92 133 173 226 273 320 393
#     4  12  21  37  67  99 131 171 219 271 334 387
#     4  11  24  44  66  90 134 186 213 269 340 384
#     4  12  25  42  65 102 138 171 221 272 329 404
#     4  11  22  40  66  99 138 168 213 278 336 385
#     4  11  24  40  69 102 132 170 227 276 317 396
#     4  10  21  39  66  95 127 173 220 268 326 387
#
# _framework density 21.915769999999998
#
# number of rings (size 3 to 8) (size 9 to 14) (size 15 to 20)
#    0.000    1.000    2.500    5.625    1.750    0.500 
#    0.000    9.375    0.000    0.000    0.000    0.000 
#    0.000    0.000    0.000    0.000    0.000    0.000 
#
# Total GULP energy -198370.014025 kJ/mol
# GULP energy per Si atom -12398.125877 kJ/mol
# Density = 2.186589 g / cm^3
# Si number density = 21.915770 Si / 1000 Ang^3
#
#
#
# Elastic Constant Matrix: (Units=GPa)
#
#
# Indices 1 2 3 4 5 6 
#
# 1 152.8644 48.1916 33.7734 -14.6384 5.6987 -12.0565
# 2 48.1916 85.7488 33.8122 -15.0628 7.7529 4.2843
# 3 33.7734 33.8122 113.5496 -16.4818 3.8757 -3.4787
# 4 -14.6384 -15.0628 -16.4818 24.2970 -9.0044 4.8114
# 5 5.6987 7.7529 3.8757 -9.0044 27.6603 -6.1707
# 6 -12.0565 4.2843 -3.4787 4.8114 -6.1707 34.6388
#
#
#
# Elastic Compliance Matrix: (Units=1/GPa)
#
#
# Indices 1 2 3 4 5 6 
#
# 1 0.008507 -0.004408 -0.000941 0.001392 0.000818 0.003364
# 2 -0.004408 0.016814 -0.002917 0.005833 -0.002655 -0.005190
# 3 -0.000941 -0.002917 0.010691 0.005260 0.001364 0.000619
# 4 0.001392 0.005833 0.005260 0.055444 0.014306 -0.004862
# 5 0.000818 -0.002655 0.001364 0.014306 0.042612 0.006354
# 6 0.003364 -0.005190 0.000619 -0.004862 0.006354 0.032552
#
#
# Mechanical properties :
#
#
# Convention : Reuss Voigt Hill
#
# Bulk Modulus (GPa) = 51.33419 64.85748 58.09584
# Shear Modulus (GPa) = 26.36506 33.07825 29.72166
#
# Velocity S-wave (km/s) = 3.47222 3.88923 3.68663
# Velocity P-wave (km/s) = 6.28882 7.05878 6.68490
#
# Compressibility (1/GPa) = 0.01948019
#
# Stress axis : x y z
#
# Youngs Moduli (GPa) = 117.54631 59.47600 93.53573
#
# Poissons Ratio (x) = 0.26216 0.08798
# Poissons Ratio (y) = 0.51813 0.27288
# Poissons Ratio (z) = 0.11057 0.17351
#
# Static dielectric constant tensor:
#      x y z
#    x 4.419940 -0.071390 0.251710 
#    y -0.071390 4.182360 -0.398150 
#    z 0.251710 -0.398150 3.968910 
# 
# 
# High freq. dielectric constant tensor:
#      x y z
#    x 1.881400 -0.000540 0.011940 
#    y -0.000540 1.846970 -0.024040 
#    z 0.011940 -0.024040 1.853650 
# 
# From -- ./inp_files/345898.got.cif
#   From: 2010.06.25/outbox.cif.g09.slc.cpg/sg2_173_cif.got.tgz:345898.got - 2010.06.27 13:26:56.
