data_PCOD8012109
_publ_section_title
;
Structure prediction by ZEFSAII (Michael W. Deem and Ramdas Pophale) SiO2 
 PCOD8012109
Probable space group: P -1
;
_chemical_formula_sum "Si O2"
_cell_formula_units_Z 16
_cell_length_a 27.804168
_cell_length_b 8.623649
_cell_length_c 11.813502
_cell_angle_alpha 128.530257
_cell_angle_beta 22.088159
_cell_angle_gamma 130.564113
_cell_volume 807.104504
_symmetry_space_group_name_H-M "P -1"
_symmetry_group_IT_number 2
_symmetry_cell_setting 'triclinic'
loop_
_space_group_symop_operation_xyz
x,y,z
-x,-y,-z
loop_
_atom_site_type_symbol
_atom_site_label
_atom_site_fract_x
_atom_site_fract_y
_atom_site_fract_z
Si Si1 0.350820 0.167595 0.838169
Si Si2 0.860447 0.534148 0.797927
Si Si3 0.363940 0.752376 0.701599
Si Si4 0.851716 0.365468 0.272833
Si Si5 0.490160 0.069874 0.178793
Si Si6 0.733799 0.433921 0.792262
Si Si7 0.778102 0.922523 0.157838
Si Si8 0.407715 0.652518 0.300735
O O1 0.506637 0.240031 0.500343
O O2 0.260806 0.076840 0.887789
O O3 0.333892 0.977397 0.874956
O O4 0.308791 0.364944 0.069614
O O5 0.830434 0.491277 0.712739
O O6 0.000000 0.500000 0.500000
O O7 0.757919 0.400705 0.046524
O O8 0.868642 0.769389 0.915132
O O9 0.390804 0.675815 0.482387
O O10 0.808769 0.352355 0.491151
O O11 0.738594 0.432211 0.474756
O O12 0.863109 0.143811 0.107969
O O13 0.000000 0.500000 0.000000
O O14 0.357861 0.150344 0.509253
O O15 0.478539 0.877201 0.200314
O O16 0.612722 0.258281 0.024455
O O17 0.500000 0.000000 0.000000
O O18 0.500000 0.500000 0.000000
#
# Coordination Sequence:
#
# PCOD8012109 Si02
#       8
#     2   2   2   2   2   2   2   2
#     4  10  21  39  66  96 122 164 206 266 321 372
#     4  11  27  42  63  91 130 173 215 260 315 379
#     4  11  22  39  64  97 133 156 212 268 322 374
#     4  11  24  43  66  94 127 175 216 257 320 396
#     4  11  20  39  66  96 122 159 215 260 320 378
#     4  11  23  42  66  92 126 168 217 255 316 392
#     4  10  21  44  65  91 124 172 212 262 318 383
#     4  11  24  41  66  99 131 163 213 275 326 373
#
# _framework density 19.82395
#
# number of rings (size 3 to 8) (size 9 to 14) (size 15 to 20)
#    0.000    1.250    5.000    2.250    5.250    3.000 
#    2.250    3.125    0.000    0.000    0.000    0.000 
#    0.000    0.000    0.000    0.000    0.000    0.000 
#
# Total GULP energy -198336.501117 kJ/mol
# GULP energy per Si atom -12396.031320 kJ/mol
# Density = 1.977883 g / cm^3
# Si number density = 19.823950 Si / 1000 Ang^3
#
#
#
# Elastic Constant Matrix: (Units=GPa)
#
#
# Indices 1 2 3 4 5 6 
#
# 1 71.3641 55.0328 48.9002 6.0831 -4.7106 -5.9951
# 2 55.0328 143.7895 81.1427 3.8970 -17.4526 10.9606
# 3 48.9002 81.1427 115.2509 5.8799 -24.9133 -0.5611
# 4 6.0831 3.8970 5.8799 38.4802 -3.8389 -2.9161
# 5 -4.7106 -17.4526 -24.9133 -3.8389 35.1207 0.8491
# 6 -5.9951 10.9606 -0.5611 -2.9161 0.8491 24.3627
#
#
#
# Elastic Compliance Matrix: (Units=1/GPa)
#
#
# Indices 1 2 3 4 5 6 
#
# 1 0.024342 -0.006956 -0.006402 -0.002006 -0.005168 0.008912
# 2 -0.006956 0.014283 -0.006821 0.000219 0.001551 -0.008322
# 3 -0.006402 -0.006821 0.018046 -0.000085 0.008505 0.001602
# 4 -0.002006 0.000219 -0.000085 0.026749 0.002643 0.002516
# 5 -0.005168 0.001551 0.008505 0.002643 0.034938 -0.002675
# 6 0.008912 -0.008322 0.001602 0.002516 -0.002675 0.047415
#
#
# Mechanical properties :
#
#
# Convention : Reuss Voigt Hill
#
# Bulk Modulus (GPa) = 61.30138 77.83958 69.57048
# Shear Modulus (GPa) = 23.63302 29.28130 26.45716
#
# Velocity S-wave (km/s) = 3.45649 3.84743 3.65719
# Velocity P-wave (km/s) = 6.84980 7.68685 7.28037
#
# Compressibility (1/GPa) = 0.01631285
#
# Stress axis : x y z
#
# Youngs Moduli (GPa) = 41.08084 70.01519 55.41390
#
# Poissons Ratio (x) = 0.48701 0.35478
# Poissons Ratio (y) = 0.28575 0.37797
# Poissons Ratio (z) = 0.26302 0.47756
#
# Static dielectric constant tensor:
#      x y z
#    x 3.768890 -0.108900 0.208830 
#    y -0.108900 4.269620 -0.216270 
#    z 0.208830 -0.216270 3.994560 
# 
# 
# High freq. dielectric constant tensor:
#      x y z
#    x 1.777100 0.009300 0.002970 
#    y 0.009300 1.783390 0.011000 
#    z 0.002970 0.011000 1.766490 
# 
# From -- ./inp_files/399176.got.cif
#   From: 2010.06.25/outbox.cif.g09.slc.cpg/sg2_200_cif.got.tgz:399176.got - 2010.06.27 13:26:56.
