data_PCOD8012362
_publ_section_title
;
Structure prediction by ZEFSAII (Michael W. Deem and Ramdas Pophale) SiO2 
 PCOD8012362
Probable space group: P -1
;
_chemical_formula_sum "Si O2"
_cell_formula_units_Z 14
_cell_length_a 23.761741
_cell_length_b 9.715910
_cell_length_c 8.967179
_cell_angle_alpha 46.977298
_cell_angle_beta 152.531523
_cell_angle_gamma 143.023621
_cell_volume 571.733998
_symmetry_space_group_name_H-M "P -1"
_symmetry_group_IT_number 2
_symmetry_cell_setting 'triclinic'
loop_
_space_group_symop_operation_xyz
x,y,z
-x,-y,-z
loop_
_atom_site_type_symbol
_atom_site_label
_atom_site_fract_x
_atom_site_fract_y
_atom_site_fract_z
Si Si1 0.798780 0.679383 0.837300
Si Si2 0.994586 0.772406 0.660915
Si Si3 0.530649 0.960859 0.843906
Si Si4 0.802513 0.375098 0.299524
Si Si5 0.692126 0.992657 0.897392
Si Si6 0.481390 0.511050 0.120913
Si Si7 0.971492 0.182161 0.958966
O O1 0.622766 0.549939 0.510110
O O2 0.865985 0.906772 0.926500
O O3 0.837016 0.514238 0.124373
O O4 0.870055 0.741653 0.793425
O O5 0.842367 0.551001 0.399679
O O6 0.005405 0.711631 0.901721
O O7 0.000000 0.000000 0.500000
O O8 0.132862 0.814684 0.856733
O O9 0.393171 0.957251 0.461961
O O10 0.642913 0.003241 0.941153
O O11 0.627054 0.163916 0.041451
O O12 0.464926 0.719955 0.954484
O O13 0.897689 0.269010 0.612061
O O14 0.658829 0.740993 0.970915
O O15 0.500000 0.500000 0.000000
#
# Coordination Sequence:
#
# PCOD8012362 Si02
#       7
#     2   2   2   2   2   2   2
#     4  11  23  42  74 105 134 179 242 295 336 412
#     4  12  28  47  67 103 151 188 224 286 366 417
#     4  10  22  42  73 106 129 179 243 285 340 410
#     4  12  24  44  72 101 139 184 239 294 339 411
#     4  10  24  44  69 102 143 179 228 289 347 414
#     4  10  21  39  70 104 134 174 230 291 344 398
#     4  11  26  44  67 103 143 183 230 288 357 417
#
# _framework density 24.486910999999999
#
# number of rings (size 3 to 8) (size 9 to 14) (size 15 to 20)
#    0.000    1.143    4.286    0.857    8.000    0.000 
#    2.571    3.571    0.000    0.000    0.000    0.000 
#    0.000    0.000    0.000    0.000    0.000    0.000 
#
# Total GULP energy -173602.876573 kJ/mol
# GULP energy per Si atom -12400.205470 kJ/mol
# Density = 2.443118 g / cm^3
# Si number density = 24.486911 Si / 1000 Ang^3
#
#
#
# Elastic Constant Matrix: (Units=GPa)
#
#
# Indices 1 2 3 4 5 6 
#
# 1 48.9102 13.1242 11.1317 5.7286 -6.6441 -0.8860
# 2 13.1242 159.8783 49.0737 -5.2628 -9.5459 -7.6571
# 3 11.1317 49.0737 103.1033 -9.2764 -15.1047 1.7326
# 4 5.7286 -5.2628 -9.2764 49.6091 -1.8719 -7.3889
# 5 -6.6441 -9.5459 -15.1047 -1.8719 20.6000 -5.6469
# 6 -0.8860 -7.6571 1.7326 -7.3889 -5.6469 25.0589
#
#
#
# Elastic Compliance Matrix: (Units=1/GPa)
#
#
# Indices 1 2 3 4 5 6 
#
# 1 0.022131 -0.001118 -0.001259 -0.002531 0.005763 0.001080
# 2 -0.001118 0.007621 -0.003225 0.000872 0.001753 0.003164
# 3 -0.001259 -0.003225 0.012740 0.002573 0.007844 0.000616
# 4 -0.002531 0.000872 0.002573 0.022412 0.005673 0.007886
# 5 0.005763 0.001753 0.007844 0.005673 0.061812 0.015799
# 6 0.001080 0.003164 0.000616 0.007886 0.015799 0.046754
#
#
# Mechanical properties :
#
#
# Convention : Reuss Voigt Hill
#
# Bulk Modulus (GPa) = 31.95964 50.95011 41.45487
# Shear Modulus (GPa) = 25.62741 34.95774 30.29257
#
# Velocity S-wave (km/s) = 3.23859 3.78247 3.52105
# Velocity P-wave (km/s) = 5.20237 6.31889 5.78762
#
# Compressibility (1/GPa) = 0.03128947
#
# Stress axis : x y z
#
# Youngs Moduli (GPa) = 45.18550 131.21210 78.49273
#
# Poissons Ratio (x) = 0.14666 0.09882
# Poissons Ratio (y) = 0.05051 0.25311
# Poissons Ratio (z) = 0.05689 0.42311
#
# Static dielectric constant tensor:
#      x y z
#    x 3.866750 0.005780 -0.193810 
#    y 0.005780 4.973500 0.191590 
#    z -0.193810 0.191590 3.914830 
# 
# 
# High freq. dielectric constant tensor:
#      x y z
#    x 1.930400 -0.000070 -0.013560 
#    y -0.000070 2.000700 -0.004510 
#    z -0.013560 -0.004510 1.981120 
# 
# From -- ./inp_files/226608.got.cif
#   From: 2010.06.25/outbox.cif.g09.slc.cpg/sg2_114_cif.got.tgz:226608.got - 2010.06.27 13:26:56.
