data_PCOD8012642
_publ_section_title
;
Structure prediction by ZEFSAII (Michael W. Deem and Ramdas Pophale) SiO2 
 PCOD8012642
Probable space group: P -1
;
_chemical_formula_sum "Si O2"
_cell_formula_units_Z 16
_cell_length_a 7.857758
_cell_length_b 9.467511
_cell_length_c 15.769331
_cell_angle_alpha 125.128185
_cell_angle_beta 101.367369
_cell_angle_gamma 112.538421
_cell_volume 738.417376
_symmetry_space_group_name_H-M "P -1"
_symmetry_group_IT_number 2
_symmetry_cell_setting 'triclinic'
loop_
_space_group_symop_operation_xyz
x,y,z
-x,-y,-z
loop_
_atom_site_type_symbol
_atom_site_label
_atom_site_fract_x
_atom_site_fract_y
_atom_site_fract_z
Si Si1 0.560873 0.112522 0.768849
Si Si2 0.183511 0.167346 0.139982
Si Si3 0.014790 0.527254 0.372043
Si Si4 0.786193 0.423714 0.756360
Si Si5 0.199912 0.541485 0.935477
Si Si6 0.910077 0.042000 0.766764
Si Si7 0.581118 0.229123 0.123041
Si Si8 0.043248 0.788814 0.611449
O O1 0.576624 0.230290 0.723302
O O2 0.675974 0.997359 0.721453
O O3 0.305858 0.936264 0.706693
O O4 0.690307 0.287569 0.917763
O O5 0.249360 0.403884 0.215559
O O6 0.401668 0.191038 0.156245
O O7 0.080479 0.068673 0.187203
O O8 0.000000 0.000000 0.000000
O O9 0.793974 0.330237 0.235844
O O10 0.081689 0.415224 0.405000
O O11 0.192817 0.667389 0.362239
O O12 0.990738 0.691798 0.477493
O O13 0.999831 0.533927 0.876513
O O14 0.372238 0.618631 0.901412
O O15 0.113035 0.302688 0.876159
O O16 0.949481 0.926458 0.655635
O O17 0.500000 0.000000 0.000000
#
# Coordination Sequence:
#
# PCOD8012642 Si02
#       8
#     2   2   2   2   2   2   2   2
#     4  11  23  42  63  94 130 168 202 264 322 367
#     4  12  22  35  62  97 123 160 208 258 313 383
#     4  10  22  46  60  93 123 169 207 266 309 372
#     4  10  21  40  62  89 128 160 204 261 316 369
#     4  10  22  41  63  92 132 163 202 266 321 369
#     4  11  23  41  62  97 127 167 213 259 317 373
#     4  11  23  40  66  91 128 164 205 262 325 369
#     4  11  24  41  68  87 130 168 219 252 313 381
#
# _framework density 21.667961999999999
#
# number of rings (size 3 to 8) (size 9 to 14) (size 15 to 20)
#    0.000    1.250    1.250    6.750    3.500    1.000 
#    2.250    7.500    0.000    0.000    0.000    0.000 
#    0.000    0.000    0.000    0.000    0.000    0.000 
#
# Total GULP energy -198367.420280 kJ/mol
# GULP energy per Si atom -12397.963767 kJ/mol
# Density = 2.161864 g / cm^3
# Si number density = 21.667962 Si / 1000 Ang^3
#
#
#
# Elastic Constant Matrix: (Units=GPa)
#
#
# Indices 1 2 3 4 5 6 
#
# 1 72.7572 18.0563 31.1132 5.6546 -28.6645 -4.6087
# 2 18.0563 125.5307 25.4139 -9.0337 -13.1006 3.0218
# 3 31.1132 25.4139 98.6221 -7.2019 -32.0825 -5.9555
# 4 5.6546 -9.0337 -7.2019 28.9494 2.4627 -8.0285
# 5 -28.6645 -13.1006 -32.0825 2.4627 31.9719 3.7635
# 6 -4.6087 3.0218 -5.9555 -8.0285 3.7635 35.8715
#
#
#
# Elastic Compliance Matrix: (Units=1/GPa)
#
#
# Indices 1 2 3 4 5 6 
#
# 1 0.022657 -0.001524 -0.001042 -0.007000 0.019267 -0.000722
# 2 -0.001524 0.008734 -0.001410 0.002420 0.000694 -0.000697
# 3 -0.001042 -0.001410 0.015623 0.002984 0.013722 0.001807
# 4 -0.007000 0.002420 0.002984 0.040493 -0.006484 0.009135
# 5 0.019267 0.000694 0.013722 -0.006484 0.063508 -0.003419
# 6 -0.000722 -0.000697 0.001807 0.009135 -0.003419 0.030547
#
#
# Mechanical properties :
#
#
# Convention : Reuss Voigt Hill
#
# Bulk Modulus (GPa) = 25.59946 49.56409 37.58178
# Shear Modulus (GPa) = 24.68735 34.18034 29.43385
#
# Velocity S-wave (km/s) = 3.37908 3.97603 3.68965
# Velocity P-wave (km/s) = 5.20234 6.63344 5.96099
#
# Compressibility (1/GPa) = 0.03906332
#
# Stress axis : x y z
#
# Youngs Moduli (GPa) = 44.13593 114.49421 64.00944
#
# Poissons Ratio (x) = 0.17444 0.06671
# Poissons Ratio (y) = 0.06724 0.09023
# Poissons Ratio (z) = 0.04600 0.16139
#
# Static dielectric constant tensor:
#      x y z
#    x 3.932670 0.374170 -0.264220 
#    y 0.374170 4.410320 -0.109870 
#    z -0.264220 -0.109870 3.784270 
# 
# 
# High freq. dielectric constant tensor:
#      x y z
#    x 1.838470 0.015770 -0.019620 
#    y 0.015770 1.870710 -0.007040 
#    z -0.019620 -0.007040 1.837600 
# 
# From -- ./inp_files/446366.got.cif
#   From: 2010.06.25/outbox.cif.g09.slc.cpg/sg2_224_cif.got.tgz:446366.got - 2010.06.27 13:26:56.
