data_PCOD8012683
_publ_section_title
;
Structure prediction by ZEFSAII (Michael W. Deem and Ramdas Pophale) SiO2 
 PCOD8012683
Probable space group: P -1
;
_chemical_formula_sum "Si O2"
_cell_formula_units_Z 14
_cell_length_a 5.081105
_cell_length_b 8.868538
_cell_length_c 14.835578
_cell_angle_alpha 55.819776
_cell_angle_beta 98.574921
_cell_angle_gamma 99.389311
_cell_volume 544.287144
_symmetry_space_group_name_H-M "P -1"
_symmetry_group_IT_number 2
_symmetry_cell_setting 'triclinic'
loop_
_space_group_symop_operation_xyz
x,y,z
-x,-y,-z
loop_
_atom_site_type_symbol
_atom_site_label
_atom_site_fract_x
_atom_site_fract_y
_atom_site_fract_z
Si Si1 0.339343 0.782282 0.903136
Si Si2 0.002118 0.013708 0.691049
Si Si3 0.558493 0.442538 0.172312
Si Si4 0.009600 0.731430 0.056885
Si Si5 0.095316 0.312431 0.316322
Si Si6 0.793365 0.059105 0.847790
Si Si7 0.220006 0.387076 0.504488
O O1 0.525259 0.671860 0.884145
O O2 0.119864 0.845225 0.802604
O O3 0.501679 0.965539 0.889315
O O4 0.212854 0.645426 0.024001
O O5 0.209891 0.182967 0.614688
O O6 0.807642 0.095697 0.728115
O O7 0.861245 0.901770 0.635628
O O8 0.293820 0.449700 0.218036
O O9 0.705638 0.638679 0.079551
O O10 0.789868 0.356303 0.271912
O O11 0.143285 0.752367 0.156334
O O12 0.011292 0.927141 0.939591
O O13 0.175061 0.355248 0.407753
O O14 0.500000 0.500000 0.500000
O O15 0.000000 0.500000 0.500000
#
# Coordination Sequence:
#
# PCOD8012683 Si02
#       7
#     2   2   2   2   2   2   2
#     4  10  21  41  64  98 129 185 227 267 333 399
#     4  10  24  45  68  95 136 178 220 279 331 412
#     4  11  24  42  69 100 136 179 224 280 322 395
#     4  10  23  36  61  97 137 178 223 279 325 391
#     4  11  25  47  69 101 135 180 225 267 346 400
#     4  10  21  40  62  93 133 178 229 260 345 390
#     4  12  29  47  73 107 133 170 224 283 343 400
#
# _framework density 25.721720000000001
#
# number of rings (size 3 to 8) (size 9 to 14) (size 15 to 20)
#    0.000    1.429    1.429    2.143    8.000    0.571 
#    0.000    3.571    0.000    0.000    0.000    0.000 
#    0.000    0.000    0.000    0.000    0.000    0.000 
#
# Total GULP energy -173469.027355 kJ/mol
# GULP energy per Si atom -12390.644811 kJ/mol
# Density = 2.566318 g / cm^3
# Si number density = 25.721720 Si / 1000 Ang^3
#
#
#
# Elastic Constant Matrix: (Units=GPa)
#
#
# Indices 1 2 3 4 5 6 
#
# 1 58.0675 28.4290 6.9496 8.5285 -35.1583 14.0632
# 2 28.4290 164.4176 65.3256 26.0133 -25.6574 14.3694
# 3 6.9496 65.3256 133.7631 7.2277 -31.1601 -0.0550
# 4 8.5285 26.0133 7.2277 47.2307 3.9571 -10.0652
# 5 -35.1583 -25.6574 -31.1601 3.9571 37.9139 -2.0462
# 6 14.0632 14.3694 -0.0550 -10.0652 -2.0462 43.2962
#
#
#
# Elastic Compliance Matrix: (Units=1/GPa)
#
#
# Indices 1 2 3 4 5 6 
#
# 1 0.089550 0.000689 0.020783 -0.035276 0.102509 -0.032646
# 2 0.000689 0.009324 -0.003152 -0.006140 0.004756 -0.004525
# 3 0.020783 -0.003152 0.015452 -0.008239 0.030366 -0.006165
# 4 -0.035276 -0.006140 -0.008239 0.040512 -0.046750 0.020694
# 5 0.102509 0.004756 0.030366 -0.046750 0.152411 -0.038501
# 6 -0.032646 -0.004525 -0.006165 0.020694 -0.038501 0.038186
#
#
# Mechanical properties :
#
#
# Convention : Reuss Voigt Hill
#
# Bulk Modulus (GPa) = 6.62395 61.96185 34.29290
# Shear Modulus (GPa) = 13.92309 42.72442 28.32375
#
# Velocity S-wave (km/s) = 2.32910 4.07999 3.32197
# Velocity P-wave (km/s) = 3.13270 6.80711 5.29861
#
# Compressibility (1/GPa) = 0.15096732
#
# Stress axis : x y z
#
# Youngs Moduli (GPa) = 11.16694 107.24768 64.71742
#
# Poissons Ratio (x) = -0.07394 -1.34501
# Poissons Ratio (y) = -0.00770 0.20397
# Poissons Ratio (z) = -0.23208 0.33801
#
# Static dielectric constant tensor:
#      x y z
#    x 4.481530 -0.200210 -0.170060 
#    y -0.200210 4.975230 0.199620 
#    z -0.170060 0.199620 4.635190 
# 
# 
# High freq. dielectric constant tensor:
#      x y z
#    x 2.023140 -0.000270 -0.012250 
#    y -0.000270 2.045570 0.011230 
#    z -0.012250 0.011230 2.025160 
# 
# From -- ./inp_files/27861.got.cif
#   From: 2010.06.25/outbox.cif.g09.slc.cpg/sg2_14_cif.got.tgz:27861.got - 2010.06.27 13:26:56.
