data_PCOD8012825
_publ_section_title
;
Structure prediction by ZEFSAII (Michael W. Deem and Ramdas Pophale) SiO2 
 PCOD8012825
Probable space group: P -1
;
_chemical_formula_sum "Si O2"
_cell_formula_units_Z 16
_cell_length_a 12.307501
_cell_length_b 13.545743
_cell_length_c 13.876806
_cell_angle_alpha 148.676168
_cell_angle_beta 135.910803
_cell_angle_gamma 38.459091
_cell_volume 739.271362
_symmetry_space_group_name_H-M "P -1"
_symmetry_group_IT_number 2
_symmetry_cell_setting 'triclinic'
loop_
_space_group_symop_operation_xyz
x,y,z
-x,-y,-z
loop_
_atom_site_type_symbol
_atom_site_label
_atom_site_fract_x
_atom_site_fract_y
_atom_site_fract_z
Si Si1 0.936422 0.056195 0.845254
Si Si2 0.988530 0.279862 0.224157
Si Si3 0.788714 0.918673 0.350218
Si Si4 0.610552 0.063860 0.549619
Si Si5 0.746215 0.246024 0.305843
Si Si6 0.582085 0.799031 0.956872
Si Si7 0.264369 0.396801 0.533391
Si Si8 0.200805 0.676578 0.385140
O O1 0.021884 0.880275 0.837336
O O2 0.071347 0.979045 0.776277
O O3 0.740730 0.114501 0.738625
O O4 0.927507 0.265709 0.064935
O O5 0.844756 0.517124 0.364507
O O6 0.189901 0.241344 0.313999
O O7 0.993941 0.750114 0.328936
O O8 0.721093 0.895366 0.394703
O O9 0.765666 0.161439 0.528376
O O10 0.677794 0.858866 0.152867
O O11 0.472209 0.277501 0.585028
O O12 0.500000 0.000000 0.500000
O O13 0.586579 0.225652 0.134837
O O14 0.779272 0.425687 0.426332
O O15 0.707333 0.308993 0.444990
O O16 0.715002 0.568552 0.802494
O O17 0.500000 0.000000 0.000000
#
# Coordination Sequence:
#
# PCOD8012825 Si02
#       8
#     2   2   2   2   2   2   2   2
#     4  10  21  40  63  95 133 176 227 278 340 409
#     4   9  20  39  62  91 130 179 228 275 331 412
#     4  11  26  46  73 102 145 186 229 293 353 416
#     4  12  24  41  67  99 138 182 224 285 349 414
#     4  11  23  42  67  99 135 177 227 291 348 418
#     4  12  26  43  72 107 136 184 240 292 350 415
#     4  10  22  38  64  94 134 180 226 281 345 407
#     4  11  24  49  71 101 144 183 230 294 355 417
#
# _framework density 21.642932999999999
#
# number of rings (size 3 to 8) (size 9 to 14) (size 15 to 20)
#    0.000    1.250    3.750    1.500    3.500    1.500 
#    0.000    3.750    0.000    0.000    0.000    0.000 
#    0.000    0.000    0.000    0.000    0.000    0.000 
#
# Total GULP energy -198289.043648 kJ/mol
# GULP energy per Si atom -12393.065228 kJ/mol
# Density = 2.159367 g / cm^3
# Si number density = 21.642933 Si / 1000 Ang^3
#
#
#
# Elastic Constant Matrix: (Units=GPa)
#
#
# Indices 1 2 3 4 5 6 
#
# 1 113.2781 31.9535 47.6446 -3.3749 -2.2757 -12.8534
# 2 31.9535 87.6553 51.5282 -13.5880 -2.5910 -25.6018
# 3 47.6446 51.5282 149.9869 -24.1588 -9.5848 -12.2927
# 4 -3.3749 -13.5880 -24.1588 43.2695 0.5473 7.0752
# 5 -2.2757 -2.5910 -9.5848 0.5473 24.0092 -7.3315
# 6 -12.8534 -25.6018 -12.2927 7.0752 -7.3315 33.9829
#
#
#
# Elastic Compliance Matrix: (Units=1/GPa)
#
#
# Indices 1 2 3 4 5 6 
#
# 1 0.010748 -0.001907 -0.002843 -0.001683 0.000334 0.002022
# 2 -0.001907 0.018512 -0.004314 0.001208 0.003803 0.012234
# 3 -0.002843 -0.004314 0.009794 0.004024 0.002771 -0.001023
# 4 -0.001683 0.001208 0.004024 0.026224 -0.000171 -0.003768
# 5 0.000334 0.003803 0.002771 -0.000171 0.047567 0.014291
# 6 0.002022 0.012234 -0.001023 -0.003768 0.014291 0.042906
#
#
# Mechanical properties :
#
#
# Convention : Reuss Voigt Hill
#
# Bulk Modulus (GPa) = 47.78740 68.13033 57.95887
# Shear Modulus (GPa) = 27.64675 34.90525 31.27600
#
# Velocity S-wave (km/s) = 3.57796 4.02030 3.80556
# Velocity P-wave (km/s) = 6.26074 7.28684 6.79319
#
# Compressibility (1/GPa) = 0.02092602
#
# Stress axis : x y z
#
# Youngs Moduli (GPa) = 93.04487 54.01833 102.10577
#
# Poissons Ratio (x) = 0.10301 0.29027
# Poissons Ratio (y) = 0.17743 0.44048
# Poissons Ratio (z) = 0.26451 0.23303
#
# Static dielectric constant tensor:
#      x y z
#    x 4.076470 -0.243400 -0.105660 
#    y -0.243400 3.948000 -0.001220 
#    z -0.105660 -0.001220 4.169260 
# 
# 
# High freq. dielectric constant tensor:
#      x y z
#    x 1.853200 -0.014940 0.000420 
#    y -0.014940 1.846120 -0.013230 
#    z 0.000420 -0.013230 1.854340 
# 
# From -- ./inp_files/521959.got.cif
#   From: 2010.06.25/outbox.cif.g09.slc.cpg/sg2_261_cif.got.tgz:521959.got - 2010.06.27 13:26:56.
