data_PCOD8012220
_publ_section_title
;
Structure prediction by ZEFSAII (Michael W. Deem and Ramdas Pophale) SiO2 
 PCOD8012220
Probable space group: P -1
;
_chemical_formula_sum "Si O2"
_cell_formula_units_Z 16
_cell_length_a 21.657287
_cell_length_b 12.974454
_cell_length_c 8.938413
_cell_angle_alpha 35.340531
_cell_angle_beta 63.673613
_cell_angle_gamma 38.276479
_cell_volume 751.914059
_symmetry_space_group_name_H-M "P -1"
_symmetry_group_IT_number 2
_symmetry_cell_setting 'triclinic'
loop_
_space_group_symop_operation_xyz
x,y,z
-x,-y,-z
loop_
_atom_site_type_symbol
_atom_site_label
_atom_site_fract_x
_atom_site_fract_y
_atom_site_fract_z
Si Si1 0.273206 0.103758 0.409542
Si Si2 0.627439 0.216562 0.620292
Si Si3 0.536149 0.025682 0.576707
Si Si4 0.857450 0.778368 0.314573
Si Si5 0.692792 0.450654 0.652304
Si Si6 0.211220 0.376614 0.662688
Si Si7 0.121797 0.663980 0.718025
Si Si8 0.665526 0.526044 0.263830
O O1 0.211002 0.100632 0.596531
O O2 0.368865 0.826798 0.511991
O O3 0.350569 0.085091 0.441453
O O4 0.159310 0.416020 0.070732
O O5 0.500000 0.500000 0.500000
O O6 0.696045 0.257148 0.513927
O O7 0.686281 0.931296 0.984666
O O8 0.415639 0.390200 0.316452
O O9 0.500000 0.000000 0.500000
O O10 0.563870 0.820342 0.917430
O O11 0.835977 0.652730 0.381236
O O12 0.000000 0.500000 0.500000
O O13 0.798755 0.082729 0.952802
O O14 0.743842 0.531260 0.565761
O O15 0.626276 0.626065 0.359122
O O16 0.110373 0.638129 0.584858
O O17 0.213158 0.625295 0.705753
O O18 0.000000 0.000000 0.500000
#
# Coordination Sequence:
#
# PCOD8012220 Si02
#       8
#     2   2   2   2   2   2   2   2
#     4  10  25  41  64 102 136 171 229 276 338 404
#     4  11  21  40  70 101 134 172 221 282 333 405
#     4  11  23  42  66  99 136 170 218 284 342 406
#     4  12  28  46  65 100 141 181 228 279 335 403
#     4  11  23  44  70  93 136 180 222 273 341 397
#     4  10  23  44  66 100 129 179 232 271 337 404
#     4   9  21  42  70  92 129 175 228 287 327 386
#     4  10  21  39  67  98 128 173 226 263 339 402
#
# _framework density 21.279026999999999
#
# number of rings (size 3 to 8) (size 9 to 14) (size 15 to 20)
#    0.000    1.500    1.250    3.375    5.250    2.000 
#    2.250    2.500    0.000    0.000    0.000    0.000 
#    0.000    0.000    0.000    0.000    0.000    0.000 
#
# Total GULP energy -198262.366508 kJ/mol
# GULP energy per Si atom -12391.397907 kJ/mol
# Density = 2.123060 g / cm^3
# Si number density = 21.279027 Si / 1000 Ang^3
#
#
#
# Elastic Constant Matrix: (Units=GPa)
#
#
# Indices 1 2 3 4 5 6 
#
# 1 115.9268 43.2257 35.4273 5.0515 -3.9002 19.0837
# 2 43.2257 144.9491 48.0972 -13.5469 15.8323 0.4431
# 3 35.4273 48.0972 82.4258 -10.3161 -2.9428 -2.0501
# 4 5.0515 -13.5469 -10.3161 36.3559 0.8220 -3.5526
# 5 -3.9002 15.8323 -2.9428 0.8220 36.8382 3.6781
# 6 19.0837 0.4431 -2.0501 -3.5526 3.6781 22.6274
#
#
#
# Elastic Compliance Matrix: (Units=1/GPa)
#
#
# Indices 1 2 3 4 5 6 
#
# 1 0.014198 -0.003568 -0.004994 -0.006182 0.004174 -0.014006
# 2 -0.003568 0.010264 -0.004099 0.003667 -0.005590 0.003921
# 3 -0.004994 -0.004099 0.017483 0.004701 0.001895 0.006306
# 4 -0.006182 0.003667 0.004701 0.032246 -0.003696 0.011232
# 5 0.004174 -0.005590 0.001895 -0.003696 0.031110 -0.008876
# 6 -0.014006 0.003921 0.006306 0.011232 -0.008876 0.059708
#
#
# Mechanical properties :
#
#
# Convention : Reuss Voigt Hill
#
# Bulk Modulus (GPa) = 60.15250 66.31135 63.23192
# Shear Modulus (GPa) = 25.52685 33.60107 29.56396
#
# Velocity S-wave (km/s) = 3.46732 3.97806 3.73144
# Velocity P-wave (km/s) = 6.66030 7.23397 6.95305
#
# Compressibility (1/GPa) = 0.01662441
#
# Stress axis : x y z
#
# Youngs Moduli (GPa) = 70.43220 97.42369 57.19809
#
# Poissons Ratio (x) = 0.34761 0.28562
# Poissons Ratio (y) = 0.25130 0.23446
# Poissons Ratio (z) = 0.35171 0.39935
#
# Static dielectric constant tensor:
#      x y z
#    x 3.802440 0.260730 -0.309740 
#    y 0.260730 3.972610 0.163640 
#    z -0.309740 0.163640 4.018160 
# 
# 
# High freq. dielectric constant tensor:
#      x y z
#    x 1.835160 0.008240 -0.008950 
#    y 0.008240 1.841440 0.000950 
#    z -0.008950 0.000950 1.829540 
# 
# From -- ./inp_files/304567.got.cif
#   From: 2010.06.25/outbox.cif.g09.slc.cpg/sg2_153_cif.got.tgz:304567.got - 2010.06.27 13:26:56.
