data_PCOD8012577
_publ_section_title
;
Structure prediction by ZEFSAII (Michael W. Deem and Ramdas Pophale) SiO2 
 PCOD8012577
Probable space group: P -1
;
_chemical_formula_sum "Si O2"
_cell_formula_units_Z 16
_cell_length_a 15.864751
_cell_length_b 15.879172
_cell_length_c 8.302694
_cell_angle_alpha 95.855466
_cell_angle_beta 67.267608
_cell_angle_gamma 152.834639
_cell_volume 721.109706
_symmetry_space_group_name_H-M "P -1"
_symmetry_group_IT_number 2
_symmetry_cell_setting 'triclinic'
loop_
_space_group_symop_operation_xyz
x,y,z
-x,-y,-z
loop_
_atom_site_type_symbol
_atom_site_label
_atom_site_fract_x
_atom_site_fract_y
_atom_site_fract_z
Si Si1 0.365576 0.955219 0.986505
Si Si2 0.804034 0.443894 0.800065
Si Si3 0.390887 0.709565 0.739650
Si Si4 0.749993 0.239867 0.282466
Si Si5 0.131143 0.161637 0.797002
Si Si6 0.522750 0.394386 0.352871
Si Si7 0.879894 0.982447 0.645022
Si Si8 0.092769 0.812109 0.435484
O O1 0.158376 0.823683 0.219490
O O2 0.227100 0.798922 0.902238
O O3 0.500000 0.000000 0.000000
O O4 0.589234 0.208877 0.820347
O O5 0.037094 0.587724 0.709377
O O6 0.883527 0.584717 0.644326
O O7 0.696524 0.387066 0.034183
O O8 0.232625 0.646408 0.759090
O O9 0.375706 0.605138 0.638827
O O10 0.667284 0.980946 0.589725
O O11 0.500000 0.000000 0.500000
O O12 0.322790 0.264285 0.590602
O O13 0.268018 0.361174 0.802353
O O14 0.915035 0.011781 0.815725
O O15 0.000000 0.000000 0.000000
O O16 0.400875 0.260239 0.247766
O O17 0.003226 0.174313 0.522342
O O18 0.000000 0.000000 0.500000
#
# Coordination Sequence:
#
# PCOD8012577 Si02
#       8
#     2   2   2   2   2   2   2   2
#     4  11  23  42  60  89 128 159 211 266 301 369
#     4  11  23  42  65  87 123 171 207 252 320 359
#     4  10  21  40  61  92 126 160 213 257 301 373
#     4  12  23  43  62  91 125 168 213 258 311 367
#     4  10  21  41  66  94 122 160 207 249 316 375
#     4   9  21  41  62  89 130 160 197 264 305 361
#     4   9  20  41  64  90 125 160 198 253 309 368
#     4  10  21  42  63  91 127 161 210 261 307 372
#
# _framework density 22.188023000000001
#
# number of rings (size 3 to 8) (size 9 to 14) (size 15 to 20)
#    0.000    1.750    3.750    0.375    0.000    6.500 
#    4.500    8.750    0.000    0.000    0.000    0.000 
#    0.000    0.000    0.000    0.000    0.000    0.000 
#
# Total GULP energy -198288.478531 kJ/mol
# GULP energy per Si atom -12393.029908 kJ/mol
# Density = 2.213752 g / cm^3
# Si number density = 22.188023 Si / 1000 Ang^3
#
#
#
# Elastic Constant Matrix: (Units=GPa)
#
#
# Indices 1 2 3 4 5 6 
#
# 1 152.6294 61.9190 42.0657 0.6133 18.1266 -29.1389
# 2 61.9190 97.2460 42.0283 -14.5789 20.7585 -18.0690
# 3 42.0657 42.0283 95.2417 -23.0706 28.2528 -17.8715
# 4 0.6133 -14.5789 -23.0706 25.3253 -7.7233 4.5913
# 5 18.1266 20.7585 28.2528 -7.7233 40.1481 -0.2238
# 6 -29.1389 -18.0690 -17.8715 4.5913 -0.2238 38.1265
#
#
#
# Elastic Compliance Matrix: (Units=1/GPa)
#
#
# Indices 1 2 3 4 5 6 
#
# 1 0.010697 -0.005463 -0.002635 -0.007209 -0.001509 0.005211
# 2 -0.005463 0.016715 -0.001953 0.006531 -0.003534 0.002024
# 3 -0.002635 -0.001953 0.019040 0.012834 -0.008706 0.004389
# 4 -0.007209 0.006531 0.012834 0.056183 0.001637 -0.003155
# 5 -0.001509 -0.003534 -0.008706 0.001637 0.033819 -0.006907
# 6 0.005211 0.002024 0.004389 -0.003155 -0.006907 0.033567
#
#
# Mechanical properties :
#
#
# Convention : Reuss Voigt Hill
#
# Bulk Modulus (GPa) = 37.95021 70.79368 54.37195
# Shear Modulus (GPa) = 25.13744 33.99358 29.56551
#
# Velocity S-wave (km/s) = 3.36955 3.91841 3.65430
# Velocity P-wave (km/s) = 5.68151 7.24206 6.50873
#
# Compressibility (1/GPa) = 0.02635031
#
# Stress axis : x y z
#
# Youngs Moduli (GPa) = 93.48298 59.82573 52.52058
#
# Poissons Ratio (x) = 0.32682 0.13839
# Poissons Ratio (y) = 0.51069 0.10259
# Poissons Ratio (z) = 0.24632 0.11686
#
# Static dielectric constant tensor:
#      x y z
#    x 4.331490 -0.025480 -0.104800 
#    y -0.025480 4.399490 -0.026050 
#    z -0.104800 -0.026050 3.795080 
# 
# 
# High freq. dielectric constant tensor:
#      x y z
#    x 1.882310 -0.011110 -0.003910 
#    y -0.011110 1.881000 -0.010990 
#    z -0.003910 -0.010990 1.852280 
# 
# From -- ./inp_files/315249.got.cif
#   From: 2010.06.25/outbox.cif.g09.slc.cpg/sg2_158_cif.got.tgz:315249.got - 2010.06.27 13:26:56.
