data_PCOD8012201
_publ_section_title
;
Structure prediction by ZEFSAII (Michael W. Deem and Ramdas Pophale) SiO2 
 PCOD8012201
Probable space group: P -1
;
_chemical_formula_sum "Si O2"
_cell_formula_units_Z 16
_cell_length_a 11.221496
_cell_length_b 13.064503
_cell_length_c 14.584519
_cell_angle_alpha 45.590967
_cell_angle_beta 66.838510
_cell_angle_gamma 32.550669
_cell_volume 706.261312
_symmetry_space_group_name_H-M "P -1"
_symmetry_group_IT_number 2
_symmetry_cell_setting 'triclinic'
loop_
_space_group_symop_operation_xyz
x,y,z
-x,-y,-z
loop_
_atom_site_type_symbol
_atom_site_label
_atom_site_fract_x
_atom_site_fract_y
_atom_site_fract_z
Si Si1 0.928010 0.337801 0.077788
Si Si2 0.209756 0.136081 0.365598
Si Si3 0.934363 0.541765 0.345716
Si Si4 0.847987 0.262792 0.324716
Si Si5 0.584975 0.527119 0.699470
Si Si6 0.571317 0.579034 0.883282
Si Si7 0.034604 0.237446 0.661137
Si Si8 0.636445 0.892407 0.855749
O O1 0.932559 0.194439 0.234106
O O2 0.210841 0.138726 0.107661
O O3 0.824101 0.399554 0.969921
O O4 0.745335 0.628836 0.001699
O O5 0.340811 0.086514 0.271093
O O6 0.156525 0.310645 0.346973
O O7 0.927350 0.337481 0.300886
O O8 0.402686 0.832445 0.535176
O O9 0.005832 0.610684 0.340412
O O10 0.928353 0.403489 0.494952
O O11 0.659687 0.823090 0.203279
O O12 0.548303 0.499113 0.268098
O O13 0.000000 0.000000 0.500000
O O14 0.643399 0.484155 0.816135
O O15 0.854183 0.274703 0.720116
O O16 0.331871 0.914530 0.760461
O O17 0.500000 0.500000 0.000000
#
# Coordination Sequence:
#
# PCOD8012201 Si02
#       8
#     2   2   2   2   2   2   2   2
#     4  10  21  41  63  91 126 170 207 258 324 365
#     4  10  21  39  67  96 122 169 211 258 327 367
#     4  11  22  40  64  98 131 160 213 271 312 378
#     4   9  20  41  64  89 125 164 214 265 300 373
#     4  11  22  41  65  92 129 168 214 258 314 379
#     4  12  24  43  64  88 136 174 209 257 317 384
#     4  11  25  39  63  98 131 164 214 263 314 382
#     4  10  21  41  66  90 130 164 210 269 313 373
#
# _framework density 22.654503999999999
#
# number of rings (size 3 to 8) (size 9 to 14) (size 15 to 20)
#    0.000    1.500    5.000    0.000    1.750    1.000 
#    2.250    7.500    0.000    0.000    0.000    0.000 
#    0.000    0.000    0.000    0.000    0.000    0.000 
#
# Total GULP energy -198349.241688 kJ/mol
# GULP energy per Si atom -12396.827606 kJ/mol
# Density = 2.260294 g / cm^3
# Si number density = 22.654504 Si / 1000 Ang^3
#
#
#
# Elastic Constant Matrix: (Units=GPa)
#
#
# Indices 1 2 3 4 5 6 
#
# 1 55.7785 -2.0090 10.0894 5.0118 18.6130 -12.1123
# 2 -2.0090 46.8771 -1.2908 0.5243 8.5050 -5.7694
# 3 10.0894 -1.2908 89.9699 6.3742 13.6319 -4.7634
# 4 5.0118 0.5243 6.3742 26.6354 -4.4048 -1.2790
# 5 18.6130 8.5050 13.6319 -4.4048 39.3316 -3.4812
# 6 -12.1123 -5.7694 -4.7634 -1.2790 -3.4812 29.7204
#
#
#
# Elastic Compliance Matrix: (Units=1/GPa)
#
#
# Indices 1 2 3 4 5 6 
#
# 1 0.024921 0.004602 0.000154 -0.006477 -0.012744 0.009303
# 2 0.004602 0.023681 0.001466 -0.002666 -0.007600 0.005702
# 3 0.000154 0.001466 0.012207 -0.003714 -0.004897 0.001570
# 4 -0.006477 -0.002666 -0.003714 0.041228 0.009469 -0.000869
# 5 -0.012744 -0.007600 -0.004897 0.009469 0.035602 -0.002876
# 6 0.009303 0.005702 0.001570 -0.000869 -0.002876 0.038422
#
#
# Mechanical properties :
#
#
# Convention : Reuss Voigt Hill
#
# Bulk Modulus (GPa) = 13.65173 22.91164 18.28168
# Shear Modulus (GPa) = 26.59080 31.52654 29.05867
#
# Velocity S-wave (km/s) = 3.42972 3.73449 3.58535
# Velocity P-wave (km/s) = 4.66081 5.36010 5.02264
#
# Compressibility (1/GPa) = 0.07325078
#
# Stress axis : x y z
#
# Youngs Moduli (GPa) = 40.12750 42.22882 81.92081
#
# Poissons Ratio (x) = -0.19432 -0.01259
# Poissons Ratio (y) = -0.18465 -0.12010
# Poissons Ratio (z) = -0.00617 -0.06191
#
# Static dielectric constant tensor:
#      x y z
#    x 4.533790 -0.178130 0.380780 
#    y -0.178130 3.857170 0.190270 
#    z 0.380780 0.190270 4.684690 
# 
# 
# High freq. dielectric constant tensor:
#      x y z
#    x 1.897310 -0.020440 0.011270 
#    y -0.020440 1.860200 0.011270 
#    z 0.011270 0.011270 1.908500 
# 
# From -- ./inp_files/113402.got.cif
#   From: 2010.06.25/outbox.cif.g09.slc.cpg/sg2_57_cif.got.tgz:113402.got - 2010.06.27 13:26:56.
