data_PCOD8012305
_publ_section_title
;
Structure prediction by ZEFSAII (Michael W. Deem and Ramdas Pophale) SiO2 
 PCOD8012305
Probable space group: P -1
;
_chemical_formula_sum "Si O2"
_cell_formula_units_Z 14
_cell_length_a 8.720950
_cell_length_b 17.341793
_cell_length_c 9.371541
_cell_angle_alpha 122.874793
_cell_angle_beta 78.683858
_cell_angle_gamma 55.180545
_cell_volume 663.564251
_symmetry_space_group_name_H-M "P -1"
_symmetry_group_IT_number 2
_symmetry_cell_setting 'triclinic'
loop_
_space_group_symop_operation_xyz
x,y,z
-x,-y,-z
loop_
_atom_site_type_symbol
_atom_site_label
_atom_site_fract_x
_atom_site_fract_y
_atom_site_fract_z
Si Si1 0.584302 0.573553 0.459331
Si Si2 0.976493 0.534518 0.373408
Si Si3 0.406906 0.624016 0.241548
Si Si4 0.293865 0.342740 0.862046
Si Si5 0.037339 0.763555 0.843129
Si Si6 0.542344 0.038758 0.391935
Si Si7 0.124743 0.204925 0.395224
O O1 0.682537 0.631441 0.478925
O O2 0.562892 0.534211 0.271985
O O3 0.284610 0.717984 0.733924
O O4 0.817714 0.405826 0.335554
O O5 0.984938 0.637468 0.435646
O O6 0.000000 0.500000 0.500000
O O7 0.223143 0.366399 0.068146
O O8 0.483887 0.684108 0.220873
O O9 0.083196 0.766317 0.464108
O O10 0.500000 0.500000 0.000000
O O11 0.438473 0.188266 0.604666
O O12 0.000000 0.500000 0.000000
O O13 0.835562 0.852330 0.830794
O O14 0.863107 0.881435 0.129840
O O15 0.389555 0.072401 0.314267
O O16 0.500000 0.000000 0.500000
#
# Coordination Sequence:
#
# PCOD8012305 Si02
#       7
#     2   2   2   2   2   2   2
#     4  10  21  39  68  99 128 177 226 270 336 404
#     4  12  22  39  69 103 131 175 230 275 327 411
#     4  11  21  38  70 100 133 173 229 282 329 395
#     4  12  23  43  70  99 133 179 225 275 342 400
#     4  10  23  41  65  96 137 175 219 273 341 399
#     4  12  26  44  68  99 141 178 224 284 339 402
#     4  11  23  42  65 100 134 181 222 276 339 402
#
# _framework density 21.098182000000001
#
# number of rings (size 3 to 8) (size 9 to 14) (size 15 to 20)
#    0.000    0.857    5.714    1.286    2.000    0.000 
#    0.000    8.571    0.000    0.000    0.000    0.000 
#    0.000    0.000    0.000    0.000    0.000    0.000 
#
# Total GULP energy -173496.953476 kJ/mol
# GULP energy per Si atom -12392.639534 kJ/mol
# Density = 2.105016 g / cm^3
# Si number density = 21.098182 Si / 1000 Ang^3
#
#
#
# Elastic Constant Matrix: (Units=GPa)
#
#
# Indices 1 2 3 4 5 6 
#
# 1 147.3260 29.9413 65.1143 -6.6220 -19.3556 13.9542
# 2 29.9413 87.9388 50.9955 -14.6348 -10.5989 -3.9764
# 3 65.1143 50.9955 167.1874 -26.2587 -8.7283 2.3191
# 4 -6.6220 -14.6348 -26.2587 32.7046 7.0385 -0.8006
# 5 -19.3556 -10.5989 -8.7283 7.0385 27.8161 -6.1309
# 6 13.9542 -3.9764 2.3191 -0.8006 -6.1309 26.8073
#
#
#
# Elastic Compliance Matrix: (Units=1/GPa)
#
#
# Indices 1 2 3 4 5 6 
#
# 1 0.009409 -0.001254 -0.003369 -0.002489 0.004812 -0.003766
# 2 -0.001254 0.014954 -0.003469 0.002912 0.003916 0.004154
# 3 -0.003369 -0.003469 0.009108 0.005552 -0.002187 0.000117
# 4 -0.002489 0.002912 0.005552 0.037631 -0.008298 0.000473
# 5 0.004812 0.003916 -0.002187 -0.008298 0.043984 0.008077
# 6 -0.003766 0.004154 0.000117 0.000473 0.008077 0.041731
#
#
# Mechanical properties :
#
#
# Convention : Reuss Voigt Hill
#
# Bulk Modulus (GPa) = 57.84946 77.17269 67.51108
# Shear Modulus (GPa) = 27.96990 34.55901 31.26445
#
# Velocity S-wave (km/s) = 3.64497 4.05162 3.85366
# Velocity P-wave (km/s) = 6.72258 7.65146 7.20201
#
# Compressibility (1/GPa) = 0.01728625
#
# Stress axis : x y z
#
# Youngs Moduli (GPa) = 106.28464 66.86967 109.79616
#
# Poissons Ratio (x) = 0.08387 0.36994
# Poissons Ratio (y) = 0.13330 0.38086
# Poissons Ratio (z) = 0.35811 0.23196
#
# Static dielectric constant tensor:
#      x y z
#    x 4.907540 0.112800 1.367280 
#    y 0.112800 3.740640 0.193590 
#    z 1.367280 0.193590 6.994250 
# 
# 
# High freq. dielectric constant tensor:
#      x y z
#    x 1.840440 -0.005170 -0.011410 
#    y -0.005170 1.815130 -0.036860 
#    z -0.011410 -0.036860 1.824330 
# 
# From -- ./inp_files/185295.got.cif
#   From: 2010.06.25/outbox.cif.g09.slc.cpg/sg2_93_cif.got.tgz:185295.got - 2010.06.27 13:26:56.
