data_PCOD8012158
_publ_section_title
;
Structure prediction by ZEFSAII (Michael W. Deem and Ramdas Pophale) SiO2 
 PCOD8012158
Probable space group: P -1
;
_chemical_formula_sum "Si O2"
_cell_formula_units_Z 14
_cell_length_a 9.823445
_cell_length_b 20.449049
_cell_length_c 7.977036
_cell_angle_alpha 36.191312
_cell_angle_beta 116.318500
_cell_angle_gamma 135.508854
_cell_volume 628.267915
_symmetry_space_group_name_H-M "P -1"
_symmetry_group_IT_number 2
_symmetry_cell_setting 'triclinic'
loop_
_space_group_symop_operation_xyz
x,y,z
-x,-y,-z
loop_
_atom_site_type_symbol
_atom_site_label
_atom_site_fract_x
_atom_site_fract_y
_atom_site_fract_z
Si Si1 0.404509 0.113924 0.963081
Si Si2 0.862701 0.092903 0.482322
Si Si3 0.780607 0.612590 0.770775
Si Si4 0.271639 0.883655 0.965429
Si Si5 0.126854 0.347794 0.621622
Si Si6 0.932912 0.029445 0.169869
Si Si7 0.618595 0.439362 0.367642
O O1 0.581932 0.292811 0.691718
O O2 0.185988 0.049316 0.907498
O O3 0.498782 0.055005 0.030083
O O4 0.350269 0.051079 0.252246
O O5 0.809570 0.160724 0.178333
O O6 0.005869 0.218910 0.439228
O O7 0.983163 0.046666 0.558691
O O8 0.794123 0.561082 0.700054
O O9 0.597707 0.609993 0.679682
O O10 0.749973 0.512089 0.116512
O O11 0.252236 0.005867 0.746786
O O12 0.109481 0.732381 0.301785
O O13 0.272764 0.450922 0.641463
O O14 0.122318 0.210052 0.885271
#
# Coordination Sequence:
#
# PCOD8012158 Si02
#       7
#     2   2   2   2   2   2   2
#     4  12  23  41  66  95 130 170 216 266 327 382
#     4  12  20  42  67  97 124 174 217 268 317 387
#     4  11  21  41  67  95 128 171 215 272 322 379
#     4  10  24  39  65  95 135 165 214 269 325 384
#     4  10  22  41  63  94 133 168 210 268 329 378
#     4  10  21  39  67  89 126 167 218 262 315 379
#     4  11  24  40  65  97 131 165 220 269 322 383
#
# _framework density 22.283486
#
# number of rings (size 3 to 8) (size 9 to 14) (size 15 to 20)
#    0.857    0.286    4.286    3.000    0.000    0.571 
#    2.571    0.714    0.000    0.000    0.000    0.000 
#    0.000    0.000    0.000    0.000    0.000    0.000 
#
# Total GULP energy -173441.394117 kJ/mol
# GULP energy per Si atom -12388.671008 kJ/mol
# Density = 2.223277 g / cm^3
# Si number density = 22.283486 Si / 1000 Ang^3
#
#
#
# Elastic Constant Matrix: (Units=GPa)
#
#
# Indices 1 2 3 4 5 6 
#
# 1 87.1412 -14.7293 46.0535 10.4269 -19.9200 1.5159
# 2 -14.7293 45.3282 39.4417 5.4391 -13.8945 -13.2196
# 3 46.0535 39.4417 115.2895 0.3861 -30.2488 -8.5210
# 4 10.4269 5.4391 0.3861 31.3635 -7.7724 -2.8552
# 5 -19.9200 -13.8945 -30.2488 -7.7724 28.1026 3.0930
# 6 1.5159 -13.2196 -8.5210 -2.8552 3.0930 28.7934
#
#
#
# Elastic Compliance Matrix: (Units=1/GPa)
#
#
# Indices 1 2 3 4 5 6 
#
# 1 0.036083 0.040845 -0.023785 -0.014342 0.015463 0.006731
# 2 0.040845 0.082980 -0.037372 -0.020213 0.021903 0.020530
# 3 -0.023785 -0.037372 0.031246 0.014200 0.002834 -0.005556
# 4 -0.014342 -0.020213 0.014200 0.041565 0.006722 -0.000923
# 5 0.015463 0.021903 0.002834 0.006722 0.061831 0.004105
# 6 0.006731 0.020530 -0.005556 -0.000923 0.004105 0.041625
#
#
# Mechanical properties :
#
#
# Convention : Reuss Voigt Hill
#
# Bulk Modulus (GPa) = 9.11704 43.25450 26.18577
# Shear Modulus (GPa) = 13.42227 29.45143 21.43685
#
# Velocity S-wave (km/s) = 2.45693 3.63942 3.10499
# Velocity P-wave (km/s) = 3.48553 6.09210 4.96299
#
# Compressibility (1/GPa) = 0.10968473
#
# Stress axis : x y z
#
# Youngs Moduli (GPa) = 27.71350 12.05115 32.00444
#
# Poissons Ratio (x) = -0.49223 0.76122
# Poissons Ratio (y) = -1.13196 1.19608
# Poissons Ratio (z) = 0.65916 0.45038
#
# Static dielectric constant tensor:
#      x y z
#    x 3.820570 -0.072390 -0.214040 
#    y -0.072390 3.898210 0.108560 
#    z -0.214040 0.108560 3.881560 
# 
# 
# High freq. dielectric constant tensor:
#      x y z
#    x 1.864510 -0.004470 -0.023690 
#    y -0.004470 1.879110 0.010370 
#    z -0.023690 0.010370 1.856550 
# 
# From -- ./inp_files/220322.got.cif
#   From: 2010.06.25/outbox.cif.g09.slc.cpg/sg2_111_cif.got.tgz:220322.got - 2010.06.27 13:26:56.
