data_PCOD8012402
_publ_section_title
;
Structure prediction by ZEFSAII (Michael W. Deem and Ramdas Pophale) SiO2 
 PCOD8012402
Probable space group: P -1
;
_chemical_formula_sum "Si O2"
_cell_formula_units_Z 16
_cell_length_a 10.214276
_cell_length_b 9.912574
_cell_length_c 15.562472
_cell_angle_alpha 43.952295
_cell_angle_beta 84.494944
_cell_angle_gamma 113.581666
_cell_volume 799.130113
_symmetry_space_group_name_H-M "P -1"
_symmetry_group_IT_number 2
_symmetry_cell_setting 'triclinic'
loop_
_space_group_symop_operation_xyz
x,y,z
-x,-y,-z
loop_
_atom_site_type_symbol
_atom_site_label
_atom_site_fract_x
_atom_site_fract_y
_atom_site_fract_z
Si Si1 0.466170 0.997869 0.362718
Si Si2 0.718633 0.016815 0.457776
Si Si3 0.304539 0.507686 0.006156
Si Si4 0.616926 0.940309 0.056183
Si Si5 0.802273 0.359279 0.597473
Si Si6 0.340749 0.170376 0.069451
Si Si7 0.273098 0.425438 0.358395
Si Si8 0.887512 0.510899 0.822211
O O1 0.571001 0.940721 0.435104
O O2 0.606634 0.260296 0.176098
O O3 0.355714 0.028396 0.420122
O O4 0.320864 0.735836 0.435095
O O5 0.904356 0.317475 0.291064
O O6 0.763837 0.838833 0.519392
O O7 0.451161 0.591855 0.028885
O O8 0.230693 0.239203 0.086286
O O9 0.139686 0.431717 0.105694
O O10 0.484433 0.683674 0.242701
O O11 0.681260 0.850223 0.021916
O O12 0.500000 0.000000 0.000000
O O13 0.790021 0.201985 0.972705
O O14 0.822060 0.574954 0.553087
O O15 0.000000 0.500000 0.500000
O O16 0.719460 0.102325 0.774642
O O17 0.198108 0.437453 0.268738
#
# Coordination Sequence:
#
# PCOD8012402 Si02
#       8
#     2   2   2   2   2   2   2   2
#     4  10  24  44  58  82 123 168 194 236 308 365
#     4  11  25  41  61  82 125 167 200 240 295 363
#     4  10  20  34  61  87 117 151 201 243 299 353
#     4  10  16  33  55  83 116 145 185 240 302 338
#     4  11  22  35  60  89 120 148 195 250 299 352
#     4  10  18  32  55  87 116 149 180 247 304 345
#     4  11  21  37  62  92 118 154 196 248 303 353
#     4  11  21  36  62  95 117 148 204 258 289 345
#
# _framework density 20.021771000000001
#
# number of rings (size 3 to 8) (size 9 to 14) (size 15 to 20)
#    0.000    1.500    5.000    2.625    5.250    1.000 
#    0.000    0.000    2.750    2.250    0.000    0.000 
#    0.000    0.000    0.000    0.000    0.000    0.000 
#
# Total GULP energy -198322.453010 kJ/mol
# GULP energy per Si atom -12395.153313 kJ/mol
# Density = 1.997620 g / cm^3
# Si number density = 20.021771 Si / 1000 Ang^3
#
#
#
# Elastic Constant Matrix: (Units=GPa)
#
#
# Indices 1 2 3 4 5 6 
#
# 1 53.5572 36.1396 29.4624 11.1546 -15.1678 -2.6172
# 2 36.1396 114.8750 33.2319 24.2073 -13.4658 -26.7231
# 3 29.4624 33.2319 71.4581 15.1617 -23.7197 1.5299
# 4 11.1546 24.2073 15.1617 37.5593 -0.2558 -8.7025
# 5 -15.1678 -13.4658 -23.7197 -0.2558 25.9438 2.1813
# 6 -2.6172 -26.7231 1.5299 -8.7025 2.1813 27.6700
#
#
#
# Elastic Compliance Matrix: (Units=1/GPa)
#
#
# Indices 1 2 3 4 5 6 
#
# 1 0.029362 -0.007465 -0.004630 -0.003362 0.009528 -0.005984
# 2 -0.007465 0.016192 -0.004562 -0.003067 -0.001365 0.014327
# 3 -0.004630 -0.004562 0.026884 -0.008884 0.020319 -0.010726
# 4 -0.003362 -0.003067 -0.008884 0.035247 -0.012110 0.009251
# 5 0.009528 -0.001365 0.020319 -0.012110 0.062730 -0.010295
# 6 -0.005984 0.014327 -0.010726 0.009251 -0.010295 0.053726
#
#
# Mechanical properties :
#
#
# Convention : Reuss Voigt Hill
#
# Bulk Modulus (GPa) = 25.55913 48.61758 37.08836
# Shear Modulus (GPa) = 18.48457 27.63838 23.06147
#
# Velocity S-wave (km/s) = 3.04176 3.71943 3.39753
# Velocity P-wave (km/s) = 5.01296 6.54069 5.82711
#
# Compressibility (1/GPa) = 0.03912496
#
# Stress axis : x y z
#
# Youngs Moduli (GPa) = 34.05755 61.75716 37.19693
#
# Poissons Ratio (x) = 0.46099 0.17224
# Poissons Ratio (y) = 0.25422 0.16969
# Poissons Ratio (z) = 0.15770 0.28173
#
# Static dielectric constant tensor:
#      x y z
#    x 3.237590 -0.123530 -0.219070 
#    y -0.123530 4.097350 -0.014220 
#    z -0.219070 -0.014220 3.708470 
# 
# 
# High freq. dielectric constant tensor:
#      x y z
#    x 1.734940 -0.016830 -0.019240 
#    y -0.016830 1.796010 0.004650 
#    z -0.019240 0.004650 1.783330 
# 
# From -- ./inp_files/354574.got.cif
#   From: 2010.06.25/outbox.cif.g09.slc.cpg/sg2_178_cif.got.tgz:354574.got - 2010.06.27 13:26:56.
