data_PCOD8012992
_publ_section_title
;
Structure prediction by ZEFSAII (Michael W. Deem and Ramdas Pophale) SiO2 
 PCOD8012992
Probable space group: P -1
;
_chemical_formula_sum "Si O2"
_cell_formula_units_Z 14
_cell_length_a 7.309921
_cell_length_b 17.147828
_cell_length_c 8.676059
_cell_angle_alpha 61.887210
_cell_angle_beta 125.698645
_cell_angle_gamma 133.742410
_cell_volume 633.794306
_symmetry_space_group_name_H-M "P -1"
_symmetry_group_IT_number 2
_symmetry_cell_setting 'triclinic'
loop_
_space_group_symop_operation_xyz
x,y,z
-x,-y,-z
loop_
_atom_site_type_symbol
_atom_site_label
_atom_site_fract_x
_atom_site_fract_y
_atom_site_fract_z
Si Si1 0.809436 0.781595 0.546100
Si Si2 0.963225 0.331540 0.402826
Si Si3 0.646651 0.895499 0.138999
Si Si4 0.213827 0.552831 0.191406
Si Si5 0.428209 0.259560 0.008978
Si Si6 0.912584 0.141041 0.067851
Si Si7 0.812777 0.378237 0.578521
O O1 0.952060 0.746316 0.531567
O O2 0.781914 0.867826 0.364764
O O3 0.513911 0.676548 0.554867
O O4 0.011174 0.842431 0.730911
O O5 0.212183 0.457795 0.365741
O O6 0.686586 0.301285 0.209085
O O7 0.901224 0.315566 0.572363
O O8 0.828476 0.023920 0.083366
O O9 0.638477 0.845166 0.017841
O O10 0.338653 0.848615 0.090986
O O11 0.139269 0.616025 0.217349
O O12 0.507249 0.646745 0.170645
O O13 0.000000 0.500000 0.000000
O O14 0.167888 0.232162 0.005557
O O15 0.000000 0.500000 0.500000
#
# Coordination Sequence:
#
# PCOD8012992 Si02
#       7
#     2   2   2   2   2   2   2
#     4  12  23  44  69  98 136 176 218 280 337 397
#     4  10  22  40  68  97 136 174 215 275 332 395
#     4  11  25  45  66  99 131 174 236 275 334 394
#     4   9  20  39  65  97 135 169 219 266 321 408
#     4  11  20  44  66  96 134 174 222 273 335 392
#     4  11  25  45  70  93 135 178 223 288 329 389
#     4  10  21  40  64  96 133 176 220 262 328 400
#
# _framework density 22.089185000000001
#
# number of rings (size 3 to 8) (size 9 to 14) (size 15 to 20)
#    0.000    1.429    4.286    0.857    0.000    3.429 
#    2.571    1.429    0.000    0.000    0.000    0.000 
#    0.000    0.000    0.000    0.000    0.000    0.000 
#
# Total GULP energy -173527.653871 kJ/mol
# GULP energy per Si atom -12394.832419 kJ/mol
# Density = 2.203891 g / cm^3
# Si number density = 22.089185 Si / 1000 Ang^3
#
#
#
# Elastic Constant Matrix: (Units=GPa)
#
#
# Indices 1 2 3 4 5 6 
#
# 1 151.3204 34.2860 52.3373 1.9844 -18.0537 0.3587
# 2 34.2860 61.9824 21.4201 13.6526 -7.7276 -1.3654
# 3 52.3373 21.4201 82.8793 0.2631 -16.4609 -5.6305
# 4 1.9844 13.6526 0.2631 30.1900 -7.0625 -7.5952
# 5 -18.0537 -7.7276 -16.4609 -7.0625 38.8728 7.1455
# 6 0.3587 -1.3654 -5.6305 -7.5952 7.1455 41.6355
#
#
#
# Elastic Compliance Matrix: (Units=1/GPa)
#
#
# Indices 1 2 3 4 5 6 
#
# 1 0.009227 -0.003578 -0.004562 0.001297 0.002048 -0.000929
# 2 -0.003578 0.021384 -0.003410 -0.009862 -0.000378 -0.001463
# 3 -0.004562 -0.003410 0.016862 0.003272 0.004566 0.002021
# 4 0.001297 -0.009862 0.003272 0.040542 0.006210 0.006438
# 5 0.002048 -0.000378 0.004566 0.006210 0.030303 -0.003480
# 6 -0.000929 -0.001463 0.002021 0.006438 -0.003480 0.026023
#
#
# Mechanical properties :
#
#
# Convention : Reuss Voigt Hill
#
# Bulk Modulus (GPa) = 41.03099 56.91878 48.97488
# Shear Modulus (GPa) = 28.47936 34.68224 31.58080
#
# Velocity S-wave (km/s) = 3.59456 3.96675 3.78523
# Velocity P-wave (km/s) = 5.98693 6.84133 6.42834
#
# Compressibility (1/GPa) = 0.02437182
#
# Stress axis : x y z
#
# Youngs Moduli (GPa) = 108.38133 46.76330 59.30483
#
# Poissons Ratio (x) = 0.16731 0.27056
# Poissons Ratio (y) = 0.38778 0.20226
# Poissons Ratio (z) = 0.49446 0.15948
#
# Static dielectric constant tensor:
#      x y z
#    x 4.241840 0.053880 -0.432750 
#    y 0.053880 4.267280 0.184860 
#    z -0.432750 0.184860 4.048210 
# 
# 
# High freq. dielectric constant tensor:
#      x y z
#    x 1.874840 -0.000910 -0.022650 
#    y -0.000910 1.877430 0.016630 
#    z -0.022650 0.016630 1.860200 
# 
# From -- ./inp_files/43831.got.cif
#   From: 2010.06.25/outbox.cif.g09.slc.cpg/sg2_22_cif.got.tgz:43831.got - 2010.06.27 13:26:56.
