data_PCOD8012006
_publ_section_title
;
Structure prediction by ZEFSAII (Michael W. Deem and Ramdas Pophale) SiO2 
 PCOD8012006
Probable space group: P -1
;
_chemical_formula_sum "Si O2"
_cell_formula_units_Z 16
_cell_length_a 11.149264
_cell_length_b 15.136736
_cell_length_c 9.640988
_cell_angle_alpha 95.732968
_cell_angle_beta 139.629408
_cell_angle_gamma 58.350631
_cell_volume 752.869530
_symmetry_space_group_name_H-M "P -1"
_symmetry_group_IT_number 2
_symmetry_cell_setting 'triclinic'
loop_
_space_group_symop_operation_xyz
x,y,z
-x,-y,-z
loop_
_atom_site_type_symbol
_atom_site_label
_atom_site_fract_x
_atom_site_fract_y
_atom_site_fract_z
Si Si1 0.826573 0.366396 0.514868
Si Si2 0.439079 0.767891 0.104824
Si Si3 0.549502 0.753733 0.653190
Si Si4 0.070347 0.224795 0.966046
Si Si5 0.999271 0.406317 0.410292
Si Si6 0.552004 0.360645 0.671244
Si Si7 0.028226 0.035132 0.881314
Si Si8 0.579051 0.634991 0.917885
O O1 0.063754 0.260996 0.806439
O O2 0.913386 0.359157 0.434291
O O3 0.678006 0.497518 0.473025
O O4 0.657142 0.335298 0.355860
O O5 0.337761 0.720569 0.103152
O O6 0.710421 0.712249 0.401926
O O7 0.486493 0.719789 0.983588
O O8 0.232637 0.915682 0.946773
O O9 0.573146 0.674182 0.539424
O O10 0.673783 0.672969 0.891747
O O11 0.246562 0.877473 0.425053
O O12 0.711660 0.789254 0.765780
O O13 0.787644 0.334248 0.802676
O O14 0.136011 0.098618 0.008982
O O15 0.000000 0.500000 0.500000
O O16 0.796530 0.486704 0.118460
O O17 0.000000 0.000000 0.000000
#
# Coordination Sequence:
#
# PCOD8012006 Si02
#       8
#     2   2   2   2   2   2   2   2
#     4  12  22  44  64 103 144 175 219 280 338 400
#     4  11  23  45  68  96 135 182 220 277 335 395
#     4  11  25  45  69 101 132 183 222 283 333 391
#     4  11  24  43  69 102 132 177 229 274 336 397
#     4  10  21  39  65  95 135 176 218 267 332 408
#     4  11  23  43  66 101 137 172 221 281 334 393
#     4  11  23  50  69  93 142 171 228 286 323 399
#     4  11  23  43  67 100 143 175 223 275 339 402
#
# _framework density 21.252022
#
# number of rings (size 3 to 8) (size 9 to 14) (size 15 to 20)
#    0.000    1.000    7.500    2.250    0.000    2.500 
#    2.250    1.250    0.000    0.000    0.000    0.000 
#    0.000    0.000    0.000    0.000    0.000    0.000 
#
# Total GULP energy -198369.938193 kJ/mol
# GULP energy per Si atom -12398.121137 kJ/mol
# Density = 2.120365 g / cm^3
# Si number density = 21.252022 Si / 1000 Ang^3
#
#
#
# Elastic Constant Matrix: (Units=GPa)
#
#
# Indices 1 2 3 4 5 6 
#
# 1 86.5397 37.3508 38.0069 -1.0032 3.4616 16.4910
# 2 37.3508 105.2261 35.8907 -5.8393 7.3949 0.0546
# 3 38.0069 35.8907 78.3681 2.4904 11.0770 1.4175
# 4 -1.0032 -5.8393 2.4904 37.4262 9.2967 5.7447
# 5 3.4616 7.3949 11.0770 9.2967 43.7710 1.3325
# 6 16.4910 0.0546 1.4175 5.7447 1.3325 38.9653
#
#
#
# Elastic Compliance Matrix: (Units=1/GPa)
#
#
# Indices 1 2 3 4 5 6 
#
# 1 0.017623 -0.003938 -0.006783 0.001210 0.000957 -0.007417
# 2 -0.003938 0.012364 -0.003657 0.002173 -0.001359 0.001509
# 3 -0.006783 -0.003657 0.018179 -0.001561 -0.003193 0.002554
# 4 0.001210 0.002173 -0.001561 0.029434 -0.006180 -0.004586
# 5 0.000957 -0.001359 -0.003193 -0.006180 0.025128 -0.000235
# 6 -0.007417 0.001509 0.002554 -0.004586 -0.000235 0.029392
#
#
# Mechanical properties :
#
#
# Convention : Reuss Voigt Hill
#
# Bulk Modulus (GPa) = 51.51744 54.73675 53.12710
# Shear Modulus (GPa) = 29.87830 34.62486 32.25158
#
# Velocity S-wave (km/s) = 3.75361 4.04078 3.89984
# Velocity P-wave (km/s) = 6.56353 6.89800 6.73284
#
# Compressibility (1/GPa) = 0.01941090
#
# Stress axis : x y z
#
# Youngs Moduli (GPa) = 56.74303 80.88154 55.00818
#
# Poissons Ratio (x) = 0.31853 0.37311
# Poissons Ratio (y) = 0.22347 0.20114
# Poissons Ratio (z) = 0.38488 0.29575
#
# Static dielectric constant tensor:
#      x y z
#    x 4.154950 0.113950 -0.122160 
#    y 0.113950 3.812200 -0.252710 
#    z -0.122160 -0.252710 4.479460 
# 
# 
# High freq. dielectric constant tensor:
#      x y z
#    x 1.842890 0.013220 -0.003660 
#    y 0.013220 1.817450 -0.001860 
#    z -0.003660 -0.001860 1.832270 
# 
# From -- ./inp_files/273514.got.cif
#   From: 2010.06.25/outbox.cif.g09.slc.cpg/sg2_137_cif.got.tgz:273514.got - 2010.06.27 13:26:56.
