data_PCOD8012582
_publ_section_title
;
Structure prediction by ZEFSAII (Michael W. Deem and Ramdas Pophale) SiO2 
 PCOD8012582
Probable space group: P -1
;
_chemical_formula_sum "Si O2"
_cell_formula_units_Z 16
_cell_length_a 15.676209
_cell_length_b 8.945265
_cell_length_c 12.896384
_cell_angle_alpha 113.773820
_cell_angle_beta 152.046003
_cell_angle_gamma 75.256795
_cell_volume 753.716548
_symmetry_space_group_name_H-M "P -1"
_symmetry_group_IT_number 2
_symmetry_cell_setting 'triclinic'
loop_
_space_group_symop_operation_xyz
x,y,z
-x,-y,-z
loop_
_atom_site_type_symbol
_atom_site_label
_atom_site_fract_x
_atom_site_fract_y
_atom_site_fract_z
Si Si1 0.060866 0.350608 0.582746
Si Si2 0.848049 0.567473 0.640121
Si Si3 0.222694 0.456560 0.994025
Si Si4 0.306534 0.755334 0.726121
Si Si5 0.263073 0.127793 0.067212
Si Si6 0.883985 0.861330 0.606887
Si Si7 0.547957 0.970936 0.207179
Si Si8 0.570513 0.631120 0.522816
O O1 0.220853 0.432032 0.860687
O O2 0.134581 0.233311 0.549465
O O3 0.000000 0.500000 0.500000
O O4 0.889610 0.234197 0.429761
O O5 0.704104 0.435437 0.375422
O O6 0.907296 0.744077 0.694491
O O7 0.750647 0.588973 0.649701
O O8 0.031993 0.499201 0.842049
O O9 0.249745 0.287322 0.028778
O O10 0.398102 0.614042 0.252091
O O11 0.338423 0.870699 0.691187
O O12 0.470405 0.815254 0.002520
O O13 0.366234 0.186295 0.304257
O O14 0.377085 0.013551 0.097582
O O15 0.057336 0.020078 0.840325
O O16 0.691512 0.921580 0.429263
O O17 0.500000 0.500000 0.500000
#
# Coordination Sequence:
#
# PCOD8012582 Si02
#       8
#     2   2   2   2   2   2   2   2
#     4  11  21  40  65  97 137 168 207 263 328 388
#     4  11  24  43  65 100 125 166 222 260 323 385
#     4  10  23  42  71  94 126 172 216 269 314 379
#     4  10  21  40  61  92 133 167 216 266 308 389
#     4  11  25  45  64  95 133 169 220 265 319 376
#     4  12  25  39  65  98 135 173 202 267 331 384
#     4  11  25  39  62  97 133 171 215 262 320 384
#     4  10  24  44  70  92 125 172 221 272 309 373
#
# _framework density 21.22814
#
# number of rings (size 3 to 8) (size 9 to 14) (size 15 to 20)
#    0.000    1.250    3.750    3.000    5.250    7.000 
#    0.000    1.250    0.000    0.000    0.000    0.000 
#    0.000    0.000    0.000    0.000    0.000    0.000 
#
# Total GULP energy -198417.030800 kJ/mol
# GULP energy per Si atom -12401.064425 kJ/mol
# Density = 2.117982 g / cm^3
# Si number density = 21.228140 Si / 1000 Ang^3
#
#
#
# Elastic Constant Matrix: (Units=GPa)
#
#
# Indices 1 2 3 4 5 6 
#
# 1 96.2741 7.3183 22.8622 -0.3601 -7.1652 -8.6487
# 2 7.3183 66.6376 38.3116 0.7952 -9.2929 -8.9752
# 3 22.8622 38.3116 137.5843 6.6667 -19.5056 -6.9075
# 4 -0.3601 0.7952 6.6667 22.1576 -9.1755 -2.7834
# 5 -7.1652 -9.2929 -19.5056 -9.1755 31.7781 -2.0101
# 6 -8.6487 -8.9752 -6.9075 -2.7834 -2.0101 20.5280
#
#
#
# Elastic Compliance Matrix: (Units=1/GPa)
#
#
# Indices 1 2 3 4 5 6 
#
# 1 0.011390 0.000707 -0.001541 0.002466 0.002870 0.005205
# 2 0.000707 0.019254 -0.004607 0.003592 0.004511 0.008095
# 3 -0.001541 -0.004607 0.009441 -0.001008 0.003857 0.000754
# 4 0.002466 0.003592 -0.001008 0.053912 0.017267 0.011271
# 5 0.002870 0.004511 0.003857 0.017267 0.041476 0.010882
# 6 0.005205 0.008095 0.000754 0.011271 0.010882 0.057293
#
#
# Mechanical properties :
#
#
# Convention : Reuss Voigt Hill
#
# Bulk Modulus (GPa) = 34.24372 48.60892 41.42632
# Shear Modulus (GPa) = 23.43225 30.35965 26.89595
#
# Velocity S-wave (km/s) = 3.32600 3.78585 3.56335
# Velocity P-wave (km/s) = 5.56021 6.48523 6.04046
#
# Compressibility (1/GPa) = 0.02920243
#
# Stress axis : x y z
#
# Youngs Moduli (GPa) = 87.80000 51.93708 105.92506
#
# Poissons Ratio (x) = -0.03671 0.16319
# Poissons Ratio (y) = -0.06205 0.48800
# Poissons Ratio (z) = 0.13527 0.23927
#
# Static dielectric constant tensor:
#      x y z
#    x 4.008420 -0.097330 -0.231580 
#    y -0.097330 3.686460 0.266440 
#    z -0.231580 0.266440 4.355180 
# 
# 
# High freq. dielectric constant tensor:
#      x y z
#    x 1.834680 -0.001860 0.001990 
#    y -0.001860 1.816690 0.012060 
#    z 0.001990 0.012060 1.843210 
# 
# From -- ./inp_files/447711.got.cif
#   From: 2010.06.25/outbox.cif.g09.slc.cpg/sg2_224_cif.got.tgz:447711.got - 2010.06.27 13:26:56.
