data_PCOD8012840
_publ_section_title
;
Structure prediction by ZEFSAII (Michael W. Deem and Ramdas Pophale) SiO2 
 PCOD8012840
Probable space group: P -1
;
_chemical_formula_sum "Si O2"
_cell_formula_units_Z 10
_cell_length_a 6.650377
_cell_length_b 24.564324
_cell_length_c 5.205425
_cell_angle_alpha 126.339499
_cell_angle_beta 68.056288
_cell_angle_gamma 140.661308
_cell_volume 428.215067
_symmetry_space_group_name_H-M "P -1"
_symmetry_group_IT_number 2
_symmetry_cell_setting 'triclinic'
loop_
_space_group_symop_operation_xyz
x,y,z
-x,-y,-z
loop_
_atom_site_type_symbol
_atom_site_label
_atom_site_fract_x
_atom_site_fract_y
_atom_site_fract_z
Si Si1 0.688151 0.066131 0.845106
Si Si2 0.264015 0.764254 0.723659
Si Si3 0.406342 0.214777 0.873788
Si Si4 0.751903 0.547242 0.238691
Si Si5 0.259260 0.578043 0.801421
O O1 0.036261 0.111074 0.808491
O O2 0.500000 0.000000 0.500000
O O3 0.743472 0.157932 0.074562
O O4 0.500000 0.000000 0.000000
O O5 0.501986 0.791940 0.468219
O O6 0.897740 0.652411 0.552273
O O7 0.380784 0.770837 0.969174
O O8 0.460364 0.308735 0.122999
O O9 0.587817 0.460053 0.289226
O O10 0.500000 0.500000 0.000000
O O11 0.071934 0.577480 0.105424
O O12 0.000000 0.500000 0.500000
#
# Coordination Sequence:
#
# PCOD8012840 Si02
#       5
#     2   2   2   2   2
#     4  12  28  47  72 101 131 179 238 294 348 398
#     4  11  25  45  69 103 136 184 231 274 354 412
#     4  11  25  45  72  99 144 178 224 289 338 416
#     4  10  23  38  64  99 139 181 223 273 331 415
#     4  10  21  40  63  97 137 178 218 266 344 406
#
# _framework density 23.352751999999999
#
# number of rings (size 3 to 8) (size 9 to 14) (size 15 to 20)
#    0.000    1.200    2.000    2.400    2.800   10.400 
#    0.000    0.000    0.000    0.000    0.000    0.000 
#    0.000    0.000    0.000    0.000    0.000    0.000 
#
# Total GULP energy -123988.904658 kJ/mol
# GULP energy per Si atom -12398.890466 kJ/mol
# Density = 2.329960 g / cm^3
# Si number density = 23.352752 Si / 1000 Ang^3
#
#
#
# Elastic Constant Matrix: (Units=GPa)
#
#
# Indices 1 2 3 4 5 6 
#
# 1 119.3973 33.2969 31.3836 22.6469 11.0515 -28.3459
# 2 33.2969 135.3888 35.6396 11.0515 8.0701 -4.5421
# 3 31.3836 35.6396 112.8472 21.4337 7.2674 -9.4132
# 4 22.6469 11.0515 21.4337 37.7240 -3.0242 5.4597
# 5 11.0515 8.0701 7.2674 -3.0242 51.3503 6.0410
# 6 -28.3459 -4.5421 -9.4132 5.4597 6.0410 46.5716
#
#
#
# Elastic Compliance Matrix: (Units=1/GPa)
#
#
# Indices 1 2 3 4 5 6 
#
# 1 0.013315 -0.001887 -0.000355 -0.008937 -0.004155 0.009435
# 2 -0.001887 0.008430 -0.002149 -0.000060 -0.000538 -0.000684
# 3 -0.000355 -0.002149 0.011134 -0.006033 -0.001843 0.002771
# 4 -0.008937 -0.000060 -0.006033 0.037554 0.006398 -0.011897
# 5 -0.004155 -0.000538 -0.001843 0.006398 0.021860 -0.006540
# 6 0.009435 -0.000684 0.002771 -0.011897 -0.006540 0.029951
#
#
# Mechanical properties :
#
#
# Convention : Reuss Voigt Hill
#
# Bulk Modulus (GPa) = 41.49761 63.14148 52.31955
# Shear Modulus (GPa) = 35.95630 44.95008 40.45319
#
# Velocity S-wave (km/s) = 3.92816 4.39205 4.16657
# Velocity P-wave (km/s) = 6.19535 7.26753 6.75275
#
# Compressibility (1/GPa) = 0.02409777
#
# Stress axis : x y z
#
# Youngs Moduli (GPa) = 75.10479 118.62575 89.81134
#
# Poissons Ratio (x) = 0.22390 0.03185
# Poissons Ratio (y) = 0.14176 0.19296
# Poissons Ratio (z) = 0.02664 0.25487
#
# Static dielectric constant tensor:
#      x y z
#    x 1.635170 1.967550 0.516830 
#    y 1.967550 2.757360 -0.536910 
#    z 0.516830 -0.536910 4.230760 
# 
# 
# High freq. dielectric constant tensor:
#      x y z
#    x 1.932410 -0.004210 -0.008670 
#    y -0.004210 1.945110 0.001810 
#    z -0.008670 0.001810 1.934850 
# 
# From -- ./inp_files/1626.got.cif
#   From: 2010.06.25/outbox.cif.g09.slc.cpg/sg2_1_cif.got.tgz:1626.got - 2010.06.27 13:26:56.
