data_PCOD8012606
_publ_section_title
;
Structure prediction by ZEFSAII (Michael W. Deem and Ramdas Pophale) SiO2 
 PCOD8012606
Probable space group: P -1
;
_chemical_formula_sum "Si O2"
_cell_formula_units_Z 14
_cell_length_a 19.609470
_cell_length_b 7.767562
_cell_length_c 10.689083
_cell_angle_alpha 98.551318
_cell_angle_beta 40.947130
_cell_angle_gamma 66.557512
_cell_volume 650.767586
_symmetry_space_group_name_H-M "P -1"
_symmetry_group_IT_number 2
_symmetry_cell_setting 'triclinic'
loop_
_space_group_symop_operation_xyz
x,y,z
-x,-y,-z
loop_
_atom_site_type_symbol
_atom_site_label
_atom_site_fract_x
_atom_site_fract_y
_atom_site_fract_z
Si Si1 0.168052 0.889429 0.782649
Si Si2 0.875761 0.265995 0.615780
Si Si3 0.659748 0.748382 0.669009
Si Si4 0.007134 0.348911 0.244200
Si Si5 0.677690 0.343052 0.698007
Si Si6 0.735877 0.711620 0.049064
Si Si7 0.382147 0.307215 0.541390
O O1 0.234482 0.887261 0.557956
O O2 0.308100 0.592730 0.634532
O O3 0.124030 0.117493 0.948314
O O4 0.000000 0.000000 0.000000
O O5 0.775091 0.246118 0.681264
O O6 0.989127 0.227812 0.361646
O O7 0.749517 0.556281 0.899702
O O8 0.000000 0.000000 0.500000
O O9 0.683205 0.513737 0.630637
O O10 0.635946 0.808028 0.560247
O O11 0.821192 0.645290 0.481772
O O12 0.500000 0.000000 0.000000
O O13 0.091214 0.407997 0.194129
O O14 0.500000 0.500000 0.000000
O O15 0.718828 0.629505 0.192776
O O16 0.581166 0.048642 0.273592
#
# Coordination Sequence:
#
# PCOD8012606 Si02
#       7
#     2   2   2   2   2   2   2
#     4  11  20  43  69  88 127 166 220 266 314 370
#     4  11  23  40  62  88 132 166 205 263 317 379
#     4  10  21  40  62  85 126 165 209 268 313 363
#     4  11  23  40  64  95 122 171 218 263 313 387
#     4  10  23  39  64  93 117 160 216 262 310 370
#     4  11  25  39  61  96 132 165 212 253 331 391
#     4  10  22  41  61  88 131 169 203 270 320 375
#
# _framework density 21.513055999999999
#
# number of rings (size 3 to 8) (size 9 to 14) (size 15 to 20)
#    0.000    1.429    4.286    3.000    0.000    8.000 
#    0.000    0.000    0.000    0.000    0.000    0.000 
#    0.000    0.000    0.000    0.000    0.000    0.000 
#
# Total GULP energy -173520.649807 kJ/mol
# GULP energy per Si atom -12394.332129 kJ/mol
# Density = 2.146409 g / cm^3
# Si number density = 21.513056 Si / 1000 Ang^3
#
#
#
# Elastic Constant Matrix: (Units=GPa)
#
#
# Indices 1 2 3 4 5 6 
#
# 1 110.2809 40.9432 58.8286 -9.1362 -4.0754 -27.2184
# 2 40.9432 48.9513 31.8794 5.6966 -3.7071 -22.6461
# 3 58.8286 31.8794 150.8934 -6.8637 5.8786 -17.4597
# 4 -9.1362 5.6966 -6.8637 38.2979 -0.3478 3.3288
# 5 -4.0754 -3.7071 5.8786 -0.3478 49.8812 -3.2216
# 6 -27.2184 -22.6461 -17.4597 3.3288 -3.2216 26.4566
#
#
#
# Elastic Compliance Matrix: (Units=1/GPa)
#
#
# Indices 1 2 3 4 5 6 
#
# 1 0.016159 -0.008326 -0.003640 0.003864 0.001597 0.006803
# 2 -0.008326 0.045400 -0.003609 -0.011950 0.004975 0.030022
# 3 -0.003640 -0.003609 0.008771 0.001349 -0.001682 -0.001420
# 4 0.003864 -0.011950 0.001349 0.029847 -0.001121 -0.009256
# 5 0.001597 0.004975 -0.001682 -0.001121 0.021224 0.007517
# 6 0.006803 0.030022 -0.001420 -0.009256 0.007517 0.071638
#
#
# Mechanical properties :
#
#
# Convention : Reuss Voigt Hill
#
# Bulk Modulus (GPa) = 25.52371 63.71422 44.61896
# Shear Modulus (GPa) = 21.07492 34.82542 27.95017
#
# Velocity S-wave (km/s) = 3.13331 4.02780 3.60838
# Velocity P-wave (km/s) = 4.99802 7.16322 6.17624
#
# Compressibility (1/GPa) = 0.03917926
#
# Stress axis : x y z
#
# Youngs Moduli (GPa) = 61.88497 22.02659 114.00755
#
# Poissons Ratio (x) = 0.18340 0.41499
# Poissons Ratio (y) = 0.51528 0.41145
# Poissons Ratio (z) = 0.22526 0.07949
#
# Static dielectric constant tensor:
#      x y z
#    x 4.492810 -0.243640 0.299710 
#    y -0.243640 3.720560 -0.038860 
#    z 0.299710 -0.038860 3.949610 
# 
# 
# High freq. dielectric constant tensor:
#      x y z
#    x 1.847590 -0.024870 0.016430 
#    y -0.024870 1.828150 -0.000660 
#    z 0.016430 -0.000660 1.863060 
# 
# From -- ./inp_files/157858.got.cif
#   From: 2010.06.25/outbox.cif.g09.slc.cpg/sg2_79_cif.got.tgz:157858.got - 2010.06.27 13:26:56.
