data_PCOD8012593
_publ_section_title
;
Structure prediction by ZEFSAII (Michael W. Deem and Ramdas Pophale) SiO2 
 PCOD8012593
Probable space group: P -1
;
_chemical_formula_sum "Si O2"
_cell_formula_units_Z 14
_cell_length_a 5.400232
_cell_length_b 9.055867
_cell_length_c 12.690810
_cell_angle_alpha 90.671503
_cell_angle_beta 98.976195
_cell_angle_gamma 73.911740
_cell_volume 588.694398
_symmetry_space_group_name_H-M "P -1"
_symmetry_group_IT_number 2
_symmetry_cell_setting 'triclinic'
loop_
_space_group_symop_operation_xyz
x,y,z
-x,-y,-z
loop_
_atom_site_type_symbol
_atom_site_label
_atom_site_fract_x
_atom_site_fract_y
_atom_site_fract_z
Si Si1 0.667487 0.416362 0.724827
Si Si2 0.331699 0.085018 0.085196
Si Si3 0.017762 0.177918 0.615454
Si Si4 0.423011 0.197615 0.794185
Si Si5 0.862665 0.886242 0.607812
Si Si6 0.454781 0.775369 0.718512
Si Si7 0.969383 0.658560 0.058449
O O1 0.452958 0.322202 0.710732
O O2 0.558760 0.594527 0.703508
O O3 0.865202 0.351661 0.641564
O O4 0.787463 0.364086 0.848571
O O5 0.487903 0.189832 0.156941
O O6 0.315155 0.942481 0.159937
O O7 0.056472 0.200608 0.027376
O O8 0.500000 0.000000 0.000000
O O9 0.234221 0.111075 0.720581
O O10 0.142903 0.183359 0.509616
O O11 0.820605 0.070018 0.598513
O O12 0.296370 0.291749 0.890767
O O13 0.146971 0.815560 0.677903
O O14 0.621654 0.855243 0.654012
O O15 0.000000 0.500000 0.000000
#
# Coordination Sequence:
#
# PCOD8012593 Si02
#       7
#     2   2   2   2   2   2   2
#     4  11  25  41  67  99 142 179 227 288 343 417
#     4  10  21  44  66  95 139 179 232 277 339 408
#     4  10  24  45  71  98 137 178 230 285 347 406
#     4  10  22  42  65  97 134 180 227 280 344 414
#     4  11  27  46  74 101 137 183 234 285 341 413
#     4  12  26  46  69 106 140 180 230 286 344 408
#     4  10  21  40  61  97 133 178 228 280 344 399
#
# _framework density 23.781437
#
# number of rings (size 3 to 8) (size 9 to 14) (size 15 to 20)
#    0.000    1.429    2.857    0.857    6.000    3.429 
#    5.143    0.000    0.000    0.000    0.000    0.000 
#    0.000    0.000    0.000    0.000    0.000    0.000 
#
# Total GULP energy -173447.402411 kJ/mol
# GULP energy per Si atom -12389.100172 kJ/mol
# Density = 2.372731 g / cm^3
# Si number density = 23.781437 Si / 1000 Ang^3
#
#
#
# Elastic Constant Matrix: (Units=GPa)
#
#
# Indices 1 2 3 4 5 6 
#
# 1 46.1776 -0.0152 2.3907 1.5296 -2.8875 -3.9680
# 2 -0.0152 103.1954 24.3168 16.3533 -5.2121 -9.9842
# 3 2.3907 24.3168 102.8140 30.2724 -1.9433 -7.7178
# 4 1.5296 16.3533 30.2724 39.9249 -0.4550 -3.3289
# 5 -2.8875 -5.2121 -1.9433 -0.4550 24.4097 -9.2997
# 6 -3.9680 -9.9842 -7.7178 -3.3289 -9.2997 33.4726
#
#
#
# Elastic Compliance Matrix: (Units=1/GPa)
#
#
# Indices 1 2 3 4 5 6 
#
# 1 0.022292 0.000738 -0.000111 -0.000694 0.004281 0.003958
# 2 0.000738 0.011067 -0.001341 -0.003185 0.003732 0.003800
# 3 -0.000111 -0.001341 0.012882 -0.009030 0.001331 0.002029
# 4 -0.000694 -0.003185 -0.009030 0.033210 -0.000884 -0.000057
# 5 0.004281 0.003732 0.001331 -0.000884 0.048158 0.015219
# 6 0.003958 0.003800 0.002029 -0.000057 0.015219 0.036168
#
#
# Mechanical properties :
#
#
# Convention : Reuss Voigt Hill
#
# Bulk Modulus (GPa) = 22.31397 33.95241 28.13319
# Shear Modulus (GPa) = 27.75562 34.59444 31.17503
#
# Velocity S-wave (km/s) = 3.42001 3.81817 3.62456
# Velocity P-wave (km/s) = 4.99986 5.80911 5.41961
#
# Compressibility (1/GPa) = 0.04481498
#
# Stress axis : x y z
#
# Youngs Moduli (GPa) = 44.85871 90.35587 77.62617
#
# Poissons Ratio (x) = -0.06672 0.00860
# Poissons Ratio (y) = -0.03312 0.10411
# Poissons Ratio (z) = 0.00497 0.12118
#
# Static dielectric constant tensor:
#      x y z
#    x 4.092250 -0.113380 0.214030 
#    y -0.113380 4.594730 0.032970 
#    z 0.214030 0.032970 4.699960 
# 
# 
# High freq. dielectric constant tensor:
#      x y z
#    x 1.913040 -0.013070 0.006040 
#    y -0.013070 1.957320 0.018550 
#    z 0.006040 0.018550 1.956150 
# 
# From -- ./inp_files/27851.got.cif
#   From: 2010.06.25/outbox.cif.g09.slc.cpg/sg2_14_cif.got.tgz:27851.got - 2010.06.27 13:26:56.
