data_PCOD8012325
_publ_section_title
;
Structure prediction by ZEFSAII (Michael W. Deem and Ramdas Pophale) SiO2 
 PCOD8012325
Probable space group: P -1
;
_chemical_formula_sum "Si O2"
_cell_formula_units_Z 16
_cell_length_a 14.428684
_cell_length_b 11.354379
_cell_length_c 11.306530
_cell_angle_alpha 51.280644
_cell_angle_beta 30.552232
_cell_angle_gamma 66.868921
_cell_volume 683.178967
_symmetry_space_group_name_H-M "P -1"
_symmetry_group_IT_number 2
_symmetry_cell_setting 'triclinic'
loop_
_space_group_symop_operation_xyz
x,y,z
-x,-y,-z
loop_
_atom_site_type_symbol
_atom_site_label
_atom_site_fract_x
_atom_site_fract_y
_atom_site_fract_z
Si Si1 0.389329 0.853530 0.128071
Si Si2 0.809390 0.494508 0.445016
Si Si3 0.348997 0.258766 0.664187
Si Si4 0.258861 0.706539 0.860942
Si Si5 0.227425 0.043321 0.718029
Si Si6 0.102516 0.002982 0.259312
Si Si7 0.225104 0.531419 0.232111
Si Si8 0.267966 0.209075 0.338715
O O1 0.248843 0.679893 0.448829
O O2 0.250243 0.906301 0.160877
O O3 0.562409 0.816048 0.903032
O O4 0.500000 0.000000 0.000000
O O5 0.723222 0.606853 0.395767
O O6 0.705579 0.450186 0.718346
O O7 0.043375 0.580739 0.143098
O O8 0.585817 0.327033 0.378765
O O9 0.317537 0.106754 0.706428
O O10 0.230121 0.187968 0.960698
O O11 0.273073 0.889968 0.718774
O O12 0.320466 0.684719 0.943176
O O13 0.309036 0.188679 0.443425
O O14 0.000000 0.000000 0.000000
O O15 0.940161 0.922492 0.389747
O O16 0.000000 0.000000 0.500000
O O17 0.267870 0.387606 0.209422
O O18 0.000000 0.500000 0.500000
#
# Coordination Sequence:
#
# PCOD8012325 Si02
#       8
#     2   2   2   2   2   2   2   2
#     4  12  28  48  74 104 135 196 260 295 356 433
#     4  11  24  45  69 104 150 186 233 302 367 428
#     4  12  25  42  71 108 144 190 237 293 374 435
#     4  11  23  39  63 106 151 183 228 287 362 437
#     4  12  21  40  68 105 152 184 223 298 369 431
#     4  12  26  48  74 100 139 195 250 302 353 430
#     4  10  21  39  69 106 148 186 223 290 370 434
#     4  12  23  45  72 103 151 185 238 300 358 435
#
# _framework density 23.419923000000001
#
# number of rings (size 3 to 8) (size 9 to 14) (size 15 to 20)
#    0.000    0.500    5.000    4.125    3.500    1.000 
#    0.000    1.250    2.750    0.000    0.000    0.000 
#    0.000    0.000    0.000    0.000    0.000    0.000 
#
# Total GULP energy -198311.633576 kJ/mol
# GULP energy per Si atom -12394.477099 kJ/mol
# Density = 2.336662 g / cm^3
# Si number density = 23.419923 Si / 1000 Ang^3
#
#
#
# Elastic Constant Matrix: (Units=GPa)
#
#
# Indices 1 2 3 4 5 6 
#
# 1 73.7053 53.7212 46.8765 2.0214 -2.3164 -17.9643
# 2 53.7212 129.6553 43.9045 1.0700 -11.5488 -25.3566
# 3 46.8765 43.9045 84.7544 8.7397 -8.0173 -15.1194
# 4 2.0214 1.0700 8.7397 41.0962 -4.8022 -4.1094
# 5 -2.3164 -11.5488 -8.0173 -4.8022 43.6108 -3.9378
# 6 -17.9643 -25.3566 -15.1194 -4.1094 -3.9378 48.6831
#
#
#
# Elastic Compliance Matrix: (Units=1/GPa)
#
#
# Indices 1 2 3 4 5 6 
#
# 1 0.025789 -0.006769 -0.010599 0.001192 -0.002002 0.002638
# 2 -0.006769 0.012044 -0.001688 0.001083 0.002962 0.003582
# 3 -0.010599 -0.001688 0.019276 -0.003155 0.002287 0.001115
# 4 0.001192 0.001083 -0.003155 0.025484 0.002793 0.002401
# 5 -0.002002 0.002962 0.002287 0.002793 0.024674 0.003746
# 6 0.002638 0.003582 0.001115 0.002401 0.003746 0.024232
#
#
# Mechanical properties :
#
#
# Convention : Reuss Voigt Hill
#
# Bulk Modulus (GPa) = 52.63613 64.12439 58.38026
# Shear Modulus (GPa) = 28.41807 36.25221 32.33514
#
# Velocity S-wave (km/s) = 3.48719 3.93863 3.71977
# Velocity P-wave (km/s) = 6.22396 6.93711 6.59019
#
# Compressibility (1/GPa) = 0.01899836
#
# Stress axis : x y z
#
# Youngs Moduli (GPa) = 38.77569 83.02603 51.87807
#
# Poissons Ratio (x) = 0.56197 0.54986
# Poissons Ratio (y) = 0.26246 0.08757
# Poissons Ratio (z) = 0.41099 0.14014
#
# Static dielectric constant tensor:
#      x y z
#    x 4.272510 -0.049340 -0.389470 
#    y -0.049340 5.124700 -0.516120 
#    z -0.389470 -0.516120 4.835810 
# 
# 
# High freq. dielectric constant tensor:
#      x y z
#    x 1.913910 -0.029590 -0.018600 
#    y -0.029590 1.926360 -0.002560 
#    z -0.018600 -0.002560 1.947280 
# 
# From -- ./inp_files/451047.got.cif
#   From: 2010.06.25/outbox.cif.g09.slc.cpg/sg2_226_cif.got.tgz:451047.got - 2010.06.27 13:26:56.
