data_PCOD8012210
_publ_section_title
;
Structure prediction by ZEFSAII (Michael W. Deem and Ramdas Pophale) SiO2 
 PCOD8012210
Probable space group: P -1
;
_chemical_formula_sum "Si O2"
_cell_formula_units_Z 16
_cell_length_a 21.490419
_cell_length_b 20.566989
_cell_length_c 11.305484
_cell_angle_alpha 31.236909
_cell_angle_beta 150.524278
_cell_angle_gamma 161.801691
_cell_volume 755.027168
_symmetry_space_group_name_H-M "P -1"
_symmetry_group_IT_number 2
_symmetry_cell_setting 'triclinic'
loop_
_space_group_symop_operation_xyz
x,y,z
-x,-y,-z
loop_
_atom_site_type_symbol
_atom_site_label
_atom_site_fract_x
_atom_site_fract_y
_atom_site_fract_z
Si Si1 0.213406 0.908969 0.169485
Si Si2 0.553090 0.088782 0.300040
Si Si3 0.212376 0.518599 0.767488
Si Si4 0.373793 0.563320 0.518664
Si Si5 0.341362 0.792513 0.979794
Si Si6 0.209546 0.085448 0.201519
Si Si7 0.623529 0.711712 0.087906
Si Si8 0.038251 0.360186 0.477552
O O1 0.366802 0.986764 0.413376
O O2 0.969511 0.680825 0.138553
O O3 0.304926 0.916161 0.190754
O O4 0.229236 0.073195 0.929755
O O5 0.694729 0.290359 0.305710
O O6 0.575251 0.132667 0.131693
O O7 0.124728 0.493682 0.533220
O O8 0.378626 0.539087 0.988373
O O9 0.330957 0.639927 0.237085
O O10 0.626240 0.764369 0.652485
O O11 0.315716 0.384800 0.636813
O O12 0.231454 0.465303 0.553466
O O13 0.099485 0.650172 0.809323
O O14 0.500000 0.000000 0.000000
O O15 0.344320 0.234114 0.080537
O O16 0.128263 0.878671 0.384344
O O17 0.000000 0.000000 0.000000
#
# Coordination Sequence:
#
# PCOD8012210 Si02
#       8
#     2   2   2   2   2   2   2   2
#     4  10  21  39  67  97 127 158 220 287 320 366
#     4  10  23  42  66  99 124 168 219 272 334 376
#     4  11  21  39  70 101 124 164 222 282 322 371
#     4  12  26  41  62  99 139 178 216 259 329 409
#     4  12  26  47  65  93 139 180 213 263 326 410
#     4  12  21  37  64  95 136 166 213 275 323 378
#     4  11  22  37  63  99 133 168 213 273 327 377
#     4  12  23  41  67 100 132 172 219 269 331 377
#
# _framework density 21.191289999999999
#
# number of rings (size 3 to 8) (size 9 to 14) (size 15 to 20)
#    0.000    0.750    6.250    1.875    0.000    1.000 
#    2.250    2.500    0.000    1.500    0.000    0.000 
#    0.000    0.000    0.000    0.000    0.000    0.000 
#
# Total GULP energy -198354.424838 kJ/mol
# GULP energy per Si atom -12397.151552 kJ/mol
# Density = 2.114306 g / cm^3
# Si number density = 21.191290 Si / 1000 Ang^3
#
#
#
# Elastic Constant Matrix: (Units=GPa)
#
#
# Indices 1 2 3 4 5 6 
#
# 1 110.1445 46.9872 36.0688 -2.6929 5.6051 8.2622
# 2 46.9872 101.9384 38.8836 7.8799 9.4862 17.8464
# 3 36.0688 38.8836 124.0294 -12.2874 15.8779 -5.3272
# 4 -2.6929 7.8799 -12.2874 34.7311 4.7555 5.2218
# 5 5.6051 9.4862 15.8779 4.7555 29.8205 1.6075
# 6 8.2622 17.8464 -5.3272 5.2218 1.6075 40.1151
#
#
#
# Elastic Compliance Matrix: (Units=1/GPa)
#
#
# Indices 1 2 3 4 5 6 
#
# 1 0.011782 -0.004708 -0.001852 0.001431 0.000083 -0.000768
# 2 -0.004708 0.014802 -0.003811 -0.004122 -0.000838 -0.005551
# 3 -0.001852 -0.003811 0.011094 0.004901 -0.005296 0.003124
# 4 0.001431 -0.004122 0.004901 0.032761 -0.006694 -0.001806
# 5 0.000083 -0.000838 -0.005296 -0.006694 0.037726 -0.000988
# 6 -0.000768 -0.005551 0.003124 -0.001806 -0.000988 0.028246
#
#
# Mechanical properties :
#
#
# Convention : Reuss Voigt Hill
#
# Bulk Modulus (GPa) = 59.04696 64.44351 61.74524
# Shear Modulus (GPa) = 30.71272 35.21153 32.96212
#
# Velocity S-wave (km/s) = 3.81111 4.08070 3.94821
# Velocity P-wave (km/s) = 6.87680 7.25804 7.06999
#
# Compressibility (1/GPa) = 0.01693567
#
# Stress axis : x y z
#
# Youngs Moduli (GPa) = 84.87219 67.55730 90.14095
#
# Poissons Ratio (x) = 0.31808 0.16695
# Poissons Ratio (y) = 0.39961 0.34351
# Poissons Ratio (z) = 0.15720 0.25745
#
# Static dielectric constant tensor:
#      x y z
#    x 3.975920 0.227780 0.334080 
#    y 0.227780 4.034320 -0.125840 
#    z 0.334080 -0.125840 3.900110 
# 
# 
# High freq. dielectric constant tensor:
#      x y z
#    x 1.831070 0.019740 0.027440 
#    y 0.019740 1.842190 -0.012660 
#    z 0.027440 -0.012660 1.811570 
# 
# From -- ./inp_files/472666.got.cif
#   From: 2010.06.25/outbox.cif.g09.slc.cpg/sg2_237_cif.got.tgz:472666.got - 2010.06.27 13:26:56.
