data_PCOD8012232
_publ_section_title
;
Structure prediction by ZEFSAII (Michael W. Deem and Ramdas Pophale) SiO2 
 PCOD8012232
Probable space group: P -1
;
_chemical_formula_sum "Si O2"
_cell_formula_units_Z 16
_cell_length_a 17.664606
_cell_length_b 8.525116
_cell_length_c 11.365328
_cell_angle_alpha 124.248662
_cell_angle_beta 140.802827
_cell_angle_gamma 83.073459
_cell_volume 712.576732
_symmetry_space_group_name_H-M "P -1"
_symmetry_group_IT_number 2
_symmetry_cell_setting 'triclinic'
loop_
_space_group_symop_operation_xyz
x,y,z
-x,-y,-z
loop_
_atom_site_type_symbol
_atom_site_label
_atom_site_fract_x
_atom_site_fract_y
_atom_site_fract_z
Si Si1 0.579669 0.841906 0.740118
Si Si2 0.046379 0.317006 0.736555
Si Si3 0.961875 0.004377 0.734264
Si Si4 0.902846 0.221742 0.285491
Si Si5 0.385540 0.878322 0.704984
Si Si6 0.367535 0.452575 0.156461
Si Si7 0.944469 0.555236 0.842945
Si Si8 0.632982 0.704350 0.168049
O O1 0.453488 0.825052 0.657132
O O2 0.506379 0.721616 0.474782
O O3 0.645370 0.717030 0.829158
O O4 0.727684 0.113954 0.016351
O O5 0.941295 0.165074 0.435021
O O6 0.025981 0.525698 0.820200
O O7 0.218120 0.435946 0.964500
O O8 0.984110 0.141112 0.697510
O O9 0.789320 0.768936 0.431327
O O10 0.061007 0.908621 0.820613
O O11 0.007065 0.177957 0.974264
O O12 0.000000 0.500000 0.500000
O O13 0.235770 0.629663 0.463943
O O14 0.348936 0.053609 0.691824
O O15 0.500000 0.000000 0.000000
O O16 0.401696 0.387377 0.046226
O O17 0.000000 0.500000 0.000000
O O18 0.500000 0.500000 0.000000
#
# Coordination Sequence:
#
# PCOD8012232 Si02
#       8
#     2   2   2   2   2   2   2   2
#     4  11  24  40  68 102 135 168 223 286 330 384
#     4  11  20  43  74  96 123 170 233 272 320 394
#     4  11  22  44  71  94 125 177 229 270 320 398
#     4  12  26  42  63  98 136 172 216 270 338 398
#     4  12  23  40  67  99 137 169 221 275 331 396
#     4  11  23  43  70 102 127 175 228 278 333 389
#     4  10  21  39  68 100 121 163 229 273 317 378
#     4  12  26  44  65  97 140 183 216 268 343 410
#
# _framework density 22.453721999999999
#
# number of rings (size 3 to 8) (size 9 to 14) (size 15 to 20)
#    0.000    0.750    6.250    3.375    3.500    0.000 
#    2.250    1.875    0.000    0.000    0.000    0.000 
#    0.000    0.000    0.000    0.000    0.000    0.000 
#
# Total GULP energy -198425.539412 kJ/mol
# GULP energy per Si atom -12401.596213 kJ/mol
# Density = 2.240262 g / cm^3
# Si number density = 22.453722 Si / 1000 Ang^3
#
#
#
# Elastic Constant Matrix: (Units=GPa)
#
#
# Indices 1 2 3 4 5 6 
#
# 1 102.2301 32.6066 49.1324 10.3039 -0.5511 -34.6545
# 2 32.6066 40.6423 18.8123 14.0781 2.2227 -20.6080
# 3 49.1324 18.8123 162.0202 3.5518 2.1160 -5.4326
# 4 10.3039 14.0781 3.5518 33.3898 -8.0335 1.2233
# 5 -0.5511 2.2227 2.1160 -8.0335 40.5157 11.3791
# 6 -34.6545 -20.6080 -5.4326 1.2233 11.3791 35.0621
#
#
#
# Elastic Compliance Matrix: (Units=1/GPa)
#
#
# Indices 1 2 3 4 5 6 
#
# 1 0.020691 0.001166 -0.005334 -0.009034 -0.007799 0.023156
# 2 0.001166 0.060966 -0.004941 -0.032463 -0.022004 0.044493
# 3 -0.005334 -0.004941 0.007975 0.003843 0.002785 -0.007978
# 4 -0.009034 -0.032463 0.003843 0.052676 0.022135 -0.036436
# 5 -0.007799 -0.022004 0.002785 0.022135 0.039522 -0.033808
# 6 0.023156 0.044493 -0.007978 -0.036436 -0.033808 0.088566
#
#
# Mechanical properties :
#
#
# Convention : Reuss Voigt Hill
#
# Bulk Modulus (GPa) = 14.00292 56.22168 35.11230
# Shear Modulus (GPa) = 16.00409 35.41626 25.71017
#
# Velocity S-wave (km/s) = 2.67265 3.97583 3.38750
# Velocity P-wave (km/s) = 3.97165 6.79482 5.56523
#
# Compressibility (1/GPa) = 0.07141367
#
# Stress axis : x y z
#
# Youngs Moduli (GPa) = 48.32917 16.40255 125.39021
#
# Poissons Ratio (x) = -0.01912 0.66879
# Poissons Ratio (y) = -0.05633 0.61960
# Poissons Ratio (z) = 0.25777 0.08105
#
# Static dielectric constant tensor:
#      x y z
#    x 4.493110 -0.614970 -0.338830 
#    y -0.614970 3.881340 0.131690 
#    z -0.338830 0.131690 4.458050 
# 
# 
# High freq. dielectric constant tensor:
#      x y z
#    x 1.889730 -0.032190 -0.005720 
#    y -0.032190 1.853630 0.000240 
#    z -0.005720 0.000240 1.905050 
# 
# From -- ./inp_files/462483.got.cif
#   From: 2010.06.25/outbox.cif.g09.slc.cpg/sg2_232_cif.got.tgz:462483.got - 2010.06.27 13:26:56.
