data_PCOD8012699
_publ_section_title
;
Structure prediction by ZEFSAII (Michael W. Deem and Ramdas Pophale) SiO2 
 PCOD8012699
Probable space group: P -1
;
_chemical_formula_sum "Si O2"
_cell_formula_units_Z 16
_cell_length_a 8.946568
_cell_length_b 16.350808
_cell_length_c 9.803520
_cell_angle_alpha 36.512758
_cell_angle_beta 60.398528
_cell_angle_gamma 67.353020
_cell_volume 741.721097
_symmetry_space_group_name_H-M "P -1"
_symmetry_group_IT_number 2
_symmetry_cell_setting 'triclinic'
loop_
_space_group_symop_operation_xyz
x,y,z
-x,-y,-z
loop_
_atom_site_type_symbol
_atom_site_label
_atom_site_fract_x
_atom_site_fract_y
_atom_site_fract_z
Si Si1 0.481579 0.067113 0.270416
Si Si2 0.571302 0.637276 0.008229
Si Si3 0.919238 0.619792 0.713317
Si Si4 0.254787 0.645273 0.934655
Si Si5 0.142383 0.940919 0.611691
Si Si6 0.693666 0.371869 0.378467
Si Si7 0.017559 0.075544 0.750949
Si Si8 0.640248 0.089038 0.895709
O O1 0.453660 0.228996 0.070660
O O2 0.500000 0.000000 0.500000
O O3 0.314428 0.989302 0.390111
O O4 0.633098 0.048324 0.115921
O O5 0.766666 0.633512 0.871802
O O6 0.426440 0.631042 0.965337
O O7 0.567133 0.500635 0.287931
O O8 0.105001 0.590884 0.733551
O O9 0.928713 0.769130 0.437906
O O10 0.865786 0.492802 0.807261
O O11 0.140786 0.776017 0.854023
O O12 0.317572 0.669297 0.720266
O O13 0.000000 0.000000 0.500000
O O14 0.142912 0.008772 0.672547
O O15 0.610790 0.251607 0.670376
O O16 0.828463 0.064308 0.782599
O O17 0.000000 0.000000 0.000000
O O18 0.500000 0.000000 0.000000
#
# Coordination Sequence:
#
# PCOD8012699 Si02
#       8
#     2   2   2   2   2   2   2   2
#     4  12  24  42  67  97 132 167 218 269 323 383
#     4  11  22  37  66  95 127 172 215 267 319 386
#     4  10  21  40  62  96 126 171 212 266 322 382
#     4  11  22  37  65  98 128 166 223 268 311 390
#     4  12  24  41  66  99 124 166 222 269 313 383
#     4  10  22  41  63  94 132 169 213 265 332 381
#     4  11  24  42  67  91 131 170 210 260 335 381
#     4  11  25  43  64  96 131 170 210 272 326 384
#
# _framework density 21.571451
#
# number of rings (size 3 to 8) (size 9 to 14) (size 15 to 20)
#    0.000    1.000    2.500    6.750    1.750    1.500 
#    0.000    0.625    0.000    0.000    0.000    0.000 
#    0.000    0.000    0.000    0.000    0.000    0.000 
#
# Total GULP energy -198236.516455 kJ/mol
# GULP energy per Si atom -12389.782278 kJ/mol
# Density = 2.152235 g / cm^3
# Si number density = 21.571451 Si / 1000 Ang^3
#
#
#
# Elastic Constant Matrix: (Units=GPa)
#
#
# Indices 1 2 3 4 5 6 
#
# 1 70.3952 12.9976 30.9937 -10.4102 -9.4688 2.1194
# 2 12.9976 92.4786 46.3540 -26.7002 -1.8489 -5.7246
# 3 30.9937 46.3540 129.2310 -17.3994 0.6935 3.1203
# 4 -10.4102 -26.7002 -17.3994 40.7961 2.4916 0.6267
# 5 -9.4688 -1.8489 0.6935 2.4916 40.8599 -7.0921
# 6 2.1194 -5.7246 3.1203 0.6267 -7.0921 30.0379
#
#
#
# Elastic Compliance Matrix: (Units=1/GPa)
#
#
# Indices 1 2 3 4 5 6 
#
# 1 0.016717 0.000427 -0.003826 0.002678 0.003820 0.000145
# 2 0.000427 0.015754 -0.004728 0.008288 0.000999 0.003526
# 3 -0.003826 -0.004728 0.010484 0.000536 -0.001681 -0.002128
# 4 0.002678 0.008288 0.000536 0.030890 -0.000811 0.000499
# 5 0.003820 0.000999 -0.001681 -0.000811 0.026592 0.006391
# 6 0.000145 0.003526 -0.002128 0.000499 0.006391 0.035673
#
#
# Mechanical properties :
#
#
# Convention : Reuss Voigt Hill
#
# Bulk Modulus (GPa) = 37.45166 52.53282 44.99224
# Shear Modulus (GPa) = 31.00510 35.78940 33.39725
#
# Velocity S-wave (km/s) = 3.79531 4.07764 3.93901
# Velocity P-wave (km/s) = 6.05023 6.82461 6.44905
#
# Compressibility (1/GPa) = 0.02670108
#
# Stress axis : x y z
#
# Youngs Moduli (GPa) = 59.82092 63.47451 95.38310
#
# Poissons Ratio (x) = -0.02708 0.36490
# Poissons Ratio (y) = -0.02552 0.45096
# Poissons Ratio (z) = 0.22885 0.30010
#
# Static dielectric constant tensor:
#      x y z
#    x 4.175320 -0.246000 0.085760 
#    y -0.246000 4.115350 -0.468790 
#    z 0.085760 -0.468790 4.251110 
# 
# 
# High freq. dielectric constant tensor:
#      x y z
#    x 1.861250 -0.003300 0.001920 
#    y -0.003300 1.831150 -0.025380 
#    z 0.001920 -0.025380 1.853900 
# 
# From -- ./inp_files/205068.got.cif
#   From: 2010.06.25/outbox.cif.g09.slc.cpg/sg2_103_cif.got.tgz:205068.got - 2010.06.27 13:26:56.
