data_PCOD8012363
_publ_section_title
;
Structure prediction by ZEFSAII (Michael W. Deem and Ramdas Pophale) SiO2 
 PCOD8012363
Probable space group: P -1
;
_chemical_formula_sum "Si O2"
_cell_formula_units_Z 14
_cell_length_a 8.779683
_cell_length_b 11.074892
_cell_length_c 9.419382
_cell_angle_alpha 72.069071
_cell_angle_beta 134.233294
_cell_angle_gamma 118.059540
_cell_volume 578.804234
_symmetry_space_group_name_H-M "P -1"
_symmetry_group_IT_number 2
_symmetry_cell_setting 'triclinic'
loop_
_space_group_symop_operation_xyz
x,y,z
-x,-y,-z
loop_
_atom_site_type_symbol
_atom_site_label
_atom_site_fract_x
_atom_site_fract_y
_atom_site_fract_z
Si Si1 0.294373 0.803750 0.311193
Si Si2 0.406884 0.855148 0.910944
Si Si3 0.629334 0.694151 0.650621
Si Si4 0.892123 0.286526 0.471629
Si Si5 0.066661 0.658176 0.960732
Si Si6 0.347408 0.502391 0.764129
Si Si7 0.730685 0.925730 0.859577
O O1 0.468691 0.724907 0.416264
O O2 0.217923 0.786894 0.429119
O O3 0.076529 0.727540 0.095987
O O4 0.392151 0.964443 0.279257
O O5 0.196132 0.828439 0.669649
O O6 0.627085 0.848156 0.969338
O O7 0.305722 0.732361 0.004876
O O8 0.500000 0.000000 0.000000
O O9 0.506053 0.555733 0.709519
O O10 0.662138 0.821432 0.726692
O O11 0.859177 0.686211 0.734874
O O12 0.795487 0.403604 0.322364
O O13 0.166001 0.353268 0.650501
O O14 0.000000 0.500000 0.000000
O O15 0.500000 0.500000 0.000000
O O16 0.000000 0.000000 0.000000
#
# Coordination Sequence:
#
# PCOD8012363 Si02
#       7
#     2   2   2   2   2   2   2
#     4  11  23  46  73 103 146 194 255 304 368 449
#     4  12  25  48  72 112 155 195 251 322 378 448
#     4  11  24  44  73 105 141 198 253 300 372 458
#     4  10  24  41  73 107 143 188 253 303 362 452
#     4  12  29  47  73 108 159 197 239 319 398 435
#     4  10  21  39  70 106 137 183 255 300 359 434
#     4  12  23  45  77 108 140 200 257 306 369 456
#
# _framework density 24.187798000000001
#
# number of rings (size 3 to 8) (size 9 to 14) (size 15 to 20)
#    0.000    0.857    5.714    1.286    8.000    0.571 
#    0.000    0.714    0.000    0.000    0.000    0.000 
#    0.000    0.000    0.000    0.000    0.000    0.000 
#
# Total GULP energy -173442.008530 kJ/mol
# GULP energy per Si atom -12388.714895 kJ/mol
# Density = 2.413275 g / cm^3
# Si number density = 24.187798 Si / 1000 Ang^3
#
#
#
# Elastic Constant Matrix: (Units=GPa)
#
#
# Indices 1 2 3 4 5 6 
#
# 1 78.6327 49.0475 30.1093 -6.8086 14.4628 29.7881
# 2 49.0475 144.7632 42.0296 14.0942 -0.6299 25.6368
# 3 30.1093 42.0296 116.3271 13.3924 3.3357 14.0487
# 4 -6.8086 14.0942 13.3924 53.5938 -4.9522 2.9269
# 5 14.4628 -0.6299 3.3357 -4.9522 38.9988 6.8497
# 6 29.7881 25.6368 14.0487 2.9269 6.8497 38.2939
#
#
#
# Elastic Compliance Matrix: (Units=1/GPa)
#
#
# Indices 1 2 3 4 5 6 
#
# 1 0.023720 -0.005367 -0.003073 0.005390 -0.005629 -0.013136
# 2 -0.005367 0.009830 -0.001697 -0.002518 0.002327 -0.002007
# 3 -0.003073 -0.001697 0.010303 -0.002524 -0.000081 -0.000046
# 4 0.005390 -0.002518 -0.002524 0.020958 0.001442 -0.003441
# 5 -0.005629 0.002327 -0.000081 0.001442 0.028367 -0.002334
# 6 -0.013136 -0.002007 -0.000046 -0.003441 -0.002334 0.038373
#
#
# Mechanical properties :
#
#
# Convention : Reuss Voigt Hill
#
# Bulk Modulus (GPa) = 42.41073 64.67730 53.54402
# Shear Modulus (GPa) = 31.31169 40.74643 36.02906
#
# Velocity S-wave (km/s) = 3.60185 4.10882 3.86366
# Velocity P-wave (km/s) = 5.90507 7.02194 6.48758
#
# Compressibility (1/GPa) = 0.02357894
#
# Stress axis : x y z
#
# Youngs Moduli (GPa) = 42.15801 101.73241 97.05592
#
# Poissons Ratio (x) = 0.54605 0.29825
# Poissons Ratio (y) = 0.22628 0.16467
# Poissons Ratio (z) = 0.12955 0.17261
#
# Static dielectric constant tensor:
#      x y z
#    x 3.868790 -0.182000 -0.370570 
#    y -0.182000 4.390170 -0.250580 
#    z -0.370570 -0.250580 4.164260 
# 
# 
# High freq. dielectric constant tensor:
#      x y z
#    x 1.939620 0.019500 -0.001710 
#    y 0.019500 1.970880 0.019790 
#    z -0.001710 0.019790 1.964930 
# 
# From -- ./inp_files/186229.got.cif
#   From: 2010.06.25/outbox.cif.g09.slc.cpg/sg2_94_cif.got.tgz:186229.got - 2010.06.27 13:26:56.
