data_PCOD8012043
_publ_section_title
;
Structure prediction by ZEFSAII (Michael W. Deem and Ramdas Pophale) SiO2 
 PCOD8012043
Probable space group: P -1
;
_chemical_formula_sum "Si O2"
_cell_formula_units_Z 14
_cell_length_a 9.165008
_cell_length_b 11.447562
_cell_length_c 8.678046
_cell_angle_alpha 90.499721
_cell_angle_beta 34.627426
_cell_angle_gamma 86.020638
_cell_volume 512.627039
_symmetry_space_group_name_H-M "P -1"
_symmetry_group_IT_number 2
_symmetry_cell_setting 'triclinic'
loop_
_space_group_symop_operation_xyz
x,y,z
-x,-y,-z
loop_
_atom_site_type_symbol
_atom_site_label
_atom_site_fract_x
_atom_site_fract_y
_atom_site_fract_z
Si Si1 0.671733 0.358733 0.738605
Si Si2 0.508952 0.566891 0.656587
Si Si3 0.002729 0.690109 0.259429
Si Si4 0.844451 0.101874 0.035021
Si Si5 0.652104 0.813881 0.918325
Si Si6 0.669024 0.974944 0.656673
Si Si7 0.133646 0.826587 0.672594
O O1 0.601016 0.483904 0.723196
O O2 0.927423 0.348337 0.623377
O O3 0.680400 0.262256 0.593876
O O4 0.441270 0.313239 0.041240
O O5 0.500000 0.500000 0.500000
O O6 0.721313 0.657109 0.460260
O O7 0.223022 0.625822 0.952709
O O8 0.999226 0.832220 0.231385
O O9 0.775803 0.201153 0.231361
O O10 0.584151 0.059115 0.204927
O O11 0.000000 0.000000 0.000000
O O12 0.840206 0.801209 0.902130
O O13 0.798305 0.858756 0.639621
O O14 0.409104 0.915530 0.156872
O O15 0.862679 0.031699 0.371518
#
# Coordination Sequence:
#
# PCOD8012043 Si02
#       7
#     2   2   2   2   2   2   2
#     4  11  26  46  74 106 146 193 249 304 369 444
#     4  12  29  52  82 111 148 189 249 314 374 436
#     4  12  29  51  77 112 148 198 247 302 375 446
#     4  12  25  44  69 107 149 194 247 305 368 440
#     4  10  21  39  66 100 141 187 246 289 364 428
#     4  10  21  41  60 100 141 195 238 295 358 434
#     4  11  24  38  71 101 144 192 244 304 367 432
#
# _framework density 27.310302
#
# number of rings (size 3 to 8) (size 9 to 14) (size 15 to 20)
#    0.000    0.857    2.857    3.000    6.000    3.429 
#    0.000    0.000    0.000    0.000    0.000    0.000 
#    0.000    0.000    0.000    0.000    0.000    0.000 
#
# Total GULP energy -173505.439562 kJ/mol
# GULP energy per Si atom -12393.245683 kJ/mol
# Density = 2.724814 g / cm^3
# Si number density = 27.310302 Si / 1000 Ang^3
#
#
#
# Elastic Constant Matrix: (Units=GPa)
#
#
# Indices 1 2 3 4 5 6 
#
# 1 128.1085 8.4712 17.6657 -12.9024 -2.9929 9.0520
# 2 8.4712 112.1908 9.2298 -17.9313 -3.2566 -11.5706
# 3 17.6657 9.2298 82.6093 -20.1824 -1.6235 1.9655
# 4 -12.9024 -17.9313 -20.1824 33.6364 7.2299 -4.8537
# 5 -2.9929 -3.2566 -1.6235 7.2299 53.3900 -9.9790
# 6 9.0520 -11.5706 1.9655 -4.8537 -9.9790 43.4165
#
#
#
# Elastic Compliance Matrix: (Units=1/GPa)
#
#
# Indices 1 2 3 4 5 6 
#
# 1 0.008312 -0.000364 -0.001193 0.002087 -0.000171 -0.001582
# 2 -0.000364 0.010242 0.000303 0.005914 0.000479 0.003563
# 3 -0.001193 0.000303 0.014392 0.008554 -0.000680 0.000478
# 4 0.002087 0.005914 0.008554 0.040283 -0.003902 0.004360
# 5 -0.000171 0.000479 -0.000680 -0.003902 0.020075 0.004372
# 6 -0.001582 0.003563 0.000478 0.004360 0.004372 0.025783
#
#
# Mechanical properties :
#
#
# Convention : Reuss Voigt Hill
#
# Bulk Modulus (GPa) = 32.85293 43.73797 38.29545
# Shear Modulus (GPa) = 37.95321 45.25801 41.60561
#
# Velocity S-wave (km/s) = 3.73192 4.07526 3.90736
# Velocity P-wave (km/s) = 5.53401 6.18010 5.86595
#
# Compressibility (1/GPa) = 0.03043869
#
# Stress axis : x y z
#
# Youngs Moduli (GPa) = 120.30172 97.63275 69.48523
#
# Poissons Ratio (x) = 0.03554 0.08287
# Poissons Ratio (y) = 0.04379 -0.02104
# Poissons Ratio (z) = 0.14348 -0.02957
#
# Static dielectric constant tensor:
#      x y z
#    x 9.314240 0.032060 3.554600 
#    y 0.032060 5.449550 -0.105050 
#    z 3.554600 -0.105050 7.367190 
# 
# 
# High freq. dielectric constant tensor:
#      x y z
#    x 2.105730 0.007020 0.024390 
#    y 0.007020 2.116650 0.001980 
#    z 0.024390 0.001980 2.120940 
# 
# From -- ./inp_files/46634.got.cif
#   From: 2010.06.25/outbox.cif.g09.slc.cpg/sg2_24_cif.got.tgz:46634.got - 2010.06.27 13:26:56.
