data_PCOD8012852
_publ_section_title
;
Structure prediction by ZEFSAII (Michael W. Deem and Ramdas Pophale) SiO2 
 PCOD8012852
Probable space group: P -1
;
_chemical_formula_sum "Si O2"
_cell_formula_units_Z 14
_cell_length_a 7.056159
_cell_length_b 14.676213
_cell_length_c 9.243717
_cell_angle_alpha 106.875091
_cell_angle_beta 134.051362
_cell_angle_gamma 79.210853
_cell_volume 658.222944
_symmetry_space_group_name_H-M "P -1"
_symmetry_group_IT_number 2
_symmetry_cell_setting 'triclinic'
loop_
_space_group_symop_operation_xyz
x,y,z
-x,-y,-z
loop_
_atom_site_type_symbol
_atom_site_label
_atom_site_fract_x
_atom_site_fract_y
_atom_site_fract_z
Si Si1 0.905158 0.307629 0.043054
Si Si2 0.412148 0.975744 0.780985
Si Si3 0.132118 0.126566 0.523587
Si Si4 0.063268 0.589124 0.173847
Si Si5 0.379482 0.360753 0.485069
Si Si6 0.685034 0.662292 0.239178
Si Si7 0.236031 0.156254 0.272266
O O1 0.123732 0.383696 0.261220
O O2 0.976859 0.199679 0.076227
O O3 0.914531 0.318981 0.879506
O O4 0.618350 0.327677 0.966447
O O5 0.651585 0.922653 0.809228
O O6 0.160757 0.905580 0.603921
O O7 0.351464 0.071970 0.706611
O O8 0.500000 0.000000 0.000000
O O9 0.160168 0.237509 0.624925
O O10 0.165402 0.104772 0.361419
O O11 0.353936 0.583259 0.400412
O O12 0.833008 0.597185 0.172359
O O13 0.000000 0.500000 0.000000
O O14 0.310099 0.389047 0.626177
O O15 0.433587 0.246400 0.451242
#
# Coordination Sequence:
#
# PCOD8012852 Si02
#       7
#     2   2   2   2   2   2   2
#     4   9  22  39  61  89 111 158 199 235 289 348
#     4  11  24  37  57  92 117 150 198 242 287 345
#     4  10  23  39  59  85 115 159 193 239 294 333
#     4  11  23  38  61  91 121 150 189 249 298 341
#     4   8  20  40  59  87 114 158 195 231 288 352
#     4  10  21  40  64  83 116 156 200 237 292 352
#     4   9  20  42  59  80 122 153 196 237 283 343
#
# _framework density 21.269390000000001
#
# number of rings (size 3 to 8) (size 9 to 14) (size 15 to 20)
#    0.857    1.429    0.000    1.286    4.000    4.571 
#    5.143    1.429    0.000    0.000    0.000    0.000 
#    0.000    0.000    0.000    0.000    0.000    0.000 
#
# Total GULP energy -173537.927185 kJ/mol
# GULP energy per Si atom -12395.566227 kJ/mol
# Density = 2.122098 g / cm^3
# Si number density = 21.269390 Si / 1000 Ang^3
#
#
#
# Elastic Constant Matrix: (Units=GPa)
#
#
# Indices 1 2 3 4 5 6 
#
# 1 105.5423 14.3690 28.8721 -3.5447 -2.2488 -34.9406
# 2 14.3690 19.6497 9.4891 6.1083 -4.1456 -24.9785
# 3 28.8721 9.4891 96.8872 -14.5457 6.7708 -17.3811
# 4 -3.5447 6.1083 -14.5457 25.7242 0.7104 -1.2254
# 5 -2.2488 -4.1456 6.7708 0.7104 44.5199 5.6134
# 6 -34.9406 -24.9785 -17.3811 -1.2254 5.6134 35.2021
#
#
#
# Elastic Compliance Matrix: (Units=1/GPa)
#
#
# Indices 1 2 3 4 5 6 
#
# 1 -0.027731 -0.307622 0.004186 0.060123 -0.001198 -0.241455
# 2 -0.307622 -2.239688 0.041462 0.424405 -0.002793 -1.858874
# 3 0.004186 0.041462 0.012370 -0.000283 -0.002864 0.040130
# 4 0.060123 0.424405 -0.000283 -0.036580 -0.002177 0.359757
# 5 -0.001198 -0.002793 -0.002864 -0.002177 0.023675 -0.008436
# 6 -0.241455 -1.858874 0.040130 0.359757 -0.008436 -1.496583
#
#
# Mechanical properties :
#
#
# Convention : Reuss Voigt Hill
#
# Bulk Modulus (GPa) = -0.35984 36.39328 18.01672
# Shear Modulus (GPa) = -1.19993 32.37916 15.58962
#
# Velocity S-wave (km/s) = -0.75192 3.90595 2.71026
# Velocity P-wave (km/s) = 0.96093 6.12288 4.27588
#
# Compressibility (1/GPa) = -2.77899695
#
# Stress axis : x y z
#
# Youngs Moduli (GPa) = -36.06045 -0.44649 80.84176
#
# Poissons Ratio (x) = -0.13735 -0.33841
# Poissons Ratio (y) = -11.09297 -3.35185
# Poissons Ratio (z) = 0.15095 0.01851
#
# Static dielectric constant tensor:
#      x y z
#    x 3.832860 0.195600 -0.010310 
#    y 0.195600 3.569550 -0.136460 
#    z -0.010310 -0.136460 3.898220 
# 
# 
# High freq. dielectric constant tensor:
#      x y z
#    x 1.832250 0.009100 0.003260 
#    y 0.009100 1.815140 -0.004500 
#    z 0.003260 -0.004500 1.843290 
# 
# From -- ./inp_files/137680.got.cif
#   From: 2010.06.25/outbox.cif.g09.slc.cpg/sg2_69_cif.got.tgz:137680.got - 2010.06.27 13:26:56.
