data_PCOD8012818
_publ_section_title
;
Structure prediction by ZEFSAII (Michael W. Deem and Ramdas Pophale) SiO2 
 PCOD8012818
Probable space group: P -1
;
_chemical_formula_sum "Si O2"
_cell_formula_units_Z 16
_cell_length_a 15.158204
_cell_length_b 12.069422
_cell_length_c 8.941026
_cell_angle_alpha 77.876919
_cell_angle_beta 118.135112
_cell_angle_gamma 143.153728
_cell_volume 820.557623
_symmetry_space_group_name_H-M "P -1"
_symmetry_group_IT_number 2
_symmetry_cell_setting 'triclinic'
loop_
_space_group_symop_operation_xyz
x,y,z
-x,-y,-z
loop_
_atom_site_type_symbol
_atom_site_label
_atom_site_fract_x
_atom_site_fract_y
_atom_site_fract_z
Si Si1 0.934652 0.263237 0.968623
Si Si2 0.061595 0.507713 0.274480
Si Si3 0.625299 0.132739 0.422242
Si Si4 0.367356 0.478650 0.892103
Si Si5 0.215692 0.871307 0.676869
Si Si6 0.578091 0.901113 0.941113
Si Si7 0.055768 0.163083 0.916577
Si Si8 0.022948 0.137234 0.569480
O O1 0.923461 0.350239 0.811350
O O2 0.016495 0.231224 0.969504
O O3 0.750289 0.054035 0.938637
O O4 0.057162 0.416594 0.158414
O O5 0.230525 0.644524 0.471675
O O6 0.891885 0.335876 0.288703
O O7 0.713528 0.096550 0.441358
O O8 0.530826 0.094997 0.211970
O O9 0.500000 0.000000 0.500000
O O10 0.470703 0.688817 0.900250
O O11 0.259775 0.364394 0.992197
O O12 0.230238 0.349798 0.680288
O O13 0.500000 0.500000 0.000000
O O14 0.087227 0.861114 0.588478
O O15 0.378932 0.041972 0.866265
O O16 0.953235 0.064454 0.704706
O O17 0.000000 0.000000 0.000000
O O18 0.000000 0.000000 0.500000
#
# Coordination Sequence:
#
# PCOD8012818 Si02
#       8
#     2   2   2   2   2   2   2   2
#     4  10  21  40  63  95 123 177 214 259 315 392
#     4  10  22  38  64  88 135 164 220 253 316 388
#     4  12  24  39  60  98 134 165 209 272 320 368
#     4  10  22  39  65  92 121 160 212 266 320 372
#     4  11  24  41  66  91 129 177 216 257 317 402
#     4  11  23  40  65  90 133 169 208 264 328 373
#     4  10  23  39  68  90 124 165 215 263 321 383
#     4  10  23  41  68  93 122 168 218 262 313 388
#
# _framework density 19.498934999999999
#
# number of rings (size 3 to 8) (size 9 to 14) (size 15 to 20)
#    0.750    0.750    1.250    3.750    5.250    1.000 
#    0.000    0.000    0.000    2.250    0.000    0.000 
#    0.000    0.000    0.000    0.000    0.000    0.000 
#
# Total GULP energy -198268.069817 kJ/mol
# GULP energy per Si atom -12391.754364 kJ/mol
# Density = 1.945455 g / cm^3
# Si number density = 19.498935 Si / 1000 Ang^3
#
#
#
# Elastic Constant Matrix: (Units=GPa)
#
#
# Indices 1 2 3 4 5 6 
#
# 1 154.2367 56.8059 47.2389 6.7736 -5.0766 -9.1071
# 2 56.8059 135.9831 39.2269 8.4109 -3.1823 -12.5845
# 3 47.2389 39.2269 125.1004 19.2892 3.7545 -8.6961
# 4 6.7736 8.4109 19.2892 39.6107 1.1043 -1.6826
# 5 -5.0766 -3.1823 3.7545 1.1043 24.2230 2.6757
# 6 -9.1071 -12.5845 -8.6961 -1.6826 2.6757 23.7740
#
#
#
# Elastic Compliance Matrix: (Units=1/GPa)
#
#
# Indices 1 2 3 4 5 6 
#
# 1 0.008272 -0.002698 -0.002319 0.000272 0.001646 0.000727
# 2 -0.002698 0.009288 -0.001594 -0.000615 0.000577 0.003191
# 3 -0.002319 -0.001594 0.010205 -0.004087 -0.002309 0.001972
# 4 0.000272 -0.000615 -0.004087 0.027351 -0.000670 0.000295
# 5 0.001646 0.000577 -0.002309 -0.000670 0.042617 -0.004752
# 6 0.000727 0.003191 0.001972 0.000295 -0.004752 0.045307
#
#
# Mechanical properties :
#
#
# Convention : Reuss Voigt Hill
#
# Bulk Modulus (GPa) = 68.75687 77.98484 73.37086
# Shear Modulus (GPa) = 31.03457 35.65809 33.34633
#
# Velocity S-wave (km/s) = 3.99382 4.28099 4.13990
# Velocity P-wave (km/s) = 7.52369 8.03225 7.78213
#
# Compressibility (1/GPa) = 0.01454400
#
# Stress axis : x y z
#
# Youngs Moduli (GPa) = 120.88259 107.66972 97.98700
#
# Poissons Ratio (x) = 0.29049 0.22720
# Poissons Ratio (y) = 0.32614 0.15621
# Poissons Ratio (z) = 0.28028 0.17164
#
# Static dielectric constant tensor:
#      x y z
#    x 3.396640 0.218530 -0.053040 
#    y 0.218530 3.376040 0.111250 
#    z -0.053040 0.111250 3.738560 
# 
# 
# High freq. dielectric constant tensor:
#      x y z
#    x 1.756010 -0.000150 -0.004700 
#    y -0.000150 1.762600 0.005550 
#    z -0.004700 0.005550 1.766510 
# 
# From -- ./inp_files/307409.got.cif
#   From: 2010.06.25/outbox.cif.g09.slc.cpg/sg2_154_cif.got.tgz:307409.got - 2010.06.27 13:26:56.
