data_PCOD8012749
_publ_section_title
;
Structure prediction by ZEFSAII (Michael W. Deem and Ramdas Pophale) SiO2 
 PCOD8012749
Probable space group: P -1
;
_chemical_formula_sum "Si O2"
_cell_formula_units_Z 16
_cell_length_a 8.633598
_cell_length_b 13.673988
_cell_length_c 16.716190
_cell_angle_alpha 42.324652
_cell_angle_beta 144.758462
_cell_angle_gamma 136.731081
_cell_volume 726.437340
_symmetry_space_group_name_H-M "P -1"
_symmetry_group_IT_number 2
_symmetry_cell_setting 'triclinic'
loop_
_space_group_symop_operation_xyz
x,y,z
-x,-y,-z
loop_
_atom_site_type_symbol
_atom_site_label
_atom_site_fract_x
_atom_site_fract_y
_atom_site_fract_z
Si Si1 0.178955 0.844598 0.542515
Si Si2 0.966413 0.324268 0.098044
Si Si3 0.923466 0.820676 0.060666
Si Si4 0.711386 0.307861 0.162413
Si Si5 0.274632 0.403320 0.589681
Si Si6 0.419858 0.178349 0.407841
Si Si7 0.930797 0.336674 0.638457
Si Si8 0.134029 0.642725 0.135870
O O1 0.164661 0.778954 0.665641
O O2 0.458986 0.836240 0.620126
O O3 0.895770 0.753174 0.431048
O O4 0.191519 0.021508 0.438299
O O5 0.759499 0.247958 0.130384
O O6 0.269217 0.306626 0.257230
O O7 0.853459 0.262315 0.999625
O O8 0.000000 0.500000 0.000000
O O9 0.924418 0.753446 0.189045
O O10 0.149212 0.771172 0.131540
O O11 0.625329 0.743704 0.937037
O O12 0.000000 0.000000 0.000000
O O13 0.854571 0.492367 0.117986
O O14 0.181314 0.543979 0.428501
O O15 0.603877 0.424093 0.707211
O O16 0.187428 0.415344 0.638203
O O17 0.667010 0.222113 0.550440
#
# Coordination Sequence:
#
# PCOD8012749 Si02
#       8
#     2   2   2   2   2   2   2   2
#     4  10  22  39  63  91 122 160 203 249 306 364
#     4  10  22  39  64  92 122 161 208 253 301 367
#     4  12  26  41  61  91 127 163 205 258 311 367
#     4  11  23  41  64  91 122 163 209 253 306 370
#     4  10  22  40  64  92 121 161 205 256 308 360
#     4  10  21  40  63  89 123 162 200 249 306 366
#     4  10  21  40  64  90 124 160 205 253 305 368
#     4  11  24  42  65  90 125 166 209 256 307 368
#
# _framework density 22.025299
#
# number of rings (size 3 to 8) (size 9 to 14) (size 15 to 20)
#    0.000    1.500    0.000    4.875    0.000   12.500 
#    0.000    1.875    0.000    0.000    0.000    0.000 
#    0.000    0.000    0.000    0.000    0.000    0.000 
#
# Total GULP energy -198348.980571 kJ/mol
# GULP energy per Si atom -12396.811286 kJ/mol
# Density = 2.197517 g / cm^3
# Si number density = 22.025299 Si / 1000 Ang^3
#
#
#
# Elastic Constant Matrix: (Units=GPa)
#
#
# Indices 1 2 3 4 5 6 
#
# 1 90.6312 31.8893 31.0032 -11.8013 1.3198 -0.6983
# 2 31.8893 118.7840 30.3239 -3.4671 8.3456 -8.2416
# 3 31.0032 30.3239 96.9831 -4.6452 4.9654 -1.8191
# 4 -11.8013 -3.4671 -4.6452 29.6010 3.5868 3.5195
# 5 1.3198 8.3456 4.9654 3.5868 43.2210 -6.6138
# 6 -0.6983 -8.2416 -1.8191 3.5195 -6.6138 22.3675
#
#
#
# Elastic Compliance Matrix: (Units=1/GPa)
#
#
# Indices 1 2 3 4 5 6 
#
# 1 0.013782 -0.002818 -0.003315 0.004864 -0.000158 -0.001690
# 2 -0.002818 0.010002 -0.002138 -0.000538 -0.001066 0.003193
# 3 -0.003315 -0.002138 0.012106 0.000475 -0.000957 -0.000264
# 4 0.004864 -0.000538 0.000475 0.037095 -0.004265 -0.007106
# 5 -0.000158 -0.001066 -0.000957 -0.004265 0.024971 0.007579
# 6 -0.001690 0.003193 -0.000264 -0.007106 0.007579 0.049169
#
#
# Mechanical properties :
#
#
# Convention : Reuss Voigt Hill
#
# Bulk Modulus (GPa) = 51.68493 54.75901 53.22197
# Shear Modulus (GPa) = 29.39170 33.25003 31.32087
#
# Velocity S-wave (km/s) = 3.65698 3.88961 3.77509
# Velocity P-wave (km/s) = 6.43027 6.71475 6.57405
#
# Compressibility (1/GPa) = 0.01934800
#
# Stress axis : x y z
#
# Youngs Moduli (GPa) = 72.55848 99.98412 82.60304
#
# Poissons Ratio (x) = 0.28173 0.27386
# Poissons Ratio (y) = 0.20445 0.17658
# Poissons Ratio (z) = 0.24056 0.21374
#
# Static dielectric constant tensor:
#      x y z
#    x 4.360550 -0.100340 -0.280860 
#    y -0.100340 3.837720 -0.060790 
#    z -0.280860 -0.060790 4.062610 
# 
# 
# High freq. dielectric constant tensor:
#      x y z
#    x 1.869600 -0.005620 -0.006300 
#    y -0.005620 1.851350 -0.002760 
#    z -0.006300 -0.002760 1.871920 
# 
# From -- ./inp_files/243664.got.cif
#   From: 2010.06.25/outbox.cif.g09.slc.cpg/sg2_122_cif.got.tgz:243664.got - 2010.06.27 13:26:56.
