data_PCOD8012566
_publ_section_title
;
Structure prediction by ZEFSAII (Michael W. Deem and Ramdas Pophale) SiO2 
 PCOD8012566
Probable space group: P -1
;
_chemical_formula_sum "Si O2"
_cell_formula_units_Z 14
_cell_length_a 8.999438
_cell_length_b 9.066535
_cell_length_c 9.002924
_cell_angle_alpha 86.148336
_cell_angle_beta 89.432878
_cell_angle_gamma 59.943810
_cell_volume 634.130256
_symmetry_space_group_name_H-M "P -1"
_symmetry_group_IT_number 2
_symmetry_cell_setting 'triclinic'
loop_
_space_group_symop_operation_xyz
x,y,z
-x,-y,-z
loop_
_atom_site_type_symbol
_atom_site_label
_atom_site_fract_x
_atom_site_fract_y
_atom_site_fract_z
Si Si1 0.905877 0.799227 0.724060
Si Si2 0.414459 0.140476 0.777698
Si Si3 0.723942 0.176887 0.677044
Si Si4 0.727888 0.390577 0.396217
Si Si5 0.576438 0.490564 0.838798
Si Si6 0.350876 0.229470 0.098984
Si Si7 0.193233 0.348220 0.519178
O O1 0.828714 0.772160 0.880522
O O2 0.779267 0.778194 0.608692
O O3 0.105429 0.666166 0.705935
O O4 0.885008 0.986851 0.709298
O O5 0.553936 0.161646 0.680569
O O6 0.240857 0.227555 0.674160
O O7 0.483380 0.942275 0.827324
O O8 0.376517 0.246572 0.923245
O O9 0.750810 0.241069 0.514165
O O10 0.719850 0.297487 0.804666
O O11 0.567690 0.446278 0.289548
O O12 0.694790 0.555401 0.484493
O O13 0.663090 0.608180 0.826668
O O14 0.500000 0.500000 0.000000
O O15 0.000000 0.500000 0.500000
#
# Coordination Sequence:
#
# PCOD8012566 Si02
#       7
#     2   2   2   2   2   2   2
#     4  10  24  41  63  93 128 165 205 256 316 372
#     4  10  21  40  64  93 122 164 216 256 302 376
#     4  11  22  39  65  91 126 159 209 260 309 366
#     4  11  23  41  62  93 131 159 205 260 313 369
#     4  12  23  41  66  94 123 165 212 257 313 369
#     4  10  22  40  67  89 124 165 211 257 310 371
#     4  10  21  40  61  90 126 165 207 254 310 372
#
# _framework density 22.077484999999999
#
# number of rings (size 3 to 8) (size 9 to 14) (size 15 to 20)
#    0.000    1.429    2.857    1.714    4.000    1.143 
#    0.000   10.000    0.000    0.000    0.000    0.000 
#    0.000    0.000    0.000    0.000    0.000    0.000 
#
# Total GULP energy -173525.129566 kJ/mol
# GULP energy per Si atom -12394.652112 kJ/mol
# Density = 2.202724 g / cm^3
# Si number density = 22.077485 Si / 1000 Ang^3
#
#
#
# Elastic Constant Matrix: (Units=GPa)
#
#
# Indices 1 2 3 4 5 6 
#
# 1 59.3022 14.9560 11.9893 0.5502 -12.3323 3.7996
# 2 14.9560 114.1790 5.1594 18.3306 2.1134 14.8355
# 3 11.9893 5.1594 39.4181 1.6833 -4.6709 0.4114
# 4 0.5502 18.3306 1.6833 34.2886 4.8525 0.1728
# 5 -12.3323 2.1134 -4.6709 4.8525 26.9355 2.5024
# 6 3.7996 14.8355 0.4114 0.1728 2.5024 35.8772
#
#
#
# Elastic Compliance Matrix: (Units=1/GPa)
#
#
# Indices 1 2 3 4 5 6 
#
# 1 0.020392 -0.002382 -0.004820 -0.000063 0.008860 -0.001737
# 2 -0.002382 0.010497 -0.000451 -0.005441 -0.000639 -0.004012
# 3 -0.004820 -0.000451 0.027284 -0.001418 0.002797 0.000196
# 4 -0.000063 -0.005441 -0.001418 0.032983 -0.006025 0.002534
# 5 0.008860 -0.000639 0.002797 -0.006025 0.043146 -0.003686
# 6 -0.001737 -0.004012 0.000196 0.002534 -0.003686 0.029959
#
#
# Mechanical properties :
#
#
# Convention : Reuss Voigt Hill
#
# Bulk Modulus (GPa) = 23.32732 30.78983 27.05858
# Shear Modulus (GPa) = 25.79233 31.47322 28.63277
#
# Velocity S-wave (km/s) = 3.42170 3.77978 3.60519
# Velocity P-wave (km/s) = 5.11857 5.74678 5.44175
#
# Compressibility (1/GPa) = 0.04286818
#
# Stress axis : x y z
#
# Youngs Moduli (GPa) = 49.03800 95.26387 36.65135
#
# Poissons Ratio (x) = 0.22688 0.17666
# Poissons Ratio (y) = 0.11679 0.01654
# Poissons Ratio (z) = 0.23636 0.04298
#
# Static dielectric constant tensor:
#      x y z
#    x 3.822100 0.251720 -0.023850 
#    y 0.251720 4.504550 0.214710 
#    z -0.023850 0.214710 4.111640 
# 
# 
# High freq. dielectric constant tensor:
#      x y z
#    x 1.848340 0.012050 -0.017640 
#    y 0.012050 1.886680 0.006560 
#    z -0.017640 0.006560 1.861660 
# 
# From -- ./inp_files/156804.got.cif
#   From: 2010.06.25/outbox.cif.g09.slc.cpg/sg2_79_cif.got.tgz:156804.got - 2010.06.27 13:26:56.
