data_PCOD8012977
_publ_section_title
;
Structure prediction by ZEFSAII (Michael W. Deem and Ramdas Pophale) SiO2 
 PCOD8012977
Probable space group: P -1
;
_chemical_formula_sum "Si O2"
_cell_formula_units_Z 16
_cell_length_a 16.450899
_cell_length_b 19.081306
_cell_length_c 11.017745
_cell_angle_alpha 34.372820
_cell_angle_beta 33.668259
_cell_angle_gamma 23.201448
_cell_volume 725.880082
_symmetry_space_group_name_H-M "P -1"
_symmetry_group_IT_number 2
_symmetry_cell_setting 'triclinic'
loop_
_space_group_symop_operation_xyz
x,y,z
-x,-y,-z
loop_
_atom_site_type_symbol
_atom_site_label
_atom_site_fract_x
_atom_site_fract_y
_atom_site_fract_z
Si Si1 0.331233 0.999054 0.736561
Si Si2 0.554982 0.310537 0.118899
Si Si3 0.951540 0.367506 0.024450
Si Si4 0.526946 0.763077 0.058216
Si Si5 0.948249 0.388353 0.728027
Si Si6 0.484153 0.405167 0.336849
Si Si7 0.785425 0.217486 0.459481
Si Si8 0.227661 0.350117 0.859164
O O1 0.346384 0.871727 0.809909
O O2 0.500000 0.000000 0.500000
O O3 0.373630 0.937508 0.911781
O O4 0.094332 0.210744 0.711823
O O5 0.295629 0.477465 0.200372
O O6 0.607026 0.275165 0.248755
O O7 0.632197 0.388908 0.843607
O O8 0.756912 0.591098 0.952099
O O9 0.864542 0.299628 0.297395
O O10 0.000590 0.304225 0.916212
O O11 0.182290 0.268594 0.936441
O O12 0.395494 0.719715 0.312595
O O13 0.579940 0.800543 0.066830
O O14 0.000000 0.500000 0.500000
O O15 0.679285 0.299736 0.340898
O O16 0.294467 0.432605 0.584214
O O17 0.000000 0.000000 0.500000
O O18 0.000000 0.500000 0.000000
#
# Coordination Sequence:
#
# PCOD8012977 Si02
#       8
#     2   2   2   2   2   2   2   2
#     4  12  24  41  66 103 132 176 228 274 344 406
#     4  11  23  44  71  97 142 179 222 283 339 413
#     4  11  20  40  65  94 129 177 222 273 344 390
#     4  10  21  40  64  95 134 168 222 284 333 402
#     4  12  22  39  66  97 134 175 224 275 333 404
#     4  10  22  44  69  98 139 182 219 281 352 392
#     4  11  22  40  65  96 132 174 228 274 330 414
#     4   9  21  38  66  99 130 172 229 275 341 401
#
# _framework density 22.042207000000001
#
# number of rings (size 3 to 8) (size 9 to 14) (size 15 to 20)
#    0.000    1.250    3.750    1.875    0.000    3.000 
#    2.250    4.375    2.750    0.000    0.000    0.000 
#    0.000    0.000    0.000    0.000    0.000    0.000 
#
# Total GULP energy -198291.472301 kJ/mol
# GULP energy per Si atom -12393.217019 kJ/mol
# Density = 2.199204 g / cm^3
# Si number density = 22.042207 Si / 1000 Ang^3
#
#
#
# Elastic Constant Matrix: (Units=GPa)
#
#
# Indices 1 2 3 4 5 6 
#
# 1 94.6852 25.3674 57.8053 -5.6903 -13.0011 4.9865
# 2 25.3674 101.1350 23.2492 -7.3153 -8.7074 21.9720
# 3 57.8053 23.2492 147.2006 3.1355 -10.9265 -3.3090
# 4 -5.6903 -7.3153 3.1355 28.4834 -2.3521 -3.4711
# 5 -13.0011 -8.7074 -10.9265 -2.3521 41.4043 3.3489
# 6 4.9865 21.9720 -3.3090 -3.4711 3.3489 22.7941
#
#
#
# Elastic Compliance Matrix: (Units=1/GPa)
#
#
# Indices 1 2 3 4 5 6 
#
# 1 0.015170 -0.001374 -0.005620 0.003234 0.003403 -0.002817
# 2 -0.001374 0.014047 -0.001788 0.002136 0.003277 -0.013655
# 3 -0.005620 -0.001788 0.009411 -0.002138 -0.000103 0.004009
# 4 0.003234 0.002136 -0.002138 0.037034 0.002831 0.002146
# 5 0.003403 0.003277 -0.000103 0.002831 0.026642 -0.007401
# 6 -0.002817 -0.013655 0.004009 0.002146 -0.007401 0.059646
#
#
# Mechanical properties :
#
#
# Convention : Reuss Voigt Hill
#
# Bulk Modulus (GPa) = 47.47570 61.76272 54.61921
# Shear Modulus (GPa) = 26.80444 34.30961 30.55702
#
# Velocity S-wave (km/s) = 3.49097 3.94958 3.72734
# Velocity P-wave (km/s) = 6.15098 6.99142 6.58462
#
# Compressibility (1/GPa) = 0.02106341
#
# Stress axis : x y z
#
# Youngs Moduli (GPa) = 65.91743 71.19033 106.26025
#
# Poissons Ratio (x) = 0.09783 0.59718
# Poissons Ratio (y) = 0.09058 0.19002
# Poissons Ratio (z) = 0.37046 0.12730
#
# Static dielectric constant tensor:
#      x y z
#    x 4.642910 -0.095010 -0.422060 
#    y -0.095010 3.623560 0.499520 
#    z -0.422060 0.499520 3.576230 
# 
# 
# High freq. dielectric constant tensor:
#      x y z
#    x 1.875730 -0.004890 -0.002930 
#    y -0.004890 1.842940 0.010870 
#    z -0.002930 0.010870 1.884670 
# 
# From -- ./inp_files/427715.got.cif
#   From: 2010.06.25/outbox.cif.g09.slc.cpg/sg2_214_cif.got.tgz:427715.got - 2010.06.27 13:26:56.
