data_PCOD8012455
_publ_section_title
;
Structure prediction by ZEFSAII (Michael W. Deem and Ramdas Pophale) SiO2 
 PCOD8012455
Probable space group: P -1
;
_chemical_formula_sum "Si O2"
_cell_formula_units_Z 16
_cell_length_a 6.825287
_cell_length_b 19.851363
_cell_length_c 19.698732
_cell_angle_alpha 159.020628
_cell_angle_beta 102.555606
_cell_angle_gamma 66.829147
_cell_volume 781.975700
_symmetry_space_group_name_H-M "P -1"
_symmetry_group_IT_number 2
_symmetry_cell_setting 'triclinic'
loop_
_space_group_symop_operation_xyz
x,y,z
-x,-y,-z
loop_
_atom_site_type_symbol
_atom_site_label
_atom_site_fract_x
_atom_site_fract_y
_atom_site_fract_z
Si Si1 0.755463 0.861635 0.463651
Si Si2 0.782018 0.876538 0.906284
Si Si3 0.514764 0.746179 0.963848
Si Si4 0.964129 0.912548 0.815307
Si Si5 0.059748 0.529586 0.368640
Si Si6 0.450722 0.709592 0.236428
Si Si7 0.708622 0.334730 0.673422
Si Si8 0.444807 0.135038 0.410059
O O1 0.692047 0.700878 0.266838
O O2 0.591661 0.956365 0.607559
O O3 0.029331 0.718724 0.372765
O O4 0.717123 0.064537 0.605798
O O5 0.882309 0.823638 0.787850
O O6 0.912725 0.641757 0.733551
O O7 0.500000 0.000000 0.000000
O O8 0.832369 0.047698 0.108584
O O9 0.262381 0.851618 0.006344
O O10 0.537367 0.946535 0.182169
O O11 0.729502 0.594240 0.786065
O O12 0.523677 0.595077 0.884868
O O13 0.074569 0.727495 0.590365
O O14 0.802306 0.636238 0.413999
O O15 0.310235 0.711087 0.292973
O O16 0.500000 0.500000 0.000000
O O17 0.652119 0.184181 0.480196
#
# Coordination Sequence:
#
# PCOD8012455 Si02
#       8
#     2   2   2   2   2   2   2   2
#     4  10  21  40  59  87 122 153 202 247 291 355
#     4  11  22  42  63  89 120 159 201 243 302 353
#     4  11  22  41  62  90 120 159 201 241 302 357
#     4  10  24  42  62  89 123 155 199 251 292 356
#     4  11  22  42  63  88 123 158 197 248 298 352
#     4  10  22  38  60  87 120 159 198 245 297 350
#     4  11  22  39  62  88 120 161 197 245 302 348
#     4  10  23  41  60  88 124 155 198 251 293 354
#
# _framework density 20.460992000000001
#
# number of rings (size 3 to 8) (size 9 to 14) (size 15 to 20)
#    0.000    1.500    2.500    2.250    0.000    3.000 
#    4.500    0.000    0.000    0.000    0.000    0.000 
#    0.000    0.000    0.000    0.000    0.000    0.000 
#
# Total GULP energy -198453.437683 kJ/mol
# GULP energy per Si atom -12403.339855 kJ/mol
# Density = 2.041442 g / cm^3
# Si number density = 20.460992 Si / 1000 Ang^3
#
#
#
# Elastic Constant Matrix: (Units=GPa)
#
#
# Indices 1 2 3 4 5 6 
#
# 1 112.3003 40.7732 54.7132 -3.2927 2.3148 -19.1979
# 2 40.7732 115.1850 45.7830 13.5005 -0.8776 -2.4589
# 3 54.7132 45.7830 118.2128 -12.0462 -2.5665 -4.7853
# 4 -3.2927 13.5005 -12.0462 39.2497 1.6708 17.0594
# 5 2.3148 -0.8776 -2.5665 1.6708 24.2594 -1.7393
# 6 -19.1979 -2.4589 -4.7853 17.0594 -1.7393 28.5392
#
#
#
# Elastic Compliance Matrix: (Units=1/GPa)
#
#
# Indices 1 2 3 4 5 6 
#
# 1 0.014294 -0.001899 -0.005936 -0.004839 -0.000918 0.011293
# 2 -0.001899 0.011985 -0.004332 -0.007093 0.000883 0.003322
# 3 -0.005936 -0.004332 0.013446 0.008082 0.000781 -0.006895
# 4 -0.004839 -0.007093 0.008082 0.042354 -0.003869 -0.028064
# 5 -0.000918 0.000883 0.000781 -0.003869 0.042010 0.004463
# 6 0.011293 0.003322 -0.006895 -0.028064 0.004463 0.058813
#
#
# Mechanical properties :
#
#
# Convention : Reuss Voigt Hill
#
# Bulk Modulus (GPa) = 64.97482 69.80409 67.38946
# Shear Modulus (GPa) = 23.54433 32.03826 27.79130
#
# Velocity S-wave (km/s) = 3.39587 3.96134 3.68945
# Velocity P-wave (km/s) = 6.87025 7.42379 7.15238
#
# Compressibility (1/GPa) = 0.01539058
#
# Stress axis : x y z
#
# Youngs Moduli (GPa) = 69.96041 83.44045 74.37265
#
# Poissons Ratio (x) = 0.15846 0.44148
# Poissons Ratio (y) = 0.13286 0.32216
# Poissons Ratio (z) = 0.41529 0.36144
#
# Static dielectric constant tensor:
#      x y z
#    x 3.598440 0.004170 0.176440 
#    y 0.004170 4.133350 0.070610 
#    z 0.176440 0.070610 3.548880 
# 
# 
# High freq. dielectric constant tensor:
#      x y z
#    x 1.796710 -0.000670 0.011840 
#    y -0.000670 1.826750 0.002900 
#    z 0.011840 0.002900 1.790610 
# 
# From -- ./inp_files/10992.got.cif
#   From: 2010.06.25/outbox.cif.g09.slc.cpg/sg2_6_cif.got.tgz:10992.got - 2010.06.27 13:26:56.
