data_PCOD8012664
_publ_section_title
;
Structure prediction by ZEFSAII (Michael W. Deem and Ramdas Pophale) SiO2 
 PCOD8012664
Probable space group: P -1
;
_chemical_formula_sum "Si O2"
_cell_formula_units_Z 16
_cell_length_a 16.151333
_cell_length_b 11.647169
_cell_length_c 9.126949
_cell_angle_alpha 38.718022
_cell_angle_beta 48.662757
_cell_angle_gamma 44.902784
_cell_volume 735.128007
_symmetry_space_group_name_H-M "P -1"
_symmetry_group_IT_number 2
_symmetry_cell_setting 'triclinic'
loop_
_space_group_symop_operation_xyz
x,y,z
-x,-y,-z
loop_
_atom_site_type_symbol
_atom_site_label
_atom_site_fract_x
_atom_site_fract_y
_atom_site_fract_z
Si Si1 0.904446 0.411962 0.149444
Si Si2 0.244727 0.192970 0.209357
Si Si3 0.814380 0.498851 0.461307
Si Si4 0.049376 0.094332 0.062369
Si Si5 0.527884 0.952839 0.726673
Si Si6 0.260291 0.059044 0.013220
Si Si7 0.437131 0.349974 0.261891
Si Si8 0.962805 0.770440 0.369836
O O1 0.855081 0.350347 0.418534
O O2 0.964186 0.221877 0.165176
O O3 0.792210 0.578767 0.027488
O O4 0.000000 0.500000 0.000000
O O5 0.384642 0.096773 0.187507
O O6 0.233729 0.059893 0.217232
O O7 0.162091 0.195764 0.439880
O O8 0.692542 0.501596 0.670630
O O9 0.923725 0.435222 0.514124
O O10 0.794074 0.714740 0.208550
O O11 0.183733 0.963138 0.103688
O O12 0.994245 0.950179 0.207132
O O13 0.056345 0.230708 0.781179
O O14 0.586755 0.768378 0.728884
O O15 0.513961 0.170954 0.463897
O O16 0.401731 0.948881 0.926111
O O17 0.500000 0.500000 0.000000
#
# Coordination Sequence:
#
# PCOD8012664 Si02
#       8
#     2   2   2   2   2   2   2   2
#     4  11  20  41  63  90 124 169 209 260 323 387
#     4  11  22  40  64  93 129 164 215 259 321 386
#     4  10  21  40  62  92 119 164 211 260 324 374
#     4  11  24  39  59  93 131 161 213 263 329 379
#     4  10  24  41  67  94 126 178 213 263 324 375
#     4  10  21  42  65  86 125 173 210 263 315 391
#     4  10  24  43  66  95 130 168 219 268 317 383
#     4  11  25  36  61  97 126 164 205 275 321 387
#
# _framework density 21.764918000000002
#
# number of rings (size 3 to 8) (size 9 to 14) (size 15 to 20)
#    0.000    1.500    3.750    0.375    8.750    4.000 
#    0.000    0.000    0.000    3.000    0.000    0.000 
#    0.000    0.000    0.000    0.000    0.000    0.000 
#
# Total GULP energy -198324.921524 kJ/mol
# GULP energy per Si atom -12395.307595 kJ/mol
# Density = 2.171538 g / cm^3
# Si number density = 21.764918 Si / 1000 Ang^3
#
#
#
# Elastic Constant Matrix: (Units=GPa)
#
#
# Indices 1 2 3 4 5 6 
#
# 1 125.1441 49.3841 14.7165 5.6852 14.5123 -21.9617
# 2 49.3841 111.7012 38.4866 28.9018 -1.3798 -6.8512
# 3 14.7165 38.4866 59.9758 18.3824 -7.1258 -8.5566
# 4 5.6852 28.9018 18.3824 39.0168 -0.5946 -0.4783
# 5 14.5123 -1.3798 -7.1258 -0.5946 25.7779 -2.0554
# 6 -21.9617 -6.8512 -8.5566 -0.4783 -2.0554 38.3688
#
#
#
# Elastic Compliance Matrix: (Units=1/GPa)
#
#
# Indices 1 2 3 4 5 6 
#
# 1 0.011782 -0.005557 -0.000051 0.002392 -0.006457 0.005424
# 2 -0.005557 0.015461 -0.006227 -0.007702 0.001913 -0.001802
# 3 -0.000051 -0.006227 0.024126 -0.006591 0.006572 0.004509
# 4 0.002392 -0.007702 -0.006591 0.034033 -0.002892 -0.001207
# 5 -0.006457 0.001913 0.006572 -0.002892 0.044316 0.000449
# 6 0.005424 -0.001802 0.004509 -0.001207 0.000449 0.029860
#
#
# Mechanical properties :
#
#
# Convention : Reuss Voigt Hill
#
# Bulk Modulus (GPa) = 36.10359 55.77727 45.94043
# Shear Modulus (GPa) = 25.97654 33.58160 29.77907
#
# Velocity S-wave (km/s) = 3.45846 3.93227 3.70295
# Velocity P-wave (km/s) = 5.70718 6.80439 6.27980
#
# Compressibility (1/GPa) = 0.02769808
#
# Stress axis : x y z
#
# Youngs Moduli (GPa) = 84.87741 64.68039 41.44893
#
# Poissons Ratio (x) = 0.35943 0.00213
# Poissons Ratio (y) = 0.47167 0.25809
# Poissons Ratio (z) = 0.00436 0.40274
#
# Static dielectric constant tensor:
#      x y z
#    x 4.060950 -0.071360 0.340340 
#    y -0.071360 4.238680 0.354870 
#    z 0.340340 0.354870 4.093550 
# 
# 
# High freq. dielectric constant tensor:
#      x y z
#    x 1.854190 -0.001470 0.015860 
#    y -0.001470 1.863190 0.015450 
#    z 0.015860 0.015450 1.849400 
# 
# From -- ./inp_files/306138.got.cif
#   From: 2010.06.25/outbox.cif.g09.slc.cpg/sg2_154_cif.got.tgz:306138.got - 2010.06.27 13:26:56.
