data_PCOD8012866
_publ_section_title
;
Structure prediction by ZEFSAII (Michael W. Deem and Ramdas Pophale) SiO2 
 PCOD8012866
Probable space group: P -1
;
_chemical_formula_sum "Si O2"
_cell_formula_units_Z 14
_cell_length_a 8.821265
_cell_length_b 8.743545
_cell_length_c 9.565749
_cell_angle_alpha 93.784736
_cell_angle_beta 78.612902
_cell_angle_gamma 119.883378
_cell_volume 626.654446
_symmetry_space_group_name_H-M "P -1"
_symmetry_group_IT_number 2
_symmetry_cell_setting 'triclinic'
loop_
_space_group_symop_operation_xyz
x,y,z
-x,-y,-z
loop_
_atom_site_type_symbol
_atom_site_label
_atom_site_fract_x
_atom_site_fract_y
_atom_site_fract_z
Si Si1 0.559360 0.193555 0.445354
Si Si2 0.695360 0.802289 0.308811
Si Si3 0.490603 0.775553 0.087444
Si Si4 0.997807 0.248526 0.653015
Si Si5 0.635197 0.956210 0.792296
Si Si6 0.909580 0.218970 0.353601
Si Si7 0.094831 0.509517 0.130748
O O1 0.481911 0.284942 0.567613
O O2 0.480949 0.192039 0.307644
O O3 0.772991 0.295276 0.405348
O O4 0.500000 0.000000 0.500000
O O5 0.620372 0.743865 0.162856
O O6 0.815224 0.714864 0.316245
O O7 0.809586 0.012735 0.323005
O O8 0.306721 0.599685 0.071153
O O9 0.442284 0.910621 0.179527
O O10 0.613758 0.860420 0.936028
O O11 0.017481 0.260372 0.481734
O O12 0.948654 0.385397 0.738426
O O13 0.840830 0.053166 0.713029
O O14 0.030827 0.318865 0.202158
O O15 0.000000 0.500000 0.000000
#
# Coordination Sequence:
#
# PCOD8012866 Si02
#       7
#     2   2   2   2   2   2   2
#     4  10  16  33  59  89 116 151 201 246 290 359
#     4  11  22  38  65  96 123 152 208 259 307 349
#     4  10  21  38  61  87 122 164 204 248 297 367
#     4  11  23  39  62  96 124 156 203 262 305 352
#     4  10  18  34  60  88 118 157 208 242 291 359
#     4  11  21  40  66  93 122 162 203 250 302 372
#     4  11  25  44  63  87 125 167 208 242 306 374
#
# _framework density 22.340861
#
# number of rings (size 3 to 8) (size 9 to 14) (size 15 to 20)
#    0.000    1.429    5.714    2.571    4.000    0.571 
#    0.000    3.571    0.000    0.000    0.000    0.000 
#    0.000    0.000    0.000    0.000    0.000    0.000 
#
# Total GULP energy -173572.934545 kJ/mol
# GULP energy per Si atom -12398.066753 kJ/mol
# Density = 2.229001 g / cm^3
# Si number density = 22.340861 Si / 1000 Ang^3
#
#
#
# Elastic Constant Matrix: (Units=GPa)
#
#
# Indices 1 2 3 4 5 6 
#
# 1 99.5105 -2.0595 27.2669 -7.1612 27.0532 14.7376
# 2 -2.0595 37.7824 13.4985 -5.5283 3.6436 15.3743
# 3 27.2669 13.4985 136.2046 -11.8955 32.7681 15.6440
# 4 -7.1612 -5.5283 -11.8955 27.5435 11.1774 -2.4353
# 5 27.0532 3.6436 32.7681 11.1774 41.3931 8.4660
# 6 14.7376 15.3743 15.6440 -2.4353 8.4660 21.0267
#
#
#
# Elastic Compliance Matrix: (Units=1/GPa)
#
#
# Indices 1 2 3 4 5 6 
#
# 1 0.015623 0.007709 0.001260 0.010133 -0.012291 -0.011402
# 2 0.007709 0.042299 -0.000013 0.009327 -0.004427 -0.033459
# 3 0.001260 -0.000013 0.011055 0.009434 -0.011424 -0.003406
# 4 0.010133 0.009327 0.009434 0.056747 -0.029746 -0.002392
# 5 -0.012291 -0.004427 -0.011424 -0.029746 0.050345 -0.003365
# 6 -0.011402 -0.033459 -0.003406 -0.002392 -0.003365 0.083626
#
#
# Mechanical properties :
#
#
# Convention : Reuss Voigt Hill
#
# Bulk Modulus (GPa) = 11.50910 38.98993 25.24951
# Shear Modulus (GPa) = 18.46759 33.64543 26.05651
#
# Velocity S-wave (km/s) = 2.87823 3.88494 3.41884
# Velocity P-wave (km/s) = 4.02597 6.13301 5.18759
#
# Compressibility (1/GPa) = 0.08688779
#
# Stress axis : x y z
#
# Youngs Moduli (GPa) = 64.00960 23.64143 90.46073
#
# Poissons Ratio (x) = -0.18225 -0.11397
# Poissons Ratio (y) = -0.49344 0.00115
# Poissons Ratio (z) = -0.08064 0.00030
#
# Static dielectric constant tensor:
#      x y z
#    x 4.245620 0.407070 -0.060340 
#    y 0.407070 3.751050 -0.105440 
#    z -0.060340 -0.105440 4.132950 
# 
# 
# High freq. dielectric constant tensor:
#      x y z
#    x 1.873260 0.022970 0.007040 
#    y 0.022970 1.845460 -0.006660 
#    z 0.007040 -0.006660 1.893790 
# 
# From -- ./inp_files/154259.got.cif
#   From: 2010.06.25/outbox.cif.g09.slc.cpg/sg2_78_cif.got.tgz:154259.got - 2010.06.27 13:26:56.
