data_PCOD8012647
_publ_section_title
;
Structure prediction by ZEFSAII (Michael W. Deem and Ramdas Pophale) SiO2 
 PCOD8012647
Probable space group: P -1
;
_chemical_formula_sum "Si O2"
_cell_formula_units_Z 16
_cell_length_a 8.701882
_cell_length_b 8.809731
_cell_length_c 17.001799
_cell_angle_alpha 65.145903
_cell_angle_beta 94.901148
_cell_angle_gamma 51.129183
_cell_volume 800.416245
_symmetry_space_group_name_H-M "P -1"
_symmetry_group_IT_number 2
_symmetry_cell_setting 'triclinic'
loop_
_space_group_symop_operation_xyz
x,y,z
-x,-y,-z
loop_
_atom_site_type_symbol
_atom_site_label
_atom_site_fract_x
_atom_site_fract_y
_atom_site_fract_z
Si Si1 0.639079 0.246206 0.222007
Si Si2 0.412817 0.216358 0.001888
Si Si3 0.971881 0.276563 0.204827
Si Si4 0.226286 0.217207 0.694573
Si Si5 0.163785 0.273633 0.370067
Si Si6 0.656543 0.002515 0.409196
Si Si7 0.273074 0.799781 0.059363
Si Si8 0.632562 0.025721 0.832785
O O1 0.841238 0.207189 0.217329
O O2 0.655274 0.188046 0.328853
O O3 0.390425 0.523324 0.131295
O O4 0.682327 0.040820 0.218898
O O5 0.181768 0.463902 0.900005
O O6 0.613621 0.199679 0.013045
O O7 0.346985 0.182953 0.089223
O O8 0.500000 0.000000 0.000000
O O9 0.034543 0.281557 0.293880
O O10 0.190324 0.076824 0.204875
O O11 0.975664 0.454636 0.663930
O O12 0.232633 0.219270 0.599109
O O13 0.386031 0.233440 0.736047
O O14 0.397780 0.158113 0.375100
O O15 0.203614 0.110976 0.478882
O O16 0.346974 0.849639 0.126917
O O17 0.000000 0.000000 0.000000
#
# Coordination Sequence:
#
# PCOD8012647 Si02
#       8
#     2   2   2   2   2   2   2   2
#     4   9  22  39  56  88 125 149 205 246 307 351
#     4   9  20  36  56  82 111 156 201 237 294 353
#     4  11  21  38  57  89 120 159 198 250 304 354
#     4  10  21  40  62  90 119 159 201 251 294 359
#     4  11  20  39  68  85 122 160 202 252 294 358
#     4   9  22  39  62  92 119 156 210 243 302 356
#     4  10  22  40  60  87 122 159 200 249 305 354
#     4  11  22  38  60  86 118 160 205 243 294 365
#
# _framework density 19.989598999999998
#
# number of rings (size 3 to 8) (size 9 to 14) (size 15 to 20)
#    0.750    1.250    1.250    3.000    0.000    8.500 
#    0.000    2.500    0.000    3.000    0.000    2.625 
#    0.000    0.000    0.000    0.000    0.000    0.000 
#
# Total GULP energy -198220.268910 kJ/mol
# GULP energy per Si atom -12388.766807 kJ/mol
# Density = 1.994410 g / cm^3
# Si number density = 19.989599 Si / 1000 Ang^3
#
#
#
# Elastic Constant Matrix: (Units=GPa)
#
#
# Indices 1 2 3 4 5 6 
#
# 1 73.0653 25.0629 21.9252 0.3717 -4.0696 -6.6511
# 2 25.0629 88.7180 -1.1104 -6.9720 0.1431 -5.9790
# 3 21.9252 -1.1104 45.3138 1.9961 -8.5611 -3.7931
# 4 0.3717 -6.9720 1.9961 32.9504 2.0731 -5.7884
# 5 -4.0696 0.1431 -8.5611 2.0731 32.7978 -0.1103
# 6 -6.6511 -5.9790 -3.7931 -5.7884 -0.1103 21.7395
#
#
#
# Elastic Compliance Matrix: (Units=1/GPa)
#
#
# Indices 1 2 3 4 5 6 
#
# 1 0.018311 -0.005133 -0.008748 -0.000312 0.000039 0.002581
# 2 -0.005133 0.013251 0.002929 0.003301 -0.000127 0.003463
# 3 -0.008748 0.002929 0.027821 -0.000870 0.006228 0.002783
# 4 -0.000312 0.003301 -0.000870 0.032903 -0.002328 0.009410
# 5 0.000039 -0.000127 0.006228 -0.002328 0.032270 0.000607
# 6 0.002581 0.003463 0.002783 0.009410 0.000607 0.050736
#
#
# Mechanical properties :
#
#
# Convention : Reuss Voigt Hill
#
# Bulk Modulus (GPa) = 26.68215 33.20583 29.94399
# Shear Modulus (GPa) = 23.84474 28.24550 26.04512
#
# Velocity S-wave (km/s) = 3.45752 3.76308 3.61353
# Velocity P-wave (km/s) = 5.41445 5.96059 5.69407
#
# Compressibility (1/GPa) = 0.03747824
#
# Stress axis : x y z
#
# Youngs Moduli (GPa) = 54.61192 75.46370 35.94413
#
# Poissons Ratio (x) = 0.38735 0.31445
# Poissons Ratio (y) = 0.28032 -0.10527
# Poissons Ratio (z) = 0.47777 -0.22102
#
# Static dielectric constant tensor:
#      x y z
#    x 3.745860 -0.250810 -0.176160 
#    y -0.250810 3.619240 0.125370 
#    z -0.176160 0.125370 3.767000 
# 
# 
# High freq. dielectric constant tensor:
#      x y z
#    x 1.775220 -0.016840 -0.000620 
#    y -0.016840 1.781920 0.002980 
#    z -0.000620 0.002980 1.778770 
# 
# From -- ./inp_files/557121.got.cif
#   From: 2010.06.25/outbox.cif.g09.slc.cpg/sg2_279_cif.got.tgz:557121.got - 2010.06.27 13:26:56.
