data_PCOD8012963
_publ_section_title
;
Structure prediction by ZEFSAII (Michael W. Deem and Ramdas Pophale) SiO2 
 PCOD8012963
Probable space group: P -1
;
_chemical_formula_sum "Si O2"
_cell_formula_units_Z 16
_cell_length_a 21.467680
_cell_length_b 21.619636
_cell_length_c 8.682687
_cell_angle_alpha 31.765190
_cell_angle_beta 30.035359
_cell_angle_gamma 20.609135
_cell_volume 691.545561
_symmetry_space_group_name_H-M "P -1"
_symmetry_group_IT_number 2
_symmetry_cell_setting 'triclinic'
loop_
_space_group_symop_operation_xyz
x,y,z
-x,-y,-z
loop_
_atom_site_type_symbol
_atom_site_label
_atom_site_fract_x
_atom_site_fract_y
_atom_site_fract_z
Si Si1 0.266042 0.760498 0.248347
Si Si2 0.127531 0.660991 0.931394
Si Si3 0.025500 0.149412 0.839859
Si Si4 0.728410 0.924462 0.089077
Si Si5 0.364794 0.267933 0.295495
Si Si6 0.724201 0.367003 0.803166
Si Si7 0.595911 0.658711 0.631069
Si Si8 0.355606 0.003106 0.244879
O O1 0.245362 0.698897 0.577942
O O2 0.199166 0.714592 0.357305
O O3 0.486732 0.639729 0.011437
O O4 0.139245 0.968800 0.073300
O O5 0.250242 0.456594 0.059892
O O6 0.071146 0.693226 0.162992
O O7 0.944317 0.807432 0.903473
O O8 0.155918 0.142471 0.469867
O O9 0.863308 0.197658 0.982826
O O10 0.716389 0.799139 0.442816
O O11 0.587221 0.109961 0.099128
O O12 0.675206 0.969559 0.928656
O O13 0.336834 0.293313 0.489084
O O14 0.755385 0.478740 0.565764
O O15 0.500000 0.500000 0.000000
O O16 0.453153 0.809868 0.487521
O O17 0.500000 0.000000 0.000000
#
# Coordination Sequence:
#
# PCOD8012963 Si02
#       8
#     2   2   2   2   2   2   2   2
#     4  10  23  40  65  97 135 175 226 274 349 400
#     4  12  25  44  68 103 139 181 227 278 345 413
#     4  11  23  43  67  97 139 178 227 285 337 409
#     4  11  25  44  69  99 136 179 227 282 340 404
#     4  11  24  45  69  95 141 176 227 278 339 404
#     4  10  21  40  64  94 135 176 222 278 336 403
#     4  10  21  44  64 100 131 175 229 280 335 409
#     4  11  23  43  72  95 131 181 228 285 347 394
#
# _framework density 23.136582000000001
#
# number of rings (size 3 to 8) (size 9 to 14) (size 15 to 20)
#    0.000    1.250    2.500    3.375    3.500    2.500 
#    2.250    1.250    0.000    0.000    0.000    0.000 
#    0.000    0.000    0.000    0.000    0.000    0.000 
#
# Total GULP energy -198243.970950 kJ/mol
# GULP energy per Si atom -12390.248184 kJ/mol
# Density = 2.308392 g / cm^3
# Si number density = 23.136582 Si / 1000 Ang^3
#
#
#
# Elastic Constant Matrix: (Units=GPa)
#
#
# Indices 1 2 3 4 5 6 
#
# 1 81.7631 12.5316 -4.2717 6.3914 6.2494 4.3350
# 2 12.5316 106.1295 27.1830 -2.8479 -5.9516 15.0815
# 3 -4.2717 27.1830 86.5008 3.0799 1.1570 -1.5682
# 4 6.3914 -2.8479 3.0799 19.5597 -3.3312 -2.5335
# 5 6.2494 -5.9516 1.1570 -3.3312 25.9124 -1.3831
# 6 4.3350 15.0815 -1.5682 -2.5335 -1.3831 45.5215
#
#
#
# Elastic Compliance Matrix: (Units=1/GPa)
#
#
# Indices 1 2 3 4 5 6 
#
# 1 0.013543 -0.002311 0.001652 -0.005942 -0.004685 -0.000940
# 2 -0.002311 0.011482 -0.003947 0.003217 0.003601 -0.003432
# 3 0.001652 -0.003947 0.013057 -0.003380 -0.002251 0.001344
# 4 -0.005942 0.003217 -0.003380 0.056079 0.009682 0.002799
# 5 -0.004685 0.003601 -0.002251 0.009682 0.041947 0.000989
# 6 -0.000940 -0.003432 0.001344 0.002799 0.000989 0.023426
#
#
# Mechanical properties :
#
#
# Convention : Reuss Voigt Hill
#
# Bulk Modulus (GPa) = 34.63692 38.36436 36.50064
# Shear Modulus (GPa) = 28.03148 34.12873 31.08010
#
# Velocity S-wave (km/s) = 3.48453 3.84487 3.66913
# Velocity P-wave (km/s) = 5.58502 6.02730 5.81037
#
# Compressibility (1/GPa) = 0.02887093
#
# Stress axis : x y z
#
# Youngs Moduli (GPa) = 73.83689 87.09050 76.58447
#
# Poissons Ratio (x) = 0.20126 -0.12653
# Poissons Ratio (y) = 0.17063 0.30231
# Poissons Ratio (z) = -0.12199 0.34378
#
# Static dielectric constant tensor:
#      x y z
#    x 4.330970 0.154410 0.005550 
#    y 0.154410 4.411500 -0.035190 
#    z 0.005550 -0.035190 3.985330 
# 
# 
# High freq. dielectric constant tensor:
#      x y z
#    x 1.921420 0.002550 0.005200 
#    y 0.002550 1.929650 -0.006260 
#    z 0.005200 -0.006260 1.888240 
# 
# From -- ./inp_files/274275.got.cif
#   From: 2010.06.25/outbox.cif.g09.slc.cpg/sg2_138_cif.got.tgz:274275.got - 2010.06.27 13:26:56.
