data_PCOD8012634
_publ_section_title
;
Structure prediction by ZEFSAII (Michael W. Deem and Ramdas Pophale) SiO2 
 PCOD8012634
Probable space group: P -1
;
_chemical_formula_sum "Si O2"
_cell_formula_units_Z 16
_cell_length_a 14.018161
_cell_length_b 14.587041
_cell_length_c 9.054963
_cell_angle_alpha 114.445873
_cell_angle_beta 94.473538
_cell_angle_gamma 30.552653
_cell_volume 684.466225
_symmetry_space_group_name_H-M "P -1"
_symmetry_group_IT_number 2
_symmetry_cell_setting 'triclinic'
loop_
_space_group_symop_operation_xyz
x,y,z
-x,-y,-z
loop_
_atom_site_type_symbol
_atom_site_label
_atom_site_fract_x
_atom_site_fract_y
_atom_site_fract_z
Si Si1 0.835329 0.739227 0.462418
Si Si2 0.398752 0.077162 0.733598
Si Si3 0.825095 0.123471 0.179623
Si Si4 0.972444 0.289145 0.036915
Si Si5 0.769227 0.770137 0.891932
Si Si6 0.548532 0.702530 0.479752
Si Si7 0.050750 0.182620 0.655994
Si Si8 0.693923 0.418658 0.571571
O O1 0.632391 0.925715 0.689050
O O2 0.892241 0.796629 0.458854
O O3 0.073046 0.451857 0.343134
O O4 0.717959 0.786171 0.346780
O O5 0.488132 0.875778 0.626686
O O6 0.197125 0.292066 0.972547
O O7 0.824677 0.197415 0.369433
O O8 0.558228 0.371348 0.251850
O O9 0.916221 0.927433 0.104595
O O10 0.000000 0.000000 0.000000
O O11 0.949660 0.339559 0.892954
O O12 0.149132 0.191709 0.086900
O O13 0.720843 0.530847 0.245922
O O14 0.500000 0.000000 0.000000
O O15 0.661983 0.537233 0.523565
O O16 0.299996 0.888577 0.528779
O O17 0.854116 0.296725 0.647501
#
# Coordination Sequence:
#
# PCOD8012634 Si02
#       8
#     2   2   2   2   2   2   2   2
#     4  10  22  38  63  91 129 175 219 272 325 389
#     4  10  21  40  62  88 130 178 224 265 326 391
#     4  11  24  47  74 100 135 178 224 285 341 404
#     4  12  24  46  68  98 141 179 224 284 341 398
#     4  12  25  38  64  98 134 179 224 272 329 400
#     4  11  22  45  71  95 140 181 220 284 337 400
#     4  11  26  43  71 102 137 177 229 280 338 405
#     4  11  25  46  74 100 133 177 227 280 345 405
#
# _framework density 23.375878
#
# number of rings (size 3 to 8) (size 9 to 14) (size 15 to 20)
#    0.000    1.000    6.250    0.375    3.500    3.000 
#    0.000    1.250    0.000    0.000    0.000    0.000 
#    0.000    0.000    0.000    0.000    0.000    0.000 
#
# Total GULP energy -198245.979075 kJ/mol
# GULP energy per Si atom -12390.373692 kJ/mol
# Density = 2.332267 g / cm^3
# Si number density = 23.375878 Si / 1000 Ang^3
#
#
#
# Elastic Constant Matrix: (Units=GPa)
#
#
# Indices 1 2 3 4 5 6 
#
# 1 89.1195 30.1780 24.8151 -0.0627 -11.8477 -16.2154
# 2 30.1780 74.9084 10.5957 9.7195 1.7843 -23.5148
# 3 24.8151 10.5957 117.7991 15.0256 -33.5039 -12.2826
# 4 -0.0627 9.7195 15.0256 18.0415 -3.7908 -1.4689
# 5 -11.8477 1.7843 -33.5039 -3.7908 41.4878 6.4005
# 6 -16.2154 -23.5148 -12.2826 -1.4689 6.4005 52.0491
#
#
#
# Elastic Compliance Matrix: (Units=1/GPa)
#
#
# Indices 1 2 3 4 5 6 
#
# 1 0.014488 -0.006012 -0.002335 0.005927 0.002888 0.001058
# 2 -0.006012 0.019558 0.000473 -0.011267 -0.004330 0.007289
# 3 -0.002335 0.000473 0.012613 -0.008885 0.008507 0.001166
# 4 0.005927 -0.011267 -0.008885 0.069015 0.001867 -0.003622
# 5 0.002888 -0.004330 0.008507 0.001867 0.032619 -0.003008
# 6 0.001058 0.007289 0.001166 -0.003622 -0.003008 0.023378
#
#
# Mechanical properties :
#
#
# Convention : Reuss Voigt Hill
#
# Bulk Modulus (GPa) = 32.35229 45.88938 39.12083
# Shear Modulus (GPa) = 25.28800 36.73158 31.00979
#
# Velocity S-wave (km/s) = 3.29264 3.96832 3.64617
# Velocity P-wave (km/s) = 5.32216 6.37734 5.87349
#
# Compressibility (1/GPa) = 0.03090971
#
# Stress axis : x y z
#
# Youngs Moduli (GPa) = 69.02443 51.13010 79.28524
#
# Poissons Ratio (x) = 0.30738 0.18516
# Poissons Ratio (y) = 0.41496 -0.03749
# Poissons Ratio (z) = 0.16120 -0.02418
#
# Static dielectric constant tensor:
#      x y z
#    x 4.857680 0.441130 -0.967710 
#    y 0.441130 4.856170 -0.708430 
#    z -0.967710 -0.708430 5.819320 
# 
# 
# High freq. dielectric constant tensor:
#      x y z
#    x 1.924620 -0.004810 -0.027290 
#    y -0.004810 1.915310 0.006590 
#    z -0.027290 0.006590 1.938940 
# 
# From -- ./inp_files/315602.got.cif
#   From: 2010.06.25/outbox.cif.g09.slc.cpg/sg2_158_cif.got.tgz:315602.got - 2010.06.27 13:26:56.
