data_PCOD8012844
_publ_section_title
;
Structure prediction by ZEFSAII (Michael W. Deem and Ramdas Pophale) SiO2 
 PCOD8012844
Probable space group: P -1
;
_chemical_formula_sum "Si O2"
_cell_formula_units_Z 16
_cell_length_a 9.481310
_cell_length_b 7.925180
_cell_length_c 24.483554
_cell_angle_alpha 50.448709
_cell_angle_beta 149.971695
_cell_angle_gamma 131.671173
_cell_volume 678.433836
_symmetry_space_group_name_H-M "P -1"
_symmetry_group_IT_number 2
_symmetry_cell_setting 'triclinic'
loop_
_space_group_symop_operation_xyz
x,y,z
-x,-y,-z
loop_
_atom_site_type_symbol
_atom_site_label
_atom_site_fract_x
_atom_site_fract_y
_atom_site_fract_z
Si Si1 0.565996 0.006941 0.701211
Si Si2 0.813286 0.474132 0.626420
Si Si3 0.300819 0.605702 0.048094
Si Si4 0.091413 0.264943 0.190265
Si Si5 0.034031 0.672415 0.550677
Si Si6 0.632146 0.605390 0.338410
Si Si7 0.605431 0.220572 0.201416
Si Si8 0.307727 0.055372 0.803514
O O1 0.717355 0.809200 0.777199
O O2 0.540613 0.994074 0.761720
O O3 0.229205 0.927352 0.581896
O O4 0.765130 0.243098 0.693104
O O5 0.500000 0.500000 0.500000
O O6 0.976973 0.487999 0.619404
O O7 0.036008 0.681060 0.692368
O O8 0.470783 0.427217 0.124544
O O9 0.493025 0.796202 0.113503
O O10 0.000000 0.500000 0.000000
O O11 0.215670 0.713260 0.941870
O O12 0.280269 0.505006 0.231928
O O13 0.004636 0.076445 0.247414
O O14 0.724200 0.685009 0.416068
O O15 0.227897 0.600335 0.584012
O O16 0.772565 0.807741 0.302016
O O17 0.539062 0.122239 0.137743
#
# Coordination Sequence:
#
# PCOD8012844 Si02
#       8
#     2   2   2   2   2   2   2   2
#     4  10  21  43  68  94 138 188 226 270 346 403
#     4  11  25  40  64  96 143 180 220 279 333 400
#     4  12  23  51  73  96 140 178 225 291 345 398
#     4  11  23  43  73  97 132 186 224 282 349 401
#     4   9  21  38  64  94 133 184 226 274 333 397
#     4  10  21  40  63  98 137 171 230 284 324 403
#     4  11  27  45  69 107 137 176 234 279 335 414
#     4  12  26  41  72 101 134 177 228 281 343 406
#
# _framework density 23.583728000000001
#
# number of rings (size 3 to 8) (size 9 to 14) (size 15 to 20)
#    0.000    1.250    2.500    3.375    5.250    2.000 
#    0.000    3.750    0.000    0.000    0.000    0.000 
#    0.000    0.000    0.000    0.000    0.000    0.000 
#
# Total GULP energy -198280.780678 kJ/mol
# GULP energy per Si atom -12392.548792 kJ/mol
# Density = 2.353005 g / cm^3
# Si number density = 23.583728 Si / 1000 Ang^3
#
#
#
# Elastic Constant Matrix: (Units=GPa)
#
#
# Indices 1 2 3 4 5 6 
#
# 1 81.5137 34.0380 7.4940 12.0444 -11.6521 1.0178
# 2 34.0380 103.1857 14.8549 3.7535 -15.1725 14.8801
# 3 7.4940 14.8549 80.8723 1.7811 -13.7036 -7.0837
# 4 12.0444 3.7535 1.7811 18.7668 1.2397 -7.3392
# 5 -11.6521 -15.1725 -13.7036 1.2397 39.8347 -3.4607
# 6 1.0178 14.8801 -7.0837 -7.3392 -3.4607 49.5034
#
#
#
# Elastic Compliance Matrix: (Units=1/GPa)
#
#
# Indices 1 2 3 4 5 6 
#
# 1 0.016018 -0.004429 0.000088 -0.009697 0.003314 -0.000191
# 2 -0.004429 0.012374 -0.001750 -0.001147 0.002515 -0.003873
# 3 0.000088 -0.001750 0.013653 -0.000212 0.004301 0.002747
# 4 -0.009697 -0.001147 -0.000212 0.063834 -0.004493 0.009664
# 5 0.003314 0.002515 0.004301 -0.004493 0.028749 0.001135
# 6 -0.000191 -0.003873 0.002747 0.009664 0.001135 0.023274
#
#
# Mechanical properties :
#
#
# Convention : Reuss Voigt Hill
#
# Bulk Modulus (GPa) = 33.48811 42.03840 37.76325
# Shear Modulus (GPa) = 27.77167 35.56662 31.66915
#
# Velocity S-wave (km/s) = 3.43531 3.88764 3.66845
# Velocity P-wave (km/s) = 5.47409 6.16567 5.83014
#
# Compressibility (1/GPa) = 0.02986135
#
# Stress axis : x y z
#
# Youngs Moduli (GPa) = 62.42953 80.81277 73.24588
#
# Poissons Ratio (x) = 0.35791 -0.00641
# Poissons Ratio (y) = 0.27649 0.12821
# Poissons Ratio (z) = -0.00546 0.14146
#
# Static dielectric constant tensor:
#      x y z
#    x 4.437360 0.004740 -0.290050 
#    y 0.004740 4.305320 0.159430 
#    z -0.290050 0.159430 4.375290 
# 
# 
# High freq. dielectric constant tensor:
#      x y z
#    x 1.941950 0.002980 -0.006200 
#    y 0.002980 1.938020 0.004940 
#    z -0.006200 0.004940 1.923160 
# 
# From -- ./inp_files/606704.got.cif
#   From: 2010.06.25/outbox.cif.g09.slc.cpg/sg2_304_cif.got.tgz:606704.got - 2010.06.27 13:26:56.
