data_PCOD8012991
_publ_section_title
;
Structure prediction by ZEFSAII (Michael W. Deem and Ramdas Pophale) SiO2 
 PCOD8012991
Probable space group: P -1
;
_chemical_formula_sum "Si O2"
_cell_formula_units_Z 16
_cell_length_a 11.020560
_cell_length_b 8.873610
_cell_length_c 8.181180
_cell_angle_alpha 76.332677
_cell_angle_beta 70.632757
_cell_angle_gamma 59.536849
_cell_volume 648.299185
_symmetry_space_group_name_H-M "P -1"
_symmetry_group_IT_number 2
_symmetry_cell_setting 'triclinic'
loop_
_space_group_symop_operation_xyz
x,y,z
-x,-y,-z
loop_
_atom_site_type_symbol
_atom_site_label
_atom_site_fract_x
_atom_site_fract_y
_atom_site_fract_z
Si Si1 0.522479 0.039353 0.162544
Si Si2 0.811096 0.964087 0.235932
Si Si3 0.954020 0.684653 0.748843
Si Si4 0.785644 0.330978 0.533208
Si Si5 0.927523 0.361005 0.926855
Si Si6 0.576872 0.571263 0.820214
Si Si7 0.300911 0.643188 0.778593
Si Si8 0.275227 0.996911 0.384515
O O1 0.426670 0.249526 0.169742
O O2 0.447729 0.940523 0.322478
O O3 0.690806 0.968337 0.158424
O O4 0.500000 0.000000 0.000000
O O5 0.778796 0.911208 0.440484
O O6 0.976049 0.825799 0.152249
O O7 0.810519 0.149371 0.208709
O O8 0.940157 0.507776 0.775043
O O9 0.799277 0.858024 0.762363
O O10 0.046613 0.713813 0.553352
O O11 0.021382 0.663340 0.902618
O O12 0.730786 0.436472 0.702186
O O13 0.715039 0.435857 0.367987
O O14 0.757657 0.163273 0.598251
O O15 0.751290 0.427471 0.016066
O O16 0.463745 0.614653 0.708928
O O17 0.500000 0.500000 0.000000
#
# Coordination Sequence:
#
# PCOD8012991 Si02
#       8
#     2   2   2   2   2   2   2   2
#     4  11  24  43  64  93 131 170 217 269 325 388
#     4  10  22  40  65  96 128 171 218 266 324 388
#     4  10  23  40  65  96 130 173 218 265 326 378
#     4  10  22  44  64  94 132 172 214 264 325 386
#     4  10  21  40  64  96 132 172 216 267 317 390
#     4  11  24  39  64  98 129 167 217 268 321 388
#     4   9  21  41  65  93 132 173 211 262 327 384
#     4  11  23  41  66  95 130 174 215 267 324 388
#
# _framework density 24.679963000000001
#
# number of rings (size 3 to 8) (size 9 to 14) (size 15 to 20)
#    0.000    1.750    0.000    3.000    3.500    2.500 
#    9.000    0.000    0.000    0.000    0.000    0.000 
#    0.000    0.000    0.000    0.000    0.000    0.000 
#
# Total GULP energy -198224.396402 kJ/mol
# GULP energy per Si atom -12389.024775 kJ/mol
# Density = 2.462379 g / cm^3
# Si number density = 24.679963 Si / 1000 Ang^3
#
#
#
# Elastic Constant Matrix: (Units=GPa)
#
#
# Indices 1 2 3 4 5 6 
#
# 1 70.5204 6.9041 14.4102 4.3182 -16.7212 16.4532
# 2 6.9041 84.8911 21.6994 -1.5930 -8.3545 14.9428
# 3 14.4102 21.6994 123.2564 6.0801 -10.6399 15.6407
# 4 4.3182 -1.5930 6.0801 39.0168 10.7210 -8.4517
# 5 -16.7212 -8.3545 -10.6399 10.7210 38.9269 4.4801
# 6 16.4532 14.9428 15.6407 -8.4517 4.4801 27.8268
#
#
#
# Elastic Compliance Matrix: (Units=1/GPa)
#
#
# Indices 1 2 3 4 5 6 
#
# 1 0.024035 0.003275 0.001794 -0.012835 0.017785 -0.023740
# 2 0.003275 0.014303 -0.000653 -0.004032 0.006739 -0.011559
# 3 0.001794 -0.000653 0.009897 -0.005269 0.005800 -0.008807
# 4 -0.012835 -0.004032 -0.005269 0.039927 -0.022084 0.028398
# 5 0.017785 0.006739 0.005800 -0.022084 0.046070 -0.031519
# 6 -0.023740 -0.011559 -0.008807 0.028398 -0.031519 0.074830
#
#
# Mechanical properties :
#
#
# Convention : Reuss Voigt Hill
#
# Bulk Modulus (GPa) = 17.52375 40.52167 29.02271
# Shear Modulus (GPa) = 22.80488 36.86437 29.83462
#
# Velocity S-wave (km/s) = 3.04307 3.86903 3.48064
# Velocity P-wave (km/s) = 4.41167 6.03438 5.28567
#
# Compressibility (1/GPa) = 0.05706541
#
# Stress axis : x y z
#
# Youngs Moduli (GPa) = 41.60648 69.91709 101.04481
#
# Poissons Ratio (x) = -0.22896 -0.18132
# Poissons Ratio (y) = -0.13625 0.06603
# Poissons Ratio (z) = -0.07466 0.04569
#
# Static dielectric constant tensor:
#      x y z
#    x 5.012540 0.102760 -0.556390 
#    y 0.102760 3.868050 0.335510 
#    z -0.556390 0.335510 4.210410 
# 
# 
# High freq. dielectric constant tensor:
#      x y z
#    x 2.000570 0.000580 -0.003030 
#    y 0.000580 1.959090 -0.005880 
#    z -0.003030 -0.005880 1.997940 
# 
# From -- ./inp_files/243393.got.cif
#   From: 2010.06.25/outbox.cif.g09.slc.cpg/sg2_122_cif.got.tgz:243393.got - 2010.06.27 13:26:56.
