data_PCOD8012698
_publ_section_title
;
Structure prediction by ZEFSAII (Michael W. Deem and Ramdas Pophale) SiO2 
 PCOD8012698
Probable space group: P -1
;
_chemical_formula_sum "Si O2"
_cell_formula_units_Z 14
_cell_length_a 10.837499
_cell_length_b 16.928262
_cell_length_c 19.748282
_cell_angle_alpha 21.295943
_cell_angle_beta 142.255716
_cell_angle_gamma 152.328186
_cell_volume 598.235289
_symmetry_space_group_name_H-M "P -1"
_symmetry_group_IT_number 2
_symmetry_cell_setting 'triclinic'
loop_
_space_group_symop_operation_xyz
x,y,z
-x,-y,-z
loop_
_atom_site_type_symbol
_atom_site_label
_atom_site_fract_x
_atom_site_fract_y
_atom_site_fract_z
Si Si1 0.256831 0.976969 0.488147
Si Si2 0.537564 0.811592 0.123041
Si Si3 0.425090 0.739324 0.845713
Si Si4 0.585310 0.035836 0.818198
Si Si5 0.863322 0.818274 0.906145
Si Si6 0.313804 0.287876 0.526163
Si Si7 0.815989 0.450312 0.301391
O O1 0.552058 0.307763 0.347712
O O2 0.254316 0.818108 0.679633
O O3 0.200502 0.805090 0.531456
O O4 0.005907 0.964178 0.393445
O O5 0.321349 0.475046 0.320370
O O6 0.823900 0.904692 0.191039
O O7 0.500000 0.000000 0.000000
O O8 0.517244 0.852349 0.002863
O O9 0.697871 0.917110 0.774929
O O10 0.494850 0.820200 0.889466
O O11 0.258465 0.391095 0.045796
O O12 0.412057 0.129762 0.667207
O O13 0.903583 0.319448 0.719757
O O14 0.819324 0.620930 0.105921
O O15 0.500000 0.500000 0.500000
#
# Coordination Sequence:
#
# PCOD8012698 Si02
#       7
#     2   2   2   2   2   2   2
#     4  10  21  40  62  95 136 168 223 268 325 405
#     4  11  22  42  70  98 133 177 227 265 325 413
#     4  10  22  41  65  97 136 167 225 279 333 388
#     4  11  24  43  68 102 134 172 225 281 323 392
#     4   9  21  42  68  93 128 183 217 271 342 392
#     4  12  23  42  71  96 131 183 219 267 342 394
#     4   9  19  38  66  94 126 173 221 273 319 395
#
# _framework density 23.402163999999999
#
# number of rings (size 3 to 8) (size 9 to 14) (size 15 to 20)
#    0.000    1.714    2.857    1.714    2.000    5.714 
#    5.143    2.857    0.000    0.000    0.000    0.000 
#    0.000    0.000    0.000    0.000    0.000    0.000 
#
# Total GULP energy -173585.166061 kJ/mol
# GULP energy per Si atom -12398.940433 kJ/mol
# Density = 2.334890 g / cm^3
# Si number density = 23.402164 Si / 1000 Ang^3
#
#
#
# Elastic Constant Matrix: (Units=GPa)
#
#
# Indices 1 2 3 4 5 6 
#
# 1 116.3880 87.7414 43.2434 -4.6225 -1.9313 1.1872
# 2 87.7414 126.5776 26.2546 6.8149 4.2958 6.3481
# 3 43.2434 26.2546 54.7071 0.0418 -1.8896 5.7725
# 4 -4.6225 6.8149 0.0418 21.7757 4.5050 0.0808
# 5 -1.9313 4.2958 -1.8896 4.5050 33.2168 -1.1985
# 6 1.1872 6.3481 5.7725 0.0808 -1.1985 62.3230
#
#
#
# Elastic Compliance Matrix: (Units=1/GPa)
#
#
# Indices 1 2 3 4 5 6 
#
# 1 0.025823 -0.015927 -0.012971 0.010166 0.001529 0.002348
# 2 -0.015927 0.018816 0.003705 -0.008852 -0.002020 -0.001984
# 3 -0.012971 0.003705 0.027060 -0.004115 0.000770 -0.002617
# 4 0.010166 -0.008852 -0.004115 0.051997 -0.005517 0.000916
# 5 0.001529 -0.002020 0.000770 -0.005517 0.031273 0.000714
# 6 0.002348 -0.001984 -0.002617 0.000916 0.000714 0.016458
#
#
# Mechanical properties :
#
#
# Convention : Reuss Voigt Hill
#
# Bulk Modulus (GPa) = 46.91685 68.01684 57.46684
# Shear Modulus (GPa) = 21.84197 32.82533 27.33365
#
# Velocity S-wave (km/s) = 3.05836 3.74928 3.42130
# Velocity P-wave (km/s) = 5.70640 6.91883 6.34166
#
# Compressibility (1/GPa) = 0.02131431
#
# Stress axis : x y z
#
# Youngs Moduli (GPa) = 38.72489 53.14497 36.95509
#
# Poissons Ratio (x) = 0.84642 0.47935
# Poissons Ratio (y) = 0.61676 -0.13693
# Poissons Ratio (z) = 0.50231 -0.19692
#
# Static dielectric constant tensor:
#      x y z
#    x 4.210570 0.342590 -0.068760 
#    y 0.342590 4.370680 0.051070 
#    z -0.068760 0.051070 4.041950 
# 
# 
# High freq. dielectric constant tensor:
#      x y z
#    x 1.916580 0.023980 -0.008850 
#    y 0.023980 1.927200 0.017940 
#    z -0.008850 0.017940 1.916080 
# 
# From -- ./inp_files/595944.got.cif
#   From: 2010.06.25/outbox.cif.g09.slc.cpg/sg2_298_cif.got.tgz:595944.got - 2010.06.27 13:26:56.
