data_PCOD8012145
_publ_section_title
;
Structure prediction by ZEFSAII (Michael W. Deem and Ramdas Pophale) SiO2 
 PCOD8012145
Probable space group: P -1
;
_chemical_formula_sum "Si O2"
_cell_formula_units_Z 14
_cell_length_a 19.958079
_cell_length_b 12.916415
_cell_length_c 5.139345
_cell_angle_alpha 81.272496
_cell_angle_beta 100.011275
_cell_angle_gamma 33.869660
_cell_volume 612.222504
_symmetry_space_group_name_H-M "P -1"
_symmetry_group_IT_number 2
_symmetry_cell_setting 'triclinic'
loop_
_space_group_symop_operation_xyz
x,y,z
-x,-y,-z
loop_
_atom_site_type_symbol
_atom_site_label
_atom_site_fract_x
_atom_site_fract_y
_atom_site_fract_z
Si Si1 0.686755 0.351751 0.178658
Si Si2 0.597287 0.688778 0.094089
Si Si3 0.133830 0.542865 0.578469
Si Si4 0.116447 0.432641 0.096854
Si Si5 0.961324 0.985522 0.228302
Si Si6 0.588355 0.311934 0.433233
Si Si7 0.407730 0.923132 0.371681
O O1 0.701254 0.445304 0.294967
O O2 0.716416 0.212072 0.444000
O O3 0.789212 0.201866 0.053278
O O4 0.519058 0.576526 0.911012
O O5 0.700517 0.648831 0.200785
O O6 0.476263 0.859591 0.166152
O O7 0.526092 0.784326 0.724968
O O8 0.123080 0.473502 0.369486
O O9 0.035658 0.773321 0.347561
O O10 0.074404 0.574262 0.794567
O O11 0.271258 0.179194 0.224184
O O12 0.000000 0.500000 0.000000
O O13 0.000000 0.000000 0.500000
O O14 0.000000 0.000000 0.000000
O O15 0.500000 0.500000 0.500000
O O16 0.647228 0.123611 0.662675
#
# Coordination Sequence:
#
# PCOD8012145 Si02
#       7
#     2   2   2   2   2   2   2
#     4  10  23  40  64 104 144 174 229 288 351 429
#     4  11  23  43  73 105 138 176 237 297 350 424
#     4  12  27  48  74 103 141 191 238 293 357 414
#     4  12  29  51  70 101 143 189 244 293 345 430
#     4  12  27  44  73 108 144 186 227 287 370 425
#     4  10  21  39  67 101 137 185 226 286 356 411
#     4  11  25  43  73 101 141 185 237 293 349 412
#
# _framework density 22.867502999999999
#
# number of rings (size 3 to 8) (size 9 to 14) (size 15 to 20)
#    0.000    0.857    2.857    3.000    8.000    4.571 
#    0.000    0.000    0.000    0.000    0.000    0.000 
#    0.000    0.000    0.000    0.000    0.000    0.000 
#
# Total GULP energy -173606.131678 kJ/mol
# GULP energy per Si atom -12400.437977 kJ/mol
# Density = 2.281546 g / cm^3
# Si number density = 22.867503 Si / 1000 Ang^3
#
#
#
# Elastic Constant Matrix: (Units=GPa)
#
#
# Indices 1 2 3 4 5 6 
#
# 1 150.5000 32.7535 34.1328 5.5986 -10.5367 -11.3118
# 2 32.7535 107.1283 18.5323 3.0153 3.2898 -4.5649
# 3 34.1328 18.5323 69.8071 15.6942 -10.8498 3.7623
# 4 5.5986 3.0153 15.6942 42.4594 2.3555 -4.0844
# 5 -10.5367 3.2898 -10.8498 2.3555 35.6056 10.3321
# 6 -11.3118 -4.5649 3.7623 -4.0844 10.3321 45.0797
#
#
#
# Elastic Compliance Matrix: (Units=1/GPa)
#
#
# Indices 1 2 3 4 5 6 
#
# 1 0.008028 -0.001799 -0.003538 0.000520 0.000855 0.001979
# 2 -0.001799 0.010460 -0.002580 0.000749 -0.002778 0.001528
# 3 -0.003538 -0.002580 0.019847 -0.007583 0.007236 -0.005151
# 4 0.000520 0.000749 -0.007583 0.026961 -0.005316 0.004500
# 5 0.000855 -0.002778 0.007236 -0.005316 0.033729 -0.008883
# 6 0.001979 0.001528 -0.005151 0.004500 -0.008883 0.025708
#
#
# Mechanical properties :
#
#
# Convention : Reuss Voigt Hill
#
# Bulk Modulus (GPa) = 44.44223 55.36363 49.90293
# Shear Modulus (GPa) = 33.76838 40.76338 37.26588
#
# Velocity S-wave (km/s) = 3.84695 4.22665 4.04126
# Velocity P-wave (km/s) = 6.26170 6.93416 6.60649
#
# Compressibility (1/GPa) = 0.02250112
#
# Stress axis : x y z
#
# Youngs Moduli (GPa) = 124.56815 95.60047 50.38478
#
# Poissons Ratio (x) = 0.17197 0.17828
# Poissons Ratio (y) = 0.22408 0.12998
# Poissons Ratio (z) = 0.44076 0.24663
#
# Static dielectric constant tensor:
#      x y z
#    x 4.992190 0.045900 0.286300 
#    y 0.045900 4.179620 0.084500 
#    z 0.286300 0.084500 4.657300 
# 
# 
# High freq. dielectric constant tensor:
#      x y z
#    x 1.926420 0.002940 -0.004400 
#    y 0.002940 1.907000 0.011450 
#    z -0.004400 0.011450 1.892680 
# 
# From -- ./inp_files/109060.got.cif
#   From: 2010.06.25/outbox.cif.g09.slc.cpg/sg2_55_cif.got.tgz:109060.got - 2010.06.27 13:26:56.
