data_PCOD8012087
_publ_section_title
;
Structure prediction by ZEFSAII (Michael W. Deem and Ramdas Pophale) SiO2 
 PCOD8012087
Probable space group: P -1
;
_chemical_formula_sum "Si O2"
_cell_formula_units_Z 16
_cell_length_a 14.712359
_cell_length_b 19.888125
_cell_length_c 24.780399
_cell_angle_alpha 162.604180
_cell_angle_beta 160.146153
_cell_angle_gamma 28.864408
_cell_volume 719.089562
_symmetry_space_group_name_H-M "P -1"
_symmetry_group_IT_number 2
_symmetry_cell_setting 'triclinic'
loop_
_space_group_symop_operation_xyz
x,y,z
-x,-y,-z
loop_
_atom_site_type_symbol
_atom_site_label
_atom_site_fract_x
_atom_site_fract_y
_atom_site_fract_z
Si Si1 0.584731 0.873066 0.617080
Si Si2 0.341607 0.955392 0.738683
Si Si3 0.917361 0.169916 0.199042
Si Si4 0.673081 0.347377 0.597075
Si Si5 0.688207 0.438326 0.509866
Si Si6 0.282514 0.469273 0.706507
Si Si7 0.285503 0.622131 0.945903
Si Si8 0.245627 0.451173 0.038129
O O1 0.526913 0.850416 0.631164
O O2 0.391207 0.652954 0.313332
O O3 0.904144 0.886622 0.794498
O O4 0.538364 0.117159 0.757446
O O5 0.200278 0.783518 0.480512
O O6 0.273356 0.823702 0.657523
O O7 0.665504 0.963951 0.915741
O O8 0.250136 0.198543 0.872660
O O9 0.782312 0.373294 0.258227
O O10 0.097554 0.223486 0.396199
O O11 0.492304 0.533761 0.622452
O O12 0.932928 0.474366 0.874671
O O13 0.500000 0.500000 0.500000
O O14 0.997926 0.594938 0.796890
O O15 0.210793 0.525114 0.769592
O O16 0.608623 0.496921 0.899853
O O17 0.500000 0.500000 0.000000
#
# Coordination Sequence:
#
# PCOD8012087 Si02
#       8
#     2   2   2   2   2   2   2   2
#     4  11  22  40  64  93 130 163 222 270 313 382
#     4  10  21  39  66  93 128 167 211 265 322 387
#     4   9  18  39  65  94 124 163 212 268 324 374
#     4  11  22  38  66  95 127 171 216 262 319 384
#     4  10  24  42  64  96 131 168 210 265 323 378
#     4   9  20  39  64  94 126 163 217 266 317 382
#     4  12  27  43  66  95 130 174 221 266 322 385
#     4  10  22  39  66  96 126 172 212 267 322 379
#
# _framework density 22.250357999999999
#
# number of rings (size 3 to 8) (size 9 to 14) (size 15 to 20)
#    0.000    1.750    0.000    5.250    5.250    1.500 
#    2.250    2.500    0.000    0.000    0.000    0.000 
#    0.000    0.000    0.000    0.000    0.000    0.000 
#
# Total GULP energy -198211.138103 kJ/mol
# GULP energy per Si atom -12388.196131 kJ/mol
# Density = 2.219972 g / cm^3
# Si number density = 22.250358 Si / 1000 Ang^3
#
#
#
# Elastic Constant Matrix: (Units=GPa)
#
#
# Indices 1 2 3 4 5 6 
#
# 1 87.3957 34.8202 26.8071 2.8369 16.5180 4.4428
# 2 34.8202 121.5275 52.1313 -4.0738 9.8125 14.8091
# 3 26.8071 52.1313 69.2169 -6.9054 21.1632 18.2264
# 4 2.8369 -4.0738 -6.9054 31.0028 -5.7351 9.1309
# 5 16.5180 9.8125 21.1632 -5.7351 30.3039 3.4082
# 6 4.4428 14.8091 18.2264 9.1309 3.4082 26.0491
#
#
#
# Elastic Compliance Matrix: (Units=1/GPa)
#
#
# Indices 1 2 3 4 5 6 
#
# 1 0.014708 -0.003070 -0.002906 -0.004658 -0.006294 0.003726
# 2 -0.003070 0.013036 -0.009606 0.001008 0.004476 -0.001105
# 3 -0.002906 -0.009606 0.033024 0.009091 -0.014575 -0.018430
# 4 -0.004658 0.001008 0.009091 0.042450 0.006355 -0.021850
# 5 -0.006294 0.004476 -0.014575 0.006355 0.046313 0.000440
# 6 0.003726 -0.001105 -0.018430 -0.021850 0.000440 0.058878
#
#
# Mechanical properties :
#
#
# Convention : Reuss Voigt Hill
#
# Bulk Modulus (GPa) = 33.77848 56.18414 44.98131
# Shear Modulus (GPa) = 20.04490 28.42994 24.23742
#
# Velocity S-wave (km/s) = 3.00472 3.57841 3.30404
# Velocity P-wave (km/s) = 5.22033 6.50992 5.90046
#
# Compressibility (1/GPa) = 0.02960465
#
# Stress axis : x y z
#
# Youngs Moduli (GPa) = 67.99043 76.71111 30.28097
#
# Poissons Ratio (x) = 0.23548 0.08799
# Poissons Ratio (y) = 0.20871 0.29089
# Poissons Ratio (z) = 0.19756 0.73691
#
# Static dielectric constant tensor:
#      x y z
#    x 4.040200 0.048520 0.344840 
#    y 0.048520 4.075940 0.079980 
#    z 0.344840 0.079980 4.232070 
# 
# 
# High freq. dielectric constant tensor:
#      x y z
#    x 1.870000 -0.003730 0.020720 
#    y -0.003730 1.863450 -0.004700 
#    z 0.020720 -0.004700 1.881280 
# 
# From -- ./inp_files/612223.got.cif
#   From: 2010.06.25/outbox.cif.g09.slc.cpg/sg2_307_cif.got.tgz:612223.got - 2010.06.27 13:26:56.
