data_PCOD8012981
_publ_section_title
;
Structure prediction by ZEFSAII (Michael W. Deem and Ramdas Pophale) SiO2 
 PCOD8012981
Probable space group: P -1
;
_chemical_formula_sum "Si O2"
_cell_formula_units_Z 16
_cell_length_a 9.190865
_cell_length_b 18.515667
_cell_length_c 11.971953
_cell_angle_alpha 47.505442
_cell_angle_beta 56.823611
_cell_angle_gamma 30.027595
_cell_volume 747.808495
_symmetry_space_group_name_H-M "P -1"
_symmetry_group_IT_number 2
_symmetry_cell_setting 'triclinic'
loop_
_space_group_symop_operation_xyz
x,y,z
-x,-y,-z
loop_
_atom_site_type_symbol
_atom_site_label
_atom_site_fract_x
_atom_site_fract_y
_atom_site_fract_z
Si Si1 0.341954 0.204881 0.895805
Si Si2 0.112797 0.256157 0.177211
Si Si3 0.649521 0.726256 0.758240
Si Si4 0.525857 0.567524 0.015130
Si Si5 0.747166 0.528573 0.339723
Si Si6 0.837201 0.291394 0.646903
Si Si7 0.098956 0.149493 0.912990
Si Si8 0.778948 0.934666 0.484608
O O1 0.263438 0.352546 0.746380
O O2 0.228158 0.195506 0.847594
O O3 0.189323 0.224398 0.047351
O O4 0.691046 0.033762 0.943192
O O5 0.319060 0.247112 0.155660
O O6 0.149012 0.132577 0.348856
O O7 0.763915 0.431213 0.151029
O O8 0.949740 0.633437 0.679397
O O9 0.349288 0.896808 0.644365
O O10 0.649136 0.611069 0.864501
O O11 0.219396 0.726687 0.034819
O O12 0.500000 0.500000 0.000000
O O13 0.752143 0.446269 0.524349
O O14 0.457075 0.636700 0.276181
O O15 0.081158 0.158848 0.776140
O O16 0.953754 0.203111 0.568982
O O17 0.500000 0.000000 0.500000
#
# Coordination Sequence:
#
# PCOD8012981 Si02
#       8
#     2   2   2   2   2   2   2   2
#     4  11  25  43  62  90 128 166 208 248 316 364
#     4  11  21  41  67  92 123 162 207 258 305 363
#     4  11  22  39  67  92 124 162 209 256 307 362
#     4  12  24  42  64  94 124 162 214 252 305 366
#     4  11  23  41  61  97 123 164 204 257 309 367
#     4  11  24  41  64  92 129 162 205 255 310 367
#     4  11  25  43  62  89 128 168 201 259 305 368
#     4  10  21  40  64  96 122 161 208 255 310 359
#
# _framework density 21.395852000000001
#
# number of rings (size 3 to 8) (size 9 to 14) (size 15 to 20)
#    0.000    1.000    5.000    2.625    5.250    1.000 
#    0.000    0.625    0.000    0.000    0.000    0.000 
#    0.000    0.000    0.000    0.000    0.000    0.000 
#
# Total GULP energy -198272.621091 kJ/mol
# GULP energy per Si atom -12392.038818 kJ/mol
# Density = 2.134715 g / cm^3
# Si number density = 21.395852 Si / 1000 Ang^3
#
#
#
# Elastic Constant Matrix: (Units=GPa)
#
#
# Indices 1 2 3 4 5 6 
#
# 1 73.4883 17.6644 42.2568 -8.3025 -5.3646 -3.9698
# 2 17.6644 116.5346 32.2499 -11.4789 -1.8106 -18.4964
# 3 42.2568 32.2499 86.8286 -19.9530 -1.8149 -5.5423
# 4 -8.3025 -11.4789 -19.9530 38.1578 -1.4572 1.9174
# 5 -5.3646 -1.8106 -1.8149 -1.4572 16.2115 -4.2162
# 6 -3.9698 -18.4964 -5.5423 1.9174 -4.2162 33.6613
#
#
#
# Elastic Compliance Matrix: (Units=1/GPa)
#
#
# Indices 1 2 3 4 5 6 
#
# 1 0.019431 -0.000098 -0.009332 -0.000536 0.005702 0.001446
# 2 -0.000098 0.010500 -0.003157 0.001301 0.002323 0.005455
# 3 -0.009332 -0.003157 0.018765 0.006814 -0.000788 -0.000232
# 4 -0.000536 0.001301 0.006814 0.030156 0.003572 0.000504
# 5 0.005702 0.002323 -0.000788 0.003572 0.066655 0.009964
# 6 0.001446 0.005455 -0.000232 0.000504 0.009964 0.034057
#
#
# Mechanical properties :
#
#
# Convention : Reuss Voigt Hill
#
# Bulk Modulus (GPa) = 42.50960 51.24375 46.87667
# Shear Modulus (GPa) = 23.52088 29.91813 26.71951
#
# Velocity S-wave (km/s) = 3.31920 3.74346 3.53769
# Velocity P-wave (km/s) = 5.88224 6.53353 6.21642
#
# Compressibility (1/GPa) = 0.02352410
#
# Stress axis : x y z
#
# Youngs Moduli (GPa) = 51.46469 95.24221 53.28943
#
# Poissons Ratio (x) = 0.00929 0.49729
# Poissons Ratio (y) = 0.00502 0.16821
# Poissons Ratio (z) = 0.48026 0.30063
#
# Static dielectric constant tensor:
#      x y z
#    x 3.608610 -0.218840 0.074800 
#    y -0.218840 5.480920 -1.814950 
#    z 0.074800 -1.814950 5.701450 
# 
# 
# High freq. dielectric constant tensor:
#      x y z
#    x 1.813460 -0.018140 -0.003510 
#    y -0.018140 1.857430 -0.018700 
#    z -0.003510 -0.018700 1.837370 
# 
# From -- ./inp_files/402966.got.cif
#   From: 2010.06.25/outbox.cif.g09.slc.cpg/sg2_202_cif.got.tgz:402966.got - 2010.06.27 13:26:56.
