data_PCOD8012494
_publ_section_title
;
Structure prediction by ZEFSAII (Michael W. Deem and Ramdas Pophale) SiO2 
 PCOD8012494
Probable space group: P -1
;
_chemical_formula_sum "Si O2"
_cell_formula_units_Z 16
_cell_length_a 8.820430
_cell_length_b 18.913641
_cell_length_c 14.642635
_cell_angle_alpha 142.595257
_cell_angle_beta 29.820169
_cell_angle_gamma 140.647607
_cell_volume 708.726360
_symmetry_space_group_name_H-M "P -1"
_symmetry_group_IT_number 2
_symmetry_cell_setting 'triclinic'
loop_
_space_group_symop_operation_xyz
x,y,z
-x,-y,-z
loop_
_atom_site_type_symbol
_atom_site_label
_atom_site_fract_x
_atom_site_fract_y
_atom_site_fract_z
Si Si1 0.519532 0.139617 0.214922
Si Si2 0.408206 0.778613 0.112672
Si Si3 0.804534 0.697806 0.969594
Si Si4 0.333271 0.096030 0.071887
Si Si5 0.092084 0.496290 0.551410
Si Si6 0.691351 0.672078 0.366213
Si Si7 0.428990 0.717770 0.364425
Si Si8 0.605164 0.020266 0.362219
O O1 0.341826 0.153387 0.227292
O O2 0.396637 0.209529 0.430111
O O3 0.895782 0.188185 0.052812
O O4 0.455636 0.999645 0.134715
O O5 0.058983 0.684251 0.202752
O O6 0.405558 0.906572 0.291037
O O7 0.642057 0.714784 0.975913
O O8 0.512605 0.799725 0.974482
O O9 0.916345 0.576571 0.785215
O O10 0.560319 0.695676 0.175473
O O11 0.973064 0.029876 0.164844
O O12 0.476666 0.553314 0.412107
O O13 0.000000 0.500000 0.500000
O O14 0.949128 0.357431 0.517526
O O15 0.611933 0.663929 0.291446
O O16 0.464821 0.857437 0.510726
O O17 0.500000 0.000000 0.500000
#
# Coordination Sequence:
#
# PCOD8012494 Si02
#       8
#     2   2   2   2   2   2   2   2
#     4  10  21  40  60  87 130 172 212 252 312 383
#     4  12  24  38  62 101 132 163 207 264 322 371
#     4  11  22  40  66  92 128 166 210 264 312 377
#     4  11  23  36  61  91 131 172 210 254 316 380
#     4   9  22  43  68  89 120 172 219 257 310 375
#     4  10  23  41  64  94 126 167 212 263 312 375
#     4  11  22  41  68  90 127 172 213 256 316 377
#     4  12  23  38  63  98 134 161 206 261 320 378
#
# _framework density 22.575707999999999
#
# number of rings (size 3 to 8) (size 9 to 14) (size 15 to 20)
#    0.000    1.250    2.500    3.000    5.250    4.000 
#    0.000    3.125    2.750    0.000    0.000    0.000 
#    0.000    0.000    0.000    0.000    0.000    0.000 
#
# Total GULP energy -198396.491023 kJ/mol
# GULP energy per Si atom -12399.780689 kJ/mol
# Density = 2.252432 g / cm^3
# Si number density = 22.575708 Si / 1000 Ang^3
#
#
#
# Elastic Constant Matrix: (Units=GPa)
#
#
# Indices 1 2 3 4 5 6 
#
# 1 86.0040 17.7352 4.0580 -17.1958 2.1635 2.0872
# 2 17.7352 91.3568 7.6592 -18.7174 -12.7248 11.6629
# 3 4.0580 7.6592 38.6352 -17.7502 6.8474 1.5435
# 4 -17.1958 -18.7174 -17.7502 33.4429 5.5566 -0.4281
# 5 2.1635 -12.7248 6.8474 5.5566 31.2127 -10.3204
# 6 2.0872 11.6629 1.5435 -0.4281 -10.3204 34.6442
#
#
#
# Elastic Compliance Matrix: (Units=1/GPa)
#
#
# Indices 1 2 3 4 5 6 
#
# 1 0.013722 -0.001571 0.003885 0.008984 -0.004617 -0.001735
# 2 -0.001571 0.013393 -0.000247 0.005937 0.003477 -0.003294
# 3 0.003885 -0.000247 0.040539 0.025952 -0.016001 -0.006403
# 4 0.008984 0.005937 0.025952 0.054199 -0.016134 -0.007833
# 5 -0.004617 0.003477 -0.016001 -0.016134 0.044407 0.012850
# 6 -0.001735 -0.003294 -0.006403 -0.007833 0.012850 0.034095
#
#
# Mechanical properties :
#
#
# Convention : Reuss Voigt Hill
#
# Bulk Modulus (GPa) = 13.92966 30.54454 22.23710
# Shear Modulus (GPa) = 22.71180 32.29620 27.50400
#
# Velocity S-wave (km/s) = 3.17524 3.78640 3.49420
# Velocity P-wave (km/s) = 4.43017 5.71620 5.11377
#
# Compressibility (1/GPa) = 0.07178927
#
# Stress axis : x y z
#
# Youngs Moduli (GPa) = 72.87356 74.66623 24.66759
#
# Poissons Ratio (x) = 0.11727 -0.09583
# Poissons Ratio (y) = 0.11445 0.00609
# Poissons Ratio (z) = -0.28311 0.01844
#
# Static dielectric constant tensor:
#      x y z
#    x 3.972860 0.170310 0.077680 
#    y 0.170310 4.821170 -0.080130 
#    z 0.077680 -0.080130 3.946380 
# 
# 
# High freq. dielectric constant tensor:
#      x y z
#    x 1.880500 0.009340 0.016090 
#    y 0.009340 1.895920 -0.012580 
#    z 0.016090 -0.012580 1.881920 
# 
# From -- ./inp_files/179501.got.cif
#   From: 2010.06.25/outbox.cif.g09.slc.cpg/sg2_90_cif.got.tgz:179501.got - 2010.06.27 13:26:56.
