data_PCOD8012301
_publ_section_title
;
Structure prediction by ZEFSAII (Michael W. Deem and Ramdas Pophale) SiO2 
 PCOD8012301
Probable space group: P -1
;
_chemical_formula_sum "Si O2"
_cell_formula_units_Z 16
_cell_length_a 16.460202
_cell_length_b 8.496754
_cell_length_c 14.360458
_cell_angle_alpha 134.074640
_cell_angle_beta 145.023043
_cell_angle_gamma 39.967905
_cell_volume 726.988476
_symmetry_space_group_name_H-M "P -1"
_symmetry_group_IT_number 2
_symmetry_cell_setting 'triclinic'
loop_
_space_group_symop_operation_xyz
x,y,z
-x,-y,-z
loop_
_atom_site_type_symbol
_atom_site_label
_atom_site_fract_x
_atom_site_fract_y
_atom_site_fract_z
Si Si1 0.926891 0.303621 0.456108
Si Si2 0.166919 0.499426 0.349372
Si Si3 0.872530 0.890522 0.143771
Si Si4 0.227396 0.338404 0.699155
Si Si5 0.508361 0.520962 0.406592
Si Si6 0.890749 0.163925 0.097885
Si Si7 0.459945 0.084246 0.103878
Si Si8 0.221399 0.979154 0.245013
O O1 0.914393 0.353751 0.573126
O O2 0.797610 0.553674 0.384449
O O3 0.107287 0.224158 0.557564
O O4 0.890477 0.078970 0.308986
O O5 0.310786 0.552216 0.479354
O O6 0.026790 0.616259 0.187507
O O7 0.231301 0.206826 0.298978
O O8 0.864371 0.980391 0.067186
O O9 0.713363 0.876834 0.014582
O O10 0.194164 0.555273 0.830448
O O11 0.410028 0.125595 0.792913
O O12 0.500000 0.500000 0.500000
O O13 0.459526 0.342178 0.229478
O O14 0.388769 0.804196 0.380883
O O15 0.811735 0.175437 0.929150
O O16 0.080739 0.073502 0.228951
O O17 0.500000 0.000000 0.000000
#
# Coordination Sequence:
#
# PCOD8012301 Si02
#       8
#     2   2   2   2   2   2   2   2
#     4  10  21  39  68  98 131 172 223 274 334 394
#     4  12  24  43  70  96 134 177 227 268 336 405
#     4  11  25  41  68 101 132 177 222 279 332 396
#     4  10  21  41  69  98 133 174 219 280 333 391
#     4  12  29  46  68 100 141 175 223 283 335 399
#     4  10  23  43  68 100 134 174 224 275 331 401
#     4  12  26  43  70  99 139 176 227 278 336 395
#     4  11  25  43  70  96 135 177 222 274 337 402
#
# _framework density 22.008602
#
# number of rings (size 3 to 8) (size 9 to 14) (size 15 to 20)
#    0.000    1.000    1.250    4.500    7.000    3.500 
#    0.000    0.000    0.000    0.000    0.000    0.000 
#    0.000    0.000    0.000    0.000    0.000    0.000 
#
# Total GULP energy -198503.971634 kJ/mol
# GULP energy per Si atom -12406.498227 kJ/mol
# Density = 2.195851 g / cm^3
# Si number density = 22.008602 Si / 1000 Ang^3
#
#
#
# Elastic Constant Matrix: (Units=GPa)
#
#
# Indices 1 2 3 4 5 6 
#
# 1 69.5701 23.8638 30.0918 3.8714 23.0672 11.1593
# 2 23.8638 135.4399 42.5459 -22.1753 22.2362 8.9118
# 3 30.0918 42.5459 95.6786 -6.1408 29.9146 3.1258
# 4 3.8714 -22.1753 -6.1408 42.4070 -2.5479 0.0166
# 5 23.0672 22.2362 29.9146 -2.5479 47.0352 -0.8745
# 6 11.1593 8.9118 3.1258 0.0166 -0.8745 23.9169
#
#
#
# Elastic Compliance Matrix: (Units=1/GPa)
#
#
# Indices 1 2 3 4 5 6 
#
# 1 0.020424 -0.001260 -0.003420 -0.003472 -0.007599 -0.008888
# 2 -0.001260 0.009805 -0.002970 0.004697 -0.001925 -0.002751
# 3 -0.003420 -0.002970 0.014840 0.000528 -0.006319 0.000531
# 4 -0.003472 0.004697 0.000528 0.026465 0.000576 -0.000197
# 5 -0.007599 -0.001925 -0.006319 0.000576 0.030062 0.006187
# 6 -0.008888 -0.002751 0.000531 -0.000197 0.006187 0.047140
#
#
# Mechanical properties :
#
#
# Convention : Reuss Voigt Hill
#
# Bulk Modulus (GPa) = 33.59341 54.85462 44.22401
# Shear Modulus (GPa) = 28.74228 36.28431 32.51329
#
# Velocity S-wave (km/s) = 3.61772 4.06475 3.84773
# Velocity P-wave (km/s) = 5.72254 6.85623 6.31488
#
# Compressibility (1/GPa) = 0.02976774
#
# Stress axis : x y z
#
# Youngs Moduli (GPa) = 48.96219 101.99348 67.38513
#
# Poissons Ratio (x) = 0.12855 0.23043
# Poissons Ratio (y) = 0.06171 0.20016
# Poissons Ratio (z) = 0.16743 0.30296
#
# Static dielectric constant tensor:
#      x y z
#    x -3.957310 -7.627290 -2.100410 
#    y -7.627290 -3.511670 -2.065200 
#    z -2.100410 -2.065200 3.508160 
# 
# 
# High freq. dielectric constant tensor:
#      x y z
#    x 1.868070 0.009290 -0.001980 
#    y 0.009290 1.875600 -0.001210 
#    z -0.001980 -0.001210 1.874710 
# 
# From -- ./inp_files/519837.got.cif
#   From: 2010.06.25/outbox.cif.g09.slc.cpg/sg2_260_cif.got.tgz:519837.got - 2010.06.27 13:26:56.
