data_PCOD8012177
_publ_section_title
;
Structure prediction by ZEFSAII (Michael W. Deem and Ramdas Pophale) SiO2 
 PCOD8012177
Probable space group: P -1
;
_chemical_formula_sum "Si O2"
_cell_formula_units_Z 16
_cell_length_a 14.183658
_cell_length_b 14.379055
_cell_length_c 10.708364
_cell_angle_alpha 62.284908
_cell_angle_beta 147.284949
_cell_angle_gamma 137.870105
_cell_volume 711.680186
_symmetry_space_group_name_H-M "P -1"
_symmetry_group_IT_number 2
_symmetry_cell_setting 'triclinic'
loop_
_space_group_symop_operation_xyz
x,y,z
-x,-y,-z
loop_
_atom_site_type_symbol
_atom_site_label
_atom_site_fract_x
_atom_site_fract_y
_atom_site_fract_z
Si Si1 0.267883 0.835913 0.571723
Si Si2 0.839709 0.355699 0.190625
Si Si3 0.547319 0.404605 0.960559
Si Si4 0.252030 0.831401 0.009748
Si Si5 0.369803 0.667836 0.651945
Si Si6 0.770643 0.677542 0.700361
Si Si7 0.209954 0.275211 0.025665
Si Si8 0.072620 0.148354 0.467103
O O1 0.182374 0.740073 0.663033
O O2 0.353822 0.783467 0.601092
O O3 0.047720 0.811652 0.282010
O O4 0.492094 0.020124 0.727171
O O5 0.131419 0.525689 0.389686
O O6 0.673325 0.385444 0.009919
O O7 0.725267 0.262033 0.991314
O O8 0.240754 0.257689 0.705195
O O9 0.659956 0.421756 0.207098
O O10 0.592918 0.544792 0.892978
O O11 0.014316 0.709506 0.917835
O O12 0.184239 0.895683 0.796428
O O13 0.645874 0.768031 0.832003
O O14 0.500000 0.500000 0.500000
O O15 0.768054 0.768869 0.536697
O O16 0.831434 0.754404 0.854321
O O17 0.000000 0.000000 0.500000
#
# Coordination Sequence:
#
# PCOD8012177 Si02
#       8
#     2   2   2   2   2   2   2   2
#     4  11  23  41  61  98 138 172 224 282 336 400
#     4  11  20  39  63 103 131 172 230 284 327 402
#     4  11  20  37  67 101 130 172 231 275 335 399
#     4  10  24  42  64  91 140 173 219 287 335 389
#     4  11  22  38  65 101 134 173 230 281 326 402
#     4  10  22  42  66  98 132 177 231 269 335 416
#     4  12  22  40  68  94 134 187 220 272 342 403
#     4  10  21  39  67  93 131 173 216 279 340 385
#
# _framework density 22.482008
#
# number of rings (size 3 to 8) (size 9 to 14) (size 15 to 20)
#    0.750    0.500    3.750    4.500    1.750    0.500 
#    2.250    2.500    0.000    0.000    0.000    0.000 
#    0.000    0.000    0.000    0.000    0.000    0.000 
#
# Total GULP energy -198262.935983 kJ/mol
# GULP energy per Si atom -12391.433499 kJ/mol
# Density = 2.243084 g / cm^3
# Si number density = 22.482008 Si / 1000 Ang^3
#
#
#
# Elastic Constant Matrix: (Units=GPa)
#
#
# Indices 1 2 3 4 5 6 
#
# 1 124.8936 26.8186 33.6695 11.8214 12.4370 -25.1338
# 2 26.8186 67.1255 38.3875 24.2513 -8.5698 -8.8641
# 3 33.6695 38.3875 122.7232 34.5066 4.6103 -13.6362
# 4 11.8214 24.2513 34.5066 38.0807 -7.5782 -4.2622
# 5 12.4370 -8.5698 4.6103 -7.5782 26.3355 0.9601
# 6 -25.1338 -8.8641 -13.6362 -4.2622 0.9601 32.1583
#
#
#
# Elastic Compliance Matrix: (Units=1/GPa)
#
#
# Indices 1 2 3 4 5 6 
#
# 1 0.011291 -0.003669 -0.000467 -0.001301 -0.007098 0.007655
# 2 -0.003669 0.022580 -0.004028 -0.008068 0.007451 0.000356
# 3 -0.000467 -0.004028 0.012870 -0.009883 -0.006291 0.002860
# 4 -0.001301 -0.008068 -0.009883 0.042941 0.012152 -0.002103
# 5 -0.007098 0.007451 -0.006291 0.012152 0.048565 -0.006001
# 6 0.007655 0.000356 0.002860 -0.002103 -0.006001 0.038290
#
#
# Mechanical properties :
#
#
# Convention : Reuss Voigt Hill
#
# Bulk Modulus (GPa) = 32.88189 56.94372 44.91280
# Shear Modulus (GPa) = 24.63014 33.70603 29.16808
#
# Velocity S-wave (km/s) = 3.31350 3.87621 3.60585
# Velocity P-wave (km/s) = 5.41264 6.73920 6.11202
#
# Compressibility (1/GPa) = 0.03041188
#
# Stress axis : x y z
#
# Youngs Moduli (GPa) = 88.56573 44.28640 77.70254
#
# Poissons Ratio (x) = 0.16251 0.03629
# Poissons Ratio (y) = 0.32499 0.31299
# Poissons Ratio (z) = 0.04136 0.17839
#
# Static dielectric constant tensor:
#      x y z
#    x 3.869820 -0.126170 -0.079090 
#    y -0.126170 3.666340 0.106480 
#    z -0.079090 0.106480 4.067170 
# 
# 
# High freq. dielectric constant tensor:
#      x y z
#    x 1.879580 -0.013030 0.001270 
#    y -0.013030 1.857630 0.011700 
#    z 0.001270 0.011700 1.899490 
# 
# From -- ./inp_files/455719.got.cif
#   From: 2010.06.25/outbox.cif.g09.slc.cpg/sg2_228_cif.got.tgz:455719.got - 2010.06.27 13:26:56.
