data_PCOD8012078
_publ_section_title
;
Structure prediction by ZEFSAII (Michael W. Deem and Ramdas Pophale) SiO2 
 PCOD8012078
Probable space group: P -1
;
_chemical_formula_sum "Si O2"
_cell_formula_units_Z 16
_cell_length_a 24.555164
_cell_length_b 6.985032
_cell_length_c 8.794464
_cell_angle_alpha 109.688632
_cell_angle_beta 125.575143
_cell_angle_gamma 39.449920
_cell_volume 760.925158
_symmetry_space_group_name_H-M "P -1"
_symmetry_group_IT_number 2
_symmetry_cell_setting 'triclinic'
loop_
_space_group_symop_operation_xyz
x,y,z
-x,-y,-z
loop_
_atom_site_type_symbol
_atom_site_label
_atom_site_fract_x
_atom_site_fract_y
_atom_site_fract_z
Si Si1 0.534818 0.744973 0.098886
Si Si2 0.088062 0.371626 0.437184
Si Si3 0.635461 0.353528 0.897369
Si Si4 0.246408 0.306885 0.148775
Si Si5 0.246053 0.727139 0.682435
Si Si6 0.953678 0.320485 0.248742
Si Si7 0.418184 0.173355 0.281383
Si Si8 0.129273 0.627059 0.355074
O O1 0.553335 0.511347 0.948506
O O2 0.645020 0.551577 0.299356
O O3 0.453796 0.914787 0.149445
O O4 0.500000 0.000000 0.000000
O O5 0.040284 0.638482 0.551842
O O6 0.121029 0.421536 0.356161
O O7 0.003897 0.395742 0.258867
O O8 0.185189 0.038478 0.576559
O O9 0.732843 0.250052 0.102531
O O10 0.587822 0.594435 0.748192
O O11 0.669904 0.062616 0.804656
O O12 0.307011 0.370424 0.215802
O O13 0.194840 0.461804 0.266511
O O14 0.161855 0.448587 0.924701
O O15 0.184940 0.654871 0.568365
O O16 0.017278 0.969732 0.226775
O O17 0.500000 0.000000 0.500000
#
# Coordination Sequence:
#
# PCOD8012078 Si02
#       8
#     2   2   2   2   2   2   2   2
#     4   8  17  38  61  86 118 161 203 250 296 357
#     4  10  21  39  66  92 125 161 207 258 300 367
#     4   9  22  41  64  89 125 164 206 255 299 370
#     4  12  25  41  62  95 127 164 207 251 314 374
#     4   9  19  40  63  91 124 159 210 252 300 366
#     4  10  22  41  61  93 125 159 212 253 303 371
#     4  11  24  41  65  93 127 162 202 264 313 356
#     4  11  24  37  65  93 126 166 200 256 311 365
#
# _framework density 21.027035000000001
#
# number of rings (size 3 to 8) (size 9 to 14) (size 15 to 20)
#    0.750    1.250    1.250    1.500    1.750    5.500 
#    0.000    1.250    0.000    0.000    0.000    0.000 
#    0.000    0.000    0.000    0.000    0.000    0.000 
#
# Total GULP energy -198260.552793 kJ/mol
# GULP energy per Si atom -12391.284550 kJ/mol
# Density = 2.097918 g / cm^3
# Si number density = 21.027035 Si / 1000 Ang^3
#
#
#
# Elastic Constant Matrix: (Units=GPa)
#
#
# Indices 1 2 3 4 5 6 
#
# 1 97.2514 24.6455 26.7865 -10.1630 -10.3359 -10.9967
# 2 24.6455 111.5458 20.4251 -7.7612 -11.7534 -13.8576
# 3 26.7865 20.4251 71.0410 -8.1188 -7.4944 2.5099
# 4 -10.1630 -7.7612 -8.1188 24.3560 -2.9934 -0.7926
# 5 -10.3359 -11.7534 -7.4944 -2.9934 24.6795 1.1987
# 6 -10.9967 -13.8576 2.5099 -0.7926 1.1987 32.4630
#
#
#
# Elastic Compliance Matrix: (Units=1/GPa)
#
#
# Indices 1 2 3 4 5 6 
#
# 1 0.012957 -0.000878 -0.003828 0.004504 0.004185 0.004266
# 2 -0.000878 0.010749 -0.002119 0.003019 0.004262 0.004371
# 3 -0.003828 -0.002119 0.017008 0.003671 0.003170 -0.003544
# 4 0.004504 0.003019 0.003671 0.046448 0.009912 0.003298
# 5 0.004185 0.004262 0.003170 0.009912 0.046393 0.001521
# 6 0.004266 0.004371 -0.003544 0.003298 0.001521 0.034414
#
#
# Mechanical properties :
#
#
# Convention : Reuss Voigt Hill
#
# Bulk Modulus (GPa) = 36.94811 47.06135 42.00473
# Shear Modulus (GPa) = 26.22735 30.16512 28.19623
#
# Velocity S-wave (km/s) = 3.53557 3.79170 3.66587
# Velocity P-wave (km/s) = 5.85464 6.44975 6.15939
#
# Compressibility (1/GPa) = 0.02706498
#
# Stress axis : x y z
#
# Youngs Moduli (GPa) = 77.17705 93.03124 58.79525
#
# Poissons Ratio (x) = 0.08164 0.22505
# Poissons Ratio (y) = 0.06773 0.12461
# Poissons Ratio (z) = 0.29541 0.19718
#
# Static dielectric constant tensor:
#      x y z
#    x 3.435410 -0.129700 -0.024790 
#    y -0.129700 3.935680 0.030010 
#    z -0.024790 0.030010 3.627060 
# 
# 
# High freq. dielectric constant tensor:
#      x y z
#    x 1.805810 -0.013920 -0.000310 
#    y -0.013920 1.836650 -0.007010 
#    z -0.000310 -0.007010 1.809340 
# 
# From -- ./inp_files/340494.got.cif
#   From: 2010.06.25/outbox.cif.g09.slc.cpg/sg2_171_cif.got.tgz:340494.got - 2010.06.27 13:26:56.
