data_PCOD8012772
_publ_section_title
;
Structure prediction by ZEFSAII (Michael W. Deem and Ramdas Pophale) SiO2 
 PCOD8012772
Probable space group: P -1
;
_chemical_formula_sum "Si O2"
_cell_formula_units_Z 16
_cell_length_a 18.406081
_cell_length_b 9.028118
_cell_length_c 8.903563
_cell_angle_alpha 110.324320
_cell_angle_beta 130.846309
_cell_angle_gamma 48.838084
_cell_volume 833.573575
_symmetry_space_group_name_H-M "P -1"
_symmetry_group_IT_number 2
_symmetry_cell_setting 'triclinic'
loop_
_space_group_symop_operation_xyz
x,y,z
-x,-y,-z
loop_
_atom_site_type_symbol
_atom_site_label
_atom_site_fract_x
_atom_site_fract_y
_atom_site_fract_z
Si Si1 0.759801 0.416344 0.073031
Si Si2 0.696960 0.660050 0.793575
Si Si3 0.508341 0.608583 0.414220
Si Si4 0.759977 0.064288 0.946775
Si Si5 0.128757 0.402735 0.567419
Si Si6 0.697122 0.946537 0.100923
Si Si7 0.128684 0.339396 0.189809
Si Si8 0.508515 0.374964 0.103035
O O1 0.834149 0.452568 0.300735
O O2 0.771189 0.468575 0.935840
O O3 0.816200 0.184092 0.066167
O O4 0.620363 0.552068 0.982432
O O5 0.581040 0.693718 0.576687
O O6 0.778269 0.636028 0.756963
O O7 0.649812 0.850516 0.900052
O O8 0.500000 0.500000 0.500000
O O9 0.379376 0.793256 0.242030
O O10 0.577604 0.422894 0.327750
O O11 0.834710 0.879089 0.868551
O O12 0.771184 0.989850 0.106845
O O13 0.221426 0.192135 0.699855
O O14 0.127387 0.372353 0.377271
O O15 0.000000 0.500000 0.500000
O O16 0.581365 0.144429 0.086487
O O17 0.000000 0.500000 0.000000
O O18 0.500000 0.500000 0.000000
#
# Coordination Sequence:
#
# PCOD8012772 Si02
#       8
#     2   2   2   2   2   2   2   2
#     4  10  21  40  63  91 127 162 198 249 302 360
#     4  10  22  39  61  89 127 162 202 248 303 358
#     4  11  21  37  61  93 133 161 196 247 302 363
#     4  10  21  40  63  91 127 162 198 249 302 360
#     4  11  25  44  65  88 119 158 209 257 302 359
#     4  10  22  39  61  89 127 162 202 248 303 358
#     4  11  25  44  65  88 119 158 209 257 302 359
#     4  11  21  37  61  93 133 161 196 247 302 363
#
# _framework density 19.194464
#
# number of rings (size 3 to 8) (size 9 to 14) (size 15 to 20)
#    0.000    1.500    5.000    2.250    3.500    5.000 
#    0.000    6.250    0.000    0.000    0.000    0.000 
#    0.000    0.000    0.000    0.000    0.000    0.000 
#
# Total GULP energy -198313.343966 kJ/mol
# GULP energy per Si atom -12394.583998 kJ/mol
# Density = 1.915078 g / cm^3
# Si number density = 19.194464 Si / 1000 Ang^3
#
#
#
# Elastic Constant Matrix: (Units=GPa)
#
#
# Indices 1 2 3 4 5 6 
#
# 1 110.8860 76.8559 62.8037 9.1357 -20.3113 4.3866
# 2 76.8559 136.6154 78.1394 27.5438 8.2288 11.1773
# 3 62.8037 78.1394 143.1638 16.9647 -14.4844 0.8514
# 4 9.1357 27.5438 16.9647 30.0461 -1.4088 -3.1979
# 5 -20.3113 8.2288 -14.4844 -1.4088 38.3304 -0.3069
# 6 4.3866 11.1773 0.8514 -3.1979 -0.3069 35.6025
#
#
#
# Elastic Compliance Matrix: (Units=1/GPa)
#
#
# Indices 1 2 3 4 5 6 
#
# 1 0.021097 -0.013783 -0.001266 0.007866 0.013970 0.002585
# 2 -0.013783 0.023210 -0.006356 -0.014950 -0.015293 -0.006911
# 3 -0.001266 -0.006356 0.011490 0.000168 0.005057 0.001935
# 4 0.007866 -0.014950 0.000168 0.045774 0.009187 0.007911
# 5 0.013970 -0.015293 0.005057 0.009187 0.039056 0.004121
# 6 0.002585 -0.006911 0.001935 0.007911 0.004121 0.030639
#
#
# Mechanical properties :
#
#
# Convention : Reuss Voigt Hill
#
# Bulk Modulus (GPa) = 77.00585 91.80704 84.40645
# Shear Modulus (GPa) = 22.89300 32.32021 27.60661
#
# Velocity S-wave (km/s) = 3.45728 4.10790 3.79655
# Velocity P-wave (km/s) = 7.49286 8.39247 7.95539
#
# Compressibility (1/GPa) = 0.01298603
#
# Stress axis : x y z
#
# Youngs Moduli (GPa) = 47.39940 43.08421 87.03169
#
# Poissons Ratio (x) = 0.59384 0.11019
# Poissons Ratio (y) = 0.65332 0.55321
# Poissons Ratio (z) = 0.06001 0.27386
#
# Static dielectric constant tensor:
#      x y z
#    x 4.151570 -0.170980 0.217320 
#    y -0.170980 4.121830 -0.185250 
#    z 0.217320 -0.185250 4.133090 
# 
# 
# High freq. dielectric constant tensor:
#      x y z
#    x 1.750540 0.015570 -0.017150 
#    y 0.015570 1.752270 0.013290 
#    z -0.017150 0.013290 1.748450 
# 
# From -- ./inp_files/222844.got.cif
#   From: 2010.06.25/outbox.cif.g09.slc.cpg/sg2_112_cif.got.tgz:222844.got - 2010.06.27 13:26:56.
