data_PCOD8012152
_publ_section_title
;
Structure prediction by ZEFSAII (Michael W. Deem and Ramdas Pophale) SiO2 
 PCOD8012152
Probable space group: P -1
;
_chemical_formula_sum "Si O2"
_cell_formula_units_Z 16
_cell_length_a 10.894029
_cell_length_b 10.347972
_cell_length_c 9.247529
_cell_angle_alpha 122.338483
_cell_angle_beta 118.587570
_cell_angle_gamma 55.589417
_cell_volume 703.064959
_symmetry_space_group_name_H-M "P -1"
_symmetry_group_IT_number 2
_symmetry_cell_setting 'triclinic'
loop_
_space_group_symop_operation_xyz
x,y,z
-x,-y,-z
loop_
_atom_site_type_symbol
_atom_site_label
_atom_site_fract_x
_atom_site_fract_y
_atom_site_fract_z
Si Si1 0.778776 0.418196 0.611815
Si Si2 0.911487 0.085739 0.860090
Si Si3 0.892193 0.420636 0.965036
Si Si4 0.311956 0.259025 0.852472
Si Si5 0.903831 0.883897 0.456363
Si Si6 0.297094 0.847183 0.707482
Si Si7 0.657543 0.111218 0.922066
Si Si8 0.636571 0.790946 0.811561
O O1 0.765970 0.414826 0.776063
O O2 0.668866 0.344688 0.430635
O O3 0.718731 0.617214 0.662379
O O4 0.957084 0.297876 0.603151
O O5 0.933525 0.956946 0.665856
O O6 0.975367 0.227956 0.948569
O O7 0.732999 0.158085 0.853381
O O8 0.000000 0.000000 0.000000
O O9 0.798737 0.543380 0.115472
O O10 0.000000 0.500000 0.000000
O O11 0.250501 0.149819 0.651688
O O12 0.479608 0.236429 0.888398
O O13 0.301346 0.218354 0.994165
O O14 0.861614 0.028542 0.391983
O O15 0.450163 0.869364 0.762545
O O16 0.263829 0.867273 0.871196
O O17 0.677261 0.919214 0.815930
#
# Coordination Sequence:
#
# PCOD8012152 Si02
#       8
#     2   2   2   2   2   2   2   2
#     4  11  23  35  68 100 132 172 230 285 318 392
#     4  12  30  44  65 101 143 177 218 286 355 388
#     4  11  24  43  70  99 132 176 226 277 331 407
#     4  10  21  41  73  99 129 180 231 268 335 406
#     4  12  22  42  66 102 131 178 236 270 329 411
#     4  11  20  41  69  99 131 179 238 268 328 407
#     4  11  23  44  68  97 142 176 216 285 344 399
#     4  10  21  39  67 104 135 173 224 283 333 397
#
# _framework density 22.757498999999999
#
# number of rings (size 3 to 8) (size 9 to 14) (size 15 to 20)
#    0.000    1.000    5.000    2.250    5.250    1.000 
#    0.000    3.750    0.000    0.000    0.000    0.000 
#    0.000    0.000    0.000    0.000    0.000    0.000 
#
# Total GULP energy -198246.061082 kJ/mol
# GULP energy per Si atom -12390.378818 kJ/mol
# Density = 2.270570 g / cm^3
# Si number density = 22.757499 Si / 1000 Ang^3
#
#
#
# Elastic Constant Matrix: (Units=GPa)
#
#
# Indices 1 2 3 4 5 6 
#
# 1 86.0348 27.3576 29.3338 8.5383 -6.2382 0.5861
# 2 27.3576 97.8719 48.2745 25.3667 -0.9321 -5.3475
# 3 29.3338 48.2745 140.6893 18.0480 9.9039 2.9573
# 4 8.5383 25.3667 18.0480 35.5142 -4.5303 3.2563
# 5 -6.2382 -0.9321 9.9039 -4.5303 30.1816 6.3055
# 6 0.5861 -5.3475 2.9573 3.2563 6.3055 38.3427
#
#
#
# Elastic Compliance Matrix: (Units=1/GPa)
#
#
# Indices 1 2 3 4 5 6 
#
# 1 0.013488 -0.002864 -0.002125 0.000453 0.003692 -0.001087
# 2 -0.002864 0.015199 -0.003485 -0.008832 -0.001004 0.003348
# 3 -0.002125 -0.003485 0.009306 -0.002189 -0.003856 -0.000351
# 4 0.000453 -0.008832 -0.002189 0.036882 0.007201 -0.005386
# 5 0.003692 -0.001004 -0.003856 0.007201 0.037610 -0.006696
# 6 -0.001087 0.003348 -0.000351 -0.005386 -0.006696 0.028150
#
#
# Mechanical properties :
#
#
# Convention : Reuss Voigt Hill
#
# Bulk Modulus (GPa) = 47.51360 59.39198 53.45279
# Shear Modulus (GPa) = 30.37697 35.44970 32.91334
#
# Velocity S-wave (km/s) = 3.65747 3.95107 3.80710
# Velocity P-wave (km/s) = 6.22573 6.85340 6.54709
#
# Compressibility (1/GPa) = 0.02104661
#
# Stress axis : x y z
#
# Youngs Moduli (GPa) = 74.13725 65.79256 107.45456
#
# Poissons Ratio (x) = 0.18843 0.22832
# Poissons Ratio (y) = 0.21233 0.37446
# Poissons Ratio (z) = 0.15753 0.22928
#
# Static dielectric constant tensor:
#      x y z
#    x 4.663060 0.032860 0.119390 
#    y 0.032860 4.317270 0.294090 
#    z 0.119390 0.294090 4.323090 
# 
# 
# High freq. dielectric constant tensor:
#      x y z
#    x 1.892050 -0.027560 0.025940 
#    y -0.027560 1.886520 0.029680 
#    z 0.025940 0.029680 1.901180 
# 
# From -- ./inp_files/245615.got.cif
#   From: 2010.06.25/outbox.cif.g09.slc.cpg/sg2_123_cif.got.tgz:245615.got - 2010.06.27 13:26:56.
