data_PCOD8012079
_publ_section_title
;
Structure prediction by ZEFSAII (Michael W. Deem and Ramdas Pophale) SiO2 
 PCOD8012079
Probable space group: P -1
;
_chemical_formula_sum "Si O2"
_cell_formula_units_Z 16
_cell_length_a 11.768770
_cell_length_b 13.685728
_cell_length_c 13.311918
_cell_angle_alpha 138.126168
_cell_angle_beta 32.410059
_cell_angle_gamma 132.546817
_cell_volume 760.253402
_symmetry_space_group_name_H-M "P -1"
_symmetry_group_IT_number 2
_symmetry_cell_setting 'triclinic'
loop_
_space_group_symop_operation_xyz
x,y,z
-x,-y,-z
loop_
_atom_site_type_symbol
_atom_site_label
_atom_site_fract_x
_atom_site_fract_y
_atom_site_fract_z
Si Si1 0.027365 0.828318 0.136509
Si Si2 0.937486 0.539875 0.689256
Si Si3 0.751588 0.834850 0.012835
Si Si4 0.255074 0.604298 0.678762
Si Si5 0.843760 0.019000 0.275250
Si Si6 0.261680 0.336259 0.605065
Si Si7 0.088238 0.096939 0.416974
Si Si8 0.278359 0.766328 0.320340
O O1 0.917653 0.720851 0.222834
O O2 0.838201 0.882179 0.251843
O O3 0.166264 0.979374 0.190922
O O4 0.181196 0.752301 0.891219
O O5 0.770699 0.407776 0.756526
O O6 0.000000 0.500000 0.500000
O O7 0.147232 0.560004 0.618575
O O8 0.828953 0.688178 0.888917
O O9 0.512661 0.796262 0.117162
O O10 0.910455 0.901338 0.857788
O O11 0.747282 0.961302 0.197364
O O12 0.193487 0.481976 0.716730
O O13 0.508257 0.630786 0.489107
O O14 0.710026 0.143729 0.513793
O O15 0.274715 0.219072 0.413830
O O16 0.898802 0.179583 0.577303
O O17 0.000000 0.000000 0.500000
#
# Coordination Sequence:
#
# PCOD8012079 Si02
#       8
#     2   2   2   2   2   2   2   2
#     4  10  21  39  66  92 126 162 207 262 317 382
#     4  12  24  44  64  92 133 168 218 268 307 380
#     4  11  23  41  63  92 122 170 211 256 322 369
#     4  11  23  42  65  91 129 168 211 266 314 374
#     4  10  22  40  61  93 127 156 211 262 308 384
#     4  10  22  42  66  93 124 168 211 260 324 369
#     4   9  20  40  62  94 125 157 209 259 310 382
#     4  11  22  41  65  88 126 167 206 264 314 372
#
# _framework density 21.045615000000002
#
# number of rings (size 3 to 8) (size 9 to 14) (size 15 to 20)
#    0.000    1.500    3.750    1.125    0.000    4.500 
#    2.250    6.250    0.000    0.000    0.000    0.000 
#    0.000    0.000    0.000    0.000    0.000    0.000 
#
# Total GULP energy -198334.887850 kJ/mol
# GULP energy per Si atom -12395.930491 kJ/mol
# Density = 2.099771 g / cm^3
# Si number density = 21.045615 Si / 1000 Ang^3
#
#
#
# Elastic Constant Matrix: (Units=GPa)
#
#
# Indices 1 2 3 4 5 6 
#
# 1 90.5642 29.8632 29.4248 -2.5176 -6.3671 5.7912
# 2 29.8632 96.3404 25.8911 4.2091 -9.9037 1.3930
# 3 29.4248 25.8911 60.9795 4.4515 -0.5234 12.4029
# 4 -2.5176 4.2091 4.4515 33.8091 0.1089 -0.4281
# 5 -6.3671 -9.9037 -0.5234 0.1089 22.2862 1.1514
# 6 5.7912 1.3930 12.4029 -0.4281 1.1514 32.9575
#
#
#
# Elastic Compliance Matrix: (Units=1/GPa)
#
#
# Indices 1 2 3 4 5 6 
#
# 1 0.014036 -0.002618 -0.005739 0.002115 0.002715 -0.000263
# 2 -0.002618 0.012891 -0.004358 -0.001224 0.004813 0.001371
# 3 -0.005739 -0.004358 0.022695 -0.002957 -0.002652 -0.007294
# 4 0.002115 -0.001224 -0.002957 0.030293 -0.000219 0.001194
# 5 0.002715 0.004813 -0.002652 -0.000219 0.047794 -0.001355
# 6 -0.000263 0.001371 -0.007294 0.001194 -0.001355 0.033138
#
#
# Mechanical properties :
#
#
# Convention : Reuss Voigt Hill
#
# Bulk Modulus (GPa) = 41.33572 46.47135 43.90354
# Shear Modulus (GPa) = 25.72774 28.65758 27.19266
#
# Velocity S-wave (km/s) = 3.50018 3.69411 3.59845
# Velocity P-wave (km/s) = 6.00156 6.35015 6.17832
#
# Compressibility (1/GPa) = 0.02419215
#
# Stress axis : x y z
#
# Youngs Moduli (GPa) = 71.24380 77.57259 44.06201
#
# Poissons Ratio (x) = 0.20309 0.25287
# Poissons Ratio (y) = 0.18652 0.19204
# Poissons Ratio (z) = 0.40886 0.33809
#
# Static dielectric constant tensor:
#      x y z
#    x 3.904050 0.204540 0.211480 
#    y 0.204540 4.264450 0.393440 
#    z 0.211480 0.393440 3.643140 
# 
# 
# High freq. dielectric constant tensor:
#      x y z
#    x 1.827280 -0.002960 0.004890 
#    y -0.002960 1.840150 0.019890 
#    z 0.004890 0.019890 1.804180 
# 
# From -- ./inp_files/455114.got.cif
#   From: 2010.06.25/outbox.cif.g09.slc.cpg/sg2_228_cif.got.tgz:455114.got - 2010.06.27 13:26:56.
