data_PCOD8012814
_publ_section_title
;
Structure prediction by ZEFSAII (Michael W. Deem and Ramdas Pophale) SiO2 
 PCOD8012814
Probable space group: P -1
;
_chemical_formula_sum "Si O2"
_cell_formula_units_Z 16
_cell_length_a 15.602242
_cell_length_b 11.434763
_cell_length_c 8.559804
_cell_angle_alpha 136.765103
_cell_angle_beta 106.767642
_cell_angle_gamma 48.656904
_cell_volume 728.100006
_symmetry_space_group_name_H-M "P -1"
_symmetry_group_IT_number 2
_symmetry_cell_setting 'triclinic'
loop_
_space_group_symop_operation_xyz
x,y,z
-x,-y,-z
loop_
_atom_site_type_symbol
_atom_site_label
_atom_site_fract_x
_atom_site_fract_y
_atom_site_fract_z
Si Si1 0.481752 0.768170 0.734865
Si Si2 0.540118 0.904593 0.172663
Si Si3 0.316673 0.720821 0.742781
Si Si4 0.328570 0.176294 0.549860
Si Si5 0.938472 0.928479 0.198784
Si Si6 0.943931 0.552137 0.351772
Si Si7 0.635817 0.253154 0.857821
Si Si8 0.114320 0.006562 0.402316
O O1 0.374843 0.767717 0.686437
O O2 0.600108 0.557940 0.490591
O O3 0.419801 0.009981 0.852758
O O4 0.523544 0.750676 0.919119
O O5 0.645333 0.743347 0.203181
O O6 0.411478 0.131129 0.405428
O O7 0.176677 0.863980 0.765537
O O8 0.321140 0.798285 0.990573
O O9 0.187374 0.366658 0.614000
O O10 0.370991 0.931602 0.383203
O O11 0.900777 0.970943 0.399439
O O12 0.040785 0.939771 0.229654
O O13 0.977345 0.684887 0.937949
O O14 0.935200 0.748615 0.455892
O O15 0.000000 0.500000 0.500000
O O16 0.741433 0.211694 0.773950
O O17 0.500000 0.500000 0.000000
#
# Coordination Sequence:
#
# PCOD8012814 Si02
#       8
#     2   2   2   2   2   2   2   2
#     4  10  23  39  62  97 132 165 212 267 330 388
#     4  10  21  40  63  94 129 169 209 266 324 393
#     4  11  24  41  64  96 128 171 214 268 330 388
#     4  10  22  39  63  95 129 168 218 260 326 388
#     4  11  25  46  70  97 136 175 226 277 327 398
#     4  11  25  44  68  96 135 177 222 276 324 393
#     4  11  23  41  68  95 134 172 212 269 327 391
#     4  10  26  46  69 101 130 178 228 271 334 393
#
# _framework density 21.975003000000001
#
# number of rings (size 3 to 8) (size 9 to 14) (size 15 to 20)
#    0.000    1.500    1.250    2.625    7.000    8.000 
#    2.250    0.000    0.000    0.000    0.000    0.000 
#    0.000    0.000    0.000    0.000    0.000    0.000 
#
# Total GULP energy -198381.735484 kJ/mol
# GULP energy per Si atom -12398.858468 kJ/mol
# Density = 2.192499 g / cm^3
# Si number density = 21.975003 Si / 1000 Ang^3
#
#
#
# Elastic Constant Matrix: (Units=GPa)
#
#
# Indices 1 2 3 4 5 6 
#
# 1 124.4580 51.9139 33.5176 -2.4476 -6.2954 -16.2561
# 2 51.9139 76.7628 12.8601 -3.1218 -3.5577 -20.5342
# 3 33.5176 12.8601 84.0471 -2.6983 -0.1318 -9.5142
# 4 -2.4476 -3.1218 -2.6983 33.5834 -3.0047 -0.8925
# 5 -6.2954 -3.5577 -0.1318 -3.0047 31.8085 3.7091
# 6 -16.2561 -20.5342 -9.5142 -0.8925 3.7091 36.8840
#
#
#
# Elastic Compliance Matrix: (Units=1/GPa)
#
#
# Indices 1 2 3 4 5 6 
#
# 1 0.012298 -0.007600 -0.003730 0.000032 0.001563 0.000071
# 2 -0.007600 0.020276 0.000910 0.001619 -0.000038 0.008217
# 3 -0.003730 0.000910 0.013552 0.000897 -0.000782 0.002459
# 4 0.000032 0.001619 0.000897 0.030300 0.002868 0.001592
# 5 0.001563 -0.000038 -0.000782 0.002868 0.032328 -0.002715
# 6 0.000071 0.008217 0.002459 0.001592 -0.002715 0.032663
#
#
# Mechanical properties :
#
#
# Convention : Reuss Voigt Hill
#
# Bulk Modulus (GPa) = 39.54484 53.53903 46.54193
# Shear Modulus (GPa) = 29.29343 32.92027 31.10685
#
# Velocity S-wave (km/s) = 3.65504 3.87470 3.76647
# Velocity P-wave (km/s) = 5.98722 6.66590 6.33565
#
# Compressibility (1/GPa) = 0.02528775
#
# Stress axis : x y z
#
# Youngs Moduli (GPa) = 81.31197 49.31877 73.78813
#
# Poissons Ratio (x) = 0.37480 0.27524
# Poissons Ratio (y) = 0.61794 -0.06717
# Poissons Ratio (z) = 0.30331 -0.04489
#
# Static dielectric constant tensor:
#      x y z
#    x 4.131380 -0.111000 0.062580 
#    y -0.111000 3.773600 -0.122410 
#    z 0.062580 -0.122410 4.121410 
# 
# 
# High freq. dielectric constant tensor:
#      x y z
#    x 1.873550 -0.003830 0.004160 
#    y -0.003830 1.856040 -0.014770 
#    z 0.004160 -0.014770 1.873050 
# 
# From -- ./inp_files/308833.got.cif
#   From: 2010.06.25/outbox.cif.g09.slc.cpg/sg2_155_cif.got.tgz:308833.got - 2010.06.27 13:26:56.
