data_PCOD8012846
_publ_section_title
;
Structure prediction by ZEFSAII (Michael W. Deem and Ramdas Pophale) SiO2 
 PCOD8012846
Probable space group: P -1
;
_chemical_formula_sum "Si O2"
_cell_formula_units_Z 14
_cell_length_a 9.160904
_cell_length_b 14.528063
_cell_length_c 11.441389
_cell_angle_alpha 58.020128
_cell_angle_beta 112.487425
_cell_angle_gamma 150.054584
_cell_volume 634.159803
_symmetry_space_group_name_H-M "P -1"
_symmetry_group_IT_number 2
_symmetry_cell_setting 'triclinic'
loop_
_space_group_symop_operation_xyz
x,y,z
-x,-y,-z
loop_
_atom_site_type_symbol
_atom_site_label
_atom_site_fract_x
_atom_site_fract_y
_atom_site_fract_z
Si Si1 0.834610 0.646778 0.311041
Si Si2 0.785904 0.229196 0.060145
Si Si3 0.681938 0.785317 0.247022
Si Si4 0.035590 0.450718 0.212713
Si Si5 0.658587 0.811849 0.487546
Si Si6 0.126656 0.892498 0.010775
Si Si7 0.312797 0.805298 0.500759
O O1 0.818878 0.744852 0.321913
O O2 0.529626 0.401988 0.384712
O O3 0.874282 0.709646 0.147485
O O4 0.112845 0.740008 0.380792
O O5 0.843679 0.261651 0.195313
O O6 0.437549 0.040514 0.063913
O O7 0.970981 0.431576 0.917493
O O8 0.907387 0.188848 0.068434
O O9 0.364053 0.592332 0.217265
O O10 0.634999 0.808484 0.344069
O O11 0.892548 0.989830 0.100130
O O12 0.905607 0.381075 0.349839
O O13 0.531588 0.846528 0.482438
O O14 0.000000 0.000000 0.500000
O O15 0.500000 0.000000 0.500000
#
# Coordination Sequence:
#
# PCOD8012846 Si02
#       7
#     2   2   2   2   2   2   2
#     4  12  25  46  69 101 142 179 228 287 340 404
#     4   9  20  38  67  99 135 176 229 283 329 416
#     4  11  25  43  69  99 140 180 227 283 346 407
#     4  10  21  40  64 100 137 182 226 274 348 398
#     4  12  28  46  69 102 138 182 229 283 348 408
#     4  10  22  40  69  99 135 178 232 275 346 398
#     4  12  26  41  73 101 137 176 234 281 343 413
#
# _framework density 22.076456
#
# number of rings (size 3 to 8) (size 9 to 14) (size 15 to 20)
#    0.000    1.143    1.429    3.857   10.000    0.000 
#    0.000    5.714    0.000    0.000    0.000    0.000 
#    0.000    0.000    0.000    0.000    0.000    0.000 
#
# Total GULP energy -173655.418624 kJ/mol
# GULP energy per Si atom -12403.958473 kJ/mol
# Density = 2.202621 g / cm^3
# Si number density = 22.076456 Si / 1000 Ang^3
#
#
#
# Elastic Constant Matrix: (Units=GPa)
#
#
# Indices 1 2 3 4 5 6 
#
# 1 150.1783 45.1520 54.7948 -1.0367 6.7597 -8.9237
# 2 45.1520 112.2223 37.6484 -6.2948 7.1254 -6.8514
# 3 54.7948 37.6484 116.6910 -18.7649 -5.2843 0.1608
# 4 -1.0367 -6.2948 -18.7649 32.6410 -0.7765 -4.6437
# 5 6.7597 7.1254 -5.2843 -0.7765 34.4029 2.6293
# 6 -8.9237 -6.8514 0.1608 -4.6437 2.6293 30.3091
#
#
#
# Elastic Compliance Matrix: (Units=1/GPa)
#
#
# Indices 1 2 3 4 5 6 
#
# 1 0.008946 -0.002134 -0.003960 -0.002166 -0.002128 0.002025
# 2 -0.002134 0.010942 -0.002501 0.000861 -0.002380 0.002197
# 3 -0.003960 -0.002501 0.012432 0.006464 0.003436 -0.001105
# 4 -0.002166 0.000861 0.006464 0.035167 0.001670 0.004766
# 5 -0.002128 -0.002380 0.003436 0.001670 0.030819 -0.003600
# 6 0.002025 0.002197 -0.001105 0.004766 -0.003600 0.035135
#
#
# Mechanical properties :
#
#
# Convention : Reuss Voigt Hill
#
# Bulk Modulus (GPa) = 66.08602 72.69799 69.39201
# Shear Modulus (GPa) = 32.11840 35.57036 33.84438
#
# Velocity S-wave (km/s) = 3.81842 4.01837 3.91967
# Velocity P-wave (km/s) = 7.03139 7.38454 7.21013
#
# Compressibility (1/GPa) = 0.01513179
#
# Stress axis : x y z
#
# Youngs Moduli (GPa) = 111.77774 91.39285 80.43435
#
# Poissons Ratio (x) = 0.19501 0.31852
# Poissons Ratio (y) = 0.23851 0.20113
# Poissons Ratio (z) = 0.44265 0.22854
#
# Static dielectric constant tensor:
#      x y z
#    x 3.904930 -0.174290 -0.071340 
#    y -0.174290 4.047840 -0.134240 
#    z -0.071340 -0.134240 4.108160 
# 
# 
# High freq. dielectric constant tensor:
#      x y z
#    x 1.867670 -0.014150 -0.005560 
#    y -0.014150 1.867610 -0.009290 
#    z -0.005560 -0.009290 1.881140 
# 
# From -- ./inp_files/189433.got.cif
#   From: 2010.06.25/outbox.cif.g09.slc.cpg/sg2_95_cif.got.tgz:189433.got - 2010.06.27 13:26:56.
