data_PCOD8012881
_publ_section_title
;
Structure prediction by ZEFSAII (Michael W. Deem and Ramdas Pophale) SiO2 
 PCOD8012881
Probable space group: P -1
;
_chemical_formula_sum "Si O2"
_cell_formula_units_Z 16
_cell_length_a 10.883675
_cell_length_b 6.564536
_cell_length_c 14.480054
_cell_angle_alpha 130.336881
_cell_angle_beta 71.953658
_cell_angle_gamma 93.125134
_cell_volume 734.419496
_symmetry_space_group_name_H-M "P -1"
_symmetry_group_IT_number 2
_symmetry_cell_setting 'triclinic'
loop_
_space_group_symop_operation_xyz
x,y,z
-x,-y,-z
loop_
_atom_site_type_symbol
_atom_site_label
_atom_site_fract_x
_atom_site_fract_y
_atom_site_fract_z
Si Si1 0.620721 0.622096 0.545100
Si Si2 0.190142 0.530321 0.391637
Si Si3 0.858767 0.345206 0.290680
Si Si4 0.106049 0.519167 0.210630
Si Si5 0.260686 0.018852 0.928645
Si Si6 0.979898 0.888918 0.645709
Si Si7 0.416034 0.781459 0.986022
Si Si8 0.516702 0.171024 0.819865
O O1 0.500000 0.500000 0.500000
O O2 0.669305 0.485080 0.593751
O O3 0.738025 0.560805 0.425732
O O4 0.577023 0.948520 0.663921
O O5 0.206313 0.474217 0.262200
O O6 0.087432 0.817449 0.516537
O O7 0.125486 0.304745 0.392920
O O8 0.939146 0.142079 0.287138
O O9 0.956373 0.516696 0.272254
O O10 0.808079 0.160721 0.173781
O O11 0.158485 0.295682 0.056173
O O12 0.106081 0.810150 0.252278
O O13 0.384786 0.097407 0.871565
O O14 0.290933 0.843098 0.965056
O O15 0.381781 0.827137 0.116753
O O16 0.490732 0.466013 0.862946
O O17 0.500000 0.000000 0.000000
#
# Coordination Sequence:
#
# PCOD8012881 Si02
#       8
#     2   2   2   2   2   2   2   2
#     4  11  21  41  67  87 127 166 200 255 310 365
#     4   9  20  38  62  88 121 155 204 259 303 357
#     4  10  23  41  59  91 127 161 199 253 310 364
#     4  11  22  38  65  90 118 163 207 253 307 362
#     4  11  22  38  59  89 128 157 202 255 306 368
#     4   9  20  39  62  88 119 158 203 254 308 361
#     4   9  21  40  63  91 124 162 210 259 296 363
#     4  10  21  40  64  89 120 168 210 246 311 361
#
# _framework density 21.785913000000001
#
# number of rings (size 3 to 8) (size 9 to 14) (size 15 to 20)
#    0.000    2.000    1.250    2.250    0.000    6.500 
#    0.000    5.625    0.000    0.000    0.000    0.000 
#    0.000    0.000    0.000    0.000    0.000    0.000 
#
# Total GULP energy -198362.459781 kJ/mol
# GULP energy per Si atom -12397.653736 kJ/mol
# Density = 2.173633 g / cm^3
# Si number density = 21.785913 Si / 1000 Ang^3
#
#
#
# Elastic Constant Matrix: (Units=GPa)
#
#
# Indices 1 2 3 4 5 6 
#
# 1 113.3659 30.6044 46.0343 -3.7643 14.4465 -17.4426
# 2 30.6044 74.9025 39.8184 22.4968 1.7830 -9.5924
# 3 46.0343 39.8184 167.8295 17.5400 6.8100 -16.3868
# 4 -3.7643 22.4968 17.5400 33.2357 -2.6223 -0.5667
# 5 14.4465 1.7830 6.8100 -2.6223 39.8517 -6.3215
# 6 -17.4426 -9.5924 -16.3868 -0.5667 -6.3215 10.8584
#
#
#
# Elastic Compliance Matrix: (Units=1/GPa)
#
#
# Indices 1 2 3 4 5 6 
#
# 1 0.013258 -0.004259 -0.001735 0.005408 -0.001710 0.014203
# 2 -0.004259 0.021265 -0.001544 -0.013776 0.001499 0.009767
# 3 -0.001735 -0.001544 0.007874 -0.003144 0.000381 0.007790
# 4 0.005408 -0.013776 -0.003144 0.041677 0.001075 -0.005427
# 5 -0.001710 0.001499 0.000381 0.001075 0.028123 0.015581
# 6 0.014203 0.009767 0.007790 -0.005427 0.015581 0.144081
#
#
# Mechanical properties :
#
#
# Convention : Reuss Voigt Hill
#
# Bulk Modulus (GPa) = 36.60332 65.44579 51.02456
# Shear Modulus (GPa) = 17.82765 32.76522 25.29643
#
# Velocity S-wave (km/s) = 2.86372 3.88230 3.41124
# Velocity P-wave (km/s) = 5.26995 7.08534 6.24397
#
# Compressibility (1/GPa) = 0.02731992
#
# Stress axis : x y z
#
# Youngs Moduli (GPa) = 75.42503 47.02619 126.99282
#
# Poissons Ratio (x) = 0.20030 0.22034
# Poissons Ratio (y) = 0.32126 0.19612
# Poissons Ratio (z) = 0.13087 0.07262
#
# Static dielectric constant tensor:
#      x y z
#    x 4.077520 -0.300320 0.131750 
#    y -0.300320 3.938370 -0.113070 
#    z 0.131750 -0.113070 4.143770 
# 
# 
# High freq. dielectric constant tensor:
#      x y z
#    x 1.853530 -0.011930 0.003940 
#    y -0.011930 1.837030 0.002740 
#    z 0.003940 0.002740 1.870450 
# 
# From -- ./inp_files/511310.got.cif
#   From: 2010.06.25/outbox.cif.g09.slc.cpg/sg2_256_cif.got.tgz:511310.got - 2010.06.27 13:26:56.
