data_PCOD8012213
_publ_section_title
;
Structure prediction by ZEFSAII (Michael W. Deem and Ramdas Pophale) SiO2 
 PCOD8012213
Probable space group: P -1
;
_chemical_formula_sum "Si O2"
_cell_formula_units_Z 16
_cell_length_a 9.804945
_cell_length_b 8.576233
_cell_length_c 19.672926
_cell_angle_alpha 67.191409
_cell_angle_beta 132.168766
_cell_angle_gamma 75.921668
_cell_volume 763.993277
_symmetry_space_group_name_H-M "P -1"
_symmetry_group_IT_number 2
_symmetry_cell_setting 'triclinic'
loop_
_space_group_symop_operation_xyz
x,y,z
-x,-y,-z
loop_
_atom_site_type_symbol
_atom_site_label
_atom_site_fract_x
_atom_site_fract_y
_atom_site_fract_z
Si Si1 0.062586 0.362624 0.428160
Si Si2 0.202283 0.679540 0.896574
Si Si3 0.168485 0.060816 0.872860
Si Si4 0.522386 0.932563 0.129733
Si Si5 0.635751 0.576423 0.560378
Si Si6 0.865167 0.958607 0.610329
Si Si7 0.284494 0.336607 0.087281
Si Si8 0.850892 0.991219 0.393905
O O1 0.759326 0.640520 0.276710
O O2 0.284231 0.359668 0.488437
O O3 0.116879 0.181898 0.421463
O O4 0.102061 0.241091 0.534937
O O5 0.011715 0.769334 0.753997
O O6 0.089134 0.921558 0.855978
O O7 0.500000 0.500000 0.000000
O O8 0.195922 0.529419 0.969567
O O9 0.379404 0.978624 0.899452
O O10 0.902604 0.356838 0.730662
O O11 0.292672 0.986873 0.002252
O O12 0.398835 0.089595 0.131431
O O13 0.500000 0.500000 0.500000
O O14 0.444162 0.800190 0.512250
O O15 0.009653 0.041625 0.624810
O O16 0.523234 0.242992 0.234041
O O17 0.000000 0.500000 0.000000
O O18 0.000000 0.000000 0.500000
#
# Coordination Sequence:
#
# PCOD8012213 Si02
#       8
#     2   2   2   2   2   2   2   2
#     4  10  24  42  68  95 134 176 222 270 345 397
#     4  12  21  40  72  92 129 173 229 269 332 395
#     4  10  21  39  67  97 131 168 218 281 323 392
#     4  10  22  42  66  98 128 170 224 273 331 393
#     4  11  23  39  62 102 133 164 222 279 331 392
#     4  11  22  42  68  98 130 177 224 276 329 406
#     4  12  28  44  67 100 138 177 224 280 336 400
#     4  10  24  45  67  95 134 177 224 273 336 408
#
# _framework density 20.942592999999999
#
# number of rings (size 3 to 8) (size 9 to 14) (size 15 to 20)
#    0.000    1.250    3.750    1.125    8.750    2.500 
#    2.250    0.625    0.000    0.000    0.000    0.000 
#    0.000    0.000    0.000    0.000    0.000    0.000 
#
# Total GULP energy -198363.011507 kJ/mol
# GULP energy per Si atom -12397.688219 kJ/mol
# Density = 2.089493 g / cm^3
# Si number density = 20.942593 Si / 1000 Ang^3
#
#
#
# Elastic Constant Matrix: (Units=GPa)
#
#
# Indices 1 2 3 4 5 6 
#
# 1 130.2097 18.4819 66.6541 -13.6001 -4.8431 12.1751
# 2 18.4819 61.4209 14.5963 -13.6175 0.0068 -4.6190
# 3 66.6541 14.5963 123.8055 -9.0420 0.2779 -6.4162
# 4 -13.6001 -13.6175 -9.0420 41.0054 -1.1417 2.1963
# 5 -4.8431 0.0068 0.2779 -1.1417 41.5039 -10.8254
# 6 12.1751 -4.6190 -6.4162 2.1963 -10.8254 32.2347
#
#
#
# Elastic Compliance Matrix: (Units=1/GPa)
#
#
# Indices 1 2 3 4 5 6 
#
# 1 0.012088 -0.002092 -0.006426 0.002233 -0.000139 -0.006343
# 2 -0.002092 0.018416 -0.000503 0.005159 0.000740 0.003226
# 3 -0.006426 -0.000503 0.011852 0.000067 0.000440 0.004857
# 4 0.002233 0.005159 0.000067 0.026964 0.000546 -0.001745
# 5 -0.000139 0.000740 0.000440 0.000546 0.026462 0.009096
# 6 -0.006343 0.003226 0.004857 -0.001745 0.009096 0.038021
#
#
# Mechanical properties :
#
#
# Convention : Reuss Voigt Hill
#
# Bulk Modulus (GPa) = 41.12876 57.21116 49.16996
# Shear Modulus (GPa) = 31.25966 37.32905 34.29436
#
# Velocity S-wave (km/s) = 3.86766 4.22648 4.05104
# Velocity P-wave (km/s) = 6.29495 7.15506 6.73875
#
# Compressibility (1/GPa) = 0.02431389
#
# Stress axis : x y z
#
# Youngs Moduli (GPa) = 82.72831 54.29954 84.37415
#
# Poissons Ratio (x) = 0.11359 0.54223
# Poissons Ratio (y) = 0.17307 0.04241
# Poissons Ratio (z) = 0.53165 0.02729
#
# Static dielectric constant tensor:
#      x y z
#    x 3.942120 0.125740 -0.144510 
#    y 0.125740 3.721640 -0.129760 
#    z -0.144510 -0.129760 4.038050 
# 
# 
# High freq. dielectric constant tensor:
#      x y z
#    x 1.813750 0.009600 -0.005800 
#    y 0.009600 1.813690 -0.005320 
#    z -0.005800 -0.005320 1.835560 
# 
# From -- ./inp_files/587925.got.cif
#   From: 2010.06.25/outbox.cif.g09.slc.cpg/sg2_294_cif.got.tgz:587925.got - 2010.06.27 13:26:56.
