data_PCOD8012701
_publ_section_title
;
Structure prediction by ZEFSAII (Michael W. Deem and Ramdas Pophale) SiO2 
 PCOD8012701
Probable space group: P -1
;
_chemical_formula_sum "Si O2"
_cell_formula_units_Z 16
_cell_length_a 11.693044
_cell_length_b 12.026417
_cell_length_c 9.272111
_cell_angle_alpha 86.077655
_cell_angle_beta 65.470508
_cell_angle_gamma 47.698507
_cell_volume 833.082090
_symmetry_space_group_name_H-M "P -1"
_symmetry_group_IT_number 2
_symmetry_cell_setting 'triclinic'
loop_
_space_group_symop_operation_xyz
x,y,z
-x,-y,-z
loop_
_atom_site_type_symbol
_atom_site_label
_atom_site_fract_x
_atom_site_fract_y
_atom_site_fract_z
Si Si1 0.374343 0.356474 0.655791
Si Si2 0.742942 0.388513 0.073733
Si Si3 0.492534 0.122217 0.844323
Si Si4 0.677036 0.605075 0.873631
Si Si5 0.992998 0.482973 0.177190
Si Si6 0.784322 0.863079 0.899496
Si Si7 0.901176 0.946607 0.055485
Si Si8 0.439798 0.723264 0.721816
O O1 0.287527 0.505012 0.790057
O O2 0.501787 0.190634 0.690049
O O3 0.487101 0.341935 0.471264
O O4 0.212626 0.381902 0.676212
O O5 0.646433 0.334726 0.167174
O O6 0.657565 0.494238 0.964047
O O7 0.956162 0.234665 0.943945
O O8 0.686107 0.948142 0.791118
O O9 0.445034 0.229268 0.995868
O O10 0.346078 0.115495 0.916320
O O11 0.885434 0.508055 0.795538
O O12 0.608838 0.647715 0.741243
O O13 0.051409 0.320851 0.200812
O O14 0.000000 0.500000 0.000000
O O15 0.852459 0.937738 0.920222
O O16 0.711669 0.083684 0.225124
O O17 0.000000 0.000000 0.000000
#
# Coordination Sequence:
#
# PCOD8012701 Si02
#       8
#     2   2   2   2   2   2   2   2
#     4  11  21  37  57  85 112 146 182 235 281 323
#     4  10  20  38  62  77 106 158 193 212 269 347
#     4   9  19  31  59  80 102 148 188 223 264 335
#     4  10  19  35  58  85 106 144 194 229 265 328
#     4  11  18  34  61  83 106 147 194 224 262 342
#     4  10  16  33  58  79 102 139 198 219 254 325
#     4  10  20  34  57  81 107 145 186 224 268 329
#     4  11  23  36  54  86 121 137 179 243 285 310
#
# _framework density 19.20579
#
# number of rings (size 3 to 8) (size 9 to 14) (size 15 to 20)
#    0.000    1.750    6.250    0.750    0.000    0.500 
#    0.000    1.875    0.000    1.500    0.000    0.000 
#    0.000    0.000    0.000    0.000    0.000    0.000 
#
# Total GULP energy -198219.152490 kJ/mol
# GULP energy per Si atom -12388.697031 kJ/mol
# Density = 1.916208 g / cm^3
# Si number density = 19.205790 Si / 1000 Ang^3
#
#
#
# Elastic Constant Matrix: (Units=GPa)
#
#
# Indices 1 2 3 4 5 6 
#
# 1 90.8938 32.6824 16.7704 -8.6941 1.5967 -3.4883
# 2 32.6824 117.7039 36.7437 -3.1630 4.8588 -8.9245
# 3 16.7704 36.7437 59.1808 -2.3513 2.8288 -2.7575
# 4 -8.6941 -3.1630 -2.3513 17.9584 -2.0486 -2.5709
# 5 1.5967 4.8588 2.8288 -2.0486 17.7144 -2.0559
# 6 -3.4883 -8.9245 -2.7575 -2.5709 -2.0559 28.9558
#
#
#
# Elastic Compliance Matrix: (Units=1/GPa)
#
#
# Indices 1 2 3 4 5 6 
#
# 1 0.012915 -0.002868 -0.001632 0.005765 0.000675 0.001076
# 2 -0.002868 0.011454 -0.006105 0.000001 -0.001619 0.002488
# 3 -0.001632 -0.006105 0.021247 0.000732 -0.001498 -0.000096
# 4 0.005765 0.000001 0.000732 0.060331 0.007109 0.006626
# 5 0.000675 -0.001619 -0.001498 0.007109 0.058385 0.004216
# 6 0.001076 0.002488 -0.000096 0.006626 0.004216 0.036310
#
#
# Mechanical properties :
#
#
# Convention : Reuss Voigt Hill
#
# Bulk Modulus (GPa) = 40.97582 48.90794 44.94188
# Shear Modulus (GPa) = 21.74034 25.03119 23.38577
#
# Velocity S-wave (km/s) = 3.36812 3.61406 3.49326
# Velocity P-wave (km/s) = 6.04211 6.55254 6.30249
#
# Compressibility (1/GPa) = 0.02440464
#
# Stress axis : x y z
#
# Youngs Moduli (GPa) = 77.42897 87.30895 47.06632
#
# Poissons Ratio (x) = 0.25039 0.07683
# Poissons Ratio (y) = 0.22205 0.28735
# Poissons Ratio (z) = 0.12639 0.53303
#
# Static dielectric constant tensor:
#      x y z
#    x 3.692270 -0.116550 -0.126900 
#    y -0.116550 3.950340 0.038050 
#    z -0.126900 0.038050 2.989920 
# 
# 
# High freq. dielectric constant tensor:
#      x y z
#    x 1.756920 -0.008480 -0.007920 
#    y -0.008480 1.769160 -0.004800 
#    z -0.007920 -0.004800 1.681580 
# 
# From -- ./inp_files/185852.got.cif
#   From: 2010.06.25/outbox.cif.g09.slc.cpg/sg2_93_cif.got.tgz:185852.got - 2010.06.27 13:26:56.
