data_PCOD8012096
_publ_section_title
;
Structure prediction by ZEFSAII (Michael W. Deem and Ramdas Pophale) SiO2 
 PCOD8012096
Probable space group: P -1
;
_chemical_formula_sum "Si O2"
_cell_formula_units_Z 16
_cell_length_a 11.765909
_cell_length_b 9.182326
_cell_length_c 19.169544
_cell_angle_alpha 124.350718
_cell_angle_beta 151.360502
_cell_angle_gamma 48.087350
_cell_volume 737.283905
_symmetry_space_group_name_H-M "P -1"
_symmetry_group_IT_number 2
_symmetry_cell_setting 'triclinic'
loop_
_space_group_symop_operation_xyz
x,y,z
-x,-y,-z
loop_
_atom_site_type_symbol
_atom_site_label
_atom_site_fract_x
_atom_site_fract_y
_atom_site_fract_z
Si Si1 0.696103 0.114099 0.435715
Si Si2 0.691561 0.558120 0.359160
Si Si3 0.820523 0.395255 0.249481
Si Si4 0.473400 0.815556 0.014163
Si Si5 0.815457 0.743440 0.045760
Si Si6 0.660423 0.921489 0.496573
Si Si7 0.368506 0.408835 0.228916
Si Si8 0.131895 0.236132 0.668705
O O1 0.447737 0.258000 0.295224
O O2 0.906330 0.204220 0.579437
O O3 0.619682 0.099509 0.470533
O O4 0.810863 0.894525 0.405935
O O5 0.600428 0.515165 0.222781
O O6 0.541625 0.787678 0.357876
O O7 0.624245 0.441831 0.353426
O O8 0.000000 0.500000 0.500000
O O9 0.952690 0.533401 0.329676
O O10 0.036438 0.204130 0.352756
O O11 0.675762 0.324680 0.093506
O O12 0.684719 0.717429 0.039705
O O13 0.608416 0.835552 0.163157
O O14 0.247112 0.029003 0.930496
O O15 0.129656 0.610197 0.180339
O O16 0.701740 0.683750 0.900768
O O17 0.500000 0.000000 0.500000
#
# Coordination Sequence:
#
# PCOD8012096 Si02
#       8
#     2   2   2   2   2   2   2   2
#     4  11  24  41  70  99 136 169 232 285 343 398
#     4  10  21  39  66  94 131 180 220 266 341 406
#     4  11  23  43  66  95 138 180 223 275 338 411
#     4  11  23  41  68  99 136 178 232 275 335 409
#     4  10  24  39  69 100 134 180 229 275 341 407
#     4  11  26  42  66 100 134 177 225 281 343 403
#     4  11  22  44  67 100 136 179 224 285 339 402
#     4  11  24  41  68 103 131 178 227 288 332 405
#
# _framework density 21.701274000000002
#
# number of rings (size 3 to 8) (size 9 to 14) (size 15 to 20)
#    0.000    1.250    3.750    1.875   10.500    1.000 
#    0.000    1.875    0.000    3.750    0.000    0.000 
#    0.000    0.000    0.000    0.000    0.000    0.000 
#
# Total GULP energy -198303.357276 kJ/mol
# GULP energy per Si atom -12393.959830 kJ/mol
# Density = 2.165188 g / cm^3
# Si number density = 21.701274 Si / 1000 Ang^3
#
#
#
# Elastic Constant Matrix: (Units=GPa)
#
#
# Indices 1 2 3 4 5 6 
#
# 1 142.1516 61.3191 35.0371 -1.4111 3.0369 11.0980
# 2 61.3191 101.8113 44.1194 6.7733 12.0599 8.6097
# 3 35.0371 44.1194 89.0468 9.1781 0.7303 6.1471
# 4 -1.4111 6.7733 9.1781 39.8237 2.7212 -1.5901
# 5 3.0369 12.0599 0.7303 2.7212 26.3198 -4.1589
# 6 11.0980 8.6097 6.1471 -1.5901 -4.1589 44.0420
#
#
#
# Elastic Compliance Matrix: (Units=1/GPa)
#
#
# Indices 1 2 3 4 5 6 
#
# 1 0.009780 -0.005506 -0.001205 0.001442 0.001111 -0.001063
# 2 -0.005506 0.016721 -0.005804 -0.001293 -0.007013 -0.001780
# 3 -0.001205 -0.005804 0.014869 -0.002678 0.002586 -0.000490
# 4 0.001442 -0.001293 -0.002678 0.026179 -0.002046 0.001015
# 5 0.001111 -0.007013 0.002586 -0.002046 0.041949 0.004617
# 6 -0.001063 -0.001780 -0.000490 0.001015 0.004617 0.023862
#
#
# Mechanical properties :
#
#
# Convention : Reuss Voigt Hill
#
# Bulk Modulus (GPa) = 61.20121 68.21788 64.70954
# Shear Modulus (GPa) = 30.51810 34.87272 32.69541
#
# Velocity S-wave (km/s) = 3.75411 4.01302 3.88572
# Velocity P-wave (km/s) = 6.85959 7.27844 7.07212
#
# Compressibility (1/GPa) = 0.01633955
#
# Stress axis : x y z
#
# Youngs Moduli (GPa) = 102.24533 59.80520 67.25611
#
# Poissons Ratio (x) = 0.32930 0.08101
# Poissons Ratio (y) = 0.56298 0.39038
# Poissons Ratio (z) = 0.12316 0.34713
#
# Static dielectric constant tensor:
#      x y z
#    x 3.792250 0.658020 -0.259950 
#    y 0.658020 0.501990 0.540700 
#    z -0.259950 0.540700 3.851920 
# 
# 
# High freq. dielectric constant tensor:
#      x y z
#    x 1.844490 0.003520 -0.013170 
#    y 0.003520 1.859950 0.019100 
#    z -0.013170 0.019100 1.842590 
# 
# From -- ./inp_files/594167.got.cif
#   From: 2010.06.25/outbox.cif.g09.slc.cpg/sg2_298_cif.got.tgz:594167.got - 2010.06.27 13:26:56.
