data_PCOD8012088
_publ_section_title
;
Structure prediction by ZEFSAII (Michael W. Deem and Ramdas Pophale) SiO2 
 PCOD8012088
Probable space group: P -1
;
_chemical_formula_sum "Si O2"
_cell_formula_units_Z 16
_cell_length_a 8.051728
_cell_length_b 21.422902
_cell_length_c 11.052175
_cell_angle_alpha 145.195467
_cell_angle_beta 43.248118
_cell_angle_gamma 126.987276
_cell_volume 745.514827
_symmetry_space_group_name_H-M "P -1"
_symmetry_group_IT_number 2
_symmetry_cell_setting 'triclinic'
loop_
_space_group_symop_operation_xyz
x,y,z
-x,-y,-z
loop_
_atom_site_type_symbol
_atom_site_label
_atom_site_fract_x
_atom_site_fract_y
_atom_site_fract_z
Si Si1 0.886551 0.102567 0.660944
Si Si2 0.317115 0.105221 0.970294
Si Si3 0.582569 0.666032 0.782383
Si Si4 0.919236 0.088075 0.339788
Si Si5 0.642246 0.299628 0.799811
Si Si6 0.862495 0.682310 0.043136
Si Si7 0.699123 0.439557 0.455638
Si Si8 0.357809 0.471200 0.909944
O O1 0.601894 0.101411 0.834960
O O2 0.958855 0.102553 0.482762
O O3 0.002262 0.205309 0.829360
O O4 0.000000 0.000000 0.500000
O O5 0.246049 0.019616 0.766392
O O6 0.243391 0.229492 0.170565
O O7 0.179753 0.071636 0.112856
O O8 0.732150 0.565254 0.596406
O O9 0.438645 0.631742 0.685047
O O10 0.389826 0.707703 0.050332
O O11 0.797730 0.195105 0.512922
O O12 0.386445 0.296966 0.861686
O O13 0.774373 0.417085 0.887597
O O14 0.829858 0.623634 0.099804
O O15 0.029465 0.606554 0.747094
O O16 0.545297 0.428001 0.641471
O O17 0.500000 0.500000 0.000000
#
# Coordination Sequence:
#
# PCOD8012088 Si02
#       8
#     2   2   2   2   2   2   2   2
#     4  12  26  44  69  96 129 166 212 276 323 377
#     4  11  24  44  66  96 125 171 220 259 324 382
#     4  10  21  39  66  93 128 171 217 255 322 379
#     4  11  25  44  68  92 128 171 218 267 315 387
#     4  10  21  43  65  96 130 174 214 259 319 383
#     4  11  23  40  66  99 130 172 212 260 331 372
#     4  10  21  41  62  96 133 168 210 270 312 381
#     4   9  22  39  60  96 134 166 211 253 316 381
#
# _framework density 21.461677999999999
#
# number of rings (size 3 to 8) (size 9 to 14) (size 15 to 20)
#    0.000    1.500    2.500    1.125    5.250    5.000 
#    2.250    2.500    0.000    0.000    0.000    0.000 
#    0.000    0.000    0.000    0.000    0.000    0.000 
#
# Total GULP energy -198375.206148 kJ/mol
# GULP energy per Si atom -12398.450384 kJ/mol
# Density = 2.141283 g / cm^3
# Si number density = 21.461678 Si / 1000 Ang^3
#
#
#
# Elastic Constant Matrix: (Units=GPa)
#
#
# Indices 1 2 3 4 5 6 
#
# 1 55.6004 26.0152 29.0587 -7.5526 7.6218 -11.5471
# 2 26.0152 128.3530 50.1356 12.1868 -1.2891 -2.6607
# 3 29.0587 50.1356 109.2772 1.5093 2.9672 -8.5748
# 4 -7.5526 12.1868 1.5093 39.5164 -5.2844 2.4051
# 5 7.6218 -1.2891 2.9672 -5.2844 25.7209 0.8829
# 6 -11.5471 -2.6607 -8.5748 2.4051 0.8829 25.2217
#
#
#
# Elastic Compliance Matrix: (Units=1/GPa)
#
#
# Indices 1 2 3 4 5 6 
#
# 1 0.025519 -0.003875 -0.004137 0.004756 -0.006633 0.009647
# 2 -0.003875 0.010398 -0.003865 -0.003501 0.001455 -0.001708
# 3 -0.004137 -0.003865 0.012189 -0.000244 -0.000489 0.001883
# 4 0.004756 -0.003501 -0.000244 0.027934 0.004220 -0.001086
# 5 -0.006633 0.001455 -0.000489 0.004220 0.042010 -0.004922
# 6 0.009647 -0.001708 0.001883 -0.001086 -0.004922 0.044801
#
#
# Mechanical properties :
#
#
# Convention : Reuss Voigt Hill
#
# Bulk Modulus (GPa) = 41.06413 55.96104 48.51259
# Shear Modulus (GPa) = 25.67763 30.62653 28.15208
#
# Velocity S-wave (km/s) = 3.46271 3.78171 3.62572
# Velocity P-wave (km/s) = 5.92979 6.72309 6.33886
#
# Compressibility (1/GPa) = 0.02435215
#
# Stress axis : x y z
#
# Youngs Moduli (GPa) = 39.18594 96.17447 82.04218
#
# Poissons Ratio (x) = 0.37265 0.33941
# Poissons Ratio (y) = 0.15183 0.31711
# Poissons Ratio (z) = 0.16211 0.37174
#
# Static dielectric constant tensor:
#      x y z
#    x 3.779090 0.281390 0.177230 
#    y 0.281390 6.480840 0.580730 
#    z 0.177230 0.580730 4.333130 
# 
# 
# High freq. dielectric constant tensor:
#      x y z
#    x 1.828020 -0.004560 0.009240 
#    y -0.004560 1.853130 0.011070 
#    z 0.009240 0.011070 1.856420 
# 
# From -- ./inp_files/406735.got.cif
#   From: 2010.06.25/outbox.cif.g09.slc.cpg/sg2_204_cif.got.tgz:406735.got - 2010.06.27 13:26:56.
