data_PCOD8012586
_publ_section_title
;
Structure prediction by ZEFSAII (Michael W. Deem and Ramdas Pophale) SiO2 
 PCOD8012586
Probable space group: P -1
;
_chemical_formula_sum "Si O2"
_cell_formula_units_Z 16
_cell_length_a 15.127248
_cell_length_b 23.528376
_cell_length_c 14.364965
_cell_angle_alpha 31.978487
_cell_angle_beta 30.691553
_cell_angle_gamma 17.494041
_cell_volume 771.214513
_symmetry_space_group_name_H-M "P -1"
_symmetry_group_IT_number 2
_symmetry_cell_setting 'triclinic'
loop_
_space_group_symop_operation_xyz
x,y,z
-x,-y,-z
loop_
_atom_site_type_symbol
_atom_site_label
_atom_site_fract_x
_atom_site_fract_y
_atom_site_fract_z
Si Si1 0.711767 0.827945 0.671869
Si Si2 0.305976 0.476026 0.117774
Si Si3 0.658458 0.223969 0.496347
Si Si4 0.693568 0.709911 0.023532
Si Si5 0.563072 0.565852 0.418519
Si Si6 0.722694 0.784770 0.089045
Si Si7 0.281400 0.542865 0.257130
Si Si8 0.652760 0.792926 0.571567
O O1 0.584318 0.838064 0.680362
O O2 0.076092 0.623883 0.623179
O O3 0.616913 0.001804 0.521722
O O4 0.546803 0.857153 0.869853
O O5 0.193839 0.558417 0.209392
O O6 0.386136 0.309952 0.276307
O O7 0.037391 0.645859 0.052637
O O8 0.610371 0.388206 0.935855
O O9 0.624522 0.335632 0.450778
O O10 0.418819 0.251344 0.692242
O O11 0.570212 0.322219 0.340458
O O12 0.000000 0.000000 0.500000
O O13 0.465941 0.728958 0.231090
O O14 0.787241 0.736720 0.988114
O O15 0.000000 0.500000 0.000000
O O16 0.500000 0.500000 0.500000
O O17 0.500000 0.000000 0.000000
O O18 0.985487 0.673850 0.408791
#
# Coordination Sequence:
#
# PCOD8012586 Si02
#       8
#     2   2   2   2   2   2   2   2
#     4  10  22  41  65  91 121 172 215 256 326 383
#     4  11  24  42  65  93 130 174 209 263 333 378
#     4  11  23  41  64  94 133 166 214 273 317 383
#     4   9  20  39  62  89 124 164 206 259 318 380
#     4  10  21  40  61  93 130 162 208 267 322 378
#     4  11  23  39  64  97 127 169 216 264 329 383
#     4  11  24  42  65  94 131 166 218 265 314 393
#     4  11  22  44  66  89 131 168 215 266 313 386
#
# _framework density 20.746497000000002
#
# number of rings (size 3 to 8) (size 9 to 14) (size 15 to 20)
#    0.000    1.500    2.500    2.625    1.750    6.000 
#    4.500    1.250    0.000    0.000    0.000    0.000 
#    0.000    0.000    0.000    0.000    0.000    0.000 
#
# Total GULP energy -198342.937274 kJ/mol
# GULP energy per Si atom -12396.433580 kJ/mol
# Density = 2.069928 g / cm^3
# Si number density = 20.746497 Si / 1000 Ang^3
#
#
#
# Elastic Constant Matrix: (Units=GPa)
#
#
# Indices 1 2 3 4 5 6 
#
# 1 148.6840 39.4637 68.6390 -13.9774 5.1678 13.5429
# 2 39.4637 87.3866 37.9889 -16.8189 1.6338 11.4436
# 3 68.6390 37.9889 122.8632 -18.3976 3.4680 1.4989
# 4 -13.9774 -16.8189 -18.3976 31.1945 1.1355 0.1765
# 5 5.1678 1.6338 3.4680 1.1355 42.1478 -7.5430
# 6 13.5429 11.4436 1.4989 0.1765 -7.5430 24.8459
#
#
#
# Elastic Compliance Matrix: (Units=1/GPa)
#
#
# Indices 1 2 3 4 5 6 
#
# 1 0.009965 -0.001548 -0.004853 0.000857 -0.001670 -0.004939
# 2 -0.001548 0.015450 -0.002887 0.006027 -0.001515 -0.006601
# 3 -0.004853 -0.002887 0.012214 0.003447 0.000195 0.003273
# 4 0.000857 0.006027 0.003447 0.037837 -0.002440 -0.004460
# 5 -0.001670 -0.001515 0.000195 -0.002440 0.025726 0.009424
# 6 -0.004939 -0.006601 0.003273 -0.004460 0.009424 0.048676
#
#
# Mechanical properties :
#
#
# Convention : Reuss Voigt Hill
#
# Bulk Modulus (GPa) = 52.48207 72.34634 62.41421
# Shear Modulus (GPa) = 28.60520 33.82713 31.21617
#
# Velocity S-wave (km/s) = 3.71724 4.04232 3.88319
# Velocity P-wave (km/s) = 6.61631 7.53223 7.08908
#
# Compressibility (1/GPa) = 0.01905413
#
# Stress axis : x y z
#
# Youngs Moduli (GPa) = 100.34823 64.72538 81.87628
#
# Poissons Ratio (x) = 0.10017 0.39734
# Poissons Ratio (y) = 0.15530 0.23636
# Poissons Ratio (z) = 0.48699 0.18685
#
# Static dielectric constant tensor:
#      x y z
#    x 0.000000 0.000000 0.000000 
#    y 0.000000 0.000000 0.000000 
#    z 0.000000 0.000000 0.000000 
# 
# 
# High freq. dielectric constant tensor:
#      x y z
#    x 1.819200 0.007570 0.012820 
#    y 0.007570 1.799040 -0.016680 
#    z 0.012820 -0.016680 1.822990 
# 
# From -- ./inp_files/535397.got.cif
#   From: 2010.06.25/outbox.cif.g09.slc.cpg/sg2_268_cif.got.tgz:535397.got - 2010.06.27 13:26:56.
