data_PCOD8012212
_publ_section_title
;
Structure prediction by ZEFSAII (Michael W. Deem and Ramdas Pophale) SiO2 
 PCOD8012212
Probable space group: P -1
;
_chemical_formula_sum "Si O2"
_cell_formula_units_Z 10
_cell_length_a 9.236865
_cell_length_b 8.647703
_cell_length_c 8.195583
_cell_angle_alpha 113.828881
_cell_angle_beta 114.476566
_cell_angle_gamma 46.732808
_cell_volume 426.674323
_symmetry_space_group_name_H-M "P -1"
_symmetry_group_IT_number 2
_symmetry_cell_setting 'triclinic'
loop_
_space_group_symop_operation_xyz
x,y,z
-x,-y,-z
loop_
_atom_site_type_symbol
_atom_site_label
_atom_site_fract_x
_atom_site_fract_y
_atom_site_fract_z
Si Si1 0.261142 0.899499 0.137199
Si Si2 0.513124 0.013183 0.204519
Si Si3 0.877730 0.514517 0.720748
Si Si4 0.912373 0.315077 0.988985
Si Si5 0.093814 0.097789 0.496916
O O1 0.479168 0.847502 0.196777
O O2 0.162087 0.011370 0.311642
O O3 0.272209 0.686871 0.037705
O O4 0.118557 0.067472 0.997411
O O5 0.337603 0.251391 0.296251
O O6 0.724323 0.952143 0.327777
O O7 0.500000 0.000000 0.000000
O O8 0.061849 0.528807 0.830760
O O9 0.927694 0.361092 0.523999
O O10 0.874277 0.387423 0.815966
O O11 0.000000 0.000000 0.500000
#
# Coordination Sequence:
#
# PCOD8012212 Si02
#       5
#     2   2   2   2   2
#     4  10  21  39  67  97 131 167 217 263 326 378
#     4  11  25  43  68  95 132 172 216 266 319 386
#     4  10  21  42  67  95 130 171 216 257 329 385
#     4   9  18  37  66  92 127 170 207 261 314 388
#     4  12  24  42  69  95 133 170 210 276 325 370
#
# _framework density 23.437079000000001
#
# number of rings (size 3 to 8) (size 9 to 14) (size 15 to 20)
#    0.000    1.600    2.000    4.200    2.800    4.000 
#    0.000    6.000    0.000    0.000    0.000    0.000 
#    0.000    0.000    0.000    0.000    0.000    0.000 
#
# Total GULP energy -123910.370055 kJ/mol
# GULP energy per Si atom -12391.037006 kJ/mol
# Density = 2.338373 g / cm^3
# Si number density = 23.437079 Si / 1000 Ang^3
#
#
#
# Elastic Constant Matrix: (Units=GPa)
#
#
# Indices 1 2 3 4 5 6 
#
# 1 183.6137 34.4309 32.0227 10.3935 38.3452 29.4417
# 2 34.4309 52.8310 10.5473 12.5213 17.3637 14.3725
# 3 32.0227 10.5473 44.8316 8.4858 15.4307 1.3465
# 4 10.3935 12.5213 8.4858 41.1065 3.4845 3.4431
# 5 38.3452 17.3637 15.4307 3.4845 44.5135 7.1677
# 6 29.4417 14.3725 1.3465 3.4431 7.1677 45.7935
#
#
#
# Elastic Compliance Matrix: (Units=1/GPa)
#
#
# Indices 1 2 3 4 5 6 
#
# 1 0.007930 -0.002078 -0.003638 0.000041 -0.004169 -0.003690
# 2 -0.002078 0.025444 -0.000967 -0.006043 -0.006498 -0.005150
# 3 -0.003638 -0.000967 0.028047 -0.004298 -0.006381 0.003139
# 4 0.000041 -0.006043 -0.004298 0.026921 0.001753 -0.000302
# 5 -0.004169 -0.006498 -0.006381 0.001753 0.030670 -0.000025
# 6 -0.003690 -0.005150 0.003139 -0.000302 -0.000025 0.025760
#
#
# Mechanical properties :
#
#
# Convention : Reuss Voigt Hill
#
# Bulk Modulus (GPa) = 20.80875 48.36422 34.58649
# Shear Modulus (GPa) = 28.70978 39.90108 34.30543
#
# Velocity S-wave (km/s) = 3.50376 4.13058 3.83002
# Velocity P-wave (km/s) = 5.02656 6.59011 5.86071
#
# Compressibility (1/GPa) = 0.04805671
#
# Stress axis : x y z
#
# Youngs Moduli (GPa) = 126.09999 39.30128 35.65449
#
# Poissons Ratio (x) = 0.08166 0.12970
# Poissons Ratio (y) = 0.26201 0.03448
# Poissons Ratio (z) = 0.45872 0.03800
#
# Static dielectric constant tensor:
#      x y z
#    x 4.807990 0.393200 0.322850 
#    y 0.393200 4.252630 0.223660 
#    z 0.322850 0.223660 4.272390 
# 
# 
# High freq. dielectric constant tensor:
#      x y z
#    x 1.944130 0.028170 0.013520 
#    y 0.028170 1.907840 0.013460 
#    z 0.013520 0.013460 1.921690 
# 
# From -- ./inp_files/143991.got.cif
#   From: 2010.06.25/outbox.cif.g09.slc.cpg/sg2_72_cif.got.tgz:143991.got - 2010.06.27 13:26:56.
