data_PCOD8012693
_publ_section_title
;
Structure prediction by ZEFSAII (Michael W. Deem and Ramdas Pophale) SiO2 
 PCOD8012693
Probable space group: P -1
;
_chemical_formula_sum "Si O2"
_cell_formula_units_Z 14
_cell_length_a 10.980997
_cell_length_b 12.157506
_cell_length_c 9.194875
_cell_angle_alpha 51.189215
_cell_angle_beta 117.658669
_cell_angle_gamma 136.231249
_cell_volume 661.515996
_symmetry_space_group_name_H-M "P -1"
_symmetry_group_IT_number 2
_symmetry_cell_setting 'triclinic'
loop_
_space_group_symop_operation_xyz
x,y,z
-x,-y,-z
loop_
_atom_site_type_symbol
_atom_site_label
_atom_site_fract_x
_atom_site_fract_y
_atom_site_fract_z
Si Si1 0.293534 0.906472 0.965836
Si Si2 0.190544 0.101021 0.950604
Si Si3 0.601199 0.878808 0.710698
Si Si4 0.244040 0.723632 0.541310
Si Si5 0.155652 0.245991 0.536580
Si Si6 0.771083 0.948592 0.459689
Si Si7 0.140629 0.547513 0.328600
O O1 0.228551 0.978713 0.988615
O O2 0.241415 0.928011 0.759559
O O3 0.500000 0.000000 0.000000
O O4 0.184556 0.695066 0.113199
O O5 0.216407 0.245796 0.733559
O O6 0.334197 0.202419 0.076598
O O7 0.000000 0.000000 0.000000
O O8 0.392943 0.770686 0.700469
O O9 0.617604 0.851917 0.572415
O O10 0.720608 0.092039 0.637312
O O11 0.242357 0.634548 0.464796
O O12 0.066325 0.591282 0.641738
O O13 0.260628 0.220189 0.499343
O O14 0.199876 0.438067 0.379493
O O15 0.951785 0.073826 0.545816
#
# Coordination Sequence:
#
# PCOD8012693 Si02
#       7
#     2   2   2   2   2   2   2
#     4  11  25  41  67  97 131 173 219 270 331 392
#     4  11  21  40  68  96 125 182 217 259 325 402
#     4  11  20  41  68  95 128 172 223 261 322 395
#     4  10  22  35  67 100 127 162 217 281 318 367
#     4  10  22  39  63  93 129 172 216 258 328 386
#     4  10  21  40  62  95 129 173 213 260 326 394
#     4  11  21  43  66  97 132 166 219 272 324 385
#
# _framework density 21.163509999999999
#
# number of rings (size 3 to 8) (size 9 to 14) (size 15 to 20)
#    0.000    1.429    4.286    0.857    4.000    0.571 
#    0.000    7.143    0.000    0.000    0.000    0.000 
#    0.000    0.000    0.000    0.000    0.000    0.000 
#
# Total GULP energy -173549.349564 kJ/mol
# GULP energy per Si atom -12396.382112 kJ/mol
# Density = 2.111534 g / cm^3
# Si number density = 21.163510 Si / 1000 Ang^3
#
#
#
# Elastic Constant Matrix: (Units=GPa)
#
#
# Indices 1 2 3 4 5 6 
#
# 1 105.6967 51.6950 48.8250 0.2150 10.6457 -11.0428
# 2 51.6950 78.4378 54.4068 -1.0612 -5.5025 -2.9397
# 3 48.8250 54.4068 149.6731 15.5841 11.9404 -3.5263
# 4 0.2150 -1.0612 15.5841 37.4599 -0.3154 10.1929
# 5 10.6457 -5.5025 11.9404 -0.3154 22.8551 0.1632
# 6 -11.0428 -2.9397 -3.5263 10.1929 0.1632 42.4772
#
#
#
# Elastic Compliance Matrix: (Units=1/GPa)
#
#
# Indices 1 2 3 4 5 6 
#
# 1 0.016588 -0.011409 -0.000185 -0.001492 -0.010425 0.003905
# 2 -0.011409 0.026830 -0.007908 0.005079 0.015997 -0.003046
# 3 -0.000185 -0.007908 0.010797 -0.005208 -0.007542 0.001580
# 4 -0.001492 0.005079 -0.005208 0.031229 0.005127 -0.007982
# 5 -0.010425 0.015997 -0.007542 0.005127 0.056498 -0.003676
# 6 0.003905 -0.003046 0.001580 -0.007982 -0.003676 0.026407
#
#
# Mechanical properties :
#
#
# Convention : Reuss Voigt Hill
#
# Bulk Modulus (GPa) = 65.74013 71.51793 68.62903
# Shear Modulus (GPa) = 23.53787 32.48384 28.01086
#
# Velocity S-wave (km/s) = 3.33857 3.92203 3.64200
# Velocity P-wave (km/s) = 6.78173 7.37402 7.08406
#
# Compressibility (1/GPa) = 0.01521141
#
# Stress axis : x y z
#
# Youngs Moduli (GPa) = 60.28629 37.27156 92.61694
#
# Poissons Ratio (x) = 0.42524 0.01711
# Poissons Ratio (y) = 0.68782 0.73240
# Poissons Ratio (z) = 0.01114 0.29474
#
# Static dielectric constant tensor:
#      x y z
#    x 4.142680 -0.139930 0.117210 
#    y -0.139930 3.639340 0.175700 
#    z 0.117210 0.175700 3.910730 
# 
# 
# High freq. dielectric constant tensor:
#      x y z
#    x 1.845610 -0.004690 0.006030 
#    y -0.004690 1.810500 0.020770 
#    z 0.006030 0.020770 1.826820 
# 
# From -- ./inp_files/158489.got.cif
#   From: 2010.06.25/outbox.cif.g09.slc.cpg/sg2_80_cif.got.tgz:158489.got - 2010.06.27 13:26:56.
