data_PCOD8012964
_publ_section_title
;
Structure prediction by ZEFSAII (Michael W. Deem and Ramdas Pophale) SiO2 
 PCOD8012964
Probable space group: P -1
;
_chemical_formula_sum "Si O2"
_cell_formula_units_Z 16
_cell_length_a 15.940531
_cell_length_b 8.971067
_cell_length_c 8.242560
_cell_angle_alpha 50.553337
_cell_angle_beta 59.085963
_cell_angle_gamma 55.537868
_cell_volume 728.129440
_symmetry_space_group_name_H-M "P -1"
_symmetry_group_IT_number 2
_symmetry_cell_setting 'triclinic'
loop_
_space_group_symop_operation_xyz
x,y,z
-x,-y,-z
loop_
_atom_site_type_symbol
_atom_site_label
_atom_site_fract_x
_atom_site_fract_y
_atom_site_fract_z
Si Si1 0.224838 0.382315 0.728070
Si Si2 0.878727 0.625563 0.506465
Si Si3 0.381428 0.584998 0.357068
Si Si4 0.455887 0.236637 0.933690
Si Si5 0.492868 0.793543 0.722174
Si Si6 0.879639 0.053657 0.121438
Si Si7 0.715650 0.085144 0.024295
Si Si8 0.212496 0.490746 0.998321
O O1 0.158836 0.439995 0.584450
O O2 0.305970 0.503132 0.593958
O O3 0.290583 0.139829 0.836898
O O4 0.156533 0.441687 0.923807
O O5 0.817246 0.582852 0.749612
O O6 0.000000 0.500000 0.500000
O O7 0.859104 0.868202 0.363158
O O8 0.474758 0.643602 0.309240
O O9 0.430809 0.407188 0.300405
O O10 0.305073 0.796616 0.205647
O O11 0.474061 0.234139 0.106715
O O12 0.335001 0.364698 0.931691
O O13 0.500000 0.000000 0.000000
O O14 0.372609 0.803540 0.827964
O O15 0.500000 0.000000 0.500000
O O16 0.827614 0.078684 0.978506
O O17 0.824931 0.260764 0.135195
O O18 0.000000 0.000000 0.000000
#
# Coordination Sequence:
#
# PCOD8012964 Si02
#       8
#     2   2   2   2   2   2   2   2
#     4  11  25  43  70 101 135 185 227 283 349 415
#     4  11  25  48  74  97 140 182 232 299 347 407
#     4  11  22  41  66  96 140 186 224 281 342 405
#     4  11  25  42  66 103 146 180 229 285 337 414
#     4  11  20  37  65  93 127 186 232 267 339 410
#     4  11  23  42  69 101 130 180 231 287 352 407
#     4  10  21  40  64  94 136 176 235 283 335 417
#     4  12  25  46  70 104 140 179 238 282 345 418
#
# _framework density 21.974114
#
# number of rings (size 3 to 8) (size 9 to 14) (size 15 to 20)
#    0.000    1.000    2.500    6.000    1.750    3.000 
#    0.000    0.625    0.000    0.000    0.000    0.000 
#    0.000    0.000    0.000    0.000    0.000    0.000 
#
# Total GULP energy -198216.277738 kJ/mol
# GULP energy per Si atom -12388.517359 kJ/mol
# Density = 2.192410 g / cm^3
# Si number density = 21.974114 Si / 1000 Ang^3
#
#
#
# Elastic Constant Matrix: (Units=GPa)
#
#
# Indices 1 2 3 4 5 6 
#
# 1 111.1061 53.3509 49.3804 6.8190 -7.7091 -9.3655
# 2 53.3509 111.3046 40.1360 -12.6978 16.2698 -4.7499
# 3 49.3804 40.1360 109.3062 -7.5321 8.2587 9.0958
# 4 6.8190 -12.6978 -7.5321 32.2247 5.1026 3.2542
# 5 -7.7091 16.2698 8.2587 5.1026 23.9925 2.0222
# 6 -9.3655 -4.7499 9.0958 3.2542 2.0222 35.2056
#
#
#
# Elastic Compliance Matrix: (Units=1/GPa)
#
#
# Indices 1 2 3 4 5 6 
#
# 1 0.020994 -0.011356 -0.008364 -0.014673 0.019905 0.006427
# 2 -0.011356 0.018368 0.000787 0.012927 -0.019053 -0.000847
# 3 -0.008364 0.000787 0.014353 0.007505 -0.009253 -0.005990
# 4 -0.014673 0.012927 0.007505 0.045669 -0.025197 -0.006872
# 5 0.019905 -0.019053 -0.009253 -0.025197 0.069247 0.003467
# 6 0.006427 -0.000847 -0.005990 -0.006872 0.003467 0.031984
#
#
# Mechanical properties :
#
#
# Convention : Reuss Voigt Hill
#
# Bulk Modulus (GPa) = 63.10213 68.60570 65.85392
# Shear Modulus (GPa) = 20.51160 30.87454 25.69307
#
# Velocity S-wave (km/s) = 3.05855 3.75245 3.42313
# Velocity P-wave (km/s) = 6.42276 7.07555 6.75705
#
# Compressibility (1/GPa) = 0.01584733
#
# Stress axis : x y z
#
# Youngs Moduli (GPa) = 47.63218 54.44390 69.67115
#
# Poissons Ratio (x) = 0.61827 0.58276
# Poissons Ratio (y) = 0.54091 -0.05481
# Poissons Ratio (z) = 0.39841 -0.04283
#
# Static dielectric constant tensor:
#      x y z
#    x 3.920370 -0.255060 0.024670 
#    y -0.255060 4.147290 0.217820 
#    z 0.024670 0.217820 4.640730 
# 
# 
# High freq. dielectric constant tensor:
#      x y z
#    x 1.865780 0.000200 0.004600 
#    y 0.000200 1.866600 -0.019930 
#    z 0.004600 -0.019930 1.877350 
# 
# From -- ./inp_files/328366.got.cif
#   From: 2010.06.25/outbox.cif.g09.slc.cpg/sg2_165_cif.got.tgz:328366.got - 2010.06.27 13:26:56.
