data_PCOD8012262
_publ_section_title
;
Structure prediction by ZEFSAII (Michael W. Deem and Ramdas Pophale) SiO2 
 PCOD8012262
Probable space group: P -1
;
_chemical_formula_sum "Si O2"
_cell_formula_units_Z 16
_cell_length_a 11.888475
_cell_length_b 15.550258
_cell_length_c 9.994163
_cell_angle_alpha 63.147379
_cell_angle_beta 105.946649
_cell_angle_gamma 150.984840
_cell_volume 768.037810
_symmetry_space_group_name_H-M "P -1"
_symmetry_group_IT_number 2
_symmetry_cell_setting 'triclinic'
loop_
_space_group_symop_operation_xyz
x,y,z
-x,-y,-z
loop_
_atom_site_type_symbol
_atom_site_label
_atom_site_fract_x
_atom_site_fract_y
_atom_site_fract_z
Si Si1 0.166696 0.347148 0.558203
Si Si2 0.425205 0.016615 0.844702
Si Si3 0.122465 0.528464 0.403086
Si Si4 0.330132 0.085499 0.213361
Si Si5 0.463858 0.387080 0.724592
Si Si6 0.672256 0.170046 0.326558
Si Si7 0.346962 0.305802 0.030850
Si Si8 0.186798 0.006181 0.919107
O O1 0.206079 0.485754 0.521895
O O2 0.315752 0.380446 0.674686
O O3 0.273371 0.412383 0.396883
O O4 0.883680 0.119943 0.628771
O O5 0.652645 0.249463 0.731481
O O6 0.337484 0.899239 0.764680
O O7 0.204240 0.925065 0.886798
O O8 0.500000 0.000000 0.000000
O O9 0.000000 0.500000 0.500000
O O10 0.943046 0.375675 0.327358
O O11 0.578369 0.209983 0.238125
O O12 0.345325 0.206608 0.187295
O O13 0.289527 0.051141 0.065653
O O14 0.321419 0.191726 0.755715
O O15 0.488608 0.378295 0.892697
O O16 0.500000 0.000000 0.500000
O O17 0.081303 0.152805 0.026772
O O18 0.500000 0.500000 0.000000
#
# Coordination Sequence:
#
# PCOD8012262 Si02
#       8
#     2   2   2   2   2   2   2   2
#     4  11  20  38  71  96 123 171 225 269 338 397
#     4  12  26  46  70 100 137 183 230 280 337 404
#     4  12  26  44  70 101 141 181 226 282 346 406
#     4  11  21  43  69  91 131 177 221 276 334 402
#     4  10  21  39  68  92 122 173 220 270 330 400
#     4  12  25  44  70 102 137 181 227 280 343 407
#     4  11  24  41  62  96 132 172 220 274 334 399
#     4  11  21  44  67  91 132 174 223 273 338 398
#
# _framework density 20.832308999999999
#
# number of rings (size 3 to 8) (size 9 to 14) (size 15 to 20)
#    0.000    0.750    7.500    0.750    0.000    3.500 
#    0.000    0.625    0.000    0.000    0.000    0.000 
#    0.000    0.000    0.000    0.000    0.000    0.000 
#
# Total GULP energy -198307.253771 kJ/mol
# GULP energy per Si atom -12394.203361 kJ/mol
# Density = 2.078489 g / cm^3
# Si number density = 20.832309 Si / 1000 Ang^3
#
#
#
# Elastic Constant Matrix: (Units=GPa)
#
#
# Indices 1 2 3 4 5 6 
#
# 1 148.9400 28.8892 40.7891 3.9527 8.9882 -23.1073
# 2 28.8892 90.3372 31.9327 0.1377 -0.3926 -20.8502
# 3 40.7891 31.9327 94.9041 -12.8513 -1.1908 -11.9439
# 4 3.9527 0.1377 -12.8513 35.0099 -2.1885 1.0728
# 5 8.9882 -0.3926 -1.1908 -2.1885 39.7012 -0.9968
# 6 -23.1073 -20.8502 -11.9439 1.0728 -0.9968 32.1453
#
#
#
# Elastic Compliance Matrix: (Units=1/GPa)
#
#
# Indices 1 2 3 4 5 6 
#
# 1 0.008635 -0.000522 -0.003308 -0.002460 -0.002078 0.004656
# 2 -0.000522 0.014353 -0.003872 -0.001635 0.000244 0.007558
# 3 -0.003308 -0.003872 0.014068 0.005637 0.001448 0.000194
# 4 -0.002460 -0.001635 0.005637 0.031118 0.002382 -0.001699
# 5 -0.002078 0.000244 0.001448 0.002382 0.025834 -0.000076
# 6 0.004656 0.007558 0.000194 -0.001699 -0.000076 0.039485
#
#
# Mechanical properties :
#
#
# Convention : Reuss Voigt Hill
#
# Bulk Modulus (GPa) = 46.19018 59.71146 52.95082
# Shear Modulus (GPa) = 32.02773 36.87597 34.45185
#
# Velocity S-wave (km/s) = 3.92523 4.21186 4.07107
# Velocity P-wave (km/s) = 6.53940 7.23728 6.89717
#
# Compressibility (1/GPa) = 0.02164963
#
# Stress axis : x y z
#
# Youngs Moduli (GPa) = 115.81301 69.66996 71.08445
#
# Poissons Ratio (x) = 0.03639 0.23518
# Poissons Ratio (y) = 0.06049 0.27526
# Poissons Ratio (z) = 0.38317 0.26978
#
# Static dielectric constant tensor:
#      x y z
#    x 4.164100 -0.148220 0.033300 
#    y -0.148220 3.424900 -0.216290 
#    z 0.033300 -0.216290 3.968360 
# 
# 
# High freq. dielectric constant tensor:
#      x y z
#    x 1.843990 -0.004900 0.006730 
#    y -0.004900 1.787760 -0.022630 
#    z 0.006730 -0.022630 1.823010 
# 
# From -- ./inp_files/272559.got.cif
#   From: 2010.06.25/outbox.cif.g09.slc.cpg/sg2_137_cif.got.tgz:272559.got - 2010.06.27 13:26:56.
