data_PCOD8012485
_publ_section_title
;
Structure prediction by ZEFSAII (Michael W. Deem and Ramdas Pophale) SiO2 
 PCOD8012485
Probable space group: P -1
;
_chemical_formula_sum "Si O2"
_cell_formula_units_Z 16
_cell_length_a 16.198164
_cell_length_b 29.597826
_cell_length_c 19.349483
_cell_angle_alpha 162.407669
_cell_angle_beta 161.032744
_cell_angle_gamma 17.889549
_cell_volume 783.483183
_symmetry_space_group_name_H-M "P -1"
_symmetry_group_IT_number 2
_symmetry_cell_setting 'triclinic'
loop_
_space_group_symop_operation_xyz
x,y,z
-x,-y,-z
loop_
_atom_site_type_symbol
_atom_site_label
_atom_site_fract_x
_atom_site_fract_y
_atom_site_fract_z
Si Si1 0.757426 0.460502 0.313853
Si Si2 0.201953 0.728722 0.792569
Si Si3 0.604649 0.974727 0.174315
Si Si4 0.658822 0.229753 0.257531
Si Si5 0.998242 0.708021 0.872028
Si Si6 0.307656 0.483782 0.227993
Si Si7 0.184963 0.770577 0.251970
Si Si8 0.167048 0.062045 0.311407
O O1 0.828635 0.373191 0.317290
O O2 0.971081 0.538207 0.600003
O O3 0.418158 0.613313 0.255939
O O4 0.848649 0.309560 0.107437
O O5 0.527654 0.605873 0.842502
O O6 0.968599 0.773102 0.609064
O O7 0.156340 0.908157 0.042454
O O8 0.857779 0.843013 0.129888
O O9 0.313353 0.113831 0.105234
O O10 0.734253 0.077787 0.469418
O O11 0.504054 0.872138 0.995556
O O12 0.449103 0.367698 0.237385
O O13 0.706856 0.331311 0.506759
O O14 0.979842 0.105209 0.296678
O O15 0.202898 0.698390 0.083564
O O16 0.000000 0.500000 0.000000
O O17 0.500000 0.000000 0.500000
#
# Coordination Sequence:
#
# PCOD8012485 Si02
#       8
#     2   2   2   2   2   2   2   2
#     4  10  22  38  60  91 122 158 211 259 310 374
#     4  10  22  38  61  90 122 158 203 255 306 371
#     4  10  22  39  61  90 125 159 213 257 309 381
#     4  10  22  39  60  90 123 159 202 259 304 372
#     4  10  21  40  60  86 126 160 207 265 307 366
#     4  10  22  38  59  89 124 156 200 251 310 374
#     4  10  22  39  62  90 122 167 209 259 311 379
#     4  10  21  41  63  87 124 161 205 254 309 375
#
# _framework density 20.421624999999999
#
# number of rings (size 3 to 8) (size 9 to 14) (size 15 to 20)
#    0.000    2.000    0.000    2.250    3.500    2.000 
#    0.000    7.500    0.000    0.000    0.000    0.000 
#    0.000    0.000    0.000    0.000    0.000    0.000 
#
# Total GULP energy -198311.513100 kJ/mol
# GULP energy per Si atom -12394.469569 kJ/mol
# Density = 2.037514 g / cm^3
# Si number density = 20.421625 Si / 1000 Ang^3
#
#
#
# Elastic Constant Matrix: (Units=GPa)
#
#
# Indices 1 2 3 4 5 6 
#
# 1 147.7800 47.3306 59.0372 3.3257 -0.2759 -12.7563
# 2 47.3306 87.2850 37.0496 -4.3445 8.2766 -15.4897
# 3 59.0372 37.0496 92.3510 -2.4255 1.5672 -4.4944
# 4 3.3257 -4.3445 -2.4255 30.5518 -3.4021 2.6264
# 5 -0.2759 8.2766 1.5672 -3.4021 36.4374 5.7318
# 6 -12.7563 -15.4897 -4.4944 2.6264 5.7318 40.3795
#
#
#
# Elastic Compliance Matrix: (Units=1/GPa)
#
#
# Indices 1 2 3 4 5 6 
#
# 1 0.009987 -0.003148 -0.005115 -0.001996 0.000601 0.001423
# 2 -0.003148 0.016359 -0.004182 0.001404 -0.004267 0.005330
# 3 -0.005115 -0.004182 0.015722 0.001422 0.000627 -0.001652
# 4 -0.001996 0.001404 0.001422 0.033836 0.003171 -0.002585
# 5 0.000601 -0.004267 0.000627 0.003171 0.029597 -0.005785
# 6 0.001423 0.005330 -0.001652 -0.002585 -0.005785 0.028065
#
#
# Mechanical properties :
#
#
# Convention : Reuss Voigt Hill
#
# Bulk Modulus (GPa) = 58.21196 68.25008 63.23102
# Shear Modulus (GPa) = 30.45376 33.74032 32.09704
#
# Velocity S-wave (km/s) = 3.86586 4.06912 3.96879
# Velocity P-wave (km/s) = 6.96372 7.45453 7.21330
#
# Compressibility (1/GPa) = 0.01717860
#
# Stress axis : x y z
#
# Youngs Moduli (GPa) = 100.12585 61.12724 63.60501
#
# Poissons Ratio (x) = 0.19246 0.32534
# Poissons Ratio (y) = 0.31524 0.26598
# Poissons Ratio (z) = 0.51214 0.25562
#
# Static dielectric constant tensor:
#      x y z
#    x 3.871130 -0.073890 -0.118060 
#    y -0.073890 3.965990 -0.011140 
#    z -0.118060 -0.011140 3.675070 
# 
# 
# High freq. dielectric constant tensor:
#      x y z
#    x 1.799520 -0.011740 -0.009410 
#    y -0.011740 1.809390 0.002610 
#    z -0.009410 0.002610 1.791610 
# 
# From -- ./inp_files/574555.got.cif
#   From: 2010.06.25/outbox.cif.g09.slc.cpg/sg2_288_cif.got.tgz:574555.got - 2010.06.27 13:26:56.
