data_PCOD8012003
_publ_section_title
;
Structure prediction by ZEFSAII (Michael W. Deem and Ramdas Pophale) SiO2 
 PCOD8012003
Probable space group: P -1
;
_chemical_formula_sum "Si O2"
_cell_formula_units_Z 16
_cell_length_a 9.003172
_cell_length_b 17.697815
_cell_length_c 20.201358
_cell_angle_alpha 29.014613
_cell_angle_beta 144.812501
_cell_angle_gamma 150.285142
_cell_volume 751.205050
_symmetry_space_group_name_H-M "P -1"
_symmetry_group_IT_number 2
_symmetry_cell_setting 'triclinic'
loop_
_space_group_symop_operation_xyz
x,y,z
-x,-y,-z
loop_
_atom_site_type_symbol
_atom_site_label
_atom_site_fract_x
_atom_site_fract_y
_atom_site_fract_z
Si Si1 0.845703 0.338041 0.513617
Si Si2 0.367227 0.628373 0.405857
Si Si3 0.763799 0.967841 0.810655
Si Si4 0.705393 0.455861 0.701949
Si Si5 0.565301 0.900456 0.042277
Si Si6 0.612857 0.031383 0.211844
Si Si7 0.371109 0.778229 0.691094
Si Si8 0.283232 0.114427 0.398864
O O1 0.894498 0.176914 0.674574
O O2 0.486203 0.243862 0.436272
O O3 0.000000 0.500000 0.500000
O O4 0.030894 0.437465 0.437314
O O5 0.607015 0.604357 0.554364
O O6 0.440986 0.661647 0.329391
O O7 0.383338 0.807149 0.303805
O O8 0.069441 0.974478 0.937488
O O9 0.518297 0.894606 0.837442
O O10 0.596088 0.823912 0.799969
O O11 0.558919 0.310816 0.819993
O O12 0.075558 0.567943 0.753060
O O13 0.383351 0.885966 0.921101
O O14 0.500000 0.000000 0.000000
O O15 0.957159 0.089489 0.308626
O O16 0.559330 0.787156 0.688350
O O17 0.256323 0.918803 0.539789
#
# Coordination Sequence:
#
# PCOD8012003 Si02
#       8
#     2   2   2   2   2   2   2   2
#     4  11  21  38  66 100 129 161 210 270 320 379
#     4  11  21  37  66  99 127 163 217 268 315 376
#     4  11  25  41  64  95 132 172 211 264 327 382
#     4  11  22  39  67  97 125 166 224 266 314 373
#     4  12  25  44  66  93 127 173 221 263 318 387
#     4  12  24  43  64  95 136 171 209 262 329 385
#     4  10  21  39  65  95 131 164 215 270 314 376
#     4  10  22  38  64  98 130 167 212 263 323 380
#
# _framework density 21.299112000000001
#
# number of rings (size 3 to 8) (size 9 to 14) (size 15 to 20)
#    0.000    1.000    6.250    1.125    0.000    3.000 
#    0.000    4.375    0.000    0.000    0.000    0.000 
#    0.000    0.000    0.000    0.000    0.000    0.000 
#
# Total GULP energy -198387.897613 kJ/mol
# GULP energy per Si atom -12399.243601 kJ/mol
# Density = 2.125063 g / cm^3
# Si number density = 21.299112 Si / 1000 Ang^3
#
#
#
# Elastic Constant Matrix: (Units=GPa)
#
#
# Indices 1 2 3 4 5 6 
#
# 1 102.4538 32.8461 26.1166 11.9930 4.4778 7.1926
# 2 32.8461 103.8986 30.8565 17.5553 -0.0298 7.6891
# 3 26.1166 30.8565 67.5053 17.7269 -5.2680 3.6689
# 4 11.9930 17.5553 17.7269 30.1717 9.1709 3.6784
# 5 4.4778 -0.0298 -5.2680 9.1709 32.7791 6.3588
# 6 7.1926 7.6891 3.6689 3.6784 6.3588 40.3916
#
#
#
# Elastic Compliance Matrix: (Units=1/GPa)
#
#
# Indices 1 2 3 4 5 6 
#
# 1 0.011619 -0.002535 -0.003274 -0.000564 -0.001772 -0.000959
# 2 -0.002535 0.012251 -0.003274 -0.004435 0.001342 -0.001391
# 3 -0.003274 -0.003274 0.021146 -0.011295 0.007161 -0.000813
# 4 -0.000564 -0.004435 -0.011295 0.047119 -0.014931 0.000030
# 5 -0.001772 0.001342 0.007161 -0.014931 0.037061 -0.005065
# 6 -0.000959 -0.001391 -0.000813 0.000030 -0.005065 0.026062
#
#
# Mechanical properties :
#
#
# Convention : Reuss Voigt Hill
#
# Bulk Modulus (GPa) = 37.24544 50.38846 43.81695
# Shear Modulus (GPa) = 27.41605 32.93773 30.17689
#
# Velocity S-wave (km/s) = 3.59164 3.93674 3.76814
# Velocity P-wave (km/s) = 5.89276 6.66129 6.28878
#
# Compressibility (1/GPa) = 0.02684892
#
# Stress axis : x y z
#
# Youngs Moduli (GPa) = 86.06884 81.62413 47.28995
#
# Poissons Ratio (x) = 0.20691 0.15485
# Poissons Ratio (y) = 0.21817 0.15484
# Poissons Ratio (z) = 0.28182 0.26726
#
# Static dielectric constant tensor:
#      x y z
#    x 3.891150 0.174070 -0.120800 
#    y 0.174070 3.901060 0.077850 
#    z -0.120800 0.077850 3.687020 
# 
# 
# High freq. dielectric constant tensor:
#      x y z
#    x 1.839160 0.009060 -0.008650 
#    y 0.009060 1.836810 0.013470 
#    z -0.008650 0.013470 1.815430 
# 
# From -- ./inp_files/208339.got.cif
#   From: 2010.06.25/outbox.cif.g09.slc.cpg/sg2_105_cif.got.tgz:208339.got - 2010.06.27 13:26:56.
