data_PCOD8012770
_publ_section_title
;
Structure prediction by ZEFSAII (Michael W. Deem and Ramdas Pophale) SiO2 
 PCOD8012770
Probable space group: P -1
;
_chemical_formula_sum "Si O2"
_cell_formula_units_Z 16
_cell_length_a 26.281426
_cell_length_b 5.209196
_cell_length_c 5.204116
_cell_angle_alpha 61.066220
_cell_angle_beta 94.868033
_cell_angle_gamma 94.817217
_cell_volume 620.536830
_symmetry_space_group_name_H-M "P -1"
_symmetry_group_IT_number 2
_symmetry_cell_setting 'triclinic'
loop_
_space_group_symop_operation_xyz
x,y,z
-x,-y,-z
loop_
_atom_site_type_symbol
_atom_site_label
_atom_site_fract_x
_atom_site_fract_y
_atom_site_fract_z
Si Si1 0.481685 0.662537 0.662051
Si Si2 0.980619 0.326455 0.326545
Si Si3 0.731015 0.747837 0.753952
Si Si4 0.824015 0.589966 0.577913
Si Si5 0.611739 0.179930 0.185653
Si Si6 0.370246 0.422614 0.417396
Si Si7 0.860615 0.267300 0.256122
Si Si8 0.286983 0.650974 0.644512
O O1 0.500000 0.500000 0.500000
O O2 0.418347 0.663763 0.662007
O O3 0.500000 0.000000 0.500000
O O4 0.500000 0.500000 0.000000
O O5 0.920011 0.312644 0.314602
O O6 0.000000 0.500000 0.500000
O O7 0.000000 0.000000 0.500000
O O8 0.000000 0.500000 0.000000
O O9 0.761671 0.599756 0.597821
O O10 0.669030 0.728543 0.739463
O O11 0.748249 0.094574 0.604586
O O12 0.748844 0.592222 0.100597
O O13 0.831151 0.409708 0.410283
O O14 0.846930 0.920831 0.398981
O O15 0.848845 0.430469 0.906624
O O16 0.673723 0.192635 0.203608
O O17 0.593813 0.832952 0.339769
O O18 0.594208 0.331166 0.837740
O O19 0.328517 0.532222 0.535025
#
# Coordination Sequence:
#
# PCOD8012770 Si02
#       8
#     2   2   2   2   2   2   2   2
#     4  12  28  49  73 106 141 184 229 283 351 429
#     4  12  25  45  76 103 139 181 234 299 348 411
#     4  10  23  38  61  94 124 178 222 272 335 394
#     4  12  27  45  71 100 148 187 229 286 341 429
#     4  10  23  39  65  94 125 171 219 282 335 394
#     4  10  21  40  64  92 125 166 226 276 330 396
#     4  12  26  48  69 107 139 187 234 284 356 413
#     4  10  21  40  63  91 125 165 229 276 330 396
#
# _framework density 25.784127000000002
#
# number of rings (size 3 to 8) (size 9 to 14) (size 15 to 20)
#    0.000    1.000    0.000    6.000    7.000    0.000 
#    0.000    0.000    0.000    0.000    0.000    0.000 
#    0.000    0.000    0.000    0.000    0.000    0.000 
#
# Total GULP energy -198286.892954 kJ/mol
# GULP energy per Si atom -12392.930810 kJ/mol
# Density = 2.572544 g / cm^3
# Si number density = 25.784127 Si / 1000 Ang^3
#
#
#
# Elastic Constant Matrix: (Units=GPa)
#
#
# Indices 1 2 3 4 5 6 
#
# 1 136.0058 12.1474 9.1197 -10.1765 -2.7917 -2.3502
# 2 12.1474 182.4547 -65.3484 -45.5720 -43.5553 -56.7550
# 3 9.1197 -65.3484 809.8509 52.2462 131.0915 95.0035
# 4 -10.1765 -45.5720 52.2462 73.7516 17.9039 18.9719
# 5 -2.7917 -43.5553 131.0915 17.9039 69.1271 37.0884
# 6 -2.3502 -56.7550 95.0035 18.9719 37.0884 68.6099
#
#
#
# Elastic Compliance Matrix: (Units=1/GPa)
#
#
# Indices 1 2 3 4 5 6 
#
# 1 0.007469 -0.000301 -0.000207 0.000948 0.000341 -0.000153
# 2 -0.000301 0.008509 -0.000611 0.003605 0.002653 0.005443
# 3 -0.000207 -0.000611 0.001882 -0.000660 -0.003122 -0.001248
# 4 0.000948 0.003605 -0.000660 0.016612 -0.000541 -0.000373
# 5 0.000341 0.002653 -0.003122 -0.000541 0.026238 -0.007505
# 6 -0.000153 0.005443 -0.001248 -0.000373 -0.007505 0.024961
#
#
# Mechanical properties :
#
#
# Convention : Reuss Voigt Hill
#
# Bulk Modulus (GPa) = 64.00572 115.57210 89.78891
# Shear Modulus (GPa) = 53.69716 120.45723 87.07719
#
# Velocity S-wave (km/s) = 4.56847 6.84244 5.81764
# Velocity P-wave (km/s) = 7.25985 10.36077 8.94570
#
# Compressibility (1/GPa) = 0.01562360
#
# Stress axis : x y z
#
# Youngs Moduli (GPa) = 133.89352 117.52406 531.29468
#
# Poissons Ratio (x) = 0.03535 0.10983
# Poissons Ratio (y) = 0.04028 0.32436
# Poissons Ratio (z) = 0.02768 0.07175
#
# Static dielectric constant tensor:
#      x y z
#    x 7.289270 0.852940 0.557080 
#    y 0.852940 3.232680 3.896730 
#    z 0.557080 3.896730 -3.854970 
# 
# 
# High freq. dielectric constant tensor:
#      x y z
#    x 2.040890 -0.003590 -0.001400 
#    y -0.003590 2.044280 -0.010020 
#    z -0.001400 -0.010020 2.061050 
# 
# From -- ./inp_files/125694.got.cif
#   From: 2010.06.25/outbox.cif.g09.slc.cpg/sg2_63_cif.got.tgz:125694.got - 2010.06.27 13:26:56.
