data_PCOD8012653
_publ_section_title
;
Structure prediction by ZEFSAII (Michael W. Deem and Ramdas Pophale) SiO2 
 PCOD8012653
Probable space group: P -1
;
_chemical_formula_sum "Si O2"
_cell_formula_units_Z 16
_cell_length_a 6.080963
_cell_length_b 25.587324
_cell_length_c 6.018307
_cell_angle_alpha 79.001842
_cell_angle_beta 87.345684
_cell_angle_gamma 49.217421
_cell_volume 692.156680
_symmetry_space_group_name_H-M "P -1"
_symmetry_group_IT_number 2
_symmetry_cell_setting 'triclinic'
loop_
_space_group_symop_operation_xyz
x,y,z
-x,-y,-z
loop_
_atom_site_type_symbol
_atom_site_label
_atom_site_fract_x
_atom_site_fract_y
_atom_site_fract_z
Si Si1 0.399146 0.967377 0.380154
Si Si2 0.658717 0.398034 0.648025
Si Si3 0.729182 0.472149 0.204473
Si Si4 0.878300 0.660285 0.943006
Si Si5 0.948603 0.273238 0.451687
Si Si6 0.234901 0.781829 0.840972
Si Si7 0.761673 0.098371 0.231066
Si Si8 0.707608 0.848203 0.146786
O O1 0.381685 0.917735 0.571102
O O2 0.634316 0.915754 0.220180
O O3 0.500000 0.000000 0.500000
O O4 0.094621 0.028791 0.224549
O O5 0.675748 0.439470 0.427264
O O6 0.345936 0.456747 0.746758
O O7 0.688512 0.336491 0.574504
O O8 0.931802 0.361689 0.829193
O O9 0.044262 0.408634 0.130676
O O10 0.500000 0.500000 0.000000
O O11 0.540497 0.712827 0.986427
O O12 0.936370 0.700437 0.742907
O O13 0.822342 0.242446 0.357470
O O14 0.219202 0.210945 0.639176
O O15 0.251364 0.840389 0.718341
O O16 0.981717 0.814772 0.004285
O O17 0.579744 0.125216 0.990940
#
# Coordination Sequence:
#
# PCOD8012653 Si02
#       8
#     2   2   2   2   2   2   2   2
#     4  11  25  47  70  95 125 159 204 258 310 369
#     4   9  17  35  63  90 121 167 214 260 314 368
#     4   8  16  32  61  93 123 163 212 262 314 369
#     4  10  21  40  62  90 126 167 211 259 316 373
#     4  11  23  40  62  89 128 166 210 262 311 369
#     4  12  25  40  61  93 128 164 208 256 308 372
#     4  11  25  44  67  93 125 163 206 252 311 373
#     4  12  25  42  64  92 125 163 205 253 310 374
#
# _framework density 23.116153000000001
#
# number of rings (size 3 to 8) (size 9 to 14) (size 15 to 20)
#    0.000    1.500    0.000    5.625    0.000    8.000 
#    0.000    1.875    0.000   30.750    0.000    0.000 
#    0.000    0.000    0.000    0.000    0.000    0.000 
#
# Total GULP energy -198270.804588 kJ/mol
# GULP energy per Si atom -12391.925287 kJ/mol
# Density = 2.306354 g / cm^3
# Si number density = 23.116153 Si / 1000 Ang^3
#
#
#
# Elastic Constant Matrix: (Units=GPa)
#
#
# Indices 1 2 3 4 5 6 
#
# 1 85.9306 65.3794 52.7340 6.7051 13.3522 2.7289
# 2 65.3794 209.2868 81.8128 28.3326 12.1969 9.1090
# 3 52.7340 81.8128 141.0236 -12.2609 20.5098 4.2931
# 4 6.7051 28.3326 -12.2609 55.1126 -1.2674 13.8881
# 5 13.3522 12.1969 20.5098 -1.2674 20.1935 10.2557
# 6 2.7289 9.1090 4.2931 13.8881 10.2557 18.1065
#
#
#
# Elastic Compliance Matrix: (Units=1/GPa)
#
#
# Indices 1 2 3 4 5 6 
#
# 1 0.018361 -0.003453 -0.003881 -0.003854 -0.010951 0.009049
# 2 -0.003453 0.007908 -0.003838 -0.004604 0.000865 0.000493
# 3 -0.003881 -0.003838 0.012252 0.005069 -0.007116 -0.000247
# 4 -0.003854 -0.004604 0.005069 0.030682 0.018527 -0.032332
# 5 -0.010951 0.000865 -0.007116 0.018527 0.098791 -0.067264
# 6 0.009049 0.000493 -0.000247 -0.032332 -0.067264 0.116574
#
#
# Mechanical properties :
#
#
# Convention : Reuss Voigt Hill
#
# Bulk Modulus (GPa) = 61.81040 92.89925 77.35482
# Shear Modulus (GPa) = 16.01012 34.43684 25.22348
#
# Velocity S-wave (km/s) = 2.63457 3.86389 3.30686
# Velocity P-wave (km/s) = 6.00431 7.75767 6.93661
#
# Compressibility (1/GPa) = 0.01617851
#
# Stress axis : x y z
#
# Youngs Moduli (GPa) = 54.46434 126.44885 81.62027
#
# Poissons Ratio (x) = 0.43657 0.31674
# Poissons Ratio (y) = 0.18804 0.31325
# Poissons Ratio (z) = 0.21136 0.48530
#
# Static dielectric constant tensor:
#      x y z
#    x 3.683920 0.027890 0.113750 
#    y 0.027890 5.328470 0.123430 
#    z 0.113750 0.123430 4.187880 
# 
# 
# High freq. dielectric constant tensor:
#      x y z
#    x 1.864120 -0.000020 0.009400 
#    y -0.000020 1.960080 -0.002410 
#    z 0.009400 -0.002410 1.928340 
# 
# From -- ./inp_files/14491.got.cif
#   From: 2010.06.25/outbox.cif.g09.slc.cpg/sg2_8_cif.got.tgz:14491.got - 2010.06.27 13:26:56.
