data_PCOD8012929
_publ_section_title
;
Structure prediction by ZEFSAII (Michael W. Deem and Ramdas Pophale) SiO2 
 PCOD8012929
Probable space group: P -1
;
_chemical_formula_sum "Si O2"
_cell_formula_units_Z 12
_cell_length_a 14.798523
_cell_length_b 6.658780
_cell_length_c 9.866815
_cell_angle_alpha 46.516812
_cell_angle_beta 49.453681
_cell_angle_gamma 53.129149
_cell_volume 515.102960
_symmetry_space_group_name_H-M "P -1"
_symmetry_group_IT_number 2
_symmetry_cell_setting 'triclinic'
loop_
_space_group_symop_operation_xyz
x,y,z
-x,-y,-z
loop_
_atom_site_type_symbol
_atom_site_label
_atom_site_fract_x
_atom_site_fract_y
_atom_site_fract_z
Si Si1 0.940454 0.383964 0.236305
Si Si2 0.392555 0.207185 0.753463
Si Si3 0.000565 0.232749 0.529897
Si Si4 0.262054 0.859786 0.234941
Si Si5 0.303393 0.261797 0.545088
Si Si6 0.328076 0.860610 0.462017
O O1 0.038102 0.296083 0.309045
O O2 0.823184 0.618960 0.300056
O O3 0.911617 0.080278 0.358551
O O4 0.000000 0.500000 0.000000
O O5 0.400280 0.086861 0.645765
O O6 0.317127 0.545974 0.661795
O O7 0.529239 0.155266 0.701086
O O8 0.316705 0.047724 0.993886
O O9 0.863883 0.186385 0.680323
O O10 0.000000 0.500000 0.500000
O O11 0.350357 0.529006 0.317437
O O12 0.254231 0.988921 0.336284
O O13 0.275743 0.070989 0.539796
#
# Coordination Sequence:
#
# PCOD8012929 Si02
#       6
#     2   2   2   2   2   2
#     4  10  22  42  63  89 122 158 208 259 308 366
#     4  10  21  40  64  92 126 162 204 251 304 370
#     4  10  23  42  63  89 123 160 206 258 307 364
#     4  10  22  40  62  91 123 161 207 253 304 369
#     4  10  22  38  61  92 125 160 204 254 305 366
#     4  10  22  40  63  92 127 163 202 254 308 363
#
# _framework density 23.296315
#
# number of rings (size 3 to 8) (size 9 to 14) (size 15 to 20)
#    0.000    2.000    0.000    2.000    0.000   13.333 
#    0.000   10.000    0.000    0.000    0.000    0.000 
#    0.000    0.000    0.000    0.000    0.000    0.000 
#
# Total GULP energy -148661.136702 kJ/mol
# GULP energy per Si atom -12388.428059 kJ/mol
# Density = 2.324329 g / cm^3
# Si number density = 23.296315 Si / 1000 Ang^3
#
#
#
# Elastic Constant Matrix: (Units=GPa)
#
#
# Indices 1 2 3 4 5 6 
#
# 1 93.5238 38.7587 59.8850 -4.7373 1.5830 31.2000
# 2 38.7587 135.4215 66.7415 10.1351 6.8918 48.8208
# 3 59.8850 66.7415 229.6032 -11.9871 2.0781 21.3861
# 4 -4.7373 10.1351 -11.9871 20.2241 -3.3618 7.8257
# 5 1.5830 6.8918 2.0781 -3.3618 25.2075 1.2641
# 6 31.2000 48.8208 21.3861 7.8257 1.2641 45.6688
#
#
#
# Elastic Compliance Matrix: (Units=1/GPa)
#
#
# Indices 1 2 3 4 5 6 
#
# 1 0.016622 0.000352 -0.003043 0.006423 0.000540 -0.011423
# 2 0.000352 0.013985 -0.003158 -0.004408 -0.003528 -0.012859
# 3 -0.003043 -0.003158 0.006084 0.003898 0.000977 0.001911
# 4 0.006423 -0.004408 0.003898 0.061802 0.009342 -0.012350
# 5 0.000540 -0.003528 0.000977 0.009342 0.041757 0.000189
# 6 -0.011423 -0.012859 0.001911 -0.012350 0.000189 0.044664
#
#
# Mechanical properties :
#
#
# Convention : Reuss Voigt Hill
#
# Bulk Modulus (GPa) = 40.00972 87.70210 63.85591
# Shear Modulus (GPa) = 24.39709 37.76431 31.08070
#
# Velocity S-wave (km/s) = 3.23964 4.03058 3.65656
# Velocity P-wave (km/s) = 5.58616 7.70642 6.73031
#
# Compressibility (1/GPa) = 0.02499393
#
# Stress axis : x y z
#
# Youngs Moduli (GPa) = 60.16078 71.50474 164.37416
#
# Poissons Ratio (x) = -0.02520 0.50026
# Poissons Ratio (y) = -0.02121 0.51902
# Poissons Ratio (z) = 0.18309 0.22578
#
# Static dielectric constant tensor:
#      x y z
#    x 4.829560 -0.179560 0.386540 
#    y -0.179560 4.372720 -0.277000 
#    z 0.386540 -0.277000 4.124180 
# 
# 
# High freq. dielectric constant tensor:
#      x y z
#    x 1.947120 -0.006880 0.009530 
#    y -0.006880 1.922360 -0.003490 
#    z 0.009530 -0.003490 1.908830 
# 
# From -- ./inp_files/321503.got.cif
#   From: 2010.06.25/outbox.cif.g09.slc.cpg/sg2_161_cif.got.tgz:321503.got - 2010.06.27 13:26:56.
