data_PCOD8012367
_publ_section_title
;
Structure prediction by ZEFSAII (Michael W. Deem and Ramdas Pophale) SiO2 
 PCOD8012367
Probable space group: P -1
;
_chemical_formula_sum "Si O2"
_cell_formula_units_Z 16
_cell_length_a 7.556133
_cell_length_b 6.972930
_cell_length_c 20.194780
_cell_angle_alpha 48.519777
_cell_angle_beta 74.495375
_cell_angle_gamma 74.171335
_cell_volume 761.366141
_symmetry_space_group_name_H-M "P -1"
_symmetry_group_IT_number 2
_symmetry_cell_setting 'triclinic'
loop_
_space_group_symop_operation_xyz
x,y,z
-x,-y,-z
loop_
_atom_site_type_symbol
_atom_site_label
_atom_site_fract_x
_atom_site_fract_y
_atom_site_fract_z
Si Si1 0.953573 0.272053 0.276325
Si Si2 0.267629 0.616186 0.958832
Si Si3 0.415195 0.743909 0.047635
Si Si4 0.462136 0.699752 0.655097
Si Si5 0.939413 0.807595 0.860937
Si Si6 0.784749 0.369663 0.775038
Si Si7 0.996915 0.779111 0.465675
Si Si8 0.313102 0.894173 0.495760
O O1 0.730528 0.328486 0.282983
O O2 0.023440 0.319966 0.185067
O O3 0.049632 0.452342 0.277118
O O4 0.016416 0.978796 0.358931
O O5 0.440942 0.516434 0.917422
O O6 0.125059 0.798807 0.887191
O O7 0.311337 0.793547 0.975969
O O8 0.199778 0.351930 0.050638
O O9 0.277727 0.679491 0.133098
O O10 0.500000 0.000000 0.000000
O O11 0.616306 0.483152 0.718493
O O12 0.423490 0.685519 0.582885
O O13 0.539326 0.976801 0.593778
O O14 0.858706 0.103750 0.792985
O O15 0.179997 0.745980 0.499737
O O16 0.000000 0.500000 0.500000
O O17 0.811590 0.874320 0.504174
#
# Coordination Sequence:
#
# PCOD8012367 Si02
#       8
#     2   2   2   2   2   2   2   2
#     4  11  24  43  61  98 135 167 214 273 321 383
#     4  10  23  42  64  95 129 162 215 272 315 391
#     4  11  22  42  67  94 127 171 216 262 328 386
#     4  10  22  42  67  91 131 170 212 267 322 379
#     4  11  24  41  64  94 128 166 215 269 324 377
#     4  12  24  42  66  95 130 176 214 268 327 380
#     4  10  21  39  70  95 127 171 214 262 327 383
#     4   9  20  42  64  93 129 167 213 266 317 388
#
# _framework density 21.014856999999999
#
# number of rings (size 3 to 8) (size 9 to 14) (size 15 to 20)
#    0.000    1.500    3.750    0.750    1.750    2.500 
#    0.000    9.375    0.000    0.000    0.000    0.000 
#    0.000    0.000    0.000    0.000    0.000    0.000 
#
# Total GULP energy -198347.654760 kJ/mol
# GULP energy per Si atom -12396.728422 kJ/mol
# Density = 2.096703 g / cm^3
# Si number density = 21.014857 Si / 1000 Ang^3
#
#
#
# Elastic Constant Matrix: (Units=GPa)
#
#
# Indices 1 2 3 4 5 6 
#
# 1 136.2615 47.8039 31.7797 -3.6569 20.6183 16.2877
# 2 47.8039 85.1523 25.7613 -11.6905 16.9683 17.6728
# 3 31.7797 25.7613 69.9954 -9.9859 13.3365 0.1048
# 4 -3.6569 -11.6905 -9.9859 26.3642 -3.0570 -4.9511
# 5 20.6183 16.9683 13.3365 -3.0570 41.5189 6.2652
# 6 16.2877 17.6728 0.1048 -4.9511 6.2652 30.8477
#
#
#
# Elastic Compliance Matrix: (Units=1/GPa)
#
#
# Indices 1 2 3 4 5 6 
#
# 1 0.010062 -0.004026 -0.003012 -0.002328 -0.002112 -0.002941
# 2 -0.004026 0.017591 -0.003495 0.004345 -0.002738 -0.006687
# 3 -0.003012 -0.003495 0.018361 0.005558 -0.003334 0.005099
# 4 -0.002328 0.004345 0.005558 0.042677 -0.000107 0.005592
# 5 -0.002112 -0.002738 -0.003334 -0.000107 0.027763 -0.002961
# 6 -0.002941 -0.006687 0.005099 0.005592 -0.002961 0.039283
#
#
# Mechanical properties :
#
#
# Convention : Reuss Voigt Hill
#
# Bulk Modulus (GPa) = 40.08229 55.78877 47.93553
# Shear Modulus (GPa) = 27.00962 32.15045 29.58003
#
# Velocity S-wave (km/s) = 3.58895 3.91563 3.75584
# Velocity P-wave (km/s) = 6.02401 6.85914 6.45510
#
# Compressibility (1/GPa) = 0.02494868
#
# Stress axis : x y z
#
# Youngs Moduli (GPa) = 99.38012 56.84675 54.46332
#
# Poissons Ratio (x) = 0.22887 0.16405
# Poissons Ratio (y) = 0.40011 0.19033
# Poissons Ratio (z) = 0.29935 0.19866
#
# Static dielectric constant tensor:
#      x y z
#    x 4.172170 0.064630 -0.069020 
#    y 0.064630 3.517910 0.165840 
#    z -0.069020 0.165840 3.883880 
# 
# 
# High freq. dielectric constant tensor:
#      x y z
#    x 1.844960 0.012260 -0.000460 
#    y 0.012260 1.798560 0.009360 
#    z -0.000460 0.009360 1.827080 
# 
# From -- ./inp_files/585072.got.cif
#   From: 2010.06.25/outbox.cif.g09.slc.cpg/sg2_293_cif.got.tgz:585072.got - 2010.06.27 13:26:56.
