data_PCOD8012244
_publ_section_title
;
Structure prediction by ZEFSAII (Michael W. Deem and Ramdas Pophale) SiO2 
 PCOD8012244
Probable space group: P -1
;
_chemical_formula_sum "Si O2"
_cell_formula_units_Z 12
_cell_length_a 15.970888
_cell_length_b 15.190087
_cell_length_c 8.261752
_cell_angle_alpha 129.783261
_cell_angle_beta 129.390295
_cell_angle_gamma 17.962979
_cell_volume 472.167908
_symmetry_space_group_name_H-M "P -1"
_symmetry_group_IT_number 2
_symmetry_cell_setting 'triclinic'
loop_
_space_group_symop_operation_xyz
x,y,z
-x,-y,-z
loop_
_atom_site_type_symbol
_atom_site_label
_atom_site_fract_x
_atom_site_fract_y
_atom_site_fract_z
Si Si1 0.655383 0.966770 0.184385
Si Si2 0.835520 0.469394 0.909343
Si Si3 0.406553 0.849760 0.369092
Si Si4 0.896983 0.979625 0.088684
Si Si5 0.429109 0.589340 0.201521
Si Si6 0.266105 0.313591 0.628605
O O1 0.445470 0.272466 0.231823
O O2 0.715776 0.929838 0.407139
O O3 0.937957 0.687092 0.105091
O O4 0.500000 0.000000 0.000000
O O5 0.968626 0.221017 0.836303
O O6 0.733615 0.645747 0.139838
O O7 0.469875 0.686015 0.382489
O O8 0.683567 0.624113 0.353123
O O9 0.189659 0.022781 0.166282
O O10 0.116282 0.860242 0.162522
O O11 0.638336 0.304193 0.222936
O O12 0.500000 0.500000 0.000000
O O13 0.000000 0.500000 0.500000
O O14 0.500000 0.000000 0.500000
#
# Coordination Sequence:
#
# PCOD8012244 Si02
#       6
#     2   2   2   2   2   2
#     4  12  27  45  66  99 142 182 222 277 343 407
#     4  12  25  45  66  96 139 179 218 283 345 398
#     4  11  24  44  72 102 135 182 231 281 337 405
#     4  11  23  43  71 100 131 175 231 284 334 401
#     4  10  21  39  68 103 131 168 228 290 335 390
#     4  12  25  42  68  98 128 176 235 279 325 397
#
# _framework density 25.414688999999999
#
# number of rings (size 3 to 8) (size 9 to 14) (size 15 to 20)
#    0.000    0.667    0.000   10.500    0.000    8.000 
#    0.000    5.000    0.000    0.000    0.000    0.000 
#    0.000    0.000    0.000    0.000    0.000    0.000 
#
# Total GULP energy -148687.856191 kJ/mol
# GULP energy per Si atom -12390.654683 kJ/mol
# Density = 2.535684 g / cm^3
# Si number density = 25.414689 Si / 1000 Ang^3
#
#
#
# Elastic Constant Matrix: (Units=GPa)
#
#
# Indices 1 2 3 4 5 6 
#
# 1 113.6667 38.7265 48.9150 -8.2617 8.1448 -35.7344
# 2 38.7265 133.6353 19.0590 -1.3902 2.7905 -18.2832
# 3 48.9150 19.0590 100.4793 5.0519 2.8081 -28.6145
# 4 -8.2617 -1.3902 5.0519 29.8902 -9.1185 -4.9533
# 5 8.1448 2.7905 2.8081 -9.1185 39.4247 2.4515
# 6 -35.7344 -18.2832 -28.6145 -4.9533 2.4515 62.0889
#
#
#
# Elastic Compliance Matrix: (Units=1/GPa)
#
#
# Indices 1 2 3 4 5 6 
#
# 1 0.013999 -0.002511 -0.004988 0.005035 -0.001535 0.005481
# 2 -0.002511 0.008356 -0.000071 -0.000184 -0.000171 0.000975
# 3 -0.004988 -0.000071 0.013468 -0.003425 -0.000907 0.003078
# 4 0.005035 -0.000184 -0.003425 0.038485 0.007868 0.004025
# 5 -0.001535 -0.000171 -0.000907 0.007868 0.027691 -0.001818
# 6 0.005481 0.000975 0.003078 0.004025 -0.001818 0.021359
#
#
# Mechanical properties :
#
#
# Convention : Reuss Voigt Hill
#
# Bulk Modulus (GPa) = 48.34925 62.35360 55.35142
# Shear Modulus (GPa) = 34.38977 42.35280 38.37129
#
# Velocity S-wave (km/s) = 3.68250 4.08667 3.88984
# Velocity P-wave (km/s) = 6.09480 6.84511 6.48082
#
# Compressibility (1/GPa) = 0.02068284
#
# Stress axis : x y z
#
# Youngs Moduli (GPa) = 71.43493 119.67657 74.24985
#
# Poissons Ratio (x) = 0.30051 0.37035
# Poissons Ratio (y) = 0.17938 0.00527
# Poissons Ratio (z) = 0.35631 0.00849
#
# Static dielectric constant tensor:
#      x y z
#    x 4.662150 0.813020 -0.027170 
#    y 0.813020 6.531190 0.796330 
#    z -0.027170 0.796330 4.528600 
# 
# 
# High freq. dielectric constant tensor:
#      x y z
#    x 2.029930 -0.002790 0.010670 
#    y -0.002790 2.022770 0.009330 
#    z 0.010670 0.009330 2.003080 
# 
# From -- ./inp_files/315970.got.cif
#   From: 2010.06.25/outbox.cif.g09.slc.cpg/sg2_158_cif.got.tgz:315970.got - 2010.06.27 13:26:56.
