data_PCOD8012264
_publ_section_title
;
Structure prediction by ZEFSAII (Michael W. Deem and Ramdas Pophale) SiO2 
 PCOD8012264
Probable space group: P -1
;
_chemical_formula_sum "Si O2"
_cell_formula_units_Z 14
_cell_length_a 9.427196
_cell_length_b 7.896389
_cell_length_c 13.032734
_cell_angle_alpha 66.895169
_cell_angle_beta 34.729636
_cell_angle_gamma 61.061903
_cell_volume 483.672451
_symmetry_space_group_name_H-M "P -1"
_symmetry_group_IT_number 2
_symmetry_cell_setting 'triclinic'
loop_
_space_group_symop_operation_xyz
x,y,z
-x,-y,-z
loop_
_atom_site_type_symbol
_atom_site_label
_atom_site_fract_x
_atom_site_fract_y
_atom_site_fract_z
Si Si1 0.206818 0.334409 0.514385
Si Si2 0.483113 0.079985 0.608284
Si Si3 0.720117 0.231245 0.859270
Si Si4 0.007318 0.819811 0.714620
Si Si5 0.949807 0.602267 0.138132
Si Si6 0.658918 0.811210 0.743461
Si Si7 0.440848 0.432433 0.784530
O O1 0.344165 0.495737 0.424626
O O2 0.917237 0.360891 0.725201
O O3 0.816831 0.660171 0.597881
O O4 0.414564 0.120556 0.476778
O O5 0.689437 0.198572 0.462834
O O6 0.187894 0.238900 0.728218
O O7 0.477429 0.997894 0.746772
O O8 0.576434 0.271911 0.825529
O O9 0.517866 0.286668 0.060224
O O10 0.864752 0.000608 0.830283
O O11 0.978147 0.619346 0.817980
O O12 0.876641 0.864257 0.669508
O O13 0.725484 0.654593 0.172394
O O14 0.225922 0.618577 0.925769
#
# Coordination Sequence:
#
# PCOD8012264 Si02
#       7
#     2   2   2   2   2   2   2
#     4   9  24  43  67  94 126 166 217 262 316 368
#     4   9  22  41  63  95 125 169 210 261 318 370
#     4  11  22  41  69  97 124 168 215 264 317 368
#     4  11  21  40  65  99 125 163 220 262 313 374
#     4  11  24  38  66  92 129 173 207 257 318 386
#     4  10  21  39  68  92 129 162 213 266 311 366
#     4  11  24  42  62  95 133 164 215 259 316 383
#
# _framework density 28.945208999999998
#
# number of rings (size 3 to 8) (size 9 to 14) (size 15 to 20)
#    0.857    0.857    1.429    2.571    6.000    1.143 
#    0.000    4.286    0.000    0.000    0.000    0.000 
#    0.000    0.000    0.000    0.000    0.000    0.000 
#
# Total GULP energy -173539.702157 kJ/mol
# GULP energy per Si atom -12395.693011 kJ/mol
# Density = 2.887933 g / cm^3
# Si number density = 28.945209 Si / 1000 Ang^3
#
#
#
# Elastic Constant Matrix: (Units=GPa)
#
#
# Indices 1 2 3 4 5 6 
#
# 1 92.2267 20.3937 27.1012 -5.7304 -1.5839 -13.7379
# 2 20.3937 86.3612 34.6037 4.0216 4.9316 -4.8795
# 3 27.1012 34.6037 181.7747 1.8632 2.0687 1.4895
# 4 -5.7304 4.0216 1.8632 43.7487 4.3382 2.0304
# 5 -1.5839 4.9316 2.0687 4.3382 28.3686 5.4590
# 6 -13.7379 -4.8795 1.4895 2.0304 5.4590 34.5234
#
#
#
# Elastic Compliance Matrix: (Units=1/GPa)
#
#
# Indices 1 2 3 4 5 6 
#
# 1 0.012569 -0.002179 -0.001515 0.001692 0.000037 0.004654
# 2 -0.002179 0.013244 -0.002169 -0.001247 -0.002373 0.001547
# 3 -0.001515 -0.002169 0.006151 -0.000217 0.000104 -0.001179
# 4 0.001692 -0.001247 -0.000217 0.023538 -0.003201 -0.000372
# 5 0.000037 -0.002373 0.000104 -0.003201 0.037308 -0.006036
# 6 0.004654 0.001547 -0.001179 -0.000372 -0.006036 0.032063
#
#
# Mechanical properties :
#
#
# Convention : Reuss Voigt Hill
#
# Bulk Modulus (GPa) = 49.41392 58.28443 53.84917
# Shear Modulus (GPa) = 34.88080 39.87908 37.37994
#
# Velocity S-wave (km/s) = 3.47517 3.71582 3.59751
# Velocity P-wave (km/s) = 5.76290 6.21206 5.99169
#
# Compressibility (1/GPa) = 0.02023721
#
# Stress axis : x y z
#
# Youngs Moduli (GPa) = 79.56226 75.50613 162.57968
#
# Poissons Ratio (x) = 0.16452 0.24631
# Poissons Ratio (y) = 0.17336 0.35267
# Poissons Ratio (z) = 0.12054 0.16379
#
# Static dielectric constant tensor:
#      x y z
#    x 5.595270 -0.366870 0.232000 
#    y -0.366870 5.106750 0.130610 
#    z 0.232000 0.130610 5.565190 
# 
# 
# High freq. dielectric constant tensor:
#      x y z
#    x 2.204270 -0.027260 0.009910 
#    y -0.027260 2.178600 0.013550 
#    z 0.009910 0.013550 2.180700 
# 
# From -- ./inp_files/278343.got.cif
#   From: 2010.06.25/outbox.cif.g09.slc.cpg/sg2_140_cif.got.tgz:278343.got - 2010.06.27 13:26:56.
