data_PCOD8012827
_publ_section_title
;
Structure prediction by ZEFSAII (Michael W. Deem and Ramdas Pophale) SiO2 
 PCOD8012827
Probable space group: P -1
;
_chemical_formula_sum "Si O2"
_cell_formula_units_Z 16
_cell_length_a 20.985050
_cell_length_b 6.171400
_cell_length_c 6.559449
_cell_angle_alpha 71.538481
_cell_angle_beta 82.323735
_cell_angle_gamma 57.985485
_cell_volume 682.608252
_symmetry_space_group_name_H-M "P -1"
_symmetry_group_IT_number 2
_symmetry_cell_setting 'triclinic'
loop_
_space_group_symop_operation_xyz
x,y,z
-x,-y,-z
loop_
_atom_site_type_symbol
_atom_site_label
_atom_site_fract_x
_atom_site_fract_y
_atom_site_fract_z
Si Si1 0.155539 0.627934 0.789252
Si Si2 0.800122 0.675543 0.535497
Si Si3 0.948236 0.878133 0.084161
Si Si4 0.708321 0.571531 0.930231
Si Si5 0.425235 0.977896 0.927808
Si Si6 0.088893 0.360916 0.170711
Si Si7 0.321646 0.829652 0.791818
Si Si8 0.534322 0.621818 0.296760
O O1 0.154855 0.574238 0.564187
O O2 0.241432 0.472173 0.876980
O O3 0.114479 0.945548 0.769102
O O4 0.110528 0.511963 0.953297
O O5 0.855744 0.724873 0.635359
O O6 0.752787 0.949926 0.353115
O O7 0.745439 0.613803 0.704827
O O8 0.002515 0.567552 0.220352
O O9 0.907955 0.886093 0.881383
O O10 0.000000 0.000000 0.000000
O O11 0.703097 0.305168 0.981318
O O12 0.624980 0.826039 0.924125
O O13 0.369784 0.950405 0.812777
O O14 0.467236 0.100236 0.739967
O O15 0.487172 0.691716 0.083905
O O16 0.376910 0.593018 0.686733
O O17 0.500000 0.500000 0.500000
#
# Coordination Sequence:
#
# PCOD8012827 Si02
#       8
#     2   2   2   2   2   2   2   2
#     4  10  21  40  63  95 134 169 221 276 324 401
#     4  11  23  42  67  99 132 177 223 271 337 399
#     4   9  19  41  66  92 134 171 217 280 329 388
#     4  10  23  42  60  95 135 172 215 274 330 388
#     4  10  21  41  62  88 136 166 219 282 320 385
#     4   9  21  42  65  94 132 173 218 278 331 389
#     4  11  23  41  64  94 132 174 216 275 328 395
#     4  10  22  39  63  94 124 174 223 267 332 388
#
# _framework density 23.439506000000002
#
# number of rings (size 3 to 8) (size 9 to 14) (size 15 to 20)
#    0.000    2.000    1.250    1.125    1.750    2.000 
#    9.000    5.625    0.000    0.000    0.000    0.000 
#    0.000    0.000    0.000    0.000    0.000    0.000 
#
# Total GULP energy -198217.524918 kJ/mol
# GULP energy per Si atom -12388.595307 kJ/mol
# Density = 2.338616 g / cm^3
# Si number density = 23.439506 Si / 1000 Ang^3
#
#
#
# Elastic Constant Matrix: (Units=GPa)
#
#
# Indices 1 2 3 4 5 6 
#
# 1 90.7982 24.8581 19.4615 2.0119 17.5111 14.7869
# 2 24.8581 71.6476 27.9102 6.8322 10.5767 14.6255
# 3 19.4615 27.9102 64.4827 1.1194 6.4021 19.3277
# 4 2.0119 6.8322 1.1194 36.0215 8.1167 1.2323
# 5 17.5111 10.5767 6.4021 8.1167 41.7841 -0.8783
# 6 14.7869 14.6255 19.3277 1.2323 -0.8783 34.8507
#
#
#
# Elastic Compliance Matrix: (Units=1/GPa)
#
#
# Indices 1 2 3 4 5 6 
#
# 1 0.013672 -0.002780 -0.001190 0.001102 -0.005145 -0.004143
# 2 -0.002780 0.018453 -0.005915 -0.002561 -0.002171 -0.003249
# 3 -0.001190 -0.005915 0.021232 0.001210 -0.001679 -0.008873
# 4 0.001102 -0.002561 0.001210 0.029487 -0.005753 -0.001252
# 5 -0.005145 -0.002171 -0.001679 -0.005753 0.028117 0.004937
# 6 -0.004143 -0.003249 -0.008873 -0.001252 0.004937 0.036905
#
#
# Mechanical properties :
#
#
# Convention : Reuss Voigt Hill
#
# Bulk Modulus (GPa) = 29.77080 41.26534 35.51807
# Shear Modulus (GPa) = 27.95930 32.84450 30.40190
#
# Velocity S-wave (km/s) = 3.45748 3.74738 3.60535
# Velocity P-wave (km/s) = 5.35421 6.03051 5.70240
#
# Compressibility (1/GPa) = 0.03358996
#
# Stress axis : x y z
#
# Youngs Moduli (GPa) = 73.14193 54.19028 47.09773
#
# Poissons Ratio (x) = 0.15064 0.05603
# Poissons Ratio (y) = 0.20333 0.27856
# Poissons Ratio (z) = 0.08701 0.32051
#
# Static dielectric constant tensor:
#      x y z
#    x 4.608480 -0.205380 0.014220 
#    y -0.205380 4.992370 -0.009910 
#    z 0.014220 -0.009910 3.831830 
# 
# 
# High freq. dielectric constant tensor:
#      x y z
#    x 1.955130 -0.001220 0.000790 
#    y -0.001220 1.933540 -0.007400 
#    z 0.000790 -0.007400 1.885630 
# 
# From -- ./inp_files/121558.got.cif
#   From: 2010.06.25/outbox.cif.g09.slc.cpg/sg2_61_cif.got.tgz:121558.got - 2010.06.27 13:26:56.
