data_PCOD8012644
_publ_section_title
;
Structure prediction by ZEFSAII (Michael W. Deem and Ramdas Pophale) SiO2 
 PCOD8012644
Probable space group: P -1
;
_chemical_formula_sum "Si O2"
_cell_formula_units_Z 16
_cell_length_a 7.792268
_cell_length_b 14.930054
_cell_length_c 16.201897
_cell_angle_alpha 142.706737
_cell_angle_beta 99.423323
_cell_angle_gamma 54.278543
_cell_volume 733.715890
_symmetry_space_group_name_H-M "P -1"
_symmetry_group_IT_number 2
_symmetry_cell_setting 'triclinic'
loop_
_space_group_symop_operation_xyz
x,y,z
-x,-y,-z
loop_
_atom_site_type_symbol
_atom_site_label
_atom_site_fract_x
_atom_site_fract_y
_atom_site_fract_z
Si Si1 0.618354 0.694644 0.274569
Si Si2 0.976141 0.774312 0.961117
Si Si3 0.684273 0.917396 0.328610
Si Si4 0.524148 0.367444 0.160564
Si Si5 0.216155 0.098697 0.139815
Si Si6 0.372870 0.540393 0.605029
Si Si7 0.505592 0.125972 0.297511
Si Si8 0.823565 0.240478 0.701997
O O1 0.689244 0.748097 0.240271
O O2 0.430489 0.678440 0.216800
O O3 0.893432 0.457772 0.161313
O O4 0.472056 0.878896 0.470136
O O5 0.808538 0.841024 0.914379
O O6 0.200720 0.748240 0.939077
O O7 0.781690 0.972248 0.158073
O O8 0.984574 0.789540 0.243867
O O9 0.542431 0.001530 0.290487
O O10 0.465693 0.474140 0.323766
O O11 0.274303 0.575566 0.237728
O O12 0.551153 0.173221 0.027876
O O13 0.290082 0.193370 0.268849
O O14 0.936660 0.213147 0.234783
O O15 0.500000 0.500000 0.500000
O O16 0.395560 0.352311 0.487196
O O17 0.000000 0.000000 0.500000
#
# Coordination Sequence:
#
# PCOD8012644 Si02
#       8
#     2   2   2   2   2   2   2   2
#     4   9  20  40  63  90 119 176 207 261 318 386
#     4  10  21  40  63  84 129 165 208 252 321 383
#     4  10  21  40  62  89 130 160 220 263 315 370
#     4  10  21  41  65  89 121 171 213 252 317 390
#     4  11  23  41  62  92 129 164 206 257 324 383
#     4  11  22  41  64  92 126 162 212 261 313 376
#     4  12  24  39  61  98 127 161 206 270 316 368
#     4   9  18  38  63  88 118 167 215 250 312 380
#
# _framework density 21.806805000000001
#
# number of rings (size 3 to 8) (size 9 to 14) (size 15 to 20)
#    0.000    1.750    0.000    6.750    1.750    0.500 
#   11.250    1.250    0.000    0.000    0.000    0.000 
#    0.000    0.000    0.000    0.000    0.000    0.000 
#
# Total GULP energy -198406.173616 kJ/mol
# GULP energy per Si atom -12400.385851 kJ/mol
# Density = 2.175717 g / cm^3
# Si number density = 21.806805 Si / 1000 Ang^3
#
#
#
# Elastic Constant Matrix: (Units=GPa)
#
#
# Indices 1 2 3 4 5 6 
#
# 1 58.1100 30.7385 8.1760 0.0441 4.8850 7.6713
# 2 30.7385 119.1755 30.0111 14.2170 3.5212 12.1791
# 3 8.1760 30.0111 70.9319 11.9593 8.0294 7.7018
# 4 0.0441 14.2170 11.9593 42.1797 6.4888 -0.6049
# 5 4.8850 3.5212 8.0294 6.4888 26.9320 -0.8813
# 6 7.6713 12.1791 7.7018 -0.6049 -0.8813 36.2527
#
#
#
# Elastic Compliance Matrix: (Units=1/GPa)
#
#
# Indices 1 2 3 4 5 6 
#
# 1 0.020626 -0.005246 0.000181 0.002231 -0.003735 -0.002694
# 2 -0.005246 0.011148 -0.003542 -0.002960 0.001201 -0.001903
# 3 0.000181 -0.003542 0.016807 -0.003002 -0.003941 -0.002565
# 4 0.002231 -0.002960 -0.003002 0.026412 -0.005438 0.001468
# 5 -0.003735 0.001201 -0.003941 -0.005438 0.040205 0.002111
# 6 -0.002694 -0.001903 -0.002565 0.001468 0.002111 0.029414
#
#
# Mechanical properties :
#
#
# Convention : Reuss Voigt Hill
#
# Bulk Modulus (GPa) = 31.88101 42.89651 37.38876
# Shear Modulus (GPa) = 29.02202 33.02567 31.02384
#
# Velocity S-wave (km/s) = 3.65207 3.89584 3.77592
# Velocity P-wave (km/s) = 5.69517 6.32065 6.01604
#
# Compressibility (1/GPa) = 0.03136663
#
# Stress axis : x y z
#
# Youngs Moduli (GPa) = 48.48176 89.70033 59.50025
#
# Poissons Ratio (x) = 0.47059 -0.01079
# Poissons Ratio (y) = 0.25435 0.21077
# Poissons Ratio (z) = -0.00879 0.31776
#
# Static dielectric constant tensor:
#      x y z
#    x 3.962280 -0.031140 -0.014390 
#    y -0.031140 4.046050 0.240780 
#    z -0.014390 0.240780 3.911840 
# 
# 
# High freq. dielectric constant tensor:
#      x y z
#    x 1.851330 0.003610 0.000020 
#    y 0.003610 1.861030 0.015850 
#    z 0.000020 0.015850 1.852860 
# 
# From -- ./inp_files/461413.got.cif
#   From: 2010.06.25/outbox.cif.g09.slc.cpg/sg2_231_cif.got.tgz:461413.got - 2010.06.27 13:26:56.
