data_PCOD8012203
_publ_section_title
;
Structure prediction by ZEFSAII (Michael W. Deem and Ramdas Pophale) SiO2 
 PCOD8012203
Probable space group: P -1
;
_chemical_formula_sum "Si O2"
_cell_formula_units_Z 12
_cell_length_a 10.260537
_cell_length_b 17.385579
_cell_length_c 9.611227
_cell_angle_alpha 148.924726
_cell_angle_beta 41.994371
_cell_angle_gamma 147.199933
_cell_volume 477.729474
_symmetry_space_group_name_H-M "P -1"
_symmetry_group_IT_number 2
_symmetry_cell_setting 'triclinic'
loop_
_space_group_symop_operation_xyz
x,y,z
-x,-y,-z
loop_
_atom_site_type_symbol
_atom_site_label
_atom_site_fract_x
_atom_site_fract_y
_atom_site_fract_z
Si Si1 0.942503 0.417019 0.263702
Si Si2 0.253769 0.969624 0.191120
Si Si3 0.658903 0.972738 0.479236
Si Si4 0.858255 0.229278 0.481822
Si Si5 0.572423 0.709682 0.622090
Si Si6 0.648753 0.693774 0.851610
O O1 0.672581 0.324121 0.283956
O O2 0.000000 0.500000 0.500000
O O3 0.114061 0.579065 0.266152
O O4 0.969100 0.248755 0.984981
O O5 0.254493 0.028832 0.439773
O O6 0.214308 0.101772 0.334046
O O7 0.500000 0.000000 0.000000
O O8 0.396763 0.936310 0.640126
O O9 0.848443 0.173012 0.564824
O O10 0.619369 0.804816 0.162796
O O11 0.081085 0.250722 0.261564
O O12 0.614534 0.750129 0.814726
O O13 0.554693 0.527116 0.310669
#
# Coordination Sequence:
#
# PCOD8012203 Si02
#       6
#     2   2   2   2   2   2
#     4  10  21  39  67  96 129 181 217 270 334 383
#     4  10  22  41  67  97 135 174 221 275 329 386
#     4  11  24  41  71 101 130 179 217 274 330 394
#     4  10  23  41  69  98 135 173 219 268 329 396
#     4   9  21  42  69  93 141 172 212 283 325 391
#     4  10  22  44  70 101 135 172 216 274 336 388
#
# _framework density 25.118819999999999
#
# number of rings (size 3 to 8) (size 9 to 14) (size 15 to 20)
#    0.000    2.000    0.000    2.500   11.667    1.333 
#    6.000    0.833    0.000    0.000    0.000    0.000 
#    0.000    0.000    0.000    0.000    0.000    0.000 
#
# Total GULP energy -148691.593117 kJ/mol
# GULP energy per Si atom -12390.966093 kJ/mol
# Density = 2.506165 g / cm^3
# Si number density = 25.118820 Si / 1000 Ang^3
#
#
#
# Elastic Constant Matrix: (Units=GPa)
#
#
# Indices 1 2 3 4 5 6 
#
# 1 61.3019 41.0150 51.8652 3.9102 5.5342 -29.1474
# 2 41.0150 153.3718 84.1480 41.7181 -5.3258 -62.2081
# 3 51.8652 84.1480 170.1273 22.7824 25.4203 -35.5417
# 4 3.9102 41.7181 22.7824 36.8157 -7.3875 -18.2822
# 5 5.5342 -5.3258 25.4203 -7.3875 31.3799 -4.1131
# 6 -29.1474 -62.2081 -35.5417 -18.2822 -4.1131 67.3280
#
#
#
# Elastic Compliance Matrix: (Units=1/GPa)
#
#
# Indices 1 2 3 4 5 6 
#
# 1 0.026965 -0.002073 -0.007191 0.009032 0.003979 0.008658
# 2 -0.002073 0.016610 -0.005339 -0.009249 0.006581 0.009522
# 3 -0.007191 -0.005339 0.012282 -0.004791 -0.011181 -0.003547
# 4 0.009032 -0.009249 -0.004791 0.044934 0.012054 0.005773
# 5 0.003979 0.006581 -0.011181 0.012054 0.045218 0.007936
# 6 0.008658 0.009522 -0.003547 0.005773 0.007936 0.027579
#
#
# Mechanical properties :
#
#
# Convention : Reuss Voigt Hill
#
# Bulk Modulus (GPa) = 37.52086 82.09529 59.80807
# Shear Modulus (GPa) = 23.62095 40.95625 32.28860
#
# Velocity S-wave (km/s) = 3.06987 4.04233 3.58919
# Velocity P-wave (km/s) = 5.24740 7.38518 6.40610
#
# Compressibility (1/GPa) = 0.02665184
#
# Stress axis : x y z
#
# Youngs Moduli (GPa) = 37.08577 60.20440 81.41825
#
# Poissons Ratio (x) = 0.12479 0.58544
# Poissons Ratio (y) = 0.07687 0.43471
# Poissons Ratio (z) = 0.26667 0.32145
#
# Static dielectric constant tensor:
#      x y z
#    x 4.776810 -0.566640 -0.292200 
#    y -0.566640 5.543110 0.802350 
#    z -0.292200 0.802350 4.458070 
# 
# 
# High freq. dielectric constant tensor:
#      x y z
#    x 1.998750 -0.020750 -0.003100 
#    y -0.020750 2.015650 0.028140 
#    z -0.003100 0.028140 1.981470 
# 
# From -- ./inp_files/280224.got.cif
#   From: 2010.06.25/outbox.cif.g09.slc.cpg/sg2_141_cif.got.tgz:280224.got - 2010.06.27 13:26:56.
