data_PCOD8012520
_publ_section_title
;
Structure prediction by ZEFSAII (Michael W. Deem and Ramdas Pophale) SiO2 
 PCOD8012520
Probable space group: P -1
;
_chemical_formula_sum "Si O2"
_cell_formula_units_Z 16
_cell_length_a 9.473897
_cell_length_b 14.253769
_cell_length_c 12.762573
_cell_angle_alpha 48.451331
_cell_angle_beta 34.305347
_cell_angle_gamma 63.204773
_cell_volume 707.426884
_symmetry_space_group_name_H-M "P -1"
_symmetry_group_IT_number 2
_symmetry_cell_setting 'triclinic'
loop_
_space_group_symop_operation_xyz
x,y,z
-x,-y,-z
loop_
_atom_site_type_symbol
_atom_site_label
_atom_site_fract_x
_atom_site_fract_y
_atom_site_fract_z
Si Si1 0.403899 0.864645 0.107265
Si Si2 0.386900 0.358363 0.296958
Si Si3 0.866154 0.909059 0.407219
Si Si4 0.669964 0.260833 0.548953
Si Si5 0.651548 0.981018 0.675381
Si Si6 0.153785 0.921550 0.893765
Si Si7 0.905538 0.529454 0.787464
Si Si8 0.216389 0.344143 0.647786
O O1 0.436328 0.757337 0.251553
O O2 0.105900 0.849357 0.271700
O O3 0.500000 0.000000 0.000000
O O4 0.567040 0.867820 0.897875
O O5 0.377173 0.210064 0.379559
O O6 0.223270 0.422144 0.269723
O O7 0.265274 0.366154 0.479066
O O8 0.686373 0.432620 0.059623
O O9 0.895148 0.953948 0.480170
O O10 0.859355 0.034970 0.250566
O O11 0.694476 0.124632 0.586463
O O12 0.476329 0.322321 0.556257
O O13 0.956150 0.353157 0.308101
O O14 0.446466 0.957825 0.724092
O O15 0.026138 0.772186 0.094526
O O16 0.000000 0.000000 0.000000
O O17 0.138388 0.467366 0.653538
#
# Coordination Sequence:
#
# PCOD8012520 Si02
#       8
#     2   2   2   2   2   2   2   2
#     4  10  21  40  60  93 136 170 213 270 327 397
#     4  11  24  47  70  97 134 174 230 282 315 400
#     4  12  22  41  70 100 134 171 219 277 340 395
#     4  11  23  44  66  98 141 173 223 280 325 402
#     4  11  23  39  67 102 136 175 214 274 349 392
#     4  12  20  40  70 100 133 169 213 280 340 394
#     4  11  26  46  67  97 134 181 232 267 326 395
#     4  12  24  45  73  96 134 182 218 277 339 391
#
# _framework density 22.617177999999999
#
# number of rings (size 3 to 8) (size 9 to 14) (size 15 to 20)
#    0.000    0.750    5.000    2.625    0.000    3.500 
#    4.500    3.750    0.000    0.000    0.000    0.000 
#    0.000    0.000    0.000    0.000    0.000    0.000 
#
# Total GULP energy -198376.597594 kJ/mol
# GULP energy per Si atom -12398.537350 kJ/mol
# Density = 2.256570 g / cm^3
# Si number density = 22.617178 Si / 1000 Ang^3
#
#
#
# Elastic Constant Matrix: (Units=GPa)
#
#
# Indices 1 2 3 4 5 6 
#
# 1 91.4389 16.7713 46.1030 -3.7078 -3.3619 4.3895
# 2 16.7713 71.7043 44.7021 -0.8502 1.2642 15.1001
# 3 46.1030 44.7021 146.4609 -8.8841 6.9173 19.4907
# 4 -3.7078 -0.8502 -8.8841 32.4615 9.8950 0.2333
# 5 -3.3619 1.2642 6.9173 9.8950 45.5472 1.7262
# 6 4.3895 15.1001 19.4907 0.2333 1.7262 31.6107
#
#
#
# Elastic Compliance Matrix: (Units=1/GPa)
#
#
# Indices 1 2 3 4 5 6 
#
# 1 0.013162 -0.000739 -0.004134 -0.000147 0.001614 0.000987
# 2 -0.000739 0.018206 -0.004648 -0.001016 0.000585 -0.005753
# 3 -0.004134 -0.004648 0.010291 0.002932 -0.002245 -0.003450
# 4 -0.000147 -0.001016 0.002932 0.033938 -0.007758 -0.001129
# 5 0.001614 0.000585 -0.002245 -0.007758 0.024099 -0.000378
# 6 0.000987 -0.005753 -0.003450 -0.001129 -0.000378 0.036402
#
#
# Mechanical properties :
#
#
# Convention : Reuss Voigt Hill
#
# Bulk Modulus (GPa) = 44.21602 58.30634 51.26118
# Shear Modulus (GPa) = 30.73561 35.39239 33.06400
#
# Velocity S-wave (km/s) = 3.69039 3.96010 3.82762
# Velocity P-wave (km/s) = 6.14417 6.83707 6.49986
#
# Compressibility (1/GPa) = 0.02261624
#
# Stress axis : x y z
#
# Youngs Moduli (GPa) = 75.97466 54.92810 97.17640
#
# Poissons Ratio (x) = 0.04062 0.40173
# Poissons Ratio (y) = 0.05618 0.45164
# Poissons Ratio (z) = 0.31408 0.25528
#
# Static dielectric constant tensor:
#      x y z
#    x 4.067490 0.226850 0.431230 
#    y 0.226850 3.892550 -0.456510 
#    z 0.431230 -0.456510 3.908010 
# 
# 
# High freq. dielectric constant tensor:
#      x y z
#    x 1.901810 0.003680 -0.000140 
#    y 0.003680 1.873610 -0.003510 
#    z -0.000140 -0.003510 1.907700 
# 
# From -- ./inp_files/398522.got.cif
#   From: 2010.06.25/outbox.cif.g09.slc.cpg/sg2_200_cif.got.tgz:398522.got - 2010.06.27 13:26:56.
