data_PCOD8012673
_publ_section_title
;
Structure prediction by ZEFSAII (Michael W. Deem and Ramdas Pophale) SiO2 
 PCOD8012673
Probable space group: P -1
;
_chemical_formula_sum "Si O2"
_cell_formula_units_Z 16
_cell_length_a 8.672051
_cell_length_b 11.415244
_cell_length_c 18.653314
_cell_angle_alpha 48.496980
_cell_angle_beta 124.423181
_cell_angle_gamma 84.608658
_cell_volume 743.444852
_symmetry_space_group_name_H-M "P -1"
_symmetry_group_IT_number 2
_symmetry_cell_setting 'triclinic'
loop_
_space_group_symop_operation_xyz
x,y,z
-x,-y,-z
loop_
_atom_site_type_symbol
_atom_site_label
_atom_site_fract_x
_atom_site_fract_y
_atom_site_fract_z
Si Si1 0.253828 0.562442 0.274409
Si Si2 0.537275 0.451445 0.809248
Si Si3 0.110158 0.174992 0.275793
Si Si4 0.265260 0.011108 0.940621
Si Si5 0.911895 0.872759 0.437833
Si Si6 0.896378 0.177052 0.635284
Si Si7 0.729812 0.809474 0.545196
Si Si8 0.558664 0.568730 0.918056
O O1 0.258309 0.600828 0.175684
O O2 0.551286 0.429486 0.446093
O O3 0.212277 0.405200 0.334648
O O4 0.966544 0.820016 0.126033
O O5 0.633979 0.420856 0.927627
O O6 0.224041 0.726809 0.606345
O O7 0.544046 0.259895 0.879331
O O8 0.094171 0.192879 0.351687
O O9 0.059278 0.028751 0.296766
O O10 0.399961 0.063414 0.366705
O O11 0.867802 0.445083 0.070482
O O12 0.064471 0.111710 0.777699
O O13 0.500000 0.000000 0.000000
O O14 0.815316 0.785385 0.495047
O O15 0.951476 0.807131 0.390773
O O16 0.681860 0.154126 0.274861
O O17 0.500000 0.500000 0.000000
#
# Coordination Sequence:
#
# PCOD8012673 Si02
#       8
#     2   2   2   2   2   2   2   2
#     4  10  24  45  69  94 133 183 219 271 328 398
#     4  11  24  42  67  96 128 177 227 260 335 395
#     4  10  21  40  62  92 138 174 208 268 328 397
#     4  12  24  46  70  97 131 170 227 290 329 378
#     4  11  23  38  66  99 130 175 214 271 328 394
#     4  10  22  44  66  98 127 177 224 266 333 402
#     4  10  23  40  63  99 139 166 216 269 331 383
#     4  12  22  37  64  96 131 172 219 258 325 397
#
# _framework density 21.521435
#
# number of rings (size 3 to 8) (size 9 to 14) (size 15 to 20)
#    0.000    1.250    2.500    2.625    7.000    1.500 
#    2.250    6.875    0.000    0.000    0.000    0.000 
#    0.000    0.000    0.000    0.000    0.000    0.000 
#
# Total GULP energy -198238.563906 kJ/mol
# GULP energy per Si atom -12389.910244 kJ/mol
# Density = 2.147245 g / cm^3
# Si number density = 21.521435 Si / 1000 Ang^3
#
#
#
# Elastic Constant Matrix: (Units=GPa)
#
#
# Indices 1 2 3 4 5 6 
#
# 1 137.4437 62.1411 50.7959 3.9058 -18.6602 -22.8728
# 2 62.1411 93.8834 60.8903 6.5404 0.2106 -12.7034
# 3 50.7959 60.8903 136.2870 -8.0028 10.6396 -10.1995
# 4 3.9058 6.5404 -8.0028 35.8697 -5.3685 -2.2801
# 5 -18.6602 0.2106 10.6396 -5.3685 34.6644 1.5672
# 6 -22.8728 -12.7034 -10.1995 -2.2801 1.5672 35.2235
#
#
#
# Elastic Compliance Matrix: (Units=1/GPa)
#
#
# Indices 1 2 3 4 5 6 
#
# 1 0.012823 -0.006577 -0.001994 0.000797 0.007448 0.005098
# 2 -0.006577 0.019505 -0.006281 -0.004563 -0.002472 0.000760
# 3 -0.001994 -0.006281 0.011406 0.003313 -0.004029 0.000136
# 4 0.000797 -0.004563 0.003313 0.030067 0.004024 0.001598
# 5 0.007448 -0.002472 -0.004029 0.004024 0.034664 0.001496
# 6 0.005098 0.000760 0.000136 0.001598 0.001496 0.032051
#
#
# Mechanical properties :
#
#
# Convention : Reuss Voigt Hill
#
# Bulk Modulus (GPa) = 71.27592 79.47429 75.37511
# Shear Modulus (GPa) = 28.58837 34.07065 31.32951
#
# Velocity S-wave (km/s) = 3.64863 3.98314 3.81955
# Velocity P-wave (km/s) = 7.13726 7.62640 7.38588
#
# Compressibility (1/GPa) = 0.01402998
#
# Stress axis : x y z
#
# Youngs Moduli (GPa) = 77.98544 51.27008 87.67079
#
# Poissons Ratio (x) = 0.33718 0.17483
# Poissons Ratio (y) = 0.51287 0.55068
# Poissons Ratio (z) = 0.15551 0.32204
#
# Static dielectric constant tensor:
#      x y z
#    x 4.054750 -0.372660 0.165650 
#    y -0.372660 3.840790 -0.019540 
#    z 0.165650 -0.019540 4.433220 
# 
# 
# High freq. dielectric constant tensor:
#      x y z
#    x 1.846860 -0.025860 0.004060 
#    y -0.025860 1.827070 -0.002590 
#    z 0.004060 -0.002590 1.864870 
# 
# From -- ./inp_files/559794.got.cif
#   From: 2010.06.25/outbox.cif.g09.slc.cpg/sg2_280_cif.got.tgz:559794.got - 2010.06.27 13:26:56.
