data_PCOD8012855
_publ_section_title
;
Structure prediction by ZEFSAII (Michael W. Deem and Ramdas Pophale) SiO2 
 PCOD8012855
Probable space group: P -1
;
_chemical_formula_sum "Si O2"
_cell_formula_units_Z 14
_cell_length_a 14.878095
_cell_length_b 11.947123
_cell_length_c 9.577285
_cell_angle_alpha 73.907684
_cell_angle_beta 87.773064
_cell_angle_gamma 27.791945
_cell_volume 676.924125
_symmetry_space_group_name_H-M "P -1"
_symmetry_group_IT_number 2
_symmetry_cell_setting 'triclinic'
loop_
_space_group_symop_operation_xyz
x,y,z
-x,-y,-z
loop_
_atom_site_type_symbol
_atom_site_label
_atom_site_fract_x
_atom_site_fract_y
_atom_site_fract_z
Si Si1 0.263821 0.464170 0.821343
Si Si2 0.027551 0.316111 0.699946
Si Si3 0.482236 0.429835 0.727552
Si Si4 0.271468 0.262280 0.670013
Si Si5 0.583728 0.254903 0.270860
Si Si6 0.692560 0.628813 0.828887
Si Si7 0.216476 0.909276 0.416549
O O1 0.442289 0.355062 0.831974
O O2 0.331519 0.274197 0.790778
O O3 0.253025 0.435505 0.989634
O O4 0.040346 0.782057 0.671986
O O5 0.851817 0.519163 0.516330
O O6 0.910938 0.411935 0.814369
O O7 0.118418 0.338998 0.709054
O O8 0.227671 0.993614 0.767279
O O9 0.495099 0.517152 0.814133
O O10 0.294193 0.687707 0.536498
O O11 0.705625 0.154891 0.722971
O O12 0.493557 0.950928 0.698714
O O13 0.375071 0.419511 0.203893
O O14 0.682545 0.116813 0.469103
#
# Coordination Sequence:
#
# PCOD8012855 Si02
#       7
#     2   2   2   2   2   2   2
#     4  12  23  38  61  92 120 153 195 244 296 344
#     4  10  21  40  64  85 116 158 198 242 288 347
#     4   9  21  38  64  87 118 154 199 241 283 351
#     4  10  22  40  60  85 117 156 205 238 283 354
#     4   9  20  40  60  87 119 151 199 238 285 354
#     4  11  25  37  60  91 121 154 191 246 304 336
#     4   9  20  38  62  89 114 157 201 232 288 351
#
# _framework density 20.681787
#
# number of rings (size 3 to 8) (size 9 to 14) (size 15 to 20)
#    0.857    1.143    1.429    1.286    2.000    5.714 
#    0.000    1.429    0.000    0.000    0.000    0.000 
#    0.000    0.000    0.000    0.000    0.000    0.000 
#
# Total GULP energy -173578.725717 kJ/mol
# GULP energy per Si atom -12398.480408 kJ/mol
# Density = 2.063471 g / cm^3
# Si number density = 20.681787 Si / 1000 Ang^3
#
#
#
# Elastic Constant Matrix: (Units=GPa)
#
#
# Indices 1 2 3 4 5 6 
#
# 1 106.8794 42.1053 19.2692 24.2207 -1.6400 19.8363
# 2 42.1053 87.4582 2.9732 25.4403 -8.9297 1.4770
# 3 19.2692 2.9732 44.6857 20.8342 -6.4950 9.0971
# 4 24.2207 25.4403 20.8342 31.6554 -8.4942 2.4758
# 5 -1.6400 -8.9297 -6.4950 -8.4942 22.6307 10.4352
# 6 19.8363 1.4770 9.0971 2.4758 10.4352 26.7952
#
#
#
# Elastic Compliance Matrix: (Units=1/GPa)
#
#
# Indices 1 2 3 4 5 6 
#
# 1 0.014733 -0.005303 -0.001428 -0.004878 0.001460 -0.010247
# 2 -0.005303 0.018680 0.009011 -0.015893 0.003663 -0.000121
# 3 -0.001428 0.009011 0.040351 -0.028550 0.011164 -0.014849
# 4 -0.004878 -0.015893 -0.028550 0.068999 0.009119 0.004253
# 5 0.001460 0.003663 0.011164 0.009119 0.067152 -0.032067
# 6 -0.010247 -0.000121 -0.014849 0.004253 -0.032067 0.062049
#
#
# Mechanical properties :
#
#
# Convention : Reuss Voigt Hill
#
# Bulk Modulus (GPa) = 12.76759 40.85763 26.81261
# Shear Modulus (GPa) = 17.03510 27.86130 22.44820
#
# Velocity S-wave (km/s) = 2.87309 3.67433 3.29813
# Velocity P-wave (km/s) = 4.14644 6.14810 5.24367
#
# Compressibility (1/GPa) = 0.07832333
#
# Stress axis : x y z
#
# Youngs Moduli (GPa) = 67.87696 53.53345 24.78242
#
# Poissons Ratio (x) = 0.28390 0.03538
# Poissons Ratio (y) = 0.35997 -0.22331
# Poissons Ratio (z) = 0.09691 -0.48238
#
# Static dielectric constant tensor:
#      x y z
#    x 3.578540 0.078990 0.097050 
#    y 0.078990 3.731220 0.034910 
#    z 0.097050 0.034910 3.448090 
# 
# 
# High freq. dielectric constant tensor:
#      x y z
#    x 1.796740 0.004700 0.006660 
#    y 0.004700 1.814960 0.006260 
#    z 0.006660 0.006260 1.792570 
# 
# From -- ./inp_files/307000.got.cif
#   From: 2010.06.25/outbox.cif.g09.slc.cpg/sg2_154_cif.got.tgz:307000.got - 2010.06.27 13:26:56.
