data_PCOD8012183
_publ_section_title
;
Structure prediction by ZEFSAII (Michael W. Deem and Ramdas Pophale) SiO2 
 PCOD8012183
Probable space group: P -1
;
_chemical_formula_sum "Si O2"
_cell_formula_units_Z 14
_cell_length_a 15.592205
_cell_length_b 8.532401
_cell_length_c 6.350399
_cell_angle_alpha 67.889775
_cell_angle_beta 120.573804
_cell_angle_gamma 104.185915
_cell_volume 672.378963
_symmetry_space_group_name_H-M "P -1"
_symmetry_group_IT_number 2
_symmetry_cell_setting 'triclinic'
loop_
_space_group_symop_operation_xyz
x,y,z
-x,-y,-z
loop_
_atom_site_type_symbol
_atom_site_label
_atom_site_fract_x
_atom_site_fract_y
_atom_site_fract_z
Si Si1 0.262982 0.594956 0.067115
Si Si2 0.402358 0.793192 0.852367
Si Si3 0.107508 0.431729 0.654105
Si Si4 0.107047 0.098081 0.086902
Si Si5 0.279939 0.877082 0.270715
Si Si6 0.621947 0.892138 0.052336
Si Si7 0.208811 0.312835 0.450633
O O1 0.234466 0.748409 0.102762
O O2 0.272219 0.425188 0.300460
O O3 0.366069 0.645276 0.046329
O O4 0.176192 0.567133 0.802149
O O5 0.339643 0.773332 0.569096
O O6 0.384744 0.978727 0.827812
O O7 0.519181 0.775396 0.963081
O O8 0.144434 0.430163 0.459239
O O9 0.000000 0.500000 0.500000
O O10 0.109774 0.241606 0.839769
O O11 0.130885 0.179948 0.304024
O O12 0.188686 0.964606 0.215218
O O13 0.000000 0.000000 0.000000
O O14 0.358703 0.014320 0.193050
O O15 0.712865 0.776295 0.262803
#
# Coordination Sequence:
#
# PCOD8012183 Si02
#       7
#     2   2   2   2   2   2   2
#     4  10  25  40  64  93 130 170 206 260 315 371
#     4  10  21  40  65  97 126 168 210 260 312 378
#     4  11  26  44  64  90 129 172 208 258 318 376
#     4  11  26  39  67  97 122 166 212 263 316 374
#     4  11  21  42  64  96 130 163 212 264 311 375
#     4  10  21  39  67  94 127 168 212 258 319 365
#     4  11  23  45  63  93 133 164 207 266 310 379
#
# _framework density 20.821591999999999
#
# number of rings (size 3 to 8) (size 9 to 14) (size 15 to 20)
#    0.000    1.429    2.857    1.286    6.000    2.286 
#    0.000    2.857    0.000    0.000    0.000    0.000 
#    0.000    0.000    0.000    0.000    0.000    0.000 
#
# Total GULP energy -173658.100487 kJ/mol
# GULP energy per Si atom -12404.150035 kJ/mol
# Density = 2.077420 g / cm^3
# Si number density = 20.821592 Si / 1000 Ang^3
#
#
#
# Elastic Constant Matrix: (Units=GPa)
#
#
# Indices 1 2 3 4 5 6 
#
# 1 121.5537 48.9677 51.6874 16.4154 0.0950 13.7629
# 2 48.9677 97.7738 44.4620 20.0080 -3.0401 17.9812
# 3 51.6874 44.4620 105.3218 11.8785 -6.2155 6.5528
# 4 16.4154 20.0080 11.8785 36.5148 0.0711 -3.3801
# 5 0.0950 -3.0401 -6.2155 0.0711 34.4685 1.2062
# 6 13.7629 17.9812 6.5528 -3.3801 1.2062 35.7168
#
#
#
# Elastic Compliance Matrix: (Units=1/GPa)
#
#
# Indices 1 2 3 4 5 6 
#
# 1 0.011855 -0.003136 -0.004118 -0.002495 -0.000961 -0.002438
# 2 -0.003136 0.016388 -0.004113 -0.006880 0.000971 -0.006972
# 3 -0.004118 -0.004113 0.013314 -0.000125 0.002010 0.001135
# 4 -0.002495 -0.006880 -0.000125 0.033024 -0.000957 0.007606
# 5 -0.000961 0.000971 0.002010 -0.000957 0.029520 -0.001574
# 6 -0.002438 -0.006972 0.001135 0.007606 -0.001574 0.033012
#
#
# Mechanical properties :
#
#
# Convention : Reuss Voigt Hill
#
# Bulk Modulus (GPa) = 53.12071 68.32037 60.72054
# Shear Modulus (GPa) = 30.09876 33.30884 31.70380
#
# Velocity S-wave (km/s) = 3.80617 4.00400 3.90634
# Velocity P-wave (km/s) = 6.69952 7.36610 7.04071
#
# Compressibility (1/GPa) = 0.01882505
#
# Stress axis : x y z
#
# Youngs Moduli (GPa) = 84.35494 61.01873 75.10986
#
# Poissons Ratio (x) = 0.19133 0.30928
# Poissons Ratio (y) = 0.26450 0.30890
# Poissons Ratio (z) = 0.34735 0.25095
#
# Static dielectric constant tensor:
#      x y z
#    x 3.812520 0.158380 -0.164580 
#    y 0.158380 3.835560 0.102280 
#    z -0.164580 0.102280 3.800160 
# 
# 
# High freq. dielectric constant tensor:
#      x y z
#    x 1.815640 0.009730 -0.012680 
#    y 0.009730 1.817510 0.007190 
#    z -0.012680 0.007190 1.818040 
# 
# From -- ./inp_files/26725.got.cif
#   From: 2010.06.25/outbox.cif.g09.slc.cpg/sg2_14_cif.got.tgz:26725.got - 2010.06.27 13:26:56.
