data_PCOD8012530
_publ_section_title
;
Structure prediction by ZEFSAII (Michael W. Deem and Ramdas Pophale) SiO2 
 PCOD8012530
Probable space group: P -1
;
_chemical_formula_sum "Si O2"
_cell_formula_units_Z 16
_cell_length_a 9.312034
_cell_length_b 22.768076
_cell_length_c 22.114327
_cell_angle_alpha 18.053426
_cell_angle_beta 145.270236
_cell_angle_gamma 144.352200
_cell_volume 814.743054
_symmetry_space_group_name_H-M "P -1"
_symmetry_group_IT_number 2
_symmetry_cell_setting 'triclinic'
loop_
_space_group_symop_operation_xyz
x,y,z
-x,-y,-z
loop_
_atom_site_type_symbol
_atom_site_label
_atom_site_fract_x
_atom_site_fract_y
_atom_site_fract_z
Si Si1 0.857138 0.694097 0.448010
Si Si2 0.975827 0.215334 0.209939
Si Si3 0.196068 0.402454 0.829383
Si Si4 0.447259 0.556750 0.198711
Si Si5 0.387446 0.544797 0.980982
Si Si6 0.771767 0.091463 0.032178
Si Si7 0.480089 0.613726 0.289251
Si Si8 0.985206 0.784741 0.635034
O O1 0.729742 0.684077 0.347222
O O2 0.669546 0.584831 0.540519
O O3 0.116749 0.608425 0.615745
O O4 0.918625 0.917863 0.271883
O O5 0.241081 0.348604 0.152569
O O6 0.937928 0.222826 0.261097
O O7 0.982283 0.999757 0.400764
O O8 0.737057 0.288311 0.025761
O O9 0.317496 0.405949 0.802089
O O10 0.387977 0.358978 0.990618
O O11 0.947933 0.232591 0.907991
O O12 0.565537 0.579851 0.284091
O O13 0.294790 0.340538 0.349047
O O14 0.500000 0.500000 0.000000
O O15 0.194615 0.695138 0.756840
O O16 0.709983 0.227475 0.932754
O O17 0.500000 0.000000 0.000000
#
# Coordination Sequence:
#
# PCOD8012530 Si02
#       8
#     2   2   2   2   2   2   2   2
#     4   9  20  39  58  83 113 150 197 236 291 350
#     4  10  21  40  61  82 120 161 194 231 289 352
#     4  11  22  37  60  88 118 157 189 243 296 342
#     4  11  21  38  58  89 120 151 196 242 291 343
#     4  11  23  39  58  89 128 150 190 245 289 341
#     4   9  20  40  60  81 114 152 193 244 289 342
#     4   9  20  38  61  82 113 152 190 244 294 343
#     4  10  21  40  62  82 120 161 191 235 289 348
#
# _framework density 19.638093000000001
#
# number of rings (size 3 to 8) (size 9 to 14) (size 15 to 20)
#    0.000    2.000    2.500    1.500    7.000    4.000 
#    0.000    2.500    0.000    0.000    0.000    0.000 
#    0.000    0.000    0.000    0.000    0.000    0.000 
#
# Total GULP energy -198388.085708 kJ/mol
# GULP energy per Si atom -12399.255357 kJ/mol
# Density = 1.959340 g / cm^3
# Si number density = 19.638093 Si / 1000 Ang^3
#
#
#
# Elastic Constant Matrix: (Units=GPa)
#
#
# Indices 1 2 3 4 5 6 
#
# 1 119.8383 34.2966 19.0062 -7.8274 3.8140 0.2635
# 2 34.2966 56.6906 18.6102 -10.8890 -7.3112 5.9834
# 3 19.0062 18.6102 112.0790 -30.9566 9.3632 8.5902
# 4 -7.8274 -10.8890 -30.9566 28.7978 -4.9287 -1.5878
# 5 3.8140 -7.3112 9.3632 -4.9287 20.6321 5.1248
# 6 0.2635 5.9834 8.5902 -1.5878 5.1248 33.9198
#
#
#
# Elastic Compliance Matrix: (Units=1/GPa)
#
#
# Indices 1 2 3 4 5 6 
#
# 1 0.010625 -0.007346 -0.000704 -0.001405 -0.005104 0.002097
# 2 -0.007346 0.026904 -0.001617 0.008706 0.015239 -0.006174
# 3 -0.000704 -0.001617 0.013253 0.012837 -0.002886 -0.002028
# 4 -0.001405 0.008706 0.012837 0.053132 0.011200 -0.003981
# 5 -0.005104 0.015239 -0.002886 0.011200 0.061449 -0.010677
# 6 0.002097 -0.006174 -0.002028 -0.003981 -0.010677 0.032495
#
#
# Mechanical properties :
#
#
# Convention : Reuss Voigt Hill
#
# Bulk Modulus (GPa) = 31.79976 48.04821 39.92399
# Shear Modulus (GPa) = 21.96130 31.11624 26.53877
#
# Velocity S-wave (km/s) = 3.34773 3.98488 3.68012
# Velocity P-wave (km/s) = 5.58311 6.75961 6.19933
#
# Compressibility (1/GPa) = 0.03144678
#
# Stress axis : x y z
#
# Youngs Moduli (GPa) = 94.12029 37.16974 75.45743
#
# Poissons Ratio (x) = 0.27305 0.05315
# Poissons Ratio (y) = 0.69140 0.12200
# Poissons Ratio (z) = 0.06629 0.06009
#
# Static dielectric constant tensor:
#      x y z
#    x 3.532030 0.027400 0.168410 
#    y 0.027400 3.389950 -0.169900 
#    z 0.168410 -0.169900 3.923750 
# 
# 
# High freq. dielectric constant tensor:
#      x y z
#    x 1.760700 0.002000 0.009110 
#    y 0.002000 1.749020 -0.008020 
#    z 0.009110 -0.008020 1.772040 
# 
# From -- ./inp_files/271970.got.cif
#   From: 2010.06.25/outbox.cif.g09.slc.cpg/sg2_136_cif.got.tgz:271970.got - 2010.06.27 13:26:56.
