data_PCOD8012812
_publ_section_title
;
Structure prediction by ZEFSAII (Michael W. Deem and Ramdas Pophale) SiO2 
 PCOD8012812
Probable space group: P -1
;
_chemical_formula_sum "Si O2"
_cell_formula_units_Z 16
_cell_length_a 12.138442
_cell_length_b 10.269631
_cell_length_c 14.168243
_cell_angle_alpha 110.339895
_cell_angle_beta 141.734203
_cell_angle_gamma 97.905481
_cell_volume 725.507717
_symmetry_space_group_name_H-M "P -1"
_symmetry_group_IT_number 2
_symmetry_cell_setting 'triclinic'
loop_
_space_group_symop_operation_xyz
x,y,z
-x,-y,-z
loop_
_atom_site_type_symbol
_atom_site_label
_atom_site_fract_x
_atom_site_fract_y
_atom_site_fract_z
Si Si1 0.892366 0.750871 0.398394
Si Si2 0.715603 0.453008 0.588893
Si Si3 0.743109 0.163535 0.487931
Si Si4 0.755473 0.179296 0.011974
Si Si5 0.511491 0.599858 0.390410
Si Si6 0.421453 0.628529 0.995826
Si Si7 0.044299 0.940407 0.751262
Si Si8 0.818969 0.672704 0.069328
O O1 0.727352 0.790006 0.252904
O O2 0.997525 0.845534 0.594904
O O3 0.129083 0.843494 0.516307
O O4 0.694343 0.510113 0.211020
O O5 0.743527 0.328843 0.516576
O O6 0.544527 0.461959 0.415558
O O7 0.594569 0.361575 0.587428
O O8 0.992780 0.669382 0.841492
O O9 0.882377 0.198587 0.688105
O O10 0.454426 0.957575 0.243796
O O11 0.684512 0.275820 0.049026
O O12 0.778122 0.064210 0.070782
O O13 0.771188 0.810778 0.582734
O O14 0.301888 0.472327 0.136672
O O15 0.306178 0.463982 0.957406
O O16 0.198895 0.169534 0.906087
#
# Coordination Sequence:
#
# PCOD8012812 Si02
#       8
#     2   2   2   2   2   2   2   2
#     4  10  21  40  63  94 128 170 206 254 310 378
#     4  10  22  46  65  93 125 169 207 264 318 370
#     4  11  24  40  65  95 130 167 207 256 319 374
#     4  11  23  43  63  93 131 166 211 256 314 373
#     4  10  23  43  70  89 127 165 214 261 316 369
#     4  10  21  40  64  88 131 173 203 251 315 373
#     4  11  24  40  66  98 125 165 214 259 308 374
#     4  11  22  41  65  96 125 164 212 258 309 372
#
# _framework density 22.053519999999999
#
# number of rings (size 3 to 8) (size 9 to 14) (size 15 to 20)
#    0.000    1.500    3.750    1.500    0.000    8.000 
#    0.000    5.000    0.000    0.000    0.000    0.000 
#    0.000    0.000    0.000    0.000    0.000    0.000 
#
# Total GULP energy -198295.083199 kJ/mol
# GULP energy per Si atom -12393.442700 kJ/mol
# Density = 2.200333 g / cm^3
# Si number density = 22.053520 Si / 1000 Ang^3
#
#
#
# Elastic Constant Matrix: (Units=GPa)
#
#
# Indices 1 2 3 4 5 6 
#
# 1 76.0016 22.8258 19.7067 -3.7267 11.1081 1.7818
# 2 22.8258 90.7179 6.7194 3.3395 9.8693 -14.6861
# 3 19.7067 6.7194 106.1081 -7.0243 8.8155 -2.0325
# 4 -3.7267 3.3395 -7.0243 23.5687 -7.1606 6.5408
# 5 11.1081 9.8693 8.8155 -7.1606 24.6020 -4.2970
# 6 1.7818 -14.6861 -2.0325 6.5408 -4.2970 25.2930
#
#
#
# Elastic Compliance Matrix: (Units=1/GPa)
#
#
# Indices 1 2 3 4 5 6 
#
# 1 0.015974 -0.004257 -0.002229 0.002425 -0.004915 -0.005238
# 2 -0.004257 0.014345 -0.000034 -0.006629 -0.004064 0.009650
# 3 -0.002229 -0.000034 0.010144 0.002043 -0.002006 0.000083
# 4 0.002425 -0.006629 0.002043 0.052680 0.013513 -0.015183
# 5 -0.004915 -0.004064 -0.002006 0.013513 0.049631 0.002762
# 6 -0.005238 0.009650 0.000083 -0.015183 0.002762 0.049911
#
#
# Mechanical properties :
#
#
# Convention : Reuss Voigt Hill
#
# Bulk Modulus (GPa) = 36.46421 41.25903 38.86162
# Shear Modulus (GPa) = 23.27031 29.59777 26.43404
#
# Velocity S-wave (km/s) = 3.25187 3.66743 3.46588
# Velocity P-wave (km/s) = 5.53804 6.05661 5.80312
#
# Compressibility (1/GPa) = 0.02742415
#
# Stress axis : x y z
#
# Youngs Moduli (GPa) = 62.60158 69.70977 98.58136
#
# Poissons Ratio (x) = 0.29673 0.21970
# Poissons Ratio (y) = 0.26648 0.00337
# Poissons Ratio (z) = 0.13951 0.00238
#
# Static dielectric constant tensor:
#      x y z
#    x 3.870380 -0.132720 0.156290 
#    y -0.132720 3.948710 -0.046520 
#    z 0.156290 -0.046520 4.433750 
# 
# 
# High freq. dielectric constant tensor:
#      x y z
#    x 1.851990 -0.017420 0.009780 
#    y -0.017420 1.858620 0.003270 
#    z 0.009780 0.003270 1.886100 
# 
# From -- ./inp_files/519862.got.cif
#   From: 2010.06.25/outbox.cif.g09.slc.cpg/sg2_260_cif.got.tgz:519862.got - 2010.06.27 13:26:56.
