data_PCOD8012052
_publ_section_title
;
Structure prediction by ZEFSAII (Michael W. Deem and Ramdas Pophale) SiO2 
 PCOD8012052
Probable space group: P -1
;
_chemical_formula_sum "Si O2"
_cell_formula_units_Z 16
_cell_length_a 9.076634
_cell_length_b 9.308094
_cell_length_c 15.891351
_cell_angle_alpha 102.801360
_cell_angle_beta 106.942142
_cell_angle_gamma 33.599934
_cell_volume 710.168724
_symmetry_space_group_name_H-M "P -1"
_symmetry_group_IT_number 2
_symmetry_cell_setting 'triclinic'
loop_
_space_group_symop_operation_xyz
x,y,z
-x,-y,-z
loop_
_atom_site_type_symbol
_atom_site_label
_atom_site_fract_x
_atom_site_fract_y
_atom_site_fract_z
Si Si1 0.153271 0.091316 0.452932
Si Si2 0.710001 0.023151 0.177463
Si Si3 0.317999 0.684763 0.687377
Si Si4 0.117940 0.483093 0.099019
Si Si5 0.671198 0.846410 0.762011
Si Si6 0.498371 0.765722 0.305262
Si Si7 0.444558 0.388976 0.435677
Si Si8 0.943278 0.539440 0.598778
O O1 0.328767 0.898318 0.378529
O O2 0.312251 0.916616 0.539937
O O3 0.126601 0.294220 0.470870
O O4 0.871511 0.228386 0.407789
O O5 0.622827 0.981335 0.232984
O O6 0.944852 0.766362 0.126679
O O7 0.822849 0.088434 0.243102
O O8 0.435481 0.275048 0.109882
O O9 0.421661 0.465526 0.732257
O O10 0.557155 0.584874 0.663252
O O11 0.099355 0.382134 0.161378
O O12 0.000000 0.500000 0.000000
O O13 0.662842 0.032038 0.773570
O O14 0.731455 0.737510 0.664955
O O15 0.756611 0.669887 0.347013
O O16 0.500000 0.500000 0.500000
O O17 0.150469 0.558925 0.445471
#
# Coordination Sequence:
#
# PCOD8012052 Si02
#       8
#     2   2   2   2   2   2   2   2
#     4  10  23  38  56  80 122 169 217 269 330 371
#     4  10  22  38  69  97 128 172 207 267 316 381
#     4  11  23  40  60  89 129 164 221 269 324 389
#     4  10  21  39  66 104 134 161 206 261 320 384
#     4   9  20  36  65  91 120 168 211 255 310 387
#     4  10  21  40  59  88 120 174 215 265 318 390
#     4  12  22  39  57  86 119 167 217 286 328 363
#     4  10  21  40  57  84 120 168 222 261 321 390
#
# _framework density 22.529857
#
# number of rings (size 3 to 8) (size 9 to 14) (size 15 to 20)
#    0.750    1.000    2.500    1.875    1.750    2.500 
#    4.500    0.000    0.000    1.500    0.000    0.000 
#    0.000    0.000    0.000    0.000    0.000    0.000 
#
# Total GULP energy -198273.657473 kJ/mol
# GULP energy per Si atom -12392.103592 kJ/mol
# Density = 2.247858 g / cm^3
# Si number density = 22.529857 Si / 1000 Ang^3
#
#
#
# Elastic Constant Matrix: (Units=GPa)
#
#
# Indices 1 2 3 4 5 6 
#
# 1 114.5909 43.1554 35.4143 3.4310 8.1771 15.5262
# 2 43.1554 122.2551 33.1909 6.4325 4.9082 24.6830
# 3 35.4143 33.1909 76.4291 2.0610 13.8317 29.9229
# 4 3.4310 6.4325 2.0610 33.0774 1.1671 4.1152
# 5 8.1771 4.9082 13.8317 1.1671 13.6597 7.1636
# 6 15.5262 24.6830 29.9229 4.1152 7.1636 38.9349
#
#
#
# Elastic Compliance Matrix: (Units=1/GPa)
#
#
# Indices 1 2 3 4 5 6 
#
# 1 0.011049 -0.002932 -0.003750 -0.000362 -0.002134 0.000766
# 2 -0.002932 0.010585 -0.001907 -0.001172 0.002275 -0.004370
# 3 -0.003750 -0.001907 0.023072 0.001383 -0.013937 -0.012608
# 4 -0.000362 -0.001172 0.001383 0.030861 -0.001767 -0.003112
# 5 -0.002134 0.002275 -0.013937 -0.001767 0.091340 -0.006499
# 6 0.000766 -0.004370 -0.012608 -0.003112 -0.006499 0.039364
#
#
# Mechanical properties :
#
#
# Convention : Reuss Voigt Hill
#
# Bulk Modulus (GPa) = 36.32899 59.64403 47.98651
# Shear Modulus (GPa) = 21.49379 30.56871 26.03125
#
# Velocity S-wave (km/s) = 3.09206 3.68748 3.40282
# Velocity P-wave (km/s) = 5.37658 6.68288 6.06500
#
# Compressibility (1/GPa) = 0.02752623
#
# Stress axis : x y z
#
# Youngs Moduli (GPa) = 90.50316 94.47251 43.34351
#
# Poissons Ratio (x) = 0.27700 0.16256
# Poissons Ratio (y) = 0.26536 0.08267
# Poissons Ratio (z) = 0.33943 0.18019
#
# Static dielectric constant tensor:
#      x y z
#    x 4.624040 0.003220 -0.182390 
#    y 0.003220 4.595560 0.137400 
#    z -0.182390 0.137400 3.623040 
# 
# 
# High freq. dielectric constant tensor:
#      x y z
#    x 1.893360 0.003540 -0.004040 
#    y 0.003540 1.906170 0.017370 
#    z -0.004040 0.017370 1.837140 
# 
# From -- ./inp_files/51221.got.cif
#   From: 2010.06.25/outbox.cif.g09.slc.cpg/sg2_26_cif.got.tgz:51221.got - 2010.06.27 13:26:56.
