data_PCOD8012778
_publ_section_title
;
Structure prediction by ZEFSAII (Michael W. Deem and Ramdas Pophale) SiO2 
 PCOD8012778
Probable space group: P -1
;
_chemical_formula_sum "Si O2"
_cell_formula_units_Z 14
_cell_length_a 11.935814
_cell_length_b 12.474972
_cell_length_c 12.355858
_cell_angle_alpha 148.113159
_cell_angle_beta 92.574460
_cell_angle_gamma 110.004053
_cell_volume 673.232420
_symmetry_space_group_name_H-M "P -1"
_symmetry_group_IT_number 2
_symmetry_cell_setting 'triclinic'
loop_
_space_group_symop_operation_xyz
x,y,z
-x,-y,-z
loop_
_atom_site_type_symbol
_atom_site_label
_atom_site_fract_x
_atom_site_fract_y
_atom_site_fract_z
Si Si1 0.658612 0.620522 0.055528
Si Si2 0.509444 0.886243 0.545977
Si Si3 0.284547 0.909967 0.657143
Si Si4 0.442277 0.148243 0.094711
Si Si5 0.663683 0.803812 0.651427
Si Si6 0.987546 0.386011 0.078168
Si Si7 0.168185 0.505599 0.974247
O O1 0.780486 0.666340 0.185116
O O2 0.747979 0.915644 0.249880
O O3 0.500000 0.500000 0.000000
O O4 0.618433 0.388844 0.771934
O O5 0.437740 0.002631 0.687372
O O6 0.542308 0.783638 0.560289
O O7 0.670699 0.144615 0.705863
O O8 0.120203 0.570064 0.337159
O O9 0.318472 0.977865 0.843334
O O10 0.601829 0.491244 0.370412
O O11 0.340528 0.121834 0.162455
O O12 0.500000 0.000000 0.000000
O O13 0.845927 0.054921 0.830735
O O14 0.922543 0.527915 0.165447
O O15 0.058048 0.380093 0.967548
#
# Coordination Sequence:
#
# PCOD8012778 Si02
#       7
#     2   2   2   2   2   2   2
#     4  12  22  35  64  98 127 172 225 255 305 376
#     4  11  20  40  65  93 133 171 219 258 308 388
#     4  12  23  39  66  99 127 168 221 269 315 377
#     4  11  23  43  71  94 118 168 227 271 316 386
#     4  10  23  44  68  91 127 168 213 271 328 379
#     4  10  23  42  63  95 140 169 204 267 331 378
#     4  10  21  40  63  91 137 181 203 253 322 388
#
# _framework density 20.795193999999999
#
# number of rings (size 3 to 8) (size 9 to 14) (size 15 to 20)
#    0.000    1.143    5.714    1.286    0.000    1.143 
#    2.571    0.714    0.000    0.000    0.000    0.000 
#    0.000    0.000    0.000    0.000    0.000    0.000 
#
# Total GULP energy -173596.020437 kJ/mol
# GULP energy per Si atom -12399.715746 kJ/mol
# Density = 2.074786 g / cm^3
# Si number density = 20.795194 Si / 1000 Ang^3
#
#
#
# Elastic Constant Matrix: (Units=GPa)
#
#
# Indices 1 2 3 4 5 6 
#
# 1 111.6017 43.2207 36.0467 14.6146 -1.5552 -11.4851
# 2 43.2207 108.3360 57.9505 13.9963 5.2338 -0.4173
# 3 36.0467 57.9505 96.3126 5.7961 6.8467 -2.4352
# 4 14.6146 13.9963 5.7961 37.6218 -2.3240 -2.9502
# 5 -1.5552 5.2338 6.8467 -2.3240 35.0056 7.6431
# 6 -11.4851 -0.4173 -2.4352 -2.9502 7.6431 35.9464
#
#
#
# Elastic Compliance Matrix: (Units=1/GPa)
#
#
# Indices 1 2 3 4 5 6 
#
# 1 0.011573 -0.003056 -0.002288 -0.002724 0.000546 0.003168
# 2 -0.003056 0.015023 -0.007672 -0.003381 -0.000794 -0.001430
# 3 -0.002288 -0.007672 0.015958 0.001215 -0.002175 0.000823
# 4 -0.002724 -0.003381 0.001215 0.028912 0.001813 0.001160
# 5 0.000546 -0.000794 -0.002175 0.001813 0.030642 -0.006348
# 6 0.003168 -0.001430 0.000823 0.001160 -0.006348 0.030315
#
#
# Mechanical properties :
#
#
# Convention : Reuss Voigt Hill
#
# Bulk Modulus (GPa) = 60.52071 65.63179 63.07625
# Shear Modulus (GPa) = 30.49504 33.65026 32.07265
#
# Velocity S-wave (km/s) = 3.83358 4.02702 3.93149
# Velocity P-wave (km/s) = 6.98294 7.29740 7.14190
#
# Compressibility (1/GPa) = 0.01652327
#
# Stress axis : x y z
#
# Youngs Moduli (GPa) = 86.40778 66.56436 62.66642
#
# Poissons Ratio (x) = 0.20339 0.14336
# Poissons Ratio (y) = 0.26403 0.48077
# Poissons Ratio (z) = 0.19767 0.51068
#
# Static dielectric constant tensor:
#      x y z
#    x 3.909990 -0.270220 -0.002900 
#    y -0.270220 3.872650 0.037260 
#    z -0.002900 0.037260 3.704540 
# 
# 
# High freq. dielectric constant tensor:
#      x y z
#    x 1.816510 -0.014610 -0.000080 
#    y -0.014610 1.813120 0.005120 
#    z -0.000080 0.005120 1.806430 
# 
# From -- ./inp_files/28510.got.cif
#   From: 2010.06.25/outbox.cif.g09.slc.cpg/sg2_15_cif.got.tgz:28510.got - 2010.06.27 13:26:56.
