data_PCOD8012191
_publ_section_title
;
Structure prediction by ZEFSAII (Michael W. Deem and Ramdas Pophale) SiO2 
 PCOD8012191
Probable space group: P -1
;
_chemical_formula_sum "Si O2"
_cell_formula_units_Z 14
_cell_length_a 24.032031
_cell_length_b 16.738888
_cell_length_c 13.283376
_cell_angle_alpha 144.242857
_cell_angle_beta 27.077727
_cell_angle_gamma 163.713740
_cell_volume 641.951379
_symmetry_space_group_name_H-M "P -1"
_symmetry_group_IT_number 2
_symmetry_cell_setting 'triclinic'
loop_
_space_group_symop_operation_xyz
x,y,z
-x,-y,-z
loop_
_atom_site_type_symbol
_atom_site_label
_atom_site_fract_x
_atom_site_fract_y
_atom_site_fract_z
Si Si1 0.327490 0.284757 0.860884
Si Si2 0.751243 0.808079 0.343720
Si Si3 0.768237 0.374278 0.043970
Si Si4 0.661337 0.875132 0.896666
Si Si5 0.729046 0.459337 0.395609
Si Si6 0.389361 0.091910 0.207265
Si Si7 0.307659 0.847687 0.740835
O O1 0.319731 0.253715 0.722023
O O2 0.499474 0.592409 0.922569
O O3 0.494504 0.323668 0.679203
O O4 0.030629 0.999245 0.098621
O O5 0.500000 0.500000 0.500000
O O6 0.803538 0.012393 0.513771
O O7 0.079314 0.708912 0.911011
O O8 0.737472 0.181049 0.888073
O O9 0.613508 0.289161 0.300510
O O10 0.680062 0.360560 0.069026
O O11 0.566909 0.781586 0.836579
O O12 0.984713 0.174119 0.694150
O O13 0.562712 0.921253 0.149665
O O14 0.797545 0.395943 0.287936
O O15 0.500000 0.000000 0.500000
#
# Coordination Sequence:
#
# PCOD8012191 Si02
#       7
#     2   2   2   2   2   2   2
#     4  11  25  42  68 103 133 181 225 268 342 407
#     4  11  24  43  67  93 143 174 220 280 333 396
#     4  10  21  39  67  95 126 177 218 275 337 388
#     4  11  22  42  70  97 136 177 222 278 335 401
#     4  11  21  45  65  97 137 177 218 281 332 400
#     4  11  20  39  70  96 127 174 223 274 334 386
#     4  11  24  42  63  97 137 176 225 279 333 398
#
# _framework density 21.808506000000001
#
# number of rings (size 3 to 8) (size 9 to 14) (size 15 to 20)
#    0.000    1.143    5.714    1.286    2.000    1.143 
#    0.000    2.143    0.000    0.000    0.000    0.000 
#    0.000    0.000    0.000    0.000    0.000    0.000 
#
# Total GULP energy -173486.968967 kJ/mol
# GULP energy per Si atom -12391.926355 kJ/mol
# Density = 2.175887 g / cm^3
# Si number density = 21.808506 Si / 1000 Ang^3
#
#
#
# Elastic Constant Matrix: (Units=GPa)
#
#
# Indices 1 2 3 4 5 6 
#
# 1 75.8035 27.3339 44.6756 0.2373 -5.3899 22.7861
# 2 27.3339 88.9405 57.1048 3.2690 1.7185 1.8103
# 3 44.6756 57.1048 164.5854 -3.5103 -11.6221 -3.3706
# 4 0.2373 3.2690 -3.5103 30.6013 -1.1575 -0.6324
# 5 -5.3899 1.7185 -11.6221 -1.1575 34.8442 -0.3815
# 6 22.7861 1.8103 -3.3706 -0.6324 -0.3815 24.6260
#
#
#
# Elastic Compliance Matrix: (Units=1/GPa)
#
#
# Indices 1 2 3 4 5 6 
#
# 1 0.025368 -0.003389 -0.006099 -0.000965 0.001762 -0.024056
# 2 -0.003389 0.015377 -0.004641 -0.002232 -0.002891 0.001269
# 3 -0.006099 -0.004641 0.009723 0.001913 0.002673 0.007406
# 4 -0.000965 -0.002232 0.001913 0.033254 0.001727 0.002199
# 5 0.001762 -0.002891 0.002673 0.001727 0.030057 -0.000541
# 6 -0.024056 0.001269 0.007406 0.002199 -0.000541 0.063834
#
#
# Mechanical properties :
#
#
# Convention : Reuss Voigt Hill
#
# Bulk Modulus (GPa) = 45.02621 65.28420 55.15521
# Shear Modulus (GPa) = 23.44394 31.36198 27.40296
#
# Velocity S-wave (km/s) = 3.28226 3.79629 3.54860
# Velocity P-wave (km/s) = 5.92075 7.01541 6.49120
#
# Compressibility (1/GPa) = 0.02220929
#
# Stress axis : x y z
#
# Youngs Moduli (GPa) = 39.42006 65.03241 102.85146
#
# Poissons Ratio (x) = 0.22042 0.62726
# Poissons Ratio (y) = 0.13361 0.47733
# Poissons Ratio (z) = 0.24041 0.30181
#
# Static dielectric constant tensor:
#      x y z
#    x 3.601180 0.373690 -0.036010 
#    y 0.373690 3.745910 0.282730 
#    z -0.036010 0.282730 4.071560 
# 
# 
# High freq. dielectric constant tensor:
#      x y z
#    x 1.847340 0.019040 -0.007110 
#    y 0.019040 1.848300 0.025810 
#    z -0.007110 0.025810 1.868410 
# 
# From -- ./inp_files/293959.got.cif
#   From: 2010.06.25/outbox.cif.g09.slc.cpg/sg2_147_cif.got.tgz:293959.got - 2010.06.27 13:26:56.
