data_PCOD8012282
_publ_section_title
;
Structure prediction by ZEFSAII (Michael W. Deem and Ramdas Pophale) SiO2 
 PCOD8012282
Probable space group: P -1
;
_chemical_formula_sum "Si O2"
_cell_formula_units_Z 14
_cell_length_a 9.514925
_cell_length_b 11.375526
_cell_length_c 12.456765
_cell_angle_alpha 54.147388
_cell_angle_beta 96.902632
_cell_angle_gamma 53.097784
_cell_volume 599.092450
_symmetry_space_group_name_H-M "P -1"
_symmetry_group_IT_number 2
_symmetry_cell_setting 'triclinic'
loop_
_space_group_symop_operation_xyz
x,y,z
-x,-y,-z
loop_
_atom_site_type_symbol
_atom_site_label
_atom_site_fract_x
_atom_site_fract_y
_atom_site_fract_z
Si Si1 0.195274 0.647871 0.505009
Si Si2 0.258458 0.135482 0.207591
Si Si3 0.908169 0.526528 0.146490
Si Si4 0.518695 0.155089 0.918868
Si Si5 0.420079 0.742908 0.561342
Si Si6 0.930361 0.205670 0.824898
Si Si7 0.722784 0.930680 0.430963
O O1 0.407013 0.337191 0.707098
O O2 0.274052 0.714713 0.552689
O O3 0.199372 0.700011 0.354916
O O4 0.909275 0.837084 0.407373
O O5 0.001411 0.371423 0.128677
O O6 0.367205 0.883808 0.373709
O O7 0.462569 0.090015 0.274245
O O8 0.178829 0.232366 0.022965
O O9 0.670767 0.634838 0.113032
O O10 0.138855 0.325877 0.361476
O O11 0.500000 0.000000 0.000000
O O12 0.811166 0.928059 0.095496
O O13 0.725473 0.459317 0.747264
O O14 0.331160 0.899400 0.576869
O O15 0.000000 0.000000 0.000000
#
# Coordination Sequence:
#
# PCOD8012282 Si02
#       7
#     2   2   2   2   2   2   2
#     4  11  25  47  64  95 136 173 215 274 324 386
#     4  10  21  39  68  95 128 166 217 269 321 379
#     4   9  20  39  60  96 128 158 212 267 318 380
#     4  11  26  41  68  94 131 170 220 268 326 388
#     4  11  23  42  69  94 132 175 217 264 328 383
#     4  12  27  46  65  96 135 174 220 265 328 395
#     4  10  22  43  68  96 129 168 219 270 323 379
#
# _framework density 23.368680000000001
#
# number of rings (size 3 to 8) (size 9 to 14) (size 15 to 20)
#    0.000    1.429    1.429    3.429    8.000    0.571 
#    5.143    0.714    0.000    0.000    0.000    0.000 
#    0.000    0.000    0.000    0.000    0.000    0.000 
#
# Total GULP energy -173492.805279 kJ/mol
# GULP energy per Si atom -12392.343234 kJ/mol
# Density = 2.331549 g / cm^3
# Si number density = 23.368680 Si / 1000 Ang^3
#
#
#
# Elastic Constant Matrix: (Units=GPa)
#
#
# Indices 1 2 3 4 5 6 
#
# 1 115.1597 23.1953 51.9194 -9.1552 -0.9991 4.6286
# 2 23.1953 43.2367 37.3539 1.5553 0.2825 -8.7603
# 3 51.9194 37.3539 150.5274 -10.9069 -23.0230 -4.8665
# 4 -9.1552 1.5553 -10.9069 36.8792 -9.7017 -2.6293
# 5 -0.9991 0.2825 -23.0230 -9.7017 58.1446 -6.5107
# 6 4.6286 -8.7603 -4.8665 -2.6293 -6.5107 36.7988
#
#
#
# Elastic Compliance Matrix: (Units=1/GPa)
#
#
# Indices 1 2 3 4 5 6 
#
# 1 0.011047 -0.003995 -0.002950 0.001574 -0.001009 -0.002797
# 2 -0.003995 0.033317 -0.007557 -0.005048 -0.003339 0.006483
# 3 -0.002950 -0.007557 0.010641 0.004137 0.005020 0.001163
# 4 0.001574 -0.005048 0.004137 0.031013 0.007159 0.002630
# 5 -0.001009 -0.003339 0.005020 0.007159 0.020849 0.004196
# 6 -0.002797 0.006483 0.001163 0.002630 0.004196 0.030154
#
#
# Mechanical properties :
#
#
# Convention : Reuss Voigt Hill
#
# Bulk Modulus (GPa) = 38.45742 59.31788 48.88765
# Shear Modulus (GPa) = 28.62182 39.46152 34.04167
#
# Velocity S-wave (km/s) = 3.50350 4.11378 3.82084
# Velocity P-wave (km/s) = 5.73224 6.92841 6.35851
#
# Compressibility (1/GPa) = 0.02600279
#
# Stress axis : x y z
#
# Youngs Moduli (GPa) = 90.52395 30.01461 93.97490
#
# Poissons Ratio (x) = 0.11990 0.27720
# Poissons Ratio (y) = 0.36161 0.71015
# Poissons Ratio (z) = 0.26702 0.22682
#
# Static dielectric constant tensor:
#      x y z
#    x 3.989080 -0.423370 -0.431040 
#    y -0.423370 4.167150 -0.177680 
#    z -0.431040 -0.177680 4.544680 
# 
# 
# High freq. dielectric constant tensor:
#      x y z
#    x 1.918540 -0.032830 -0.009300 
#    y -0.032830 1.915450 -0.016570 
#    z -0.009300 -0.016570 1.948950 
# 
# From -- ./inp_files/498869.got.cif
#   From: 2010.06.25/outbox.cif.g09.slc.cpg/sg2_250_cif.got.tgz:498869.got - 2010.06.27 13:26:56.
