data_PCOD8012511
_publ_section_title
;
Structure prediction by ZEFSAII (Michael W. Deem and Ramdas Pophale) SiO2 
 PCOD8012511
Probable space group: P -1
;
_chemical_formula_sum "Si O2"
_cell_formula_units_Z 16
_cell_length_a 18.969421
_cell_length_b 11.553027
_cell_length_c 8.903663
_cell_angle_alpha 39.541399
_cell_angle_beta 125.858887
_cell_angle_gamma 143.017279
_cell_volume 744.974895
_symmetry_space_group_name_H-M "P -1"
_symmetry_group_IT_number 2
_symmetry_cell_setting 'triclinic'
loop_
_space_group_symop_operation_xyz
x,y,z
-x,-y,-z
loop_
_atom_site_type_symbol
_atom_site_label
_atom_site_fract_x
_atom_site_fract_y
_atom_site_fract_z
Si Si1 0.949692 0.443779 0.328472
Si Si2 0.685436 0.018923 0.367424
Si Si3 0.654493 0.373827 0.885514
Si Si4 0.485275 0.598031 0.736230
Si Si5 0.584438 0.810340 0.131469
Si Si6 0.656258 0.279653 0.641395
Si Si7 0.925755 0.677102 0.579095
Si Si8 0.081280 0.230006 0.183151
O O1 0.820391 0.176766 0.420130
O O2 0.000000 0.500000 0.500000
O O3 0.030502 0.453526 0.298873
O O4 0.948772 0.657149 0.085452
O O5 0.611997 0.807366 0.610976
O O6 0.663837 0.918178 0.271544
O O7 0.652062 0.184577 0.167236
O O8 0.554613 0.365766 0.831087
O O9 0.621856 0.284982 0.762470
O O10 0.783302 0.646314 0.785380
O O11 0.400875 0.365178 0.751335
O O12 0.422082 0.703354 0.583168
O O13 0.500000 0.500000 0.000000
O O14 0.626299 0.023023 0.850898
O O15 0.789956 0.504951 0.538146
O O16 0.942132 0.709813 0.745212
O O17 0.997892 0.943681 0.328187
#
# Coordination Sequence:
#
# PCOD8012511 Si02
#       8
#     2   2   2   2   2   2   2   2
#     4  11  25  42  63  94 131 168 211 260 316 378
#     4  10  21  42  65  91 123 162 218 260 298 373
#     4   9  17  38  68  92 119 160 214 264 298 358
#     4  12  26  39  58  99 131 161 201 258 326 379
#     4  11  21  39  70  90 120 172 208 262 306 360
#     4  10  21  40  60  91 128 159 211 256 306 372
#     4  10  22  40  66  90 126 170 209 263 311 366
#     4   9  21  39  64  97 122 164 218 260 307 373
#
# _framework density 21.477232999999998
#
# number of rings (size 3 to 8) (size 9 to 14) (size 15 to 20)
#    0.000    1.750    2.500    2.250    1.750    6.000 
#    4.500    0.000    0.000    0.000    0.000    0.000 
#    0.000    0.000    0.000    0.000    0.000    0.000 
#
# Total GULP energy -198425.120384 kJ/mol
# GULP energy per Si atom -12401.570024 kJ/mol
# Density = 2.142835 g / cm^3
# Si number density = 21.477233 Si / 1000 Ang^3
#
#
#
# Elastic Constant Matrix: (Units=GPa)
#
#
# Indices 1 2 3 4 5 6 
#
# 1 45.2552 37.8866 11.8922 1.6708 3.9638 9.4863
# 2 37.8866 102.9434 45.1879 -4.4707 -8.6480 22.8410
# 3 11.8922 45.1879 118.4986 -2.1739 -9.8926 17.8546
# 4 1.6708 -4.4707 -2.1739 42.2730 5.0285 0.4461
# 5 3.9638 -8.6480 -9.8926 5.0285 19.9848 -2.0648
# 6 9.4863 22.8410 17.8546 0.4461 -2.0648 23.6186
#
#
#
# Elastic Compliance Matrix: (Units=1/GPa)
#
#
# Indices 1 2 3 4 5 6 
#
# 1 0.035161 -0.013972 0.001119 -0.001309 -0.012396 -0.002516
# 2 -0.013972 0.019409 -0.003871 0.001571 0.007869 -0.009574
# 3 0.001119 -0.003871 0.010736 -0.000210 0.002999 -0.004556
# 4 -0.001309 0.001571 -0.000210 0.024539 -0.005523 -0.001781
# 5 -0.012396 0.007869 0.002999 -0.005523 0.058812 0.000347
# 6 -0.002516 -0.009574 -0.004556 -0.001781 0.000347 0.056116
#
#
# Mechanical properties :
#
#
# Convention : Reuss Voigt Hill
#
# Bulk Modulus (GPa) = 31.38831 50.73673 41.06252
# Shear Modulus (GPa) = 20.09335 28.62398 24.35867
#
# Velocity S-wave (km/s) = 3.06202 3.65466 3.37139
# Velocity P-wave (km/s) = 5.21035 6.44077 5.85795
#
# Compressibility (1/GPa) = 0.03185900
#
# Stress axis : x y z
#
# Youngs Moduli (GPa) = 28.44058 51.52298 93.14772
#
# Poissons Ratio (x) = 0.71987 -0.10428
# Poissons Ratio (y) = 0.39737 0.36056
# Poissons Ratio (z) = -0.03184 0.19944
#
# Static dielectric constant tensor:
#      x y z
#    x 3.694770 0.145180 0.074300 
#    y 0.145180 3.846730 -0.246710 
#    z 0.074300 -0.246710 3.918170 
# 
# 
# High freq. dielectric constant tensor:
#      x y z
#    x 1.826170 0.016270 0.008340 
#    y 0.016270 1.837580 -0.016780 
#    z 0.008340 -0.016780 1.849410 
# 
# From -- ./inp_files/345895.got.cif
#   From: 2010.06.25/outbox.cif.g09.slc.cpg/sg2_173_cif.got.tgz:345895.got - 2010.06.27 13:26:56.
