data_PCOD8012536
_publ_section_title
;
Structure prediction by ZEFSAII (Michael W. Deem and Ramdas Pophale) SiO2 
 PCOD8012536
Probable space group: P -1
;
_chemical_formula_sum "Si O2"
_cell_formula_units_Z 16
_cell_length_a 14.686204
_cell_length_b 14.023770
_cell_length_c 10.531513
_cell_angle_alpha 41.056469
_cell_angle_beta 32.711624
_cell_angle_gamma 46.201728
_cell_volume 759.658385
_symmetry_space_group_name_H-M "P -1"
_symmetry_group_IT_number 2
_symmetry_cell_setting 'triclinic'
loop_
_space_group_symop_operation_xyz
x,y,z
-x,-y,-z
loop_
_atom_site_type_symbol
_atom_site_label
_atom_site_fract_x
_atom_site_fract_y
_atom_site_fract_z
Si Si1 0.697919 0.478329 0.266617
Si Si2 0.928224 0.617796 0.690024
Si Si3 0.909892 0.187550 0.328719
Si Si4 0.513842 0.641356 0.708198
Si Si5 0.824587 0.613569 0.218956
Si Si6 0.918013 0.102579 0.685846
Si Si7 0.588062 0.129724 0.212482
Si Si8 0.335410 0.390063 0.178999
O O1 0.500000 0.500000 0.500000
O O2 0.762891 0.309156 0.316793
O O3 0.804646 0.494870 0.253431
O O4 0.749953 0.602041 0.987214
O O5 0.861494 0.614629 0.625164
O O6 0.069286 0.478624 0.699799
O O7 0.989248 0.771417 0.490231
O O8 0.850159 0.141390 0.584076
O O9 0.945790 0.048400 0.331006
O O10 0.084079 0.255842 0.071608
O O11 0.636989 0.692257 0.405636
O O12 0.381934 0.774524 0.792371
O O13 0.649483 0.567308 0.732612
O O14 0.412307 0.521250 0.883558
O O15 0.763189 0.075878 0.986482
O O16 0.455205 0.231757 0.172373
O O17 0.500000 0.000000 0.500000
#
# Coordination Sequence:
#
# PCOD8012536 Si02
#       8
#     2   2   2   2   2   2   2   2
#     4  11  22  37  64  93 123 157 201 255 305 357
#     4  11  21  37  61  92 124 160 199 255 308 357
#     4  10  22  38  59  93 116 165 199 240 311 365
#     4   9  20  38  61  89 117 159 206 245 300 356
#     4  11  19  39  61  90 126 153 204 251 305 359
#     4  11  21  39  63  84 127 160 201 248 302 371
#     4  10  21  40  61  86 115 167 203 247 303 355
#     4   9  21  37  58  92 117 155 212 243 302 358
#
# _framework density 21.062099
#
# number of rings (size 3 to 8) (size 9 to 14) (size 15 to 20)
#    0.750    1.000    2.500    3.000    1.750    0.500 
#    0.000    6.250    0.000    0.000    0.000    0.000 
#    0.000    0.000    0.000    0.000    0.000    0.000 
#
# Total GULP energy -198234.588241 kJ/mol
# GULP energy per Si atom -12389.661765 kJ/mol
# Density = 2.101416 g / cm^3
# Si number density = 21.062099 Si / 1000 Ang^3
#
#
#
# Elastic Constant Matrix: (Units=GPa)
#
#
# Indices 1 2 3 4 5 6 
#
# 1 48.2845 18.8988 14.4115 -9.2926 -19.1302 3.0291
# 2 18.8988 110.9175 60.5748 -8.8660 3.7298 3.6519
# 3 14.4115 60.5748 150.3362 -0.4075 4.5570 7.6667
# 4 -9.2926 -8.8660 -0.4075 31.3731 4.6434 3.5004
# 5 -19.1302 3.7298 4.5570 4.6434 26.3074 1.3004
# 6 3.0291 3.6519 7.6667 3.5004 1.3004 21.4641
#
#
#
# Elastic Compliance Matrix: (Units=1/GPa)
#
#
# Indices 1 2 3 4 5 6 
#
# 1 0.034926 -0.005237 -0.001700 0.005696 0.025722 -0.005918
# 2 -0.005237 0.012748 -0.004467 0.002779 -0.005334 0.000036
# 3 -0.001700 -0.004467 0.008760 -0.001179 -0.001822 -0.001826
# 4 0.005696 0.002779 -0.001179 0.035348 -0.001965 -0.006501
# 5 0.025722 -0.005334 -0.001822 -0.001965 0.058397 -0.005289
# 6 -0.005918 0.000036 -0.001826 -0.006501 -0.005289 0.049451
#
#
# Mechanical properties :
#
#
# Convention : Reuss Voigt Hill
#
# Bulk Modulus (GPa) = 29.73978 55.25648 42.49813
# Shear Modulus (GPa) = 21.39973 30.20578 25.80276
#
# Velocity S-wave (km/s) = 3.19098 3.79110 3.50391
# Velocity P-wave (km/s) = 5.26566 6.74205 6.04907
#
# Compressibility (1/GPa) = 0.03362500
#
# Stress axis : x y z
#
# Youngs Moduli (GPa) = 28.63167 78.44408 114.15730
#
# Poissons Ratio (x) = 0.41082 0.19411
# Poissons Ratio (y) = 0.14995 0.50995
# Poissons Ratio (z) = 0.04868 0.35042
#
# Static dielectric constant tensor:
#      x y z
#    x 3.614750 0.135420 0.078880 
#    y 0.135420 3.683080 -0.025870 
#    z 0.078880 -0.025870 3.877540 
# 
# 
# High freq. dielectric constant tensor:
#      x y z
#    x 1.801490 0.012210 0.003590 
#    y 0.012210 1.813100 -0.000670 
#    z 0.003590 -0.000670 1.831800 
# 
# From -- ./inp_files/454475.got.cif
#   From: 2010.06.25/outbox.cif.g09.slc.cpg/sg2_228_cif.got.tgz:454475.got - 2010.06.27 13:26:56.
