data_PCOD8012628
_publ_section_title
;
Structure prediction by ZEFSAII (Michael W. Deem and Ramdas Pophale) SiO2 
 PCOD8012628
Probable space group: P -1
;
_chemical_formula_sum "Si O2"
_cell_formula_units_Z 16
_cell_length_a 9.628042
_cell_length_b 29.630382
_cell_length_c 5.915401
_cell_angle_alpha 129.964687
_cell_angle_beta 47.753884
_cell_angle_gamma 141.541629
_cell_volume 751.960020
_symmetry_space_group_name_H-M "P -1"
_symmetry_group_IT_number 2
_symmetry_cell_setting 'triclinic'
loop_
_space_group_symop_operation_xyz
x,y,z
-x,-y,-z
loop_
_atom_site_type_symbol
_atom_site_label
_atom_site_fract_x
_atom_site_fract_y
_atom_site_fract_z
Si Si1 0.115674 0.160232 0.746923
Si Si2 0.980798 0.544213 0.358180
Si Si3 0.982778 0.045062 0.852779
Si Si4 0.389046 0.591380 0.373690
Si Si5 0.271002 0.291187 0.286543
Si Si6 0.106865 0.795207 0.199441
Si Si7 0.168833 0.356394 0.232445
Si Si8 0.338924 0.101225 0.029530
O O1 0.276199 0.139781 0.402041
O O2 0.950434 0.101440 0.941842
O O3 0.947635 0.156282 0.727682
O O4 0.295843 0.244439 0.922529
O O5 0.771706 0.488231 0.582432
O O6 0.926383 0.596432 0.475648
O O7 0.233008 0.597116 0.382090
O O8 0.000000 0.500000 0.000000
O O9 0.762215 0.982947 0.055045
O O10 0.000000 0.000000 0.500000
O O11 0.227300 0.095805 0.892210
O O12 0.493601 0.659530 0.656158
O O13 0.605623 0.599919 0.042237
O O14 0.244343 0.348411 0.371740
O O15 0.038311 0.232591 0.499603
O O16 0.380150 0.848212 0.141814
O O17 0.042127 0.725314 0.898043
#
# Coordination Sequence:
#
# PCOD8012628 Si02
#       8
#     2   2   2   2   2   2   2   2
#     4  10  21  40  62  88 120 156 200 248 302 356
#     4  11  24  40  64  93 118 157 203 244 298 356
#     4   9  20  38  61  88 121 160 199 247 300 351
#     4  10  23  42  62  88 122 156 197 245 299 358
#     4  10  22  41  62  87 122 159 196 247 302 352
#     4  10  23  39  60  89 118 156 201 245 298 357
#     4  10  23  42  60  86 123 157 195 246 299 354
#     4  10  21  40  62  88 122 158 201 249 298 354
#
# _framework density 21.277728
#
# number of rings (size 3 to 8) (size 9 to 14) (size 15 to 20)
#    0.000    2.000    0.000    1.875    0.000   15.500 
#    0.000   11.250    0.000    0.000    0.000    0.000 
#    0.000    0.000    0.000    0.000    0.000    0.000 
#
# Total GULP energy -198408.521900 kJ/mol
# GULP energy per Si atom -12400.532619 kJ/mol
# Density = 2.122930 g / cm^3
# Si number density = 21.277728 Si / 1000 Ang^3
#
#
#
# Elastic Constant Matrix: (Units=GPa)
#
#
# Indices 1 2 3 4 5 6 
#
# 1 131.4046 65.6031 49.1913 6.2525 10.1472 -2.3124
# 2 65.6031 93.3946 18.4775 0.4541 -5.3123 9.2361
# 3 49.1913 18.4775 59.8585 16.1358 6.8346 2.8359
# 4 6.2525 0.4541 16.1358 28.6008 -3.5159 0.6458
# 5 10.1472 -5.3123 6.8346 -3.5159 33.2493 5.5926
# 6 -2.3124 9.2361 2.8359 0.6458 5.5926 55.0381
#
#
#
# Elastic Compliance Matrix: (Units=1/GPa)
#
#
# Indices 1 2 3 4 5 6 
#
# 1 0.017557 -0.010780 -0.011202 0.001934 -0.005184 0.003628
# 2 -0.010780 0.018693 0.002021 0.001855 0.006798 -0.004406
# 3 -0.011202 0.002021 0.029776 -0.014789 -0.003640 -0.001801
# 4 0.001934 0.001855 -0.014789 0.043794 0.007502 -0.000744
# 5 -0.005184 0.006798 -0.003640 0.007502 0.035097 -0.004825
# 6 0.003628 -0.004406 -0.001801 -0.000744 -0.004825 0.019653
#
#
# Mechanical properties :
#
#
# Convention : Reuss Voigt Hill
#
# Bulk Modulus (GPa) = 38.30859 61.24461 49.77660
# Shear Modulus (GPa) = 23.45288 33.47003 28.46145
#
# Velocity S-wave (km/s) = 3.32358 3.97042 3.66131
# Velocity P-wave (km/s) = 5.72463 7.06151 6.42792
#
# Compressibility (1/GPa) = 0.02610380
#
# Stress axis : x y z
#
# Youngs Moduli (GPa) = 56.95585 53.49676 33.58440
#
# Poissons Ratio (x) = 0.57667 0.37623
# Poissons Ratio (y) = 0.61396 -0.06787
# Poissons Ratio (z) = 0.63805 -0.10811
#
# Static dielectric constant tensor:
#      x y z
#    x 3.967980 -0.259050 0.271610 
#    y -0.259050 4.207090 0.053150 
#    z 0.271610 0.053150 3.660610 
# 
# 
# High freq. dielectric constant tensor:
#      x y z
#    x 1.836740 -0.009780 0.023870 
#    y -0.009780 1.843820 0.007770 
#    z 0.023870 0.007770 1.823900 
# 
# From -- ./inp_files/12775.got.cif
#   From: 2010.06.25/outbox.cif.g09.slc.cpg/sg2_7_cif.got.tgz:12775.got - 2010.06.27 13:26:56.
