data_PCOD8012094
_publ_section_title
;
Structure prediction by ZEFSAII (Michael W. Deem and Ramdas Pophale) SiO2 
 PCOD8012094
Probable space group: P -1
;
_chemical_formula_sum "Si O2"
_cell_formula_units_Z 16
_cell_length_a 9.341161
_cell_length_b 16.863532
_cell_length_c 14.171433
_cell_angle_alpha 138.269304
_cell_angle_beta 132.705243
_cell_angle_gamma 30.716775
_cell_volume 754.579712
_symmetry_space_group_name_H-M "P -1"
_symmetry_group_IT_number 2
_symmetry_cell_setting 'triclinic'
loop_
_space_group_symop_operation_xyz
x,y,z
-x,-y,-z
loop_
_atom_site_type_symbol
_atom_site_label
_atom_site_fract_x
_atom_site_fract_y
_atom_site_fract_z
Si Si1 0.696651 0.490142 0.949876
Si Si2 0.722525 0.511389 0.201774
Si Si3 0.407236 0.858972 0.773303
Si Si4 0.857192 0.953129 0.653648
Si Si5 0.314282 0.166668 0.942369
Si Si6 0.689177 0.123045 0.927612
Si Si7 0.188523 0.327278 0.368145
Si Si8 0.655456 0.802647 0.487164
O O1 0.720263 0.500480 0.080574
O O2 0.503539 0.672253 0.971443
O O3 0.554230 0.422810 0.815442
O O4 0.013977 0.343998 0.923207
O O5 0.778671 0.622927 0.350705
O O6 0.992098 0.330601 0.214736
O O7 0.580681 0.718489 0.641256
O O8 0.156989 0.879728 0.705313
O O9 0.291286 0.038463 0.846806
O O10 0.600209 0.790960 0.891597
O O11 0.874461 0.804139 0.546991
O O12 0.703126 0.083114 0.788681
O O13 0.663649 0.050493 0.561503
O O14 0.539072 0.086288 0.888280
O O15 0.000000 0.000000 0.000000
O O16 0.355948 0.174884 0.384660
O O17 0.000000 0.500000 0.500000
#
# Coordination Sequence:
#
# PCOD8012094 Si02
#       8
#     2   2   2   2   2   2   2   2
#     4  11  23  39  69  97 136 172 220 281 342 397
#     4  10  21  39  66  94 128 173 221 272 332 392
#     4  11  23  40  68  99 135 172 232 272 340 399
#     4  11  23  41  66  95 132 180 222 281 326 401
#     4  11  24  40  66 104 139 172 216 289 336 406
#     4  12  25  41  67 102 133 177 221 280 349 400
#     4  10  22  41  65  92 132 180 222 276 323 398
#     4  10  22  42  63  91 131 178 226 267 326 393
#
# _framework density 21.203855999999998
#
# number of rings (size 3 to 8) (size 9 to 14) (size 15 to 20)
#    0.000    1.250    3.750    1.875    5.250    0.500 
#    0.000    7.500    0.000    0.000    0.000    0.000 
#    0.000    0.000    0.000    0.000    0.000    0.000 
#
# Total GULP energy -198245.946535 kJ/mol
# GULP energy per Si atom -12390.371658 kJ/mol
# Density = 2.115560 g / cm^3
# Si number density = 21.203856 Si / 1000 Ang^3
#
#
#
# Elastic Constant Matrix: (Units=GPa)
#
#
# Indices 1 2 3 4 5 6 
#
# 1 126.6883 52.4820 53.1355 -14.9138 3.1451 -18.3071
# 2 52.4820 119.7959 43.5374 -18.9756 4.7431 -7.2831
# 3 53.1355 43.5374 81.0069 -8.7393 16.6162 -0.1911
# 4 -14.9138 -18.9756 -8.7393 35.6102 -1.0129 -4.6298
# 5 3.1451 4.7431 16.6162 -1.0129 40.6690 -5.8907
# 6 -18.3071 -7.2831 -0.1911 -4.6298 -5.8907 37.3113
#
#
#
# Elastic Compliance Matrix: (Units=1/GPa)
#
#
# Indices 1 2 3 4 5 6 
#
# 1 0.013537 -0.002133 -0.008074 0.003591 0.003633 0.007203
# 2 -0.002133 0.011766 -0.004656 0.004519 0.001091 0.001959
# 3 -0.008074 -0.004656 0.021734 -0.001598 -0.008668 -0.006326
# 4 0.003591 0.004519 -0.001598 0.032551 0.001664 0.006938
# 5 0.003633 0.001091 -0.008668 0.001664 0.028733 0.006694
# 6 0.007203 0.001959 -0.006326 0.006938 0.006694 0.032604
#
#
# Mechanical properties :
#
#
# Convention : Reuss Voigt Hill
#
# Bulk Modulus (GPa) = 57.76847 69.53345 63.65096
# Shear Modulus (GPa) = 28.34125 34.60716 31.47421
#
# Velocity S-wave (km/s) = 3.65993 4.04433 3.85692
# Velocity P-wave (km/s) = 6.72039 7.39411 7.06528
#
# Compressibility (1/GPa) = 0.01731048
#
# Stress axis : x y z
#
# Youngs Moduli (GPa) = 73.87223 84.99019 46.01155
#
# Poissons Ratio (x) = 0.18131 0.37148
# Poissons Ratio (y) = 0.15759 0.21423
# Poissons Ratio (z) = 0.59642 0.39572
#
# Static dielectric constant tensor:
#      x y z
#    x 4.103840 0.373470 -0.169590 
#    y 0.373470 4.322560 -0.466330 
#    z -0.169590 -0.466330 4.030280 
# 
# 
# High freq. dielectric constant tensor:
#      x y z
#    x 1.832820 0.010300 -0.002330 
#    y 0.010300 1.836520 -0.022150 
#    z -0.002330 -0.022150 1.826880 
# 
# From -- ./inp_files/507308.got.cif
#   From: 2010.06.25/outbox.cif.g09.slc.cpg/sg2_254_cif.got.tgz:507308.got - 2010.06.27 13:26:56.
