data_PCOD8012675
_publ_section_title
;
Structure prediction by ZEFSAII (Michael W. Deem and Ramdas Pophale) SiO2 
 PCOD8012675
Probable space group: P -1
;
_chemical_formula_sum "Si O2"
_cell_formula_units_Z 16
_cell_length_a 22.338415
_cell_length_b 8.955226
_cell_length_c 21.503042
_cell_angle_alpha 132.688626
_cell_angle_beta 18.243086
_cell_angle_gamma 142.153430
_cell_volume 766.047061
_symmetry_space_group_name_H-M "P -1"
_symmetry_group_IT_number 2
_symmetry_cell_setting 'triclinic'
loop_
_space_group_symop_operation_xyz
x,y,z
-x,-y,-z
loop_
_atom_site_type_symbol
_atom_site_label
_atom_site_fract_x
_atom_site_fract_y
_atom_site_fract_z
Si Si1 0.800620 0.563397 0.538028
Si Si2 0.748679 0.874029 0.063276
Si Si3 0.961699 0.954832 0.385087
Si Si4 0.793574 0.105483 0.396687
Si Si5 0.814939 0.514973 0.648981
Si Si6 0.578182 0.963608 0.705126
Si Si7 0.624780 0.123421 0.346509
Si Si8 0.071363 0.712170 0.102943
O O1 0.505124 0.408499 0.786126
O O2 0.852962 0.381164 0.403068
O O3 0.910700 0.634994 0.519167
O O4 0.946118 0.830358 0.430982
O O5 0.713855 0.963693 0.188814
O O6 0.967017 0.859947 0.848661
O O7 0.807131 0.091035 0.018733
O O8 0.974931 0.806300 0.274713
O O9 0.709985 0.917257 0.614473
O O10 0.196158 0.272389 0.244946
O O11 0.724160 0.020731 0.512986
O O12 0.565299 0.892185 0.517238
O O13 0.000000 0.500000 0.500000
O O14 0.575038 0.207326 0.793209
O O15 0.288459 0.713302 0.916935
O O16 0.852554 0.427185 0.214382
O O17 0.500000 0.000000 0.500000
#
# Coordination Sequence:
#
# PCOD8012675 Si02
#       8
#     2   2   2   2   2   2   2   2
#     4  10  21  41  61  95 131 156 202 259 302 355
#     4  11  22  40  67  88 120 169 204 247 308 364
#     4  11  23  37  64  93 124 162 203 256 314 350
#     4  10  21  41  64  87 124 164 204 251 299 368
#     4   9  19  39  65  89 124 166 204 247 303 365
#     4  10  21  40  62  93 122 159 211 253 296 371
#     4  11  25  41  60  93 129 155 202 261 307 359
#     4  12  22  39  65  92 119 165 210 249 303 370
#
# _framework density 20.886447
#
# number of rings (size 3 to 8) (size 9 to 14) (size 15 to 20)
#    0.000    1.500    5.000    2.250    0.000    4.500 
#    0.000    0.000    0.000    6.000    0.000    0.000 
#    0.000    0.000    0.000    0.000    0.000    0.000 
#
# Total GULP energy -198305.035966 kJ/mol
# GULP energy per Si atom -12394.064748 kJ/mol
# Density = 2.083891 g / cm^3
# Si number density = 20.886447 Si / 1000 Ang^3
#
#
#
# Elastic Constant Matrix: (Units=GPa)
#
#
# Indices 1 2 3 4 5 6 
#
# 1 95.4758 38.0009 15.0360 0.8621 -13.5060 5.3459
# 2 38.0009 73.5695 33.4545 3.5362 -5.1995 8.7712
# 3 15.0360 33.4545 98.0264 16.0715 -22.5494 8.3405
# 4 0.8621 3.5362 16.0715 31.2672 -4.4028 -0.2061
# 5 -13.5060 -5.1995 -22.5494 -4.4028 24.4517 -2.4149
# 6 5.3459 8.7712 8.3405 -0.2061 -2.4149 32.2525
#
#
#
# Elastic Compliance Matrix: (Units=1/GPa)
#
#
# Indices 1 2 3 4 5 6 
#
# 1 0.014492 -0.007975 0.002419 0.000469 0.008603 -0.000212
# 2 -0.007975 0.020888 -0.007349 0.000641 -0.006919 -0.002972
# 3 0.002419 -0.007349 0.016638 -0.005842 0.013897 -0.001702
# 4 0.000469 0.000641 -0.005842 0.035120 0.001489 0.001594
# 5 0.008603 -0.006919 0.013897 0.001489 0.057377 0.001168
# 6 -0.000212 -0.002972 -0.001702 0.001594 0.001168 0.032386
#
#
# Mechanical properties :
#
#
# Convention : Reuss Voigt Hill
#
# Bulk Modulus (GPa) = 38.15718 48.89495 43.52607
# Shear Modulus (GPa) = 23.64669 29.63297 26.63983
#
# Velocity S-wave (km/s) = 3.36840 3.77074 3.57523
# Velocity P-wave (km/s) = 5.78245 6.51296 6.15855
#
# Compressibility (1/GPa) = 0.02620739
#
# Stress axis : x y z
#
# Youngs Moduli (GPa) = 69.00594 47.87387 60.10431
#
# Poissons Ratio (x) = 0.38177 -0.14538
# Poissons Ratio (y) = 0.55029 0.44172
# Poissons Ratio (z) = -0.16691 0.35184
#
# Static dielectric constant tensor:
#      x y z
#    x 3.961580 0.327420 -0.281360 
#    y 0.327420 5.307350 -1.734290 
#    z -0.281360 -1.734290 5.860980 
# 
# 
# High freq. dielectric constant tensor:
#      x y z
#    x 1.828570 0.010280 -0.010830 
#    y 0.010280 1.820190 0.000610 
#    z -0.010830 0.000610 1.799850 
# 
# From -- ./inp_files/201287.got.cif
#   From: 2010.06.25/outbox.cif.g09.slc.cpg/sg2_101_cif.got.tgz:201287.got - 2010.06.27 13:26:56.
