data_PCOD8012067
_publ_section_title
;
Structure prediction by ZEFSAII (Michael W. Deem and Ramdas Pophale) SiO2 
 PCOD8012067
Probable space group: P -1
;
_chemical_formula_sum "Si O2"
_cell_formula_units_Z 16
_cell_length_a 9.323747
_cell_length_b 12.334404
_cell_length_c 12.452468
_cell_angle_alpha 66.395141
_cell_angle_beta 133.805602
_cell_angle_gamma 131.149248
_cell_volume 774.228343
_symmetry_space_group_name_H-M "P -1"
_symmetry_group_IT_number 2
_symmetry_cell_setting 'triclinic'
loop_
_space_group_symop_operation_xyz
x,y,z
-x,-y,-z
loop_
_atom_site_type_symbol
_atom_site_label
_atom_site_fract_x
_atom_site_fract_y
_atom_site_fract_z
Si Si1 0.911723 0.739945 0.318412
Si Si2 0.435500 0.040688 0.784715
Si Si3 0.881281 0.126256 0.111519
Si Si4 0.086762 0.986854 0.164847
Si Si5 0.274810 0.564549 0.647519
Si Si6 0.322182 0.383461 0.325229
Si Si7 0.628004 0.154795 0.354398
Si Si8 0.615651 0.707329 0.383556
O O1 0.752040 0.574365 0.257878
O O2 0.802346 0.757213 0.363162
O O3 0.902623 0.825219 0.179563
O O4 0.191730 0.806282 0.468146
O O5 0.447930 0.175718 0.686263
O O6 0.280506 0.983582 0.834624
O O7 0.309446 0.902189 0.694891
O O8 0.713273 0.101479 0.932722
O O9 0.058363 0.295934 0.165520
O O10 0.077468 0.094370 0.196335
O O11 0.354928 0.024399 0.294070
O O12 0.000000 0.000000 0.000000
O O13 0.459199 0.611874 0.623688
O O14 0.367567 0.700248 0.722298
O O15 0.000000 0.500000 0.500000
O O16 0.382042 0.542867 0.308046
O O17 0.269113 0.297390 0.443551
#
# Coordination Sequence:
#
# PCOD8012067 Si02
#       8
#     2   2   2   2   2   2   2   2
#     4  10  22  40  64  91 123 162 204 255 310 363
#     4  11  24  39  63  92 125 165 208 250 303 367
#     4  11  23  41  61  88 128 169 203 251 306 361
#     4  12  23  41  62  91 126 162 205 257 305 368
#     4   9  20  39  61  89 127 156 198 253 312 363
#     4  10  21  39  66  90 125 162 203 254 308 361
#     4  11  22  38  65  96 119 157 208 256 310 362
#     4  10  22  40  63  95 123 161 206 255 303 366
#
# _framework density 20.665738000000001
#
# number of rings (size 3 to 8) (size 9 to 14) (size 15 to 20)
#    0.000    1.500    3.750    1.125    1.750    4.500 
#    0.000    0.625    5.500    0.000    0.000    0.000 
#    0.000    0.000    0.000    0.000    0.000    0.000 
#
# Total GULP energy -198255.452464 kJ/mol
# GULP energy per Si atom -12390.965779 kJ/mol
# Density = 2.061870 g / cm^3
# Si number density = 20.665738 Si / 1000 Ang^3
#
#
#
# Elastic Constant Matrix: (Units=GPa)
#
#
# Indices 1 2 3 4 5 6 
#
# 1 72.6191 41.9321 20.8196 -12.6991 -5.9176 -3.8825
# 2 41.9321 150.1750 56.6171 -8.7919 -19.1733 -15.1884
# 3 20.8196 56.6171 70.6137 -4.7276 -10.6357 4.0253
# 4 -12.6991 -8.7919 -4.7276 32.9412 4.6086 -3.0277
# 5 -5.9176 -19.1733 -10.6357 4.6086 23.8567 4.5898
# 6 -3.8825 -15.1884 4.0253 -3.0277 4.5898 42.7050
#
#
#
# Elastic Compliance Matrix: (Units=1/GPa)
#
#
# Indices 1 2 3 4 5 6 
#
# 1 0.017507 -0.003880 -0.001852 0.005649 -0.000862 0.000879
# 2 -0.003880 0.011627 -0.007779 0.000299 0.004067 0.004100
# 3 -0.001852 -0.007779 0.021845 -0.000753 0.004232 -0.005502
# 4 0.005649 0.000299 -0.000753 0.033675 -0.005914 0.003714
# 5 -0.000862 0.004067 0.004232 -0.005914 0.048906 -0.004706
# 6 0.000879 0.004100 -0.005502 0.003714 -0.004706 0.026242
#
#
# Mechanical properties :
#
#
# Convention : Reuss Voigt Hill
#
# Bulk Modulus (GPa) = 41.74419 59.12727 50.43573
# Shear Modulus (GPa) = 25.66592 31.50317 28.58455
#
# Velocity S-wave (km/s) = 3.52796 3.90861 3.72315
# Velocity P-wave (km/s) = 6.06951 7.00307 6.55294
#
# Compressibility (1/GPa) = 0.02395543
#
# Stress axis : x y z
#
# Youngs Moduli (GPa) = 57.12081 86.01034 45.77628
#
# Poissons Ratio (x) = 0.33376 0.08479
# Poissons Ratio (y) = 0.22165 0.35609
# Poissons Ratio (z) = 0.10580 0.66907
#
# Static dielectric constant tensor:
#      x y z
#    x 3.854180 -0.123470 0.086470 
#    y -0.123470 4.089450 0.075420 
#    z 0.086470 0.075420 3.476960 
# 
# 
# High freq. dielectric constant tensor:
#      x y z
#    x 1.816070 -0.001440 0.005490 
#    y -0.001440 1.823830 0.009710 
#    z 0.005490 0.009710 1.776830 
# 
# From -- ./inp_files/190900.got.cif
#   From: 2010.06.25/outbox.cif.g09.slc.cpg/sg2_96_cif.got.tgz:190900.got - 2010.06.27 13:26:56.
