data_PCOD8012790
_publ_section_title
;
Structure prediction by ZEFSAII (Michael W. Deem and Ramdas Pophale) SiO2 
 PCOD8012790
Probable space group: P -1
;
_chemical_formula_sum "Si O2"
_cell_formula_units_Z 14
_cell_length_a 11.511266
_cell_length_b 18.308517
_cell_length_c 13.835042
_cell_angle_alpha 160.913082
_cell_angle_beta 139.273946
_cell_angle_gamma 41.541865
_cell_volume 614.916261
_symmetry_space_group_name_H-M "P -1"
_symmetry_group_IT_number 2
_symmetry_cell_setting 'triclinic'
loop_
_space_group_symop_operation_xyz
x,y,z
-x,-y,-z
loop_
_atom_site_type_symbol
_atom_site_label
_atom_site_fract_x
_atom_site_fract_y
_atom_site_fract_z
Si Si1 0.951226 0.001779 0.359384
Si Si2 0.441348 0.712936 0.010406
Si Si3 0.678864 0.076276 0.608436
Si Si4 0.734701 0.310253 0.474476
Si Si5 0.178738 0.938370 0.972576
Si Si6 0.465545 0.222144 0.483061
Si Si7 0.364022 0.204153 0.054324
O O1 0.853011 0.246612 0.565632
O O2 0.000000 0.000000 0.500000
O O3 0.124642 0.920822 0.304850
O O4 0.808992 0.827581 0.029254
O O5 0.315770 0.819421 0.151680
O O6 0.625034 0.823708 0.263201
O O7 0.331341 0.767886 0.911319
O O8 0.485050 0.443572 0.710799
O O9 0.531797 0.242491 0.660722
O O10 0.849680 0.194634 0.310612
O O11 0.541293 0.220899 0.250332
O O12 0.693160 0.579199 0.778732
O O13 0.259955 0.168725 0.287463
O O14 0.000000 0.000000 0.000000
O O15 0.602677 0.013367 0.265703
#
# Coordination Sequence:
#
# PCOD8012790 Si02
#       7
#     2   2   2   2   2   2   2
#     4  12  24  41  65  97 129 166 216 270 320 386
#     4  10  22  40  67  87 130 171 210 267 320 382
#     4  10  22  41  60  97 126 166 214 262 326 380
#     4  10  24  43  66  89 134 173 211 265 323 384
#     4  10  22  40  63  97 123 163 219 267 318 381
#     4  10  21  40  63  92 127 169 215 259 323 385
#     4  10  23  44  63  94 128 175 215 258 325 385
#
# _framework density 22.767329
#
# number of rings (size 3 to 8) (size 9 to 14) (size 15 to 20)
#    0.000    1.714    1.429    1.714    0.000   10.286 
#    0.000    0.000    0.000    0.000    0.000    0.000 
#    0.000    0.000    0.000    0.000    0.000    0.000 
#
# Total GULP energy -173591.181844 kJ/mol
# GULP energy per Si atom -12399.370132 kJ/mol
# Density = 2.271551 g / cm^3
# Si number density = 22.767329 Si / 1000 Ang^3
#
#
#
# Elastic Constant Matrix: (Units=GPa)
#
#
# Indices 1 2 3 4 5 6 
#
# 1 136.6444 31.9765 46.9317 -7.6816 17.0075 -22.1927
# 2 31.9765 112.1527 37.0868 10.9716 -5.0870 14.4234
# 3 46.9317 37.0868 111.9721 23.5519 8.6780 -6.1466
# 4 -7.6816 10.9716 23.5519 27.3413 0.4465 5.7355
# 5 17.0075 -5.0870 8.6780 0.4465 30.7642 -8.0482
# 6 -22.1927 14.4234 -6.1466 5.7355 -8.0482 40.5923
#
#
#
# Elastic Compliance Matrix: (Units=1/GPa)
#
#
# Indices 1 2 3 4 5 6 
#
# 1 0.011461 -0.003264 -0.004737 0.007686 -0.004409 0.004748
# 2 -0.003264 0.011763 -0.002573 -0.002336 0.003094 -0.005410
# 3 -0.004737 -0.002573 0.014830 -0.013523 -0.001207 0.002241
# 4 0.007686 -0.002336 -0.013523 0.052415 -0.002888 -0.004994
# 5 -0.004409 0.003094 -0.001207 -0.002888 0.036891 0.004030
# 6 0.004748 -0.005410 0.002241 -0.004994 0.004030 0.030998
#
#
# Mechanical properties :
#
#
# Convention : Reuss Voigt Hill
#
# Bulk Modulus (GPa) = 59.15499 65.86211 62.50855
# Shear Modulus (GPa) = 27.00650 36.05782 31.53216
#
# Velocity S-wave (km/s) = 3.44786 3.98396 3.72556
# Velocity P-wave (km/s) = 6.47218 7.08193 6.78391
#
# Compressibility (1/GPa) = 0.01690474
#
# Stress axis : x y z
#
# Youngs Moduli (GPa) = 87.25210 85.01555 67.43245
#
# Poissons Ratio (x) = 0.27747 0.31943
# Poissons Ratio (y) = 0.28477 0.17353
# Poissons Ratio (z) = 0.41332 0.21878
#
# Static dielectric constant tensor:
#      x y z
#    x 4.290410 0.106880 0.350470 
#    y 0.106880 4.094260 -0.070140 
#    z 0.350470 -0.070140 4.057220 
# 
# 
# High freq. dielectric constant tensor:
#      x y z
#    x 1.909110 0.010810 0.016360 
#    y 0.010810 1.897560 -0.000520 
#    z 0.016360 -0.000520 1.883480 
# 
# From -- ./inp_files/523384.got.cif
#   From: 2010.06.25/outbox.cif.g09.slc.cpg/sg2_262_cif.got.tgz:523384.got - 2010.06.27 13:26:56.
