data_PCOD8012787
_publ_section_title
;
Structure prediction by ZEFSAII (Michael W. Deem and Ramdas Pophale) SiO2 
 PCOD8012787
Probable space group: P -1
;
_chemical_formula_sum "Si O2"
_cell_formula_units_Z 16
_cell_length_a 19.460959
_cell_length_b 24.393246
_cell_length_c 7.816362
_cell_angle_alpha 37.359033
_cell_angle_beta 133.141257
_cell_angle_gamma 159.453427
_cell_volume 757.695826
_symmetry_space_group_name_H-M "P -1"
_symmetry_group_IT_number 2
_symmetry_cell_setting 'triclinic'
loop_
_space_group_symop_operation_xyz
x,y,z
-x,-y,-z
loop_
_atom_site_type_symbol
_atom_site_label
_atom_site_fract_x
_atom_site_fract_y
_atom_site_fract_z
Si Si1 0.696935 0.152393 0.792236
Si Si2 0.206008 0.699011 0.764732
Si Si3 0.563126 0.527982 0.778682
Si Si4 0.331450 0.486124 0.676611
Si Si5 0.860745 0.079429 0.801065
Si Si6 0.786103 0.827330 0.155416
Si Si7 0.302308 0.908178 0.710797
Si Si8 0.528193 0.844812 0.077000
O O1 0.837464 0.300464 0.502577
O O2 0.540573 0.102521 0.686178
O O3 0.819558 0.239136 0.965784
O O4 0.572971 0.953306 0.036734
O O5 0.298307 0.856377 0.647685
O O6 0.360049 0.745003 0.908843
O O7 0.000000 0.500000 0.000000
O O8 0.457853 0.532578 0.644024
O O9 0.735453 0.697653 0.509941
O O10 0.391413 0.315530 0.934588
O O11 0.676643 0.572611 0.011700
O O12 0.437303 0.673306 0.417113
O O13 0.100986 0.301678 0.676844
O O14 0.783420 0.064889 0.533601
O O15 0.799304 0.923992 0.060655
O O16 0.743422 0.013066 0.933211
O O17 0.000000 0.000000 0.000000
#
# Coordination Sequence:
#
# PCOD8012787 Si02
#       8
#     2   2   2   2   2   2   2   2
#     4  10  21  40  64  91 128 176 212 258 332 382
#     4  11  21  40  65  92 136 171 213 266 328 386
#     4  10  24  44  62  92 131 162 218 274 323 397
#     4  11  24  41  64  96 122 168 220 265 332 389
#     4  12  22  40  67  95 127 172 222 266 328 389
#     4  11  23  43  66  92 129 173 209 272 336 383
#     4  10  21  40  63  92 126 169 218 263 315 390
#     4  11  22  40  64  93 131 171 213 274 318 388
#
# _framework density 21.116652999999999
#
# number of rings (size 3 to 8) (size 9 to 14) (size 15 to 20)
#    0.000    1.250    5.000    1.500    1.750    2.000 
#    0.000    0.000    0.000    0.000    0.000    0.000 
#    0.000    0.000    0.000    0.000    0.000    0.000 
#
# Total GULP energy -198293.671058 kJ/mol
# GULP energy per Si atom -12393.354441 kJ/mol
# Density = 2.106859 g / cm^3
# Si number density = 21.116653 Si / 1000 Ang^3
#
#
#
# Elastic Constant Matrix: (Units=GPa)
#
#
# Indices 1 2 3 4 5 6 
#
# 1 81.6500 23.3454 40.0516 3.6917 -15.1823 5.1511
# 2 23.3454 77.6352 50.7936 -1.0582 -6.7073 14.3956
# 3 40.0516 50.7936 120.4140 2.9314 -16.3070 9.6544
# 4 3.6917 -1.0582 2.9314 31.6174 -6.2512 -7.2370
# 5 -15.1823 -6.7073 -16.3070 -6.2512 43.8714 3.0229
# 6 5.1511 14.3956 9.6544 -7.2370 3.0229 26.3171
#
#
#
# Elastic Compliance Matrix: (Units=1/GPa)
#
#
# Indices 1 2 3 4 5 6 
#
# 1 0.015383 -0.001550 -0.003828 -0.001119 0.003606 -0.001480
# 2 -0.001550 0.019400 -0.006986 -0.000253 0.000338 -0.007854
# 3 -0.003828 -0.006986 0.012909 -0.000659 0.002354 -0.000617
# 4 -0.001119 -0.000253 -0.000659 0.034755 0.003610 0.009742
# 5 0.003606 0.000338 0.002354 0.003610 0.025739 -0.003718
# 6 -0.001480 -0.007854 -0.000617 0.009742 -0.003718 0.045916
#
#
# Mechanical properties :
#
#
# Convention : Reuss Voigt Hill
#
# Bulk Modulus (GPa) = 43.54895 56.45336 50.00115
# Shear Modulus (GPa) = 26.81169 31.39508 29.10339
#
# Velocity S-wave (km/s) = 3.56714 3.86002 3.71647
# Velocity P-wave (km/s) = 6.13464 6.83069 6.49200
#
# Compressibility (1/GPa) = 0.02296267
#
# Stress axis : x y z
#
# Youngs Moduli (GPa) = 65.00630 51.54741 77.46382
#
# Poissons Ratio (x) = 0.07991 0.29657
# Poissons Ratio (y) = 0.10077 0.54116
# Poissons Ratio (z) = 0.24888 0.36011
#
# Static dielectric constant tensor:
#      x y z
#    x 6.688700 0.363460 1.979630 
#    y 0.363460 3.457080 0.242870 
#    z 1.979630 0.242870 5.218450 
# 
# 
# High freq. dielectric constant tensor:
#      x y z
#    x 1.832400 0.001320 -0.009260 
#    y 0.001320 1.808430 0.004660 
#    z -0.009260 0.004660 1.834450 
# 
# From -- ./inp_files/350228.got.cif
#   From: 2010.06.25/outbox.cif.g09.slc.cpg/sg2_176_cif.got.tgz:350228.got - 2010.06.27 13:26:56.
