data_PCOD8012281
_publ_section_title
;
Structure prediction by ZEFSAII (Michael W. Deem and Ramdas Pophale) SiO2 
 PCOD8012281
Probable space group: P -1
;
_chemical_formula_sum "Si O2"
_cell_formula_units_Z 16
_cell_length_a 19.451346
_cell_length_b 22.536111
_cell_length_c 13.923594
_cell_angle_alpha 161.198192
_cell_angle_beta 30.538432
_cell_angle_gamma 157.450206
_cell_volume 750.199908
_symmetry_space_group_name_H-M "P -1"
_symmetry_group_IT_number 2
_symmetry_cell_setting 'triclinic'
loop_
_space_group_symop_operation_xyz
x,y,z
-x,-y,-z
loop_
_atom_site_type_symbol
_atom_site_label
_atom_site_fract_x
_atom_site_fract_y
_atom_site_fract_z
Si Si1 0.915554 0.123664 0.295627
Si Si2 0.184448 0.748122 0.695006
Si Si3 0.594796 0.901157 0.206440
Si Si4 0.749463 0.519291 0.670768
Si Si5 0.048536 0.989342 0.287515
Si Si6 0.842713 0.978116 0.363207
Si Si7 0.703040 0.672811 0.332533
Si Si8 0.441803 0.148014 0.335243
O O1 0.057820 0.370333 0.439767
O O2 0.718557 0.946261 0.214280
O O3 0.897196 0.160674 0.487667
O O4 0.000000 0.000000 0.000000
O O5 0.301011 0.691929 0.518747
O O6 0.000000 0.500000 0.500000
O O7 0.289769 0.951523 0.799019
O O8 0.139584 0.873230 0.012074
O O9 0.500000 0.000000 0.500000
O O10 0.445907 0.617007 0.924543
O O11 0.607223 0.399253 0.572254
O O12 0.743532 0.708374 0.023939
O O13 0.028050 0.070081 0.331869
O O14 0.839083 0.767105 0.225227
O O15 0.170986 0.228229 0.573143
O O16 0.722089 0.991194 0.602424
O O17 0.607120 0.782696 0.596252
O O18 0.500000 0.000000 0.000000
#
# Coordination Sequence:
#
# PCOD8012281 Si02
#       8
#     2   2   2   2   2   2   2   2
#     4  10  21  41  64  96 130 173 221 275 339 388
#     4  12  21  39  64  97 129 169 223 267 333 400
#     4  12  26  40  65 102 136 171 224 282 331 390
#     4  11  22  39  68  94 131 171 223 278 326 404
#     4  10  21  41  67  93 126 178 216 264 342 403
#     4  10  21  39  68  95 126 173 225 272 336 397
#     4  10  23  43  65  93 138 173 218 276 334 404
#     4  11  24  42  64  98 133 176 225 275 338 405
#
# _framework density 21.327648
#
# number of rings (size 3 to 8) (size 9 to 14) (size 15 to 20)
#    0.000    1.250    2.500    4.125    3.500    0.500 
#    0.000    1.875    0.000    0.000    0.000    0.000 
#    0.000    0.000    0.000    0.000    0.000    0.000 
#
# Total GULP energy -198252.758919 kJ/mol
# GULP energy per Si atom -12390.797432 kJ/mol
# Density = 2.127911 g / cm^3
# Si number density = 21.327648 Si / 1000 Ang^3
#
#
#
# Elastic Constant Matrix: (Units=GPa)
#
#
# Indices 1 2 3 4 5 6 
#
# 1 130.7453 44.2052 35.4336 9.1404 4.0647 1.8548
# 2 44.2052 91.1492 44.0640 7.5608 -1.4731 3.5949
# 3 35.4336 44.0640 88.5155 -15.1379 -7.0020 -7.2278
# 4 9.1404 7.5608 -15.1379 39.8068 4.8124 -2.6699
# 5 4.0647 -1.4731 -7.0020 4.8124 33.0626 1.2964
# 6 1.8548 3.5949 -7.2278 -2.6699 1.2964 33.7560
#
#
#
# Elastic Compliance Matrix: (Units=1/GPa)
#
#
# Indices 1 2 3 4 5 6 
#
# 1 0.009751 -0.002996 -0.003085 -0.002725 -0.001548 -0.001033
# 2 -0.002996 0.017385 -0.008838 -0.006291 0.000347 -0.004090
# 3 -0.003085 -0.008838 0.019287 0.009828 0.002407 0.005925
# 4 -0.002725 -0.006291 0.009828 0.031369 -0.002646 0.005507
# 5 -0.001548 0.000347 0.002407 -0.002646 0.031380 -0.000851
# 6 -0.001033 -0.004090 0.005925 0.005507 -0.000851 0.031854
#
#
# Mechanical properties :
#
#
# Convention : Reuss Voigt Hill
#
# Bulk Modulus (GPa) = 60.29201 61.97950 61.13575
# Shear Modulus (GPa) = 28.34626 33.77221 31.05923
#
# Velocity S-wave (km/s) = 3.64962 3.98363 3.82028
# Velocity P-wave (km/s) = 6.78899 7.09104 6.94166
#
# Compressibility (1/GPa) = 0.01658595
#
# Stress axis : x y z
#
# Youngs Moduli (GPa) = 102.55684 57.52063 51.84871
#
# Poissons Ratio (x) = 0.17232 0.15995
# Poissons Ratio (y) = 0.30723 0.45822
# Poissons Ratio (z) = 0.31638 0.50835
#
# Static dielectric constant tensor:
#      x y z
#    x 4.549380 -0.519590 -0.046500 
#    y -0.519590 4.972140 -0.230400 
#    z -0.046500 -0.230400 3.780350 
# 
# 
# High freq. dielectric constant tensor:
#      x y z
#    x 1.858110 0.005500 -0.001950 
#    y 0.005500 1.835260 -0.009600 
#    z -0.001950 -0.009600 1.814130 
# 
# From -- ./inp_files/541775.got.cif
#   From: 2010.06.25/outbox.cif.g09.slc.cpg/sg2_271_cif.got.tgz:541775.got - 2010.06.27 13:26:56.
