data_PCOD8012303
_publ_section_title
;
Structure prediction by ZEFSAII (Michael W. Deem and Ramdas Pophale) SiO2 
 PCOD8012303
Probable space group: P -1
;
_chemical_formula_sum "Si O2"
_cell_formula_units_Z 16
_cell_length_a 16.419131
_cell_length_b 5.119651
_cell_length_c 13.355054
_cell_angle_alpha 92.914304
_cell_angle_beta 135.052943
_cell_angle_gamma 65.445449
_cell_volume 667.665458
_symmetry_space_group_name_H-M "P -1"
_symmetry_group_IT_number 2
_symmetry_cell_setting 'triclinic'
loop_
_space_group_symop_operation_xyz
x,y,z
-x,-y,-z
loop_
_atom_site_type_symbol
_atom_site_label
_atom_site_fract_x
_atom_site_fract_y
_atom_site_fract_z
Si Si1 0.128495 0.210680 0.055257
Si Si2 0.373538 0.136470 0.162866
Si Si3 0.781929 0.028991 0.668741
Si Si4 0.404422 0.921294 0.974847
Si Si5 0.932945 0.324183 0.724798
Si Si6 0.326677 0.655898 0.743646
Si Si7 0.547663 0.422664 0.343153
Si Si8 0.065971 0.664756 0.505554
O O1 0.196166 0.938125 0.192737
O O2 0.240281 0.285621 0.119249
O O3 0.000000 0.500000 0.000000
O O4 0.074446 0.131419 0.907246
O O5 0.328967 0.146220 0.007913
O O6 0.487448 0.789817 0.293662
O O7 0.426686 0.365474 0.220864
O O8 0.830492 0.674504 0.681005
O O9 0.865099 0.126544 0.674362
O O10 0.621240 0.267808 0.509776
O O11 0.511049 0.586998 0.108032
O O12 0.291815 0.916102 0.804212
O O13 0.500000 0.000000 0.000000
O O14 0.968089 0.327148 0.639966
O O15 0.327258 0.769024 0.633250
O O16 0.229792 0.515679 0.664361
O O17 0.000000 0.500000 0.500000
O O18 0.000000 0.000000 0.500000
#
# Coordination Sequence:
#
# PCOD8012303 Si02
#       8
#     2   2   2   2   2   2   2   2
#     4  10  26  48  71 101 141 187 237 295 354 410
#     4  11  25  41  68 105 138 177 236 287 350 425
#     4  11  23  44  74  96 132 185 235 288 356 414
#     4  10  21  39  68  98 136 186 225 286 348 417
#     4  11  24  45  70  98 136 190 233 282 349 424
#     4  10  23  41  64  96 141 180 229 280 353 411
#     4  11  23  42  70 101 134 179 228 292 352 418
#     4  12  28  43  67 106 140 186 232 285 346 426
#
# _framework density 23.964099999999998
#
# number of rings (size 3 to 8) (size 9 to 14) (size 15 to 20)
#    0.000    1.250    2.500    1.875    5.250    5.000 
#    0.000    0.000    0.000    0.000    0.000    0.000 
#    0.000    0.000    0.000    0.000    0.000    0.000 
#
# Total GULP energy -198299.580923 kJ/mol
# GULP energy per Si atom -12393.723808 kJ/mol
# Density = 2.390956 g / cm^3
# Si number density = 23.964100 Si / 1000 Ang^3
#
#
#
# Elastic Constant Matrix: (Units=GPa)
#
#
# Indices 1 2 3 4 5 6 
#
# 1 170.0639 23.6496 54.9359 12.0004 0.2988 12.6490
# 2 23.6496 55.9302 13.2029 7.6215 -0.6178 15.0240
# 3 54.9359 13.2029 137.7541 24.9857 -8.3221 0.9663
# 4 12.0004 7.6215 24.9857 24.3427 3.1114 3.9988
# 5 0.2988 -0.6178 -8.3221 3.1114 40.0486 5.0001
# 6 12.6490 15.0240 0.9663 3.9988 5.0001 36.3856
#
#
#
# Elastic Compliance Matrix: (Units=1/GPa)
#
#
# Indices 1 2 3 4 5 6 
#
# 1 0.007134 -0.001996 -0.002707 0.000200 -0.000470 -0.001541
# 2 -0.001996 0.021540 -0.000332 -0.004320 0.001605 -0.007937
# 3 -0.002707 -0.000332 0.010287 -0.009713 0.002720 0.001499
# 4 0.000200 -0.004320 -0.009713 0.053564 -0.005860 -0.003109
# 5 -0.000470 0.001605 0.002720 -0.005860 0.026463 -0.003564
# 6 -0.001541 -0.007937 0.001499 -0.003109 -0.003564 0.032088
#
#
# Mechanical properties :
#
#
# Convention : Reuss Voigt Hill
#
# Bulk Modulus (GPa) = 34.61489 60.81388 47.71439
# Shear Modulus (GPa) = 29.27799 38.28604 33.78201
#
# Velocity S-wave (km/s) = 3.49914 4.00139 3.75866
# Velocity P-wave (km/s) = 5.54988 6.83961 6.22822
#
# Compressibility (1/GPa) = 0.02888930
#
# Stress axis : x y z
#
# Youngs Moduli (GPa) = 140.18160 46.42458 97.21456
#
# Poissons Ratio (x) = 0.09265 0.26321
# Poissons Ratio (y) = 0.27976 0.03231
# Poissons Ratio (z) = 0.37954 0.01543
#
# Static dielectric constant tensor:
#      x y z
#    x 4.391050 0.093650 -0.614670 
#    y 0.093650 4.246990 -0.163920 
#    z -0.614670 -0.163920 9.387850 
# 
# 
# High freq. dielectric constant tensor:
#      x y z
#    x 1.954630 0.009790 -0.011450 
#    y 0.009790 1.926060 0.009740 
#    z -0.011450 0.009740 1.968630 
# 
# From -- ./inp_files/441992.got.cif
#   From: 2010.06.25/outbox.cif.g09.slc.cpg/sg2_221_cif.got.tgz:441992.got - 2010.06.27 13:26:56.
