data_PCOD8012427
_publ_section_title
;
Structure prediction by ZEFSAII (Michael W. Deem and Ramdas Pophale) SiO2 
 PCOD8012427
Probable space group: P -1
;
_chemical_formula_sum "Si O2"
_cell_formula_units_Z 16
_cell_length_a 12.653171
_cell_length_b 15.118997
_cell_length_c 13.969187
_cell_angle_alpha 51.121774
_cell_angle_beta 69.814838
_cell_angle_gamma 27.003940
_cell_volume 751.440681
_symmetry_space_group_name_H-M "P -1"
_symmetry_group_IT_number 2
_symmetry_cell_setting 'triclinic'
loop_
_space_group_symop_operation_xyz
x,y,z
-x,-y,-z
loop_
_atom_site_type_symbol
_atom_site_label
_atom_site_fract_x
_atom_site_fract_y
_atom_site_fract_z
Si Si1 0.172847 0.340984 0.456854
Si Si2 0.089784 0.787736 0.917810
Si Si3 0.099495 0.181370 0.864521
Si Si4 0.439352 0.796163 0.313161
Si Si5 0.933482 0.813232 0.467698
Si Si6 0.734580 0.132375 0.141185
Si Si7 0.382298 0.229975 0.907648
Si Si8 0.245607 0.109847 0.345383
O O1 0.096323 0.296080 0.457761
O O2 0.000000 0.500000 0.500000
O O3 0.081402 0.535590 0.290774
O O4 0.517522 0.027580 0.585843
O O5 0.088224 0.915611 0.873664
O O6 0.399780 0.469706 0.986961
O O7 0.844053 0.012920 0.757867
O O8 0.033722 0.752172 0.044832
O O9 0.090154 0.106468 0.827659
O O10 0.440915 0.890959 0.972772
O O11 0.554290 0.753860 0.214163
O O12 0.735774 0.449823 0.481744
O O13 0.367869 0.945504 0.321007
O O14 0.835350 0.920547 0.536655
O O15 0.721058 0.079808 0.282997
O O16 0.039004 0.549950 0.822666
O O17 0.500000 0.000000 0.000000
#
# Coordination Sequence:
#
# PCOD8012427 Si02
#       8
#     2   2   2   2   2   2   2   2
#     4  12  22  39  61  92 122 154 199 241 295 358
#     4  10  24  40  61  88 115 155 202 247 293 352
#     4  11  21  41  63  85 123 156 193 246 299 351
#     4  10  21  40  57  83 120 153 200 243 294 354
#     4  11  23  39  60  91 121 155 199 243 293 359
#     4  11  22  40  62  88 117 152 203 247 295 349
#     4  10  23  37  56  90 121 157 203 238 288 363
#     4  11  22  38  60  82 124 163 189 244 301 345
#
# _framework density 21.292432000000002
#
# number of rings (size 3 to 8) (size 9 to 14) (size 15 to 20)
#    0.000    1.250    2.500    3.750    0.000    3.000 
#    0.000    0.625    0.000    0.000    0.000    0.000 
#    0.000    0.000    0.000    0.000    0.000    0.000 
#
# Total GULP energy -198356.735895 kJ/mol
# GULP energy per Si atom -12397.295993 kJ/mol
# Density = 2.124397 g / cm^3
# Si number density = 21.292432 Si / 1000 Ang^3
#
#
#
# Elastic Constant Matrix: (Units=GPa)
#
#
# Indices 1 2 3 4 5 6 
#
# 1 92.9901 7.4104 47.3163 -10.8369 12.4669 -15.4617
# 2 7.4104 50.4764 14.2977 -21.0649 8.8376 -8.9463
# 3 47.3163 14.2977 84.3972 -17.4671 11.5929 -7.9957
# 4 -10.8369 -21.0649 -17.4671 32.4263 -11.5006 9.4937
# 5 12.4669 8.8376 11.5929 -11.5006 39.2763 -6.8783
# 6 -15.4617 -8.9463 -7.9957 9.4937 -6.8783 27.1836
#
#
#
# Elastic Compliance Matrix: (Units=1/GPa)
#
#
# Indices 1 2 3 4 5 6 
#
# 1 0.016385 0.001141 -0.008691 -0.001250 -0.002021 0.007064
# 2 0.001141 0.027578 -0.001529 0.016196 -0.000774 0.003423
# 3 -0.008691 -0.001529 0.018167 0.006327 -0.000850 -0.002528
# 4 -0.001250 0.016196 0.006327 0.049757 0.007896 -0.008899
# 5 -0.002021 -0.000774 -0.000850 0.007896 0.029368 0.003019
# 6 0.007064 0.003423 -0.002528 -0.008899 0.003019 0.045059
#
#
# Mechanical properties :
#
#
# Convention : Reuss Voigt Hill
#
# Bulk Modulus (GPa) = 22.74196 40.65692 31.69944
# Shear Modulus (GPa) = 22.81743 30.36652 26.59198
#
# Velocity S-wave (km/s) = 3.27711 3.78056 3.53780
# Velocity P-wave (km/s) = 5.00233 6.18003 5.62210
#
# Compressibility (1/GPa) = 0.04397158
#
# Stress axis : x y z
#
# Youngs Moduli (GPa) = 61.03107 36.26060 55.04476
#
# Poissons Ratio (x) = -0.04136 0.47840
# Poissons Ratio (y) = -0.06961 0.08415
# Poissons Ratio (z) = 0.53043 0.05543
#
# Static dielectric constant tensor:
#      x y z
#    x 3.900670 -0.199840 0.290530 
#    y -0.199840 3.786220 -0.441110 
#    z 0.290530 -0.441110 3.916020 
# 
# 
# High freq. dielectric constant tensor:
#      x y z
#    x 1.821180 -0.004330 0.022190 
#    y -0.004330 1.843940 -0.006570 
#    z 0.022190 -0.006570 1.844010 
# 
# From -- ./inp_files/522341.got.cif
#   From: 2010.06.25/outbox.cif.g09.slc.cpg/sg2_262_cif.got.tgz:522341.got - 2010.06.27 13:26:56.
