data_PCOD8012614
_publ_section_title
;
Structure prediction by ZEFSAII (Michael W. Deem and Ramdas Pophale) SiO2 
 PCOD8012614
Probable space group: P -1
;
_chemical_formula_sum "Si O2"
_cell_formula_units_Z 16
_cell_length_a 9.006745
_cell_length_b 15.777669
_cell_length_c 10.315797
_cell_angle_alpha 113.790221
_cell_angle_beta 41.082983
_cell_angle_gamma 131.453023
_cell_volume 708.288728
_symmetry_space_group_name_H-M "P -1"
_symmetry_group_IT_number 2
_symmetry_cell_setting 'triclinic'
loop_
_space_group_symop_operation_xyz
x,y,z
-x,-y,-z
loop_
_atom_site_type_symbol
_atom_site_label
_atom_site_fract_x
_atom_site_fract_y
_atom_site_fract_z
Si Si1 0.708045 0.078232 0.027386
Si Si2 0.826487 0.568211 0.346400
Si Si3 0.677085 0.250651 0.018360
Si Si4 0.185807 0.266300 0.360699
Si Si5 0.310928 0.208614 0.782274
Si Si6 0.414578 0.877933 0.272577
Si Si7 0.732858 0.633659 0.900245
Si Si8 0.156771 0.588475 0.569685
O O1 0.026328 0.114329 0.831926
O O2 0.733020 0.195135 0.067538
O O3 0.500000 0.000000 0.000000
O O4 0.588178 0.013482 0.204609
O O5 0.500000 0.500000 0.500000
O O6 0.905197 0.673670 0.447421
O O7 0.883915 0.484511 0.323457
O O8 0.029049 0.621343 0.119002
O O9 0.421655 0.251442 0.242750
O O10 0.595987 0.182894 0.893171
O O11 0.323924 0.343471 0.191306
O O12 0.869355 0.147693 0.490336
O O13 0.431523 0.146693 0.735066
O O14 0.520867 0.310504 0.608418
O O15 0.249797 0.272126 0.966471
O O16 0.031661 0.657660 0.726062
O O17 0.500000 0.500000 0.000000
O O18 0.000000 0.500000 0.500000
#
# Coordination Sequence:
#
# PCOD8012614 Si02
#       8
#     2   2   2   2   2   2   2   2
#     4  10  24  44  66  90 122 172 214 262 318 366
#     4  11  23  37  58  90 127 168 206 247 309 381
#     4  10  21  40  62  86 125 161 204 258 314 371
#     4  11  21  38  62  87 124 162 204 261 313 366
#     4  12  22  40  66  95 129 161 212 262 310 377
#     4  10  21  41  65  90 116 160 215 261 312 363
#     4  12  22  35  63  98 127 162 201 254 316 375
#     4  12  21  38  62  95 129 165 204 253 315 376
#
# _framework density 22.589659999999999
#
# number of rings (size 3 to 8) (size 9 to 14) (size 15 to 20)
#    0.000    1.000    5.000    2.625    0.000    2.000 
#    0.000    3.125    0.000    0.000    0.000    0.000 
#    0.000    0.000    0.000    0.000    0.000    0.000 
#
# Total GULP energy -198213.382011 kJ/mol
# GULP energy per Si atom -12388.336376 kJ/mol
# Density = 2.253824 g / cm^3
# Si number density = 22.589660 Si / 1000 Ang^3
#
#
#
# Elastic Constant Matrix: (Units=GPa)
#
#
# Indices 1 2 3 4 5 6 
#
# 1 82.6981 42.9545 32.4778 -18.8588 -22.2900 -22.6005
# 2 42.9545 74.1214 51.3575 -32.8176 2.5670 -33.0501
# 3 32.4778 51.3575 139.2912 -25.1778 -24.5636 -13.4357
# 4 -18.8588 -32.8176 -25.1778 50.7669 -1.1967 -1.0726
# 5 -22.2900 2.5670 -24.5636 -1.1967 38.3344 -6.4015
# 6 -22.6005 -33.0501 -13.4357 -1.0726 -6.4015 46.2697
#
#
#
# Elastic Compliance Matrix: (Units=1/GPa)
#
#
# Indices 1 2 3 4 5 6 
#
# 1 0.025399 -0.013851 0.003708 0.002907 0.019218 0.006315
# 2 -0.013851 0.051001 -0.011641 0.022243 -0.014084 0.024851
# 3 0.003708 -0.011641 0.012383 0.000215 0.010639 -0.001431
# 4 0.002907 0.022243 0.000215 0.035770 0.004600 0.018836
# 5 0.019218 -0.014084 0.010639 0.004600 0.046663 0.008979
# 6 0.006315 0.024851 -0.001431 0.018836 0.008979 0.043711
#
#
# Mechanical properties :
#
#
# Convention : Reuss Voigt Hill
#
# Bulk Modulus (GPa) = 22.11589 61.07671 41.59630
# Shear Modulus (GPa) = 18.27711 38.36226 28.31968
#
# Velocity S-wave (km/s) = 2.84754 4.12542 3.54454
# Velocity P-wave (km/s) = 4.54124 7.05608 5.93343
#
# Compressibility (1/GPa) = 0.04521636
#
# Stress axis : x y z
#
# Youngs Moduli (GPa) = 39.37187 19.60753 80.75331
#
# Poissons Ratio (x) = 0.27159 -0.29947
# Poissons Ratio (y) = 0.54534 0.94003
# Poissons Ratio (z) = -0.14601 0.22825
#
# Static dielectric constant tensor:
#      x y z
#    x 4.858110 0.572360 -0.706170 
#    y 0.572360 5.157620 -1.111980 
#    z -0.706170 -1.111980 4.818990 
# 
# 
# High freq. dielectric constant tensor:
#      x y z
#    x 1.884890 -0.025970 -0.016460 
#    y -0.025970 1.884400 -0.024100 
#    z -0.016460 -0.024100 1.901260 
# 
# From -- ./inp_files/269686.got.cif
#   From: 2010.06.25/outbox.cif.g09.slc.cpg/sg2_135_cif.got.tgz:269686.got - 2010.06.27 13:26:56.
