data_PCOD8012856
_publ_section_title
;
Structure prediction by ZEFSAII (Michael W. Deem and Ramdas Pophale) SiO2 
 PCOD8012856
Probable space group: P -1
;
_chemical_formula_sum "Si O2"
_cell_formula_units_Z 14
_cell_length_a 5.004287
_cell_length_b 14.548125
_cell_length_c 11.810565
_cell_angle_alpha 121.337598
_cell_angle_beta 119.393677
_cell_angle_gamma 77.251538
_cell_volume 639.175024
_symmetry_space_group_name_H-M "P -1"
_symmetry_group_IT_number 2
_symmetry_cell_setting 'triclinic'
loop_
_space_group_symop_operation_xyz
x,y,z
-x,-y,-z
loop_
_atom_site_type_symbol
_atom_site_label
_atom_site_fract_x
_atom_site_fract_y
_atom_site_fract_z
Si Si1 0.521392 0.669007 0.539706
Si Si2 0.339000 0.893867 0.038940
Si Si3 0.065353 0.475306 0.334259
Si Si4 0.641181 0.545953 0.849319
Si Si5 0.604399 0.309821 0.725494
Si Si6 0.740808 0.743479 0.160079
Si Si7 0.652098 0.864291 0.852139
O O1 0.207284 0.597342 0.446496
O O2 0.807738 0.597413 0.585395
O O3 0.548558 0.706571 0.439475
O O4 0.515174 0.774351 0.682357
O O5 0.571320 0.847278 0.148018
O O6 0.347506 0.022092 0.140723
O O7 0.428342 0.862557 0.910947
O O8 0.995619 0.842811 0.953612
O O9 0.148375 0.422888 0.195733
O O10 0.705060 0.478706 0.282069
O O11 0.741984 0.433261 0.853004
O O12 0.637819 0.641322 0.998026
O O13 0.344170 0.279512 0.742567
O O14 0.892727 0.234133 0.754309
#
# Coordination Sequence:
#
# PCOD8012856 Si02
#       7
#     2   2   2   2   2   2   2
#     4  10  22  39  56  85 118 149 182 229 285 333
#     4  10  22  39  63  89 106 140 193 234 283 326
#     4  10  22  35  60  85 111 145 192 233 277 333
#     4  11  21  38  57  83 111 150 192 235 275 315
#     4  11  24  35  54  82 118 156 185 218 274 345
#     4  12  22  38  57  81 117 152 188 229 269 331
#     4  10  21  40  64  86 111 139 182 246 285 320
#
# _framework density 21.903231999999999
#
# number of rings (size 3 to 8) (size 9 to 14) (size 15 to 20)
#    0.000    1.429    0.000    6.000    0.000    9.714 
#    0.000    1.429    0.000    0.000    0.000    0.000 
#    0.000    0.000    0.000    0.000    0.000    0.000 
#
# Total GULP energy -173675.722509 kJ/mol
# GULP energy per Si atom -12405.408751 kJ/mol
# Density = 2.185338 g / cm^3
# Si number density = 21.903232 Si / 1000 Ang^3
#
#
#
# Elastic Constant Matrix: (Units=GPa)
#
#
# Indices 1 2 3 4 5 6 
#
# 1 63.8577 14.0726 9.6105 0.6336 1.7410 -13.0534
# 2 14.0726 91.4830 44.0845 -12.4111 -6.0889 -14.1182
# 3 9.6105 44.0845 87.0734 8.4704 -18.6103 -0.1941
# 4 0.6336 -12.4111 8.4704 37.2989 -3.7478 3.0689
# 5 1.7410 -6.0889 -18.6103 -3.7478 24.3421 -10.2377
# 6 -13.0534 -14.1182 -0.1941 3.0689 -10.2377 28.9723
#
#
#
# Elastic Compliance Matrix: (Units=1/GPa)
#
#
# Indices 1 2 3 4 5 6 
#
# 1 0.017645 -0.001033 -0.001160 -0.000948 0.000726 0.007796
# 2 -0.001033 0.017999 -0.009276 0.007652 0.002101 0.008176
# 3 -0.001160 -0.009276 0.019389 -0.006296 0.011547 -0.000166
# 4 -0.000948 0.007652 -0.006296 0.030966 0.002263 0.000779
# 5 0.000726 0.002101 0.011547 0.002263 0.060174 0.022451
# 6 0.007796 0.008176 -0.000166 0.000779 0.022451 0.049862
#
#
# Mechanical properties :
#
#
# Convention : Reuss Voigt Hill
#
# Bulk Modulus (GPa) = 31.15619 41.99435 36.57527
# Shear Modulus (GPa) = 21.77020 29.76577 25.76798
#
# Velocity S-wave (km/s) = 3.15608 3.69042 3.43366
# Velocity P-wave (km/s) = 5.24752 6.11336 5.69691
#
# Compressibility (1/GPa) = 0.03209635
#
# Stress axis : x y z
#
# Youngs Moduli (GPa) = 56.67271 55.55714 51.57530
#
# Poissons Ratio (x) = 0.05737 0.05983
# Poissons Ratio (y) = 0.05852 0.47842
# Poissons Ratio (z) = 0.06574 0.51535
#
# Static dielectric constant tensor:
#      x y z
#    x 3.977990 -0.137880 -0.026970 
#    y -0.137880 4.039240 -0.155620 
#    z -0.026970 -0.155620 3.788840 
# 
# 
# High freq. dielectric constant tensor:
#      x y z
#    x 1.874710 -0.012240 -0.006180 
#    y -0.012240 1.853420 -0.017290 
#    z -0.006180 -0.017290 1.849700 
# 
# From -- ./inp_files/367103.got.cif
#   From: 2010.06.25/outbox.cif.g09.slc.cpg/sg2_184_cif.got.tgz:367103.got - 2010.06.27 13:26:56.
