data_PCOD8012215
_publ_section_title
;
Structure prediction by ZEFSAII (Michael W. Deem and Ramdas Pophale) SiO2 
 PCOD8012215
Probable space group: P -1
;
_chemical_formula_sum "Si O2"
_cell_formula_units_Z 14
_cell_length_a 9.379763
_cell_length_b 24.531127
_cell_length_c 8.332479
_cell_angle_alpha 138.226060
_cell_angle_beta 127.733033
_cell_angle_gamma 28.685599
_cell_volume 607.716577
_symmetry_space_group_name_H-M "P -1"
_symmetry_group_IT_number 2
_symmetry_cell_setting 'triclinic'
loop_
_space_group_symop_operation_xyz
x,y,z
-x,-y,-z
loop_
_atom_site_type_symbol
_atom_site_label
_atom_site_fract_x
_atom_site_fract_y
_atom_site_fract_z
Si Si1 0.026331 0.871765 0.156198
Si Si2 0.704303 0.811583 0.161256
Si Si3 0.968840 0.309632 0.372949
Si Si4 0.553130 0.138696 0.576326
Si Si5 0.894089 0.447704 0.341176
Si Si6 0.891945 0.956065 0.904151
Si Si7 0.767689 0.315488 0.564513
O O1 0.337071 0.807779 0.263108
O O2 0.813029 0.974588 0.384306
O O3 0.069448 0.758352 0.914479
O O4 0.859928 0.973368 0.111224
O O5 0.573643 0.811258 0.222107
O O6 0.971045 0.773554 0.318485
O O7 0.429498 0.956898 0.199533
O O8 0.857978 0.693812 0.888041
O O9 0.312733 0.196450 0.407837
O O10 0.874465 0.424781 0.462374
O O11 0.780492 0.375185 0.554507
O O12 0.550186 0.564119 0.297965
O O13 0.000000 0.500000 0.500000
O O14 0.169377 0.794536 0.713301
O O15 0.000000 0.000000 0.000000
#
# Coordination Sequence:
#
# PCOD8012215 Si02
#       7
#     2   2   2   2   2   2   2
#     4  10  21  39  67  97 142 171 225 264 340 397
#     4  11  23  42  65  99 134 171 225 275 332 390
#     4  10  23  44  68  92 133 179 227 267 337 397
#     4  10  21  40  64 105 131 178 217 277 325 408
#     4  12  26  46  68  94 135 175 223 280 344 393
#     4  11  20  38  68  99 135 170 217 274 335 384
#     4  10  24  44  67  97 134 177 223 271 328 407
#
# _framework density 23.037054000000001
#
# number of rings (size 3 to 8) (size 9 to 14) (size 15 to 20)
#    0.000    1.429    1.429    3.429    2.000    3.429 
#    5.143    1.429    0.000    0.000    0.000    0.000 
#    0.000    0.000    0.000    0.000    0.000    0.000 
#
# Total GULP energy -173489.568453 kJ/mol
# GULP energy per Si atom -12392.112032 kJ/mol
# Density = 2.298462 g / cm^3
# Si number density = 23.037054 Si / 1000 Ang^3
#
#
#
# Elastic Constant Matrix: (Units=GPa)
#
#
# Indices 1 2 3 4 5 6 
#
# 1 103.7942 38.5636 14.7417 0.3665 14.3769 -0.6037
# 2 38.5636 66.5007 5.7297 7.1952 -3.6383 -13.3375
# 3 14.7417 5.7297 42.2663 -11.0138 7.0478 8.0462
# 4 0.3665 7.1952 -11.0138 29.2343 -5.3977 5.8567
# 5 14.3769 -3.6383 7.0478 -5.3977 34.3430 2.7288
# 6 -0.6037 -13.3375 8.0462 5.8567 2.7288 40.4218
#
#
#
# Elastic Compliance Matrix: (Units=1/GPa)
#
#
# Indices 1 2 3 4 5 6 
#
# 1 0.014013 -0.008675 -0.002248 0.000351 -0.006122 -0.001843
# 2 -0.008675 0.023640 -0.005094 -0.008615 0.005065 0.009591
# 3 -0.002248 -0.005094 0.031277 0.014490 -0.002958 -0.009840
# 4 0.000351 -0.008615 0.014490 0.045035 0.004040 -0.012520
# 5 -0.006122 0.005065 -0.002958 0.004040 0.033513 -0.000679
# 6 -0.001843 0.009591 -0.009840 -0.012520 -0.000679 0.031695
#
#
# Mechanical properties :
#
#
# Convention : Reuss Voigt Hill
#
# Bulk Modulus (GPa) = 27.10436 36.73678 31.92057
# Shear Modulus (GPa) = 22.37079 31.03490 26.70285
#
# Velocity S-wave (km/s) = 3.11959 3.67437 3.40829
# Velocity P-wave (km/s) = 4.97664 5.82947 5.41986
#
# Compressibility (1/GPa) = 0.03689444
#
# Stress axis : x y z
#
# Youngs Moduli (GPa) = 71.36289 42.30165 31.97278
#
# Poissons Ratio (x) = 0.36697 0.07188
# Poissons Ratio (y) = 0.61907 0.16288
# Poissons Ratio (z) = 0.16043 0.21550
#
# Static dielectric constant tensor:
#      x y z
#    x 4.309970 -0.126760 -0.072940 
#    y -0.126760 4.427430 -0.077730 
#    z -0.072940 -0.077730 4.633740 
# 
# 
# High freq. dielectric constant tensor:
#      x y z
#    x 1.918340 -0.016570 -0.007240 
#    y -0.016570 1.904060 -0.010260 
#    z -0.007240 -0.010260 1.902860 
# 
# From -- ./inp_files/189594.got.cif
#   From: 2010.06.25/outbox.cif.g09.slc.cpg/sg2_95_cif.got.tgz:189594.got - 2010.06.27 13:26:56.
