data_PCOD8012064
_publ_section_title
;
Structure prediction by ZEFSAII (Michael W. Deem and Ramdas Pophale) SiO2 
 PCOD8012064
Probable space group: P -1
;
_chemical_formula_sum "Si O2"
_cell_formula_units_Z 16
_cell_length_a 12.434248
_cell_length_b 12.098068
_cell_length_c 9.323639
_cell_angle_alpha 111.963842
_cell_angle_beta 48.337354
_cell_angle_gamma 130.651803
_cell_volume 790.633104
_symmetry_space_group_name_H-M "P -1"
_symmetry_group_IT_number 2
_symmetry_cell_setting 'triclinic'
loop_
_space_group_symop_operation_xyz
x,y,z
-x,-y,-z
loop_
_atom_site_type_symbol
_atom_site_label
_atom_site_fract_x
_atom_site_fract_y
_atom_site_fract_z
Si Si1 0.127264 0.361837 0.140741
Si Si2 0.321019 0.901758 0.024799
Si Si3 0.455950 0.376749 0.864727
Si Si4 0.234668 0.909760 0.590604
Si Si5 0.911118 0.430628 0.896557
Si Si6 0.546975 0.896090 0.256173
Si Si7 0.822131 0.576937 0.549434
Si Si8 0.942930 0.098413 0.542902
O O1 0.164297 0.482317 0.052358
O O2 0.152559 0.435020 0.309434
O O3 0.931365 0.213392 0.228441
O O4 0.260900 0.318903 0.955978
O O5 0.257112 0.734609 0.005130
O O6 0.170251 0.906789 0.230511
O O7 0.500000 0.000000 0.000000
O O8 0.344690 0.962482 0.873228
O O9 0.449928 0.239130 0.866942
O O10 0.612270 0.456305 0.643546
O O11 0.500000 0.500000 0.000000
O O12 0.343973 0.844290 0.414793
O O13 0.169255 0.952967 0.530770
O O14 0.361954 0.054945 0.643629
O O15 0.055304 0.449812 0.665899
O O16 0.000000 0.500000 0.000000
O O17 0.876703 0.739948 0.554979
O O18 0.000000 0.000000 0.500000
#
# Coordination Sequence:
#
# PCOD8012064 Si02
#       8
#     2   2   2   2   2   2   2   2
#     4  10  21  39  66  90 122 160 216 253 310 374
#     4  11  24  38  63  94 123 170 210 258 317 373
#     4  10  23  38  64  93 121 164 212 261 306 368
#     4  10  22  42  64  95 120 170 211 261 319 366
#     4  11  23  41  62  91 128 165 209 263 317 380
#     4  11  23  41  64  91 131 161 217 260 310 386
#     4   9  21  40  62  89 116 167 209 247 309 374
#     4  10  22  40  63  89 125 161 201 256 318 382
#
# _framework density 20.236947000000001
#
# number of rings (size 3 to 8) (size 9 to 14) (size 15 to 20)
#    0.000    1.750    1.250    1.875    8.750    1.500 
#    4.500    0.625    0.000    0.000    0.000    0.000 
#    0.000    0.000    0.000    0.000    0.000    0.000 
#
# Total GULP energy -198335.327841 kJ/mol
# GULP energy per Si atom -12395.957990 kJ/mol
# Density = 2.019089 g / cm^3
# Si number density = 20.236947 Si / 1000 Ang^3
#
#
#
# Elastic Constant Matrix: (Units=GPa)
#
#
# Indices 1 2 3 4 5 6 
#
# 1 131.3732 65.6756 45.5853 -6.1777 -9.4656 -20.4986
# 2 65.6756 106.0599 34.7878 -13.3929 -16.1648 -13.3950
# 3 45.5853 34.7878 70.7366 -20.3158 -9.0603 -1.8411
# 4 -6.1777 -13.3929 -20.3158 38.5571 6.0271 -3.4939
# 5 -9.4656 -16.1648 -9.0603 6.0271 27.2621 0.8796
# 6 -20.4986 -13.3950 -1.8411 -3.4939 0.8796 38.3756
#
#
#
# Elastic Compliance Matrix: (Units=1/GPa)
#
#
# Indices 1 2 3 4 5 6 
#
# 1 0.013402 -0.006076 -0.006427 -0.002850 -0.000600 0.004484
# 2 -0.006076 0.015333 -0.002116 0.002546 0.005648 0.002108
# 3 -0.006427 -0.002116 0.022211 0.009437 0.001883 -0.002290
# 4 -0.002850 0.002546 0.009437 0.032145 -0.003542 0.002827
# 5 -0.000600 0.005648 0.001883 -0.003542 0.041215 0.000474
# 6 0.004484 0.002108 -0.002290 0.002827 0.000474 0.029326
#
#
# Mechanical properties :
#
#
# Convention : Reuss Voigt Hill
#
# Bulk Modulus (GPa) = 46.06429 66.69636 56.38033
# Shear Modulus (GPa) = 26.30100 31.64702 28.97401
#
# Velocity S-wave (km/s) = 3.60898 3.95881 3.78794
# Velocity P-wave (km/s) = 6.33863 7.34340 6.85944
#
# Compressibility (1/GPa) = 0.02170879
#
# Stress axis : x y z
#
# Youngs Moduli (GPa) = 74.61674 65.21691 45.02203
#
# Poissons Ratio (x) = 0.39624 0.28937
# Poissons Ratio (y) = 0.45335 0.09527
# Poissons Ratio (z) = 0.47958 0.13800
#
# Static dielectric constant tensor:
#      x y z
#    x 3.717760 0.239160 -0.307330 
#    y 0.239160 3.680270 0.080000 
#    z -0.307330 0.080000 3.845890 
# 
# 
# High freq. dielectric constant tensor:
#      x y z
#    x 1.781990 -0.001220 -0.012840 
#    y -0.001220 1.794200 -0.014870 
#    z -0.012840 -0.014870 1.794350 
# 
# From -- ./inp_files/257449.got.cif
#   From: 2010.06.25/outbox.cif.g09.slc.cpg/sg2_129_cif.got.tgz:257449.got - 2010.06.27 13:26:56.
