data_PCOD8012428
_publ_section_title
;
Structure prediction by ZEFSAII (Michael W. Deem and Ramdas Pophale) SiO2 
 PCOD8012428
Probable space group: P -1
;
_chemical_formula_sum "Si O2"
_cell_formula_units_Z 12
_cell_length_a 5.200832
_cell_length_b 18.056346
_cell_length_c 7.070032
_cell_angle_alpha 112.652434
_cell_angle_beta 67.563840
_cell_angle_gamma 108.844253
_cell_volume 554.149337
_symmetry_space_group_name_H-M "P -1"
_symmetry_group_IT_number 2
_symmetry_cell_setting 'triclinic'
loop_
_space_group_symop_operation_xyz
x,y,z
-x,-y,-z
loop_
_atom_site_type_symbol
_atom_site_label
_atom_site_fract_x
_atom_site_fract_y
_atom_site_fract_z
Si Si1 0.367936 0.679440 0.546366
Si Si2 0.008464 0.269542 0.594577
Si Si3 0.706143 0.567581 0.177400
Si Si4 0.770824 0.101071 0.668935
Si Si5 0.055322 0.543486 0.726299
Si Si6 0.126553 0.025922 0.786652
O O1 0.186840 0.734890 0.540721
O O2 0.419484 0.602342 0.323106
O O3 0.202481 0.638919 0.739304
O O4 0.672508 0.737041 0.569973
O O5 0.879620 0.197543 0.703314
O O6 0.025734 0.356682 0.780173
O O7 0.725602 0.495393 0.248777
O O8 0.753839 0.539357 0.919707
O O9 0.434553 0.084112 0.779684
O O10 0.918845 0.075219 0.788478
O O11 0.851872 0.055212 0.415576
O O12 0.000000 0.500000 0.500000
O O13 0.000000 0.000000 0.000000
#
# Coordination Sequence:
#
# PCOD8012428 Si02
#       6
#     2   2   2   2   2   2
#     4  10  21  40  57  84 120 152 203 239 298 347
#     4  10  21  42  56  88 124 154 187 251 296 340
#     4   9  23  37  59  85 115 152 205 242 297 340
#     4  10  21  40  63  87 129 148 192 248 282 346
#     4  11  19  41  60  83 113 162 200 252 286 350
#     4  10  21  40  65  93 113 161 196 228 291 357
#
# _framework density 21.654813999999998
#
# number of rings (size 3 to 8) (size 9 to 14) (size 15 to 20)
#    1.000    1.000    1.667    2.000    0.000    0.667 
#   12.000    0.000    0.000    0.000    0.000    0.000 
#    0.000    0.000    0.000    0.000    0.000    0.000 
#
# Total GULP energy -148758.265591 kJ/mol
# GULP energy per Si atom -12396.522133 kJ/mol
# Density = 2.160553 g / cm^3
# Si number density = 21.654814 Si / 1000 Ang^3
#
#
#
# Elastic Constant Matrix: (Units=GPa)
#
#
# Indices 1 2 3 4 5 6 
#
# 1 104.6588 5.1497 42.5341 -17.5371 11.4787 -2.6105
# 2 5.1497 83.1425 29.7378 -31.5135 8.7582 3.8412
# 3 42.5341 29.7378 121.4484 -37.4499 -0.3153 0.4104
# 4 -17.5371 -31.5135 -37.4499 30.7402 -1.7980 -3.7687
# 5 11.4787 8.7582 -0.3153 -1.7980 28.9594 -12.3466
# 6 -2.6105 3.8412 0.4104 -3.7687 -12.3466 25.0729
#
#
#
# Elastic Compliance Matrix: (Units=1/GPa)
#
#
# Indices 1 2 3 4 5 6 
#
# 1 0.012388 0.003394 -0.003348 0.005947 -0.006166 -0.001318
# 2 0.003394 0.021760 0.001114 0.024777 -0.007679 -0.003055
# 3 -0.003348 0.001114 0.014588 0.017698 0.003871 0.003809
# 4 0.005947 0.024777 0.017698 0.083923 -0.000692 0.008807
# 5 -0.006166 -0.007679 0.003871 -0.000692 0.049937 0.024957
# 6 -0.001318 -0.003055 0.003809 0.008807 0.024957 0.053766
#
#
# Mechanical properties :
#
#
# Convention : Reuss Voigt Hill
#
# Bulk Modulus (GPa) = 19.58577 51.56589 35.57583
# Shear Modulus (GPa) = 19.91553 32.40971 26.16262
#
# Velocity S-wave (km/s) = 3.03591 3.87286 3.47964
# Velocity P-wave (km/s) = 4.62095 6.62292 5.71035
#
# Compressibility (1/GPa) = 0.05105748
#
# Stress axis : x y z
#
# Youngs Moduli (GPa) = 80.72205 45.95526 68.54916
#
# Poissons Ratio (x) = -0.15599 0.22948
# Poissons Ratio (y) = -0.27400 -0.07634
# Poissons Ratio (z) = 0.27023 -0.05118
#
# Static dielectric constant tensor:
#      x y z
#    x 4.140840 0.087500 -0.219940 
#    y 0.087500 3.874770 -0.244060 
#    z -0.219940 -0.244060 3.815580 
# 
# 
# High freq. dielectric constant tensor:
#      x y z
#    x 1.863230 0.007460 -0.001690 
#    y 0.007460 1.841870 -0.024010 
#    z -0.001690 -0.024010 1.832900 
# 
# From -- ./inp_files/7852.got.cif
#   From: 2010.06.25/outbox.cif.g09.slc.cpg/sg2_4_cif.got.tgz:7852.got - 2010.06.27 13:26:56.
