data_PCOD8012713
_publ_section_title
;
Structure prediction by ZEFSAII (Michael W. Deem and Ramdas Pophale) SiO2 
 PCOD8012713
Probable space group: P -1
;
_chemical_formula_sum "Si O2"
_cell_formula_units_Z 16
_cell_length_a 17.909709
_cell_length_b 24.131577
_cell_length_c 5.068025
_cell_angle_alpha 108.226908
_cell_angle_beta 110.732022
_cell_angle_gamma 19.262697
_cell_volume 674.177290
_symmetry_space_group_name_H-M "P -1"
_symmetry_group_IT_number 2
_symmetry_cell_setting 'triclinic'
loop_
_space_group_symop_operation_xyz
x,y,z
-x,-y,-z
loop_
_atom_site_type_symbol
_atom_site_label
_atom_site_fract_x
_atom_site_fract_y
_atom_site_fract_z
Si Si1 0.272070 0.642791 0.765596
Si Si2 0.573437 0.750377 0.246897
Si Si3 0.488531 0.390699 0.442789
Si Si4 0.177598 0.104410 0.239895
Si Si5 0.167163 0.340269 0.840178
Si Si6 0.783946 0.190872 0.027314
Si Si7 0.735865 0.571894 0.675246
Si Si8 0.397969 0.005661 0.882416
O O1 0.354449 0.545028 0.477268
O O2 0.155906 0.784528 0.751963
O O3 0.090903 0.727864 0.829591
O O4 0.500000 0.500000 0.000000
O O5 0.733770 0.699741 0.368327
O O6 0.582290 0.710832 0.474745
O O7 0.312338 0.950030 0.162648
O O8 0.665588 0.644677 0.978707
O O9 0.596089 0.295837 0.158396
O O10 0.309428 0.465652 0.437147
O O11 0.688718 0.259489 0.715459
O O12 0.272683 0.076197 0.561682
O O13 0.212203 0.121912 0.055087
O O14 0.009855 0.390481 0.675050
O O15 0.381722 0.186151 0.075856
O O16 0.000000 0.500000 0.000000
O O17 0.000000 0.000000 0.000000
O O18 0.500000 0.000000 0.000000
#
# Coordination Sequence:
#
# PCOD8012713 Si02
#       8
#     2   2   2   2   2   2   2   2
#     4  10  26  49  73 102 143 183 230 290 355 421
#     4  10  21  40  63 100 134 180 231 280 335 398
#     4  11  25  44  67 104 136 174 228 281 354 413
#     4  11  24  44  71  97 139 184 231 280 353 404
#     4   9  20  40  61  93 132 178 219 272 332 388
#     4  11  25  48  72 101 132 176 224 289 348 417
#     4  11  22  37  67  97 137 173 230 279 335 410
#     4  11  25  44  66 102 139 181 232 280 339 415
#
# _framework density 23.732631999999999
#
# number of rings (size 3 to 8) (size 9 to 14) (size 15 to 20)
#    0.000    1.500    0.000    4.500    5.250    7.000 
#    4.500    0.000    0.000    0.000    0.000    0.000 
#    0.000    0.000    0.000    0.000    0.000    0.000 
#
# Total GULP energy -198286.843154 kJ/mol
# GULP energy per Si atom -12392.927697 kJ/mol
# Density = 2.367862 g / cm^3
# Si number density = 23.732632 Si / 1000 Ang^3
#
#
#
# Elastic Constant Matrix: (Units=GPa)
#
#
# Indices 1 2 3 4 5 6 
#
# 1 139.8273 42.9755 25.4244 10.3303 13.6773 -3.6112
# 2 42.9755 108.5759 21.9059 21.0064 14.6882 -9.2649
# 3 25.4244 21.9059 79.7990 9.8921 -1.7698 1.1070
# 4 10.3303 21.0064 9.8921 25.3815 -2.6276 3.6798
# 5 13.6773 14.6882 -1.7698 -2.6276 38.2692 3.3659
# 6 -3.6112 -9.2649 1.1070 3.6798 3.3659 33.7963
#
#
#
# Elastic Compliance Matrix: (Units=1/GPa)
#
#
# Indices 1 2 3 4 5 6 
#
# 1 0.008584 -0.002411 -0.002004 -0.001061 -0.002367 0.000673
# 2 -0.002411 0.013973 -0.001879 -0.011244 -0.005839 0.005440
# 3 -0.002004 -0.001879 0.014087 -0.002755 0.001995 -0.001089
# 4 -0.001061 -0.011244 -0.002755 0.052556 0.009031 -0.009727
# 5 -0.002367 -0.005839 0.001995 0.009031 0.030452 -0.005935
# 6 0.000673 0.005440 -0.001089 -0.009727 -0.005935 0.032838
#
#
# Mechanical properties :
#
#
# Convention : Reuss Voigt Hill
#
# Bulk Modulus (GPa) = 41.56698 56.53488 49.05093
# Shear Modulus (GPa) = 28.88589 35.34914 32.11752
#
# Velocity S-wave (km/s) = 3.49254 3.86356 3.68272
# Velocity P-wave (km/s) = 5.81519 6.61635 6.22866
#
# Compressibility (1/GPa) = 0.02405756
#
# Stress axis : x y z
#
# Youngs Moduli (GPa) = 116.49327 71.56714 70.98991
#
# Poissons Ratio (x) = 0.17252 0.14224
# Poissons Ratio (y) = 0.28081 0.13338
# Poissons Ratio (z) = 0.23341 0.13446
#
# Static dielectric constant tensor:
#      x y z
#    x 5.306510 -0.446610 0.585900 
#    y -0.446610 4.889140 -0.190710 
#    z 0.585900 -0.190710 4.565280 
# 
# 
# High freq. dielectric constant tensor:
#      x y z
#    x 1.955660 -0.004430 -0.000210 
#    y -0.004430 1.939320 0.010560 
#    z -0.000210 0.010560 1.926740 
# 
# From -- ./inp_files/112706.got.cif
#   From: 2010.06.25/outbox.cif.g09.slc.cpg/sg2_57_cif.got.tgz:112706.got - 2010.06.27 13:26:56.
