data_PCOD8012274
_publ_section_title
;
Structure prediction by ZEFSAII (Michael W. Deem and Ramdas Pophale) SiO2 
 PCOD8012274
Probable space group: P -1
;
_chemical_formula_sum "Si O2"
_cell_formula_units_Z 16
_cell_length_a 17.557531
_cell_length_b 14.275083
_cell_length_c 9.175316
_cell_angle_alpha 139.994806
_cell_angle_beta 30.560630
_cell_angle_gamma 135.694232
_cell_volume 740.538051
_symmetry_space_group_name_H-M "P -1"
_symmetry_group_IT_number 2
_symmetry_cell_setting 'triclinic'
loop_
_space_group_symop_operation_xyz
x,y,z
-x,-y,-z
loop_
_atom_site_type_symbol
_atom_site_label
_atom_site_fract_x
_atom_site_fract_y
_atom_site_fract_z
Si Si1 0.250503 0.146357 0.702383
Si Si2 0.753454 0.158169 0.806691
Si Si3 0.000374 0.699587 0.627380
Si Si4 0.470171 0.626418 0.589415
Si Si5 0.542333 0.575677 0.868872
Si Si6 0.788782 0.397066 0.594726
Si Si7 0.656217 0.870208 0.149664
Si Si8 0.698120 0.149631 0.229629
O O1 0.367748 0.287249 0.624937
O O2 0.251792 0.118731 0.839990
O O3 0.286403 0.006697 0.388114
O O4 0.082893 0.187873 0.006431
O O5 0.923301 0.225937 0.556791
O O6 0.636213 0.256866 0.047746
O O7 0.745753 0.148648 0.982064
O O8 0.878726 0.560401 0.606432
O O9 0.135049 0.661737 0.460260
O O10 0.500000 0.500000 0.500000
O O11 0.384297 0.538067 0.487252
O O12 0.500000 0.500000 0.000000
O O13 0.388059 0.604944 0.077112
O O14 0.665583 0.723741 0.864490
O O15 0.793955 0.293807 0.321054
O O16 0.481324 0.858495 0.470272
O O17 0.732527 0.005108 0.084095
#
# Coordination Sequence:
#
# PCOD8012274 Si02
#       8
#     2   2   2   2   2   2   2   2
#     4  12  24  46  66  97 134 178 221 262 333 402
#     4  12  26  42  65 102 135 168 220 278 327 382
#     4  11  24  43  68  91 131 185 216 264 324 403
#     4  12  25  39  67 102 132 164 218 283 326 377
#     4  11  19  40  67  97 129 169 225 272 324 393
#     4  10  21  42  67  93 130 176 224 259 327 400
#     4  10  21  39  68  94 130 173 213 269 334 388
#     4  10  22  40  65  98 130 170 213 275 333 382
#
# _framework density 21.605910999999999
#
# number of rings (size 3 to 8) (size 9 to 14) (size 15 to 20)
#    0.000    1.000    3.750    3.000    3.500    1.500 
#    0.000    2.500    0.000    0.000    0.000    0.000 
#    0.000    0.000    0.000    0.000    0.000    0.000 
#
# Total GULP energy -198346.037191 kJ/mol
# GULP energy per Si atom -12396.627324 kJ/mol
# Density = 2.155674 g / cm^3
# Si number density = 21.605911 Si / 1000 Ang^3
#
#
#
# Elastic Constant Matrix: (Units=GPa)
#
#
# Indices 1 2 3 4 5 6 
#
# 1 83.1646 44.0344 27.8634 10.0506 12.5902 -4.0302
# 2 44.0344 112.0231 51.1301 23.2667 21.9485 -11.8893
# 3 27.8634 51.1301 104.6402 13.5883 16.7096 -6.2680
# 4 10.0506 23.2667 13.5883 38.6667 1.3869 6.5408
# 5 12.5902 21.9485 16.7096 1.3869 34.1354 5.9259
# 6 -4.0302 -11.8893 -6.2680 6.5408 5.9259 38.8971
#
#
#
# Elastic Compliance Matrix: (Units=1/GPa)
#
#
# Indices 1 2 3 4 5 6 
#
# 1 0.015457 -0.004974 -0.001298 -0.000543 -0.001889 0.000251
# 2 -0.004974 0.016622 -0.004152 -0.008061 -0.007606 0.006411
# 3 -0.001298 -0.004152 0.012774 -0.001781 -0.003285 0.001455
# 4 -0.000543 -0.008061 -0.001781 0.032823 0.006541 -0.009323
# 5 -0.001889 -0.007606 -0.003285 0.006541 0.037949 -0.009931
# 6 0.000251 0.006411 0.001455 -0.009323 -0.009931 0.031010
#
#
# Mechanical properties :
#
#
# Convention : Reuss Voigt Hill
#
# Bulk Modulus (GPa) = 41.65864 60.65373 51.15619
# Shear Modulus (GPa) = 28.49287 34.12650 31.30969
#
# Velocity S-wave (km/s) = 3.63540 3.97860 3.81087
# Velocity P-wave (km/s) = 6.07820 7.01708 6.56445
#
# Compressibility (1/GPa) = 0.02400462
#
# Stress axis : x y z
#
# Youngs Moduli (GPa) = 64.69755 60.16194 78.28341
#
# Poissons Ratio (x) = 0.29922 0.10163
# Poissons Ratio (y) = 0.32177 0.32504
# Poissons Ratio (z) = 0.08400 0.24980
#
# Static dielectric constant tensor:
#      x y z
#    x 3.912750 -0.053810 -0.024050 
#    y -0.053810 4.144120 0.304770 
#    z -0.024050 0.304770 3.912870 
# 
# 
# High freq. dielectric constant tensor:
#      x y z
#    x 1.846270 -0.008130 0.003800 
#    y -0.008130 1.863090 0.021040 
#    z 0.003800 0.021040 1.837870 
# 
# From -- ./inp_files/335784.got.cif
#   From: 2010.06.25/outbox.cif.g09.slc.cpg/sg2_168_cif.got.tgz:335784.got - 2010.06.27 13:26:56.
