data_PCOD8012010
_publ_section_title
;
Structure prediction by ZEFSAII (Michael W. Deem and Ramdas Pophale) SiO2 
 PCOD8012010
Probable space group: P -1
;
_chemical_formula_sum "Si O2"
_cell_formula_units_Z 16
_cell_length_a 23.148201
_cell_length_b 20.301603
_cell_length_c 8.888592
_cell_angle_alpha 145.336453
_cell_angle_beta 135.032310
_cell_angle_gamma 19.535423
_cell_volume 742.475048
_symmetry_space_group_name_H-M "P -1"
_symmetry_group_IT_number 2
_symmetry_cell_setting 'triclinic'
loop_
_space_group_symop_operation_xyz
x,y,z
-x,-y,-z
loop_
_atom_site_type_symbol
_atom_site_label
_atom_site_fract_x
_atom_site_fract_y
_atom_site_fract_z
Si Si1 0.095802 0.999854 0.351523
Si Si2 0.146615 0.384113 0.147236
Si Si3 0.422027 0.909567 0.970040
Si Si4 0.955113 0.725055 0.706946
Si Si5 0.255699 0.234715 0.539626
Si Si6 0.551924 0.380396 0.529741
Si Si7 0.236647 0.418037 0.119882
Si Si8 0.835560 0.109563 0.078996
O O1 0.282925 0.759813 0.345091
O O2 0.148028 0.947128 0.172761
O O3 0.971689 0.267648 0.678866
O O4 0.978882 0.031894 0.228287
O O5 0.273310 0.306370 0.133866
O O6 0.045326 0.599323 0.474981
O O7 0.000000 0.500000 0.000000
O O8 0.265149 0.140805 0.997538
O O9 0.375169 0.838666 0.795380
O O10 0.620558 0.658506 0.782195
O O11 0.418346 0.003365 0.282966
O O12 0.802436 0.821056 0.628300
O O13 0.102070 0.516348 0.717358
O O14 0.878732 0.952983 0.986603
O O15 0.305912 0.234532 0.783671
O O16 0.500000 0.500000 0.500000
O O17 0.377748 0.588635 0.712797
#
# Coordination Sequence:
#
# PCOD8012010 Si02
#       8
#     2   2   2   2   2   2   2   2
#     4  11  26  45  71  99 136 181 230 285 334 399
#     4  11  21  40  66  98 127 170 218 274 336 393
#     4  11  25  43  62 101 139 169 224 276 332 410
#     4  10  21  39  65  96 127 171 220 274 331 399
#     4  10  23  38  66  96 134 171 215 273 340 397
#     4  12  27  45  70 100 138 184 229 278 340 405
#     4  12  22  43  68 101 133 174 221 277 341 396
#     4  11  24  48  68  98 137 176 238 274 339 397
#
# _framework density 21.549544999999998
#
# number of rings (size 3 to 8) (size 9 to 14) (size 15 to 20)
#    0.000    1.000    3.750    2.625    5.250    1.500 
#    0.000    2.500    0.000    0.000    0.000    0.000 
#    0.000    0.000    0.000    0.000    0.000    0.000 
#
# Total GULP energy -198274.866469 kJ/mol
# GULP energy per Si atom -12392.179154 kJ/mol
# Density = 2.150050 g / cm^3
# Si number density = 21.549545 Si / 1000 Ang^3
#
#
#
# Elastic Constant Matrix: (Units=GPa)
#
#
# Indices 1 2 3 4 5 6 
#
# 1 142.6607 61.7062 47.2012 -4.6650 9.7611 7.1371
# 2 61.7062 117.8730 44.4569 -5.3816 5.9663 -6.4941
# 3 47.2012 44.4569 95.2852 7.4279 -0.6777 3.0646
# 4 -4.6650 -5.3816 7.4279 33.0276 -0.9730 2.1024
# 5 9.7611 5.9663 -0.6777 -0.9730 47.1410 6.7235
# 6 7.1371 -6.4941 3.0646 2.1024 6.7235 36.5791
#
#
#
# Elastic Compliance Matrix: (Units=1/GPa)
#
#
# Indices 1 2 3 4 5 6 
#
# 1 0.010063 -0.004073 -0.003142 0.001573 -0.001255 -0.002283
# 2 -0.004073 0.012517 -0.004109 0.002131 -0.001251 0.003469
# 3 -0.003142 -0.004109 0.014351 -0.004211 0.001483 -0.001349
# 4 0.001573 0.002131 -0.004211 0.031892 0.000209 -0.001447
# 5 -0.001255 -0.001251 0.001483 0.000209 0.022256 -0.004204
# 6 -0.002283 0.003469 -0.001349 -0.001447 -0.004204 0.029368
#
#
# Mechanical properties :
#
#
# Convention : Reuss Voigt Hill
#
# Bulk Modulus (GPa) = 70.01955 73.61637 71.81796
# Shear Modulus (GPa) = 33.81628 36.84651 35.33140
#
# Velocity S-wave (km/s) = 3.96565 4.13952 4.05352
# Velocity P-wave (km/s) = 7.31652 7.55534 7.43689
#
# Compressibility (1/GPa) = 0.01428173
#
# Stress axis : x y z
#
# Youngs Moduli (GPa) = 99.37786 79.88886 69.68192
#
# Poissons Ratio (x) = 0.32538 0.21897
# Poissons Ratio (y) = 0.40476 0.28633
# Poissons Ratio (z) = 0.31229 0.32828
#
# Static dielectric constant tensor:
#      x y z
#    x 4.161950 -0.067920 -0.135360 
#    y -0.067920 3.750660 0.187650 
#    z -0.135360 0.187650 4.034060 
# 
# 
# High freq. dielectric constant tensor:
#      x y z
#    x 1.869630 -0.004390 -0.006900 
#    y -0.004390 1.829900 0.006990 
#    z -0.006900 0.006990 1.853630 
# 
# From -- ./inp_files/177878.got.cif
#   From: 2010.06.25/outbox.cif.g09.slc.cpg/sg2_89_cif.got.tgz:177878.got - 2010.06.27 13:26:56.
