data_PCOD8012007
_publ_section_title
;
Structure prediction by ZEFSAII (Michael W. Deem and Ramdas Pophale) SiO2 
 PCOD8012007
Probable space group: P -1
;
_chemical_formula_sum "Si O2"
_cell_formula_units_Z 16
_cell_length_a 24.253582
_cell_length_b 16.064038
_cell_length_c 11.319535
_cell_angle_alpha 37.012840
_cell_angle_beta 151.430076
_cell_angle_gamma 160.014423
_cell_volume 711.066428
_symmetry_space_group_name_H-M "P -1"
_symmetry_group_IT_number 2
_symmetry_cell_setting 'triclinic'
loop_
_space_group_symop_operation_xyz
x,y,z
-x,-y,-z
loop_
_atom_site_type_symbol
_atom_site_label
_atom_site_fract_x
_atom_site_fract_y
_atom_site_fract_z
Si Si1 0.446269 0.244426 0.501624
Si Si2 0.263133 0.783980 0.332590
Si Si3 0.117116 0.277825 0.166866
Si Si4 0.926014 0.688843 0.504834
Si Si5 0.871710 0.271526 0.600422
Si Si6 0.551567 0.473256 0.923087
Si Si7 0.144305 0.966429 0.829962
Si Si8 0.694842 0.818950 0.437863
O O1 0.688715 0.454053 0.708748
O O2 0.384779 0.301753 0.225045
O O3 0.414168 0.273934 0.537818
O O4 0.326899 0.983529 0.553420
O O5 0.137467 0.529493 0.333747
O O6 0.216362 0.743319 0.431161
O O7 0.500000 0.000000 0.500000
O O8 0.186655 0.845462 0.055756
O O9 0.185711 0.208394 0.307503
O O10 0.957885 0.075213 0.197995
O O11 0.017925 0.286198 0.880468
O O12 0.989156 0.834699 0.577273
O O13 0.741942 0.578765 0.212812
O O14 0.131091 0.889753 0.581277
O O15 0.000000 0.500000 0.500000
O O16 0.480288 0.342917 0.809081
O O17 0.355117 0.262123 0.878536
#
# Coordination Sequence:
#
# PCOD8012007 Si02
#       8
#     2   2   2   2   2   2   2   2
#     4  11  24  42  66  92 127 173 211 259 329 380
#     4  11  23  43  64  93 132 169 214 270 315 378
#     4  10  23  43  64  94 134 162 205 273 317 378
#     4  11  22  39  67  90 126 173 209 265 316 378
#     4  11  26  45  65  97 128 169 222 264 317 389
#     4  10  21  39  65  96 125 166 211 264 316 385
#     4  10  23  41  62  96 130 166 214 258 326 383
#     4  10  23  41  62  97 125 167 213 262 322 386
#
# _framework density 22.501414
#
# number of rings (size 3 to 8) (size 9 to 14) (size 15 to 20)
#    0.000    1.500    1.250    3.375    1.750   10.000 
#    0.000    4.375    0.000    0.000    0.000    0.000 
#    0.000    0.000    0.000    0.000    0.000    0.000 
#
# Total GULP energy -198407.377899 kJ/mol
# GULP energy per Si atom -12400.461119 kJ/mol
# Density = 2.245020 g / cm^3
# Si number density = 22.501414 Si / 1000 Ang^3
#
#
#
# Elastic Constant Matrix: (Units=GPa)
#
#
# Indices 1 2 3 4 5 6 
#
# 1 68.5270 15.5354 20.1089 -0.5305 -11.3163 25.9873
# 2 15.5354 152.5958 19.0849 -5.9711 -7.4013 17.6706
# 3 20.1089 19.0849 86.8202 7.0097 -9.3821 14.0156
# 4 -0.5305 -5.9711 7.0097 30.5344 3.6779 -7.1196
# 5 -11.3163 -7.4013 -9.3821 3.6779 21.6737 -3.7678
# 6 25.9873 17.6706 14.0156 -7.1196 -3.7678 36.2580
#
#
#
# Elastic Compliance Matrix: (Units=1/GPa)
#
#
# Indices 1 2 3 4 5 6 
#
# 1 0.022241 -0.000045 -0.001393 -0.003937 0.009017 -0.015217
# 2 -0.000045 0.007100 -0.001032 0.000827 0.001340 -0.002728
# 3 -0.001393 -0.001032 0.013688 -0.004955 0.004948 -0.004249
# 4 -0.003937 0.000827 -0.004955 0.037518 -0.008402 0.010828
# 5 0.009017 0.001340 0.004948 -0.008402 0.053991 -0.005068
# 6 -0.015217 -0.002728 -0.004249 0.010828 -0.005068 0.043058
#
#
# Mechanical properties :
#
#
# Convention : Reuss Voigt Hill
#
# Bulk Modulus (GPa) = 26.25370 46.37791 36.31581
# Shear Modulus (GPa) = 25.61073 34.57414 30.09244
#
# Velocity S-wave (km/s) = 3.37736 3.92411 3.66096
# Velocity P-wave (km/s) = 5.18668 6.41774 5.83477
#
# Compressibility (1/GPa) = 0.03808987
#
# Stress axis : x y z
#
# Youngs Moduli (GPa) = 44.96263 140.84293 73.05596
#
# Poissons Ratio (x) = 0.00630 0.10175
# Poissons Ratio (y) = 0.00201 0.07540
# Poissons Ratio (z) = 0.06262 0.14536
#
# Static dielectric constant tensor:
#      x y z
#    x 3.866270 0.213450 -0.007160 
#    y 0.213450 4.530980 -0.061150 
#    z -0.007160 -0.061150 4.143880 
# 
# 
# High freq. dielectric constant tensor:
#      x y z
#    x 1.873110 0.015430 -0.005640 
#    y 0.015430 1.914570 0.002460 
#    z -0.005640 0.002460 1.885920 
# 
# From -- ./inp_files/476953.got.cif
#   From: 2010.06.25/outbox.cif.g09.slc.cpg/sg2_239_cif.got.tgz:476953.got - 2010.06.27 13:26:56.
