data_PCOD8012539
_publ_section_title
;
Structure prediction by ZEFSAII (Michael W. Deem and Ramdas Pophale) SiO2 
 PCOD8012539
Probable space group: P -1
;
_chemical_formula_sum "Si O2"
_cell_formula_units_Z 14
_cell_length_a 6.691427
_cell_length_b 21.980926
_cell_length_c 5.138497
_cell_angle_alpha 85.158888
_cell_angle_beta 112.091088
_cell_angle_gamma 66.435182
_cell_volume 616.899837
_symmetry_space_group_name_H-M "P -1"
_symmetry_group_IT_number 2
_symmetry_cell_setting 'triclinic'
loop_
_space_group_symop_operation_xyz
x,y,z
-x,-y,-z
loop_
_atom_site_type_symbol
_atom_site_label
_atom_site_fract_x
_atom_site_fract_y
_atom_site_fract_z
Si Si1 0.355927 0.498381 0.680460
Si Si2 0.813520 0.613601 0.330937
Si Si3 0.083174 0.033152 0.798870
Si Si4 0.098315 0.195993 0.117504
Si Si5 0.511918 0.946847 0.735241
Si Si6 0.295341 0.297441 0.255599
Si Si7 0.838535 0.182506 0.496427
O O1 0.500000 0.500000 0.500000
O O2 0.338155 0.427967 0.694348
O O3 0.096005 0.565112 0.539503
O O4 0.500000 0.500000 0.000000
O O5 0.712129 0.675415 0.466556
O O6 0.779095 0.641345 0.010326
O O7 0.860826 0.106351 0.580933
O O8 0.224501 0.973211 0.669886
O O9 0.301285 0.052646 0.957048
O O10 0.000000 0.000000 0.000000
O O11 0.373173 0.131464 0.284378
O O12 0.105872 0.266681 0.155810
O O13 0.937785 0.183235 0.258019
O O14 0.979445 0.203372 0.773880
O O15 0.500000 0.000000 0.500000
O O16 0.559261 0.237375 0.341867
#
# Coordination Sequence:
#
# PCOD8012539 Si02
#       7
#     2   2   2   2   2   2   2
#     4  11  24  45  76 104 140 175 217 268 321 380
#     4  11  26  45  67 109 135 174 227 263 317 400
#     4  10  23  38  62  89 120 165 224 288 352 403
#     4  11  25  43  65  92 133 176 228 281 346 402
#     4  10  21  40  61  86 122 164 222 292 341 398
#     4  12  26  43  69  95 143 180 217 275 330 395
#     4  11  25  43  62  96 128 175 229 275 336 422
#
# _framework density 22.694122
#
# number of rings (size 3 to 8) (size 9 to 14) (size 15 to 20)
#    0.000    1.143    1.429    3.429    2.000   13.143 
#    0.000    0.000    0.000    0.000    0.000    0.000 
#    0.000    0.000    0.000    0.000    0.000    0.000 
#
# Total GULP energy -173628.284346 kJ/mol
# GULP energy per Si atom -12402.020310 kJ/mol
# Density = 2.264247 g / cm^3
# Si number density = 22.694122 Si / 1000 Ang^3
#
#
#
# Elastic Constant Matrix: (Units=GPa)
#
#
# Indices 1 2 3 4 5 6 
#
# 1 116.0740 39.2796 17.0170 -3.5864 -17.3437 2.8477
# 2 39.2796 111.3531 20.4506 1.0440 0.8789 7.4401
# 3 17.0170 20.4506 86.6263 -0.4864 -5.9219 6.1600
# 4 -3.5864 1.0440 -0.4864 40.2412 -0.3257 -9.2971
# 5 -17.3437 0.8789 -5.9219 -0.3257 43.7286 0.2420
# 6 2.8477 7.4401 6.1600 -9.2971 0.2420 32.5498
#
#
#
# Elastic Compliance Matrix: (Units=1/GPa)
#
#
# Indices 1 2 3 4 5 6 
#
# 1 0.010639 -0.003645 -0.000965 0.001153 0.004169 0.000384
# 2 -0.003645 0.010765 -0.001812 -0.001128 -0.001904 -0.002107
# 3 -0.000965 -0.001812 0.012390 -0.000329 0.001340 -0.001950
# 4 0.001153 -0.001128 -0.000329 0.026801 0.000592 0.007870
# 5 0.004169 -0.001904 0.001340 0.000592 0.024747 -0.000198
# 6 0.000384 -0.002107 -0.001950 0.007870 -0.000198 0.033789
#
#
# Mechanical properties :
#
#
# Convention : Reuss Voigt Hill
#
# Bulk Modulus (GPa) = 47.73393 51.94976 49.84184
# Shear Modulus (GPa) = 35.98171 39.12432 37.55302
#
# Velocity S-wave (km/s) = 3.98616 4.15659 4.07227
# Velocity P-wave (km/s) = 6.50117 6.78066 6.64239
#
# Compressibility (1/GPa) = 0.02094946
#
# Stress axis : x y z
#
# Youngs Moduli (GPa) = 93.99089 92.88996 80.71231
#
# Poissons Ratio (x) = 0.33859 0.07791
# Poissons Ratio (y) = 0.34260 0.14626
# Poissons Ratio (z) = 0.09073 0.16833
#
# Static dielectric constant tensor:
#      x y z
#    x 4.246690 -0.210340 0.270350 
#    y -0.210340 4.397510 -0.136860 
#    z 0.270350 -0.136860 4.278740 
# 
# 
# High freq. dielectric constant tensor:
#      x y z
#    x 1.908940 -0.003040 0.005250 
#    y -0.003040 1.910170 0.002950 
#    z 0.005250 0.002950 1.907020 
# 
# From -- ./inp_files/10057.got.cif
#   From: 2010.06.25/outbox.cif.g09.slc.cpg/sg2_6_cif.got.tgz:10057.got - 2010.06.27 13:26:56.
