data_PCOD8012166
_publ_section_title
;
Structure prediction by ZEFSAII (Michael W. Deem and Ramdas Pophale) SiO2 
 PCOD8012166
Probable space group: P -1
;
_chemical_formula_sum "Si O2"
_cell_formula_units_Z 16
_cell_length_a 8.826823
_cell_length_b 15.540327
_cell_length_c 8.972592
_cell_angle_alpha 103.295341
_cell_angle_beta 126.795241
_cell_angle_gamma 111.464239
_cell_volume 731.940541
_symmetry_space_group_name_H-M "P -1"
_symmetry_group_IT_number 2
_symmetry_cell_setting 'triclinic'
loop_
_space_group_symop_operation_xyz
x,y,z
-x,-y,-z
loop_
_atom_site_type_symbol
_atom_site_label
_atom_site_fract_x
_atom_site_fract_y
_atom_site_fract_z
Si Si1 0.466477 0.803319 0.936671
Si Si2 0.471841 0.439717 0.806967
Si Si3 0.872451 0.041993 0.354729
Si Si4 0.895418 0.653912 0.008084
Si Si5 0.875406 0.846291 0.002141
Si Si6 0.772872 0.892480 0.652076
Si Si7 0.673549 0.305663 0.877330
Si Si8 0.044489 0.739060 0.458117
O O1 0.279406 0.761468 0.674835
O O2 0.692695 0.809427 0.018552
O O3 0.330269 0.716809 0.959197
O O4 0.584157 0.932344 0.111029
O O5 0.615006 0.390611 0.864275
O O6 0.176703 0.334928 0.578179
O O7 0.500000 0.500000 0.000000
O O8 0.602326 0.537406 0.791580
O O9 0.894633 0.140142 0.495988
O O10 0.011856 0.096818 0.301349
O O11 0.000000 0.000000 0.500000
O O12 0.932002 0.759733 0.995259
O O13 0.051945 0.630690 0.996239
O O14 0.986589 0.676491 0.242015
O O15 0.733698 0.834273 0.764571
O O16 0.135274 0.977987 0.224261
O O17 0.519729 0.813397 0.376898
#
# Coordination Sequence:
#
# PCOD8012166 Si02
#       8
#     2   2   2   2   2   2   2   2
#     4  11  23  38  63  97 129 169 213 261 324 390
#     4  10  22  45  68  89 126 175 220 271 323 377
#     4  11  19  38  65  93 128 171 206 260 323 381
#     4  11  25  41  66  93 129 174 220 268 321 381
#     4  10  23  43  62  94 135 172 215 259 332 380
#     4  10  21  39  67  92 132 171 209 271 317 389
#     4  12  23  41  66  97 130 165 224 266 327 379
#     4  11  22  41  64  92 129 169 218 265 320 383
#
# _framework density 21.859698999999999
#
# number of rings (size 3 to 8) (size 9 to 14) (size 15 to 20)
#    0.000    1.250    2.500    4.500    1.750    0.500 
#    2.250    9.375    0.000    0.000    0.000    0.000 
#    0.000    0.000    0.000    0.000    0.000    0.000 
#
# Total GULP energy -198373.789989 kJ/mol
# GULP energy per Si atom -12398.361874 kJ/mol
# Density = 2.180995 g / cm^3
# Si number density = 21.859699 Si / 1000 Ang^3
#
#
#
# Elastic Constant Matrix: (Units=GPa)
#
#
# Indices 1 2 3 4 5 6 
#
# 1 106.9849 34.2416 6.3114 3.0274 2.4120 6.2304
# 2 34.2416 98.5010 25.4165 3.3939 3.0300 2.5794
# 3 6.3114 25.4165 57.7688 -7.2212 5.2105 0.9805
# 4 3.0274 3.3939 -7.2212 27.8594 4.9065 -4.0494
# 5 2.4120 3.0300 5.2105 4.9065 29.0224 -0.8395
# 6 6.2304 2.5794 0.9805 -4.0494 -0.8395 39.8474
#
#
#
# Elastic Compliance Matrix: (Units=1/GPa)
#
#
# Indices 1 2 3 4 5 6 
#
# 1 0.010636 -0.003737 0.000464 -0.000712 -0.000500 -0.001515
# 2 -0.003737 0.013015 -0.005699 -0.002790 0.000435 -0.000392
# 3 0.000464 -0.005699 0.021020 0.006920 -0.004376 0.000390
# 4 -0.000712 -0.002790 0.006920 0.040019 -0.007541 0.004030
# 5 -0.000500 0.000435 -0.004376 -0.007541 0.036517 0.000161
# 6 -0.001515 -0.000392 0.000390 0.004030 0.000161 0.025761
#
#
# Mechanical properties :
#
#
# Convention : Reuss Voigt Hill
#
# Bulk Modulus (GPa) = 37.41692 43.91039 40.66366
# Shear Modulus (GPa) = 28.76497 32.49818 30.63157
#
# Velocity S-wave (km/s) = 3.63146 3.85992 3.74743
# Velocity P-wave (km/s) = 5.89384 6.32426 6.11284
#
# Compressibility (1/GPa) = 0.02672588
#
# Stress axis : x y z
#
# Youngs Moduli (GPa) = 94.02382 76.83425 47.57324
#
# Poissons Ratio (x) = 0.28716 -0.02208
# Poissons Ratio (y) = 0.35140 0.27113
# Poissons Ratio (z) = -0.04365 0.43790
#
# Static dielectric constant tensor:
#      x y z
#    x 4.013430 0.261200 -0.033080 
#    y 0.261200 4.090060 0.339200 
#    z -0.033080 0.339200 3.950040 
# 
# 
# High freq. dielectric constant tensor:
#      x y z
#    x 1.858850 0.011940 -0.006680 
#    y 0.011940 1.860230 0.013400 
#    z -0.006680 0.013400 1.844790 
# 
# From -- ./inp_files/208045.got.cif
#   From: 2010.06.25/outbox.cif.g09.slc.cpg/sg2_105_cif.got.tgz:208045.got - 2010.06.27 13:26:56.
