data_PCOD8012238
_publ_section_title
;
Structure prediction by ZEFSAII (Michael W. Deem and Ramdas Pophale) SiO2 
 PCOD8012238
Probable space group: P -1
;
_chemical_formula_sum "Si O2"
_cell_formula_units_Z 16
_cell_length_a 27.920819
_cell_length_b 9.533407
_cell_length_c 9.484065
_cell_angle_alpha 136.072948
_cell_angle_beta 154.890154
_cell_angle_gamma 42.326801
_cell_volume 709.870502
_symmetry_space_group_name_H-M "P -1"
_symmetry_group_IT_number 2
_symmetry_cell_setting 'triclinic'
loop_
_space_group_symop_operation_xyz
x,y,z
-x,-y,-z
loop_
_atom_site_type_symbol
_atom_site_label
_atom_site_fract_x
_atom_site_fract_y
_atom_site_fract_z
Si Si1 0.007851 0.550397 0.721611
Si Si2 0.005822 0.763705 0.307155
Si Si3 0.198838 0.081608 0.627049
Si Si4 0.749900 0.936547 0.738873
Si Si5 0.741060 0.566908 0.778391
Si Si6 0.332412 0.785950 0.538847
Si Si7 0.210867 0.792521 0.702762
Si Si8 0.606970 0.627230 0.195963
O O1 0.962749 0.392807 0.587777
O O2 0.921965 0.789659 0.683171
O O3 0.000000 0.500000 0.500000
O O4 0.147451 0.517174 0.094687
O O5 0.106151 0.694600 0.403867
O O6 0.000000 0.000000 0.500000
O O7 0.876405 0.773989 0.909525
O O8 0.295648 0.973813 0.690485
O O9 0.173184 0.905671 0.533520
O O10 0.255105 0.232809 0.976049
O O11 0.653767 0.811474 0.389627
O O12 0.705675 0.133004 0.659638
O O13 0.766160 0.030592 0.003475
O O14 0.738286 0.382935 0.745203
O O15 0.625833 0.622839 0.412233
O O16 0.470962 0.675924 0.833881
O O17 0.330116 0.600518 0.869670
#
# Coordination Sequence:
#
# PCOD8012238 Si02
#       8
#     2   2   2   2   2   2   2   2
#     4  10  21  39  68 101 134 167 216 273 329 399
#     4  10  21  40  68  99 134 172 214 266 338 401
#     4  11  25  44  68 103 133 171 221 273 332 393
#     4  11  25  46  66  99 135 170 216 281 334 382
#     4  11  23  44  69  96 135 172 215 280 329 383
#     4  12  29  42  69  99 130 178 231 272 317 397
#     4  11  25  43  72  97 134 177 216 270 338 398
#     4  12  25  48  66  95 135 176 232 268 322 394
#
# _framework density 22.539323
#
# number of rings (size 3 to 8) (size 9 to 14) (size 15 to 20)
#    0.000    1.000    3.750    3.000   10.500    4.000 
#    0.000    0.000    0.000    0.000    0.000    0.000 
#    0.000    0.000    0.000    0.000    0.000    0.000 
#
# Total GULP energy -198414.807177 kJ/mol
# GULP energy per Si atom -12400.925449 kJ/mol
# Density = 2.248802 g / cm^3
# Si number density = 22.539323 Si / 1000 Ang^3
#
#
#
# Elastic Constant Matrix: (Units=GPa)
#
#
# Indices 1 2 3 4 5 6 
#
# 1 68.2997 52.5643 10.3117 -7.8401 18.4796 13.6531
# 2 52.5643 127.5041 24.2393 -13.0312 20.1973 12.8960
# 3 10.3117 24.2393 55.9527 -10.4411 14.7585 -5.2707
# 4 -7.8401 -13.0312 -10.4411 43.4312 4.2904 4.1729
# 5 18.4796 20.1973 14.7585 4.2904 31.9956 -3.0995
# 6 13.6531 12.8960 -5.2707 4.1729 -3.0995 55.4930
#
#
#
# Elastic Compliance Matrix: (Units=1/GPa)
#
#
# Indices 1 2 3 4 5 6 
#
# 1 0.025074 -0.007978 0.002197 0.004287 -0.011526 -0.005072
# 2 -0.007978 0.012415 -0.003117 0.001894 -0.002189 -0.001483
# 3 0.002197 -0.003117 0.022796 0.005849 -0.010473 0.001324
# 4 0.004287 0.001894 0.005849 0.027138 -0.010354 -0.003558
# 5 -0.011526 -0.002189 -0.010473 -0.010354 0.046065 0.005701
# 6 -0.005072 -0.001483 0.001324 -0.003558 0.005701 0.020325
#
#
# Mechanical properties :
#
#
# Convention : Reuss Voigt Hill
#
# Bulk Modulus (GPa) = 23.53468 47.33190 35.43329
# Shear Modulus (GPa) = 26.91508 37.16004 32.03756
#
# Velocity S-wave (km/s) = 3.45938 4.06479 3.77425
# Velocity P-wave (km/s) = 5.14011 6.56318 5.89475
#
# Compressibility (1/GPa) = 0.04249049
#
# Stress axis : x y z
#
# Youngs Moduli (GPa) = 39.88209 80.55034 43.86717
#
# Poissons Ratio (x) = 0.64261 -0.09639
# Poissons Ratio (y) = 0.31817 0.13672
# Poissons Ratio (z) = -0.08763 0.25105
#
# Static dielectric constant tensor:
#      x y z
#    x 4.227890 0.072300 0.291820 
#    y 0.072300 4.263960 -0.200900 
#    z 0.291820 -0.200900 4.071120 
# 
# 
# High freq. dielectric constant tensor:
#      x y z
#    x 1.892280 0.012070 0.004660 
#    y 0.012070 1.904410 0.001230 
#    z 0.004660 0.001230 1.878700 
# 
# From -- ./inp_files/352464.got.cif
#   From: 2010.06.25/outbox.cif.g09.slc.cpg/sg2_177_cif.got.tgz:352464.got - 2010.06.27 13:26:56.
