data_PCOD8012563
_publ_section_title
;
Structure prediction by ZEFSAII (Michael W. Deem and Ramdas Pophale) SiO2 
 PCOD8012563
Probable space group: P -1
;
_chemical_formula_sum "Si O2"
_cell_formula_units_Z 16
_cell_length_a 12.316441
_cell_length_b 6.485256
_cell_length_c 19.518037
_cell_angle_alpha 128.343619
_cell_angle_beta 48.394434
_cell_angle_gamma 99.061049
_cell_volume 823.746040
_symmetry_space_group_name_H-M "P -1"
_symmetry_group_IT_number 2
_symmetry_cell_setting 'triclinic'
loop_
_space_group_symop_operation_xyz
x,y,z
-x,-y,-z
loop_
_atom_site_type_symbol
_atom_site_label
_atom_site_fract_x
_atom_site_fract_y
_atom_site_fract_z
Si Si1 0.438465 0.617006 0.246311
Si Si2 0.508297 0.590047 0.365726
Si Si3 0.087235 0.679107 0.223592
Si Si4 0.737590 0.758629 0.383193
Si Si5 0.239059 0.314074 0.211212
Si Si6 0.622979 0.346842 0.978548
Si Si7 0.969228 0.327845 0.417675
Si Si8 0.345103 0.281048 0.438266
O O1 0.523304 0.509779 0.262244
O O2 0.302161 0.501672 0.271169
O O3 0.358819 0.966260 0.347834
O O4 0.564473 0.500747 0.107544
O O5 0.669010 0.623535 0.324947
O O6 0.502581 0.328933 0.361114
O O7 0.350576 0.890864 0.510001
O O8 0.210286 0.434853 0.171522
O O9 0.200051 0.662241 0.108013
O O10 0.928868 0.634403 0.261848
O O11 0.023334 0.996629 0.351290
O O12 0.701387 0.649512 0.448749
O O13 0.067226 0.349202 0.315541
O O14 0.367010 0.977008 0.088231
O O15 0.500000 0.500000 0.000000
O O16 0.783951 0.477206 0.506474
O O17 0.000000 0.500000 0.500000
#
# Coordination Sequence:
#
# PCOD8012563 Si02
#       8
#     2   2   2   2   2   2   2   2
#     4  11  24  38  60  90 118 162 204 241 303 351
#     4  10  22  39  62  87 124 155 199 256 290 360
#     4  11  22  39  60  88 121 161 196 246 295 359
#     4  10  21  40  61  90 119 162 200 238 312 353
#     4  11  23  38  60  87 122 160 196 246 299 361
#     4  11  25  41  61  89 119 164 205 243 294 358
#     4  11  22  32  55  91 127 152 189 241 304 361
#     4  11  21  36  61  91 121 155 194 249 299 358
#
# _framework density 19.423462000000001
#
# number of rings (size 3 to 8) (size 9 to 14) (size 15 to 20)
#    0.000    1.250    3.750    2.250    5.250    1.000 
#    0.000    0.625    0.000    1.500    0.000    0.000 
#    0.000    0.000    0.000    0.000    0.000    0.000 
#
# Total GULP energy -198376.448562 kJ/mol
# GULP energy per Si atom -12398.528035 kJ/mol
# Density = 1.937925 g / cm^3
# Si number density = 19.423462 Si / 1000 Ang^3
#
#
#
# Elastic Constant Matrix: (Units=GPa)
#
#
# Indices 1 2 3 4 5 6 
#
# 1 127.7125 46.7142 40.2826 -6.9401 -1.6751 8.1265
# 2 46.7142 118.0341 33.5324 2.3319 -5.0492 5.4772
# 3 40.2826 33.5324 76.0398 -7.4096 -1.2433 4.0547
# 4 -6.9401 2.3319 -7.4096 34.6344 -1.6279 -5.6913
# 5 -1.6751 -5.0492 -1.2433 -1.6279 22.1451 -2.4459
# 6 8.1265 5.4772 4.0547 -5.6913 -2.4459 24.0284
#
#
#
# Elastic Compliance Matrix: (Units=1/GPa)
#
#
# Indices 1 2 3 4 5 6 
#
# 1 0.010326 -0.002895 -0.003989 0.001083 -0.000236 -0.001927
# 2 -0.002895 0.010733 -0.003313 -0.002132 0.001749 -0.001235
# 3 -0.003989 -0.003313 0.017027 0.003067 0.000121 -0.000030
# 4 0.001083 -0.002132 0.003067 0.031222 0.002868 0.007289
# 5 -0.000236 0.001749 0.000121 0.002868 0.046314 0.005055
# 6 -0.001927 -0.001235 -0.000030 0.007289 0.005055 0.044797
#
#
# Mechanical properties :
#
#
# Convention : Reuss Voigt Hill
#
# Bulk Modulus (GPa) = 56.52098 62.53831 59.52964
# Shear Modulus (GPa) = 26.77934 29.57872 28.17903
#
# Velocity S-wave (km/s) = 3.71713 3.90658 3.81303
# Velocity P-wave (km/s) = 6.89820 7.25367 7.07817
#
# Compressibility (1/GPa) = 0.01769255
#
# Stress axis : x y z
#
# Youngs Moduli (GPa) = 96.84600 93.16667 58.72868
#
# Poissons Ratio (x) = 0.26976 0.23426
# Poissons Ratio (y) = 0.28042 0.19455
# Poissons Ratio (z) = 0.38630 0.30863
#
# Static dielectric constant tensor:
#      x y z
#    x 3.176060 -0.075430 0.206750 
#    y -0.075430 3.766320 -0.008380 
#    z 0.206750 -0.008380 3.277610 
# 
# 
# High freq. dielectric constant tensor:
#      x y z
#    x 1.745830 0.007510 -0.006850 
#    y 0.007510 1.779130 -0.007790 
#    z -0.006850 -0.007790 1.736310 
# 
# From -- ./inp_files/66225.got.cif
#   From: 2010.06.25/outbox.cif.g09.slc.cpg/sg2_34_cif.got.tgz:66225.got - 2010.06.27 13:26:56.
