data_PCOD8012355
_publ_section_title
;
Structure prediction by ZEFSAII (Michael W. Deem and Ramdas Pophale) SiO2 
 PCOD8012355
Probable space group: P -1
;
_chemical_formula_sum "Si O2"
_cell_formula_units_Z 14
_cell_length_a 24.612827
_cell_length_b 9.283844
_cell_length_c 9.006997
_cell_angle_alpha 65.837187
_cell_angle_beta 36.568089
_cell_angle_gamma 38.616850
_cell_volume 619.649123
_symmetry_space_group_name_H-M "P -1"
_symmetry_group_IT_number 2
_symmetry_cell_setting 'triclinic'
loop_
_space_group_symop_operation_xyz
x,y,z
-x,-y,-z
loop_
_atom_site_type_symbol
_atom_site_label
_atom_site_fract_x
_atom_site_fract_y
_atom_site_fract_z
Si Si1 0.885328 0.610866 0.073806
Si Si2 0.525803 0.100029 0.788627
Si Si3 0.514212 0.506785 0.144299
Si Si4 0.992133 0.817779 0.221108
Si Si5 0.270662 0.618105 0.606629
Si Si6 0.567118 0.972916 0.215248
Si Si7 0.185824 0.130246 0.181499
O O1 0.705445 0.843415 0.432881
O O2 0.881015 0.740050 0.891162
O O3 0.000000 0.500000 0.000000
O O4 0.963133 0.334249 0.966098
O O5 0.487851 0.313617 0.868675
O O6 0.401993 0.223631 0.875903
O O7 0.500000 0.000000 0.000000
O O8 0.355895 0.639956 0.500688
O O9 0.500000 0.500000 0.000000
O O10 0.676935 0.201407 0.988601
O O11 0.962153 0.728140 0.451883
O O12 0.834659 0.157737 0.395470
O O13 0.154475 0.691441 0.948285
O O14 0.419173 0.300339 0.342367
O O15 0.500000 0.000000 0.500000
O O16 0.736551 0.824951 0.930418
#
# Coordination Sequence:
#
# PCOD8012355 Si02
#       7
#     2   2   2   2   2   2   2
#     4  12  27  45  64 107 146 183 237 292 350 420
#     4  12  26  44  73 104 139 183 232 296 351 415
#     4  11  23  44  73 105 137 183 237 293 352 413
#     4  11  22  42  72  99 140 192 230 276 356 426
#     4  10  21  39  70 100 136 182 230 280 346 414
#     4  11  22  45  70 106 140 181 238 291 344 415
#     4  11  24  44  75 101 141 189 237 285 354 422
#
# _framework density 22.593432
#
# number of rings (size 3 to 8) (size 9 to 14) (size 15 to 20)
#    0.000    0.857    4.286    3.000    2.000    0.571 
#    2.571    0.000    0.000    8.571    0.000    0.000 
#    0.000    0.000    0.000    0.000    0.000    0.000 
#
# Total GULP energy -173459.927430 kJ/mol
# GULP energy per Si atom -12389.994816 kJ/mol
# Density = 2.254201 g / cm^3
# Si number density = 22.593432 Si / 1000 Ang^3
#
#
#
# Elastic Constant Matrix: (Units=GPa)
#
#
# Indices 1 2 3 4 5 6 
#
# 1 174.0681 83.3325 57.6950 -14.0943 1.5000 18.1499
# 2 83.3325 106.9889 52.2245 -13.1461 1.1654 12.7503
# 3 57.6950 52.2245 128.8663 -29.7339 -9.5054 4.1945
# 4 -14.0943 -13.1461 -29.7339 48.3764 3.0904 -6.7540
# 5 1.5000 1.1654 -9.5054 3.0904 33.9890 -3.9206
# 6 18.1499 12.7503 4.1945 -6.7540 -3.9206 47.0065
#
#
#
# Elastic Compliance Matrix: (Units=1/GPa)
#
#
# Indices 1 2 3 4 5 6 
#
# 1 0.009575 -0.006393 -0.001754 -0.000236 -0.000893 -0.001915
# 2 -0.006393 0.016437 -0.003834 0.000102 -0.001566 -0.001764
# 3 -0.001754 -0.003834 0.011565 0.005600 0.003136 0.001751
# 4 -0.000236 0.000102 0.005600 0.024519 -0.000303 0.003061
# 5 -0.000893 -0.001566 0.003136 -0.000303 0.030767 0.003013
# 6 -0.001915 -0.001764 0.001751 0.003061 0.003013 0.023026
#
#
# Mechanical properties :
#
#
# Convention : Reuss Voigt Hill
#
# Bulk Modulus (GPa) = 73.44260 88.49193 80.96727
# Shear Modulus (GPa) = 34.62859 40.31914 37.47386
#
# Velocity S-wave (km/s) = 3.91920 4.22898 4.07703
# Velocity P-wave (km/s) = 7.28402 7.94341 7.62085
#
# Compressibility (1/GPa) = 0.01361608
#
# Stress axis : x y z
#
# Youngs Moduli (GPa) = 104.43962 60.83777 86.46417
#
# Poissons Ratio (x) = 0.38891 0.15167
# Poissons Ratio (y) = 0.66764 0.33150
# Poissons Ratio (z) = 0.18320 0.23325
#
# Static dielectric constant tensor:
#      x y z
#    x 37.206150 7.324320 -3.866540 
#    y 7.324320 6.207990 -0.866690 
#    z -3.866540 -0.866690 4.839170 
# 
# 
# High freq. dielectric constant tensor:
#      x y z
#    x 1.867240 0.006780 -0.021160 
#    y 0.006780 1.909100 -0.010760 
#    z -0.021160 -0.010760 1.904850 
# 
# From -- ./inp_files/352134.got.cif
#   From: 2010.06.25/outbox.cif.g09.slc.cpg/sg2_177_cif.got.tgz:352134.got - 2010.06.27 13:26:56.
