data_PCOD8012930
_publ_section_title
;
Structure prediction by ZEFSAII (Michael W. Deem and Ramdas Pophale) SiO2 
 PCOD8012930
Probable space group: P -1
;
_chemical_formula_sum "Si O2"
_cell_formula_units_Z 14
_cell_length_a 13.796397
_cell_length_b 8.124034
_cell_length_c 8.962234
_cell_angle_alpha 75.810059
_cell_angle_beta 140.436000
_cell_angle_gamma 116.465535
_cell_volume 564.162647
_symmetry_space_group_name_H-M "P -1"
_symmetry_group_IT_number 2
_symmetry_cell_setting 'triclinic'
loop_
_space_group_symop_operation_xyz
x,y,z
-x,-y,-z
loop_
_atom_site_type_symbol
_atom_site_label
_atom_site_fract_x
_atom_site_fract_y
_atom_site_fract_z
Si Si1 0.403204 0.131015 0.336764
Si Si2 0.630849 0.609786 0.002536
Si Si3 0.957922 0.763853 0.548683
Si Si4 0.823772 0.543069 0.698173
Si Si5 0.549123 0.688986 0.342217
Si Si6 0.112974 0.796013 0.175525
Si Si7 0.168234 0.967596 0.515254
O O1 0.415586 0.231254 0.169631
O O2 0.474389 0.288998 0.515690
O O3 0.500000 0.000000 0.500000
O O4 0.206528 0.998433 0.163945
O O5 0.624626 0.448415 0.911697
O O6 0.500000 0.500000 0.000000
O O7 0.814940 0.708524 0.265060
O O8 0.938843 0.593916 0.671905
O O9 0.137945 0.842661 0.658904
O O10 0.944017 0.916775 0.613012
O O11 0.656928 0.569082 0.466973
O O12 0.780731 0.324738 0.716642
O O13 0.924114 0.678971 0.921685
O O14 0.638496 0.889548 0.318379
O O15 0.099809 0.826577 0.328234
#
# Coordination Sequence:
#
# PCOD8012930 Si02
#       7
#     2   2   2   2   2   2   2
#     4  11  26  43  66  93 128 167 217 262 313 380
#     4  12  23  41  65  96 125 173 207 260 321 378
#     4  10  22  37  65  91 128 164 212 255 317 382
#     4  10  21  40  64  92 129 162 214 257 317 371
#     4  10  22  42  68  89 126 168 216 258 312 383
#     4  10  23  39  64  93 128 166 211 268 309 364
#     4   9  20  38  60  92 122 162 208 260 306 369
#
# _framework density 24.815541
#
# number of rings (size 3 to 8) (size 9 to 14) (size 15 to 20)
#    0.000    1.714    2.857    1.286    8.000    3.429 
#    2.571    2.143    0.000    0.000    0.000    0.000 
#    0.000    0.000    0.000    0.000    0.000    0.000 
#
# Total GULP energy -173450.403811 kJ/mol
# GULP energy per Si atom -12389.314558 kJ/mol
# Density = 2.475906 g / cm^3
# Si number density = 24.815541 Si / 1000 Ang^3
#
#
#
# Elastic Constant Matrix: (Units=GPa)
#
#
# Indices 1 2 3 4 5 6 
#
# 1 76.3719 24.7608 3.0025 2.1193 -25.5538 1.9539
# 2 24.7608 105.3720 37.8483 22.2128 -20.9479 -2.0887
# 3 3.0025 37.8483 59.2456 23.4122 -20.8748 -26.4446
# 4 2.1193 22.2128 23.4122 41.4054 -3.4407 -16.7973
# 5 -25.5538 -20.9479 -20.8748 -3.4407 27.7174 2.5588
# 6 1.9539 -2.0887 -26.4446 -16.7973 2.5588 34.0920
#
#
#
# Elastic Compliance Matrix: (Units=1/GPa)
#
#
# Indices 1 2 3 4 5 6 
#
# 1 0.024156 -0.005274 0.017617 -0.002391 0.030472 0.008492
# 2 -0.005274 0.016294 -0.014660 -0.005539 -0.003116 -0.012566
# 3 0.017617 -0.014660 0.063355 -0.008953 0.048146 0.039211
# 4 -0.002391 -0.005539 -0.008953 0.036116 -0.009700 0.011376
# 5 0.030472 -0.003116 0.048146 -0.009700 0.094701 0.023521
# 6 0.008492 -0.012566 0.039211 0.011376 0.023521 0.062331
#
#
# Mechanical properties :
#
#
# Convention : Reuss Voigt Hill
#
# Bulk Modulus (GPa) = 10.08361 41.35697 25.72029
# Shear Modulus (GPa) = 14.94122 32.33482 23.63802
#
# Velocity S-wave (km/s) = 2.45642 3.61363 3.08969
# Velocity P-wave (km/s) = 3.48103 5.84064 4.80784
#
# Compressibility (1/GPa) = 0.09917081
#
# Stress axis : x y z
#
# Youngs Moduli (GPa) = 41.39779 61.37111 15.78402
#
# Poissons Ratio (x) = 0.32367 -0.27807
# Poissons Ratio (y) = 0.21833 0.23140
# Poissons Ratio (z) = -0.72930 0.89972
#
# Static dielectric constant tensor:
#      x y z
#    x 4.536760 0.521350 -0.399430 
#    y 0.521350 4.981490 0.242390 
#    z -0.399430 0.242390 4.308670 
# 
# 
# High freq. dielectric constant tensor:
#      x y z
#    x 1.978870 0.027040 -0.028720 
#    y 0.027040 2.007760 0.030400 
#    z -0.028720 0.030400 1.961170 
# 
# From -- ./inp_files/298426.got.cif
#   From: 2010.06.25/outbox.cif.g09.slc.cpg/sg2_150_cif.got.tgz:298426.got - 2010.06.27 13:26:56.
