data_PCOD8012219
_publ_section_title
;
Structure prediction by ZEFSAII (Michael W. Deem and Ramdas Pophale) SiO2 
 PCOD8012219
Probable space group: P -1
;
_chemical_formula_sum "Si O2"
_cell_formula_units_Z 14
_cell_length_a 9.290064
_cell_length_b 12.584627
_cell_length_c 11.617483
_cell_angle_alpha 58.730131
_cell_angle_beta 139.464281
_cell_angle_gamma 130.517524
_cell_volume 670.183421
_symmetry_space_group_name_H-M "P -1"
_symmetry_group_IT_number 2
_symmetry_cell_setting 'triclinic'
loop_
_space_group_symop_operation_xyz
x,y,z
-x,-y,-z
loop_
_atom_site_type_symbol
_atom_site_label
_atom_site_fract_x
_atom_site_fract_y
_atom_site_fract_z
Si Si1 0.582014 0.176833 0.162315
Si Si2 0.759103 0.794917 0.231290
Si Si3 0.556767 0.479472 0.226320
Si Si4 0.292404 0.071783 0.654753
Si Si5 0.843651 0.485699 0.171995
Si Si6 0.359641 0.695040 0.440901
Si Si7 0.294674 0.858351 0.499888
O O1 0.790268 0.335566 0.168090
O O2 0.572515 0.177621 0.293789
O O3 0.635969 0.053949 0.216083
O O4 0.319175 0.156484 0.962068
O O5 0.678986 0.631507 0.273224
O O6 0.629614 0.834039 0.235949
O O7 0.056413 0.876736 0.384913
O O8 0.744836 0.467768 0.253764
O O9 0.502281 0.373257 0.359593
O O10 0.293522 0.443641 0.026211
O O11 0.436742 0.175045 0.579545
O O12 0.000000 0.000000 0.500000
O O13 0.141747 0.581827 0.292152
O O14 0.212234 0.745972 0.411184
O O15 0.500000 0.000000 0.500000
#
# Coordination Sequence:
#
# PCOD8012219 Si02
#       7
#     2   2   2   2   2   2   2
#     4  11  23  43  68  90 128 172 213 263 323 379
#     4  11  24  44  65  90 133 175 212 259 326 383
#     4  10  21  39  67  98 128 167 207 267 325 377
#     4  12  26  47  63  93 133 178 215 261 324 384
#     4  10  21  40  66 100 129 160 215 265 323 381
#     4  12  23  40  69  98 130 165 215 270 318 378
#     4  12  22  40  64 100 128 165 221 267 317 378
#
# _framework density 20.889806
#
# number of rings (size 3 to 8) (size 9 to 14) (size 15 to 20)
#    0.000    0.857    5.714    1.714    0.000    1.143 
#    7.714    1.429    0.000    0.000    0.000    0.000 
#    0.000    0.000    0.000    0.000    0.000    0.000 
#
# Total GULP energy -173560.392390 kJ/mol
# GULP energy per Si atom -12397.170885 kJ/mol
# Density = 2.084226 g / cm^3
# Si number density = 20.889806 Si / 1000 Ang^3
#
#
#
# Elastic Constant Matrix: (Units=GPa)
#
#
# Indices 1 2 3 4 5 6 
#
# 1 88.7059 50.0917 38.7744 -4.3329 -4.6440 -4.7085
# 2 50.0917 119.8481 51.0743 -15.6158 4.8157 -10.6816
# 3 38.7744 51.0743 126.7462 -11.0401 -9.9124 18.5374
# 4 -4.3329 -15.6158 -11.0401 31.0685 -8.6094 -0.0984
# 5 -4.6440 4.8157 -9.9124 -8.6094 15.4271 3.3380
# 6 -4.7085 -10.6816 18.5374 -0.0984 3.3380 35.1673
#
#
#
# Elastic Compliance Matrix: (Units=1/GPa)
#
#
# Indices 1 2 3 4 5 6 
#
# 1 0.015833 -0.005717 -0.002369 -0.000214 0.004652 0.001190
# 2 -0.005717 0.014656 -0.006078 0.001338 -0.011175 0.007954
# 3 -0.002369 -0.006078 0.014580 0.006349 0.016562 -0.011403
# 4 -0.000214 0.001338 0.006349 0.043059 0.028836 -0.005586
# 5 0.004652 -0.011175 0.016562 0.028836 0.100989 -0.021007
# 6 0.001190 0.007954 -0.011403 -0.005586 -0.021007 0.039000
#
#
# Mechanical properties :
#
#
# Convention : Reuss Voigt Hill
#
# Bulk Modulus (GPa) = 59.73161 68.35346 64.04253
# Shear Modulus (GPa) = 19.08230 29.35657 24.21943
#
# Velocity S-wave (km/s) = 3.02565 3.75281 3.40868
# Velocity P-wave (km/s) = 6.39233 7.18123 6.79823
#
# Compressibility (1/GPa) = 0.01674156
#
# Stress axis : x y z
#
# Youngs Moduli (GPa) = 63.15838 68.23331 68.58904
#
# Poissons Ratio (x) = 0.39008 0.16249
# Poissons Ratio (y) = 0.36107 0.41686
# Poissons Ratio (z) = 0.14962 0.41469
#
# Static dielectric constant tensor:
#      x y z
#    x 1.823270 0.804060 -0.238060 
#    y 0.804060 3.239240 0.053200 
#    z -0.238060 0.053200 3.745470 
# 
# 
# High freq. dielectric constant tensor:
#      x y z
#    x 1.788140 -0.021580 -0.010130 
#    y -0.021580 1.833970 -0.000530 
#    z -0.010130 -0.000530 1.828920 
# 
# From -- ./inp_files/183773.got.cif
#   From: 2010.06.25/outbox.cif.g09.slc.cpg/sg2_92_cif.got.tgz:183773.got - 2010.06.27 13:26:56.
