data_PCOD8012323
_publ_section_title
;
Structure prediction by ZEFSAII (Michael W. Deem and Ramdas Pophale) SiO2 
 PCOD8012323
Probable space group: P -1
;
_chemical_formula_sum "Si O2"
_cell_formula_units_Z 14
_cell_length_a 9.950911
_cell_length_b 16.864819
_cell_length_c 5.542208
_cell_angle_alpha 112.035926
_cell_angle_beta 65.941783
_cell_angle_gamma 73.152592
_cell_volume 670.951364
_symmetry_space_group_name_H-M "P -1"
_symmetry_group_IT_number 2
_symmetry_cell_setting 'triclinic'
loop_
_space_group_symop_operation_xyz
x,y,z
-x,-y,-z
loop_
_atom_site_type_symbol
_atom_site_label
_atom_site_fract_x
_atom_site_fract_y
_atom_site_fract_z
Si Si1 0.295843 0.796946 0.933311
Si Si2 0.491416 0.641152 0.234126
Si Si3 0.967896 0.253331 0.818516
Si Si4 0.648956 0.442973 0.136318
Si Si5 0.831035 0.824807 0.908978
Si Si6 0.511446 0.800894 0.162688
Si Si7 0.194774 0.967828 0.857223
O O1 0.339340 0.706868 0.612205
O O2 0.251351 0.904014 0.987150
O O3 0.473127 0.758179 0.902838
O O4 0.129627 0.808837 0.209476
O O5 0.644298 0.530569 0.077905
O O6 0.577343 0.707867 0.194223
O O7 0.388846 0.630872 0.074070
O O8 0.079954 0.233283 0.470581
O O9 0.068526 0.224051 0.968638
O O10 0.833427 0.374027 0.051546
O O11 0.500000 0.500000 0.500000
O O12 0.649456 0.832363 0.068055
O O13 0.787544 0.936578 0.030602
O O14 0.323461 0.896883 0.473432
O O15 0.000000 0.000000 0.000000
#
# Coordination Sequence:
#
# PCOD8012323 Si02
#       7
#     2   2   2   2   2   2   2
#     4  11  22  41  72  97 137 177 238 284 337 402
#     4  10  21  39  69 103 134 171 234 287 342 399
#     4  12  25  45  68 104 134 182 229 286 338 406
#     4  11  21  38  73 103 130 173 236 292 339 398
#     4  12  29  45  67 100 151 181 225 281 350 412
#     4  11  25  44  67  99 139 189 219 283 349 411
#     4  11  24  42  72 101 134 180 240 283 330 403
#
# _framework density 20.865891999999999
#
# number of rings (size 3 to 8) (size 9 to 14) (size 15 to 20)
#    0.000    0.857    4.286    2.143    8.000    1.714 
#    0.000    1.429    0.000    0.000    0.000    0.000 
#    0.000    0.000    0.000    0.000    0.000    0.000 
#
# Total GULP energy -173471.570326 kJ/mol
# GULP energy per Si atom -12390.826452 kJ/mol
# Density = 2.081840 g / cm^3
# Si number density = 20.865892 Si / 1000 Ang^3
#
#
#
# Elastic Constant Matrix: (Units=GPa)
#
#
# Indices 1 2 3 4 5 6 
#
# 1 133.3249 51.3490 52.5940 -7.4596 -18.0054 9.7090
# 2 51.3490 115.1723 63.0977 8.4366 -20.4831 0.5922
# 3 52.5940 63.0977 117.0073 1.5567 -3.1301 1.1475
# 4 -7.4596 8.4366 1.5567 36.3382 -1.9377 3.0377
# 5 -18.0054 -20.4831 -3.1301 -1.9377 25.8850 -8.2097
# 6 9.7090 0.5922 1.1475 3.0377 -8.2097 41.3989
#
#
#
# Elastic Compliance Matrix: (Units=1/GPa)
#
#
# Indices 1 2 3 4 5 6 
#
# 1 0.010713 -0.002175 -0.003535 0.003260 0.005032 -0.001625
# 2 -0.002175 0.015749 -0.007210 -0.003462 0.010728 0.002866
# 3 -0.003535 -0.007210 0.013851 0.000062 -0.006737 -0.000792
# 4 0.003260 -0.003462 0.000062 0.029261 0.000873 -0.002691
# 5 0.005032 0.010728 -0.006737 0.000873 0.052810 0.009262
# 6 -0.001625 0.002866 -0.000792 -0.002691 0.009262 0.026551
#
#
# Mechanical properties :
#
#
# Convention : Reuss Voigt Hill
#
# Bulk Modulus (GPa) = 69.10172 77.73176 73.41674
# Shear Modulus (GPa) = 27.83955 33.95534 30.89744
#
# Velocity S-wave (km/s) = 3.65665 4.03837 3.85224
# Velocity P-wave (km/s) = 7.14262 7.68625 7.41942
#
# Compressibility (1/GPa) = 0.01447142
#
# Stress axis : x y z
#
# Youngs Moduli (GPa) = 93.34395 63.49468 72.19865
#
# Poissons Ratio (x) = 0.13810 0.25525
# Poissons Ratio (y) = 0.20302 0.52059
# Poissons Ratio (z) = 0.33001 0.45783
#
# Static dielectric constant tensor:
#      x y z
#    x 3.607860 0.339540 0.040630 
#    y 0.339540 5.999680 -0.147340 
#    z 0.040630 -0.147340 3.912660 
# 
# 
# High freq. dielectric constant tensor:
#      x y z
#    x 1.788960 -0.003790 0.008520 
#    y -0.003790 1.846700 -0.002070 
#    z 0.008520 -0.002070 1.819570 
# 
# From -- ./inp_files/27551.got.cif
#   From: 2010.06.25/outbox.cif.g09.slc.cpg/sg2_14_cif.got.tgz:27551.got - 2010.06.27 13:26:56.
