data_PCOD8012500
_publ_section_title
;
Structure prediction by ZEFSAII (Michael W. Deem and Ramdas Pophale) SiO2 
 PCOD8012500
Probable space group: P -1
;
_chemical_formula_sum "Si O2"
_cell_formula_units_Z 16
_cell_length_a 15.611973
_cell_length_b 13.741794
_cell_length_c 6.672197
_cell_angle_alpha 109.345394
_cell_angle_beta 121.299869
_cell_angle_gamma 39.175966
_cell_volume 765.833676
_symmetry_space_group_name_H-M "P -1"
_symmetry_group_IT_number 2
_symmetry_cell_setting 'triclinic'
loop_
_space_group_symop_operation_xyz
x,y,z
-x,-y,-z
loop_
_atom_site_type_symbol
_atom_site_label
_atom_site_fract_x
_atom_site_fract_y
_atom_site_fract_z
Si Si1 0.175542 0.851796 0.370870
Si Si2 0.021256 0.831962 0.476842
Si Si3 0.545034 0.342040 0.164676
Si Si4 0.720233 0.308888 0.015567
Si Si5 0.929536 0.509669 0.219904
Si Si6 0.440682 0.046749 0.239265
Si Si7 0.104016 0.270336 0.947708
Si Si8 0.406382 0.236164 0.021143
O O1 0.053740 0.870163 0.338761
O O2 0.343261 0.702927 0.558245
O O3 0.180640 0.827721 0.122677
O O4 0.118451 0.011189 0.461739
O O5 0.978179 0.751734 0.300837
O O6 0.169160 0.714438 0.716984
O O7 0.389361 0.525054 0.112248
O O8 0.518753 0.241782 0.106158
O O9 0.622938 0.298718 0.012627
O O10 0.915309 0.610342 0.112509
O O11 0.000000 0.500000 0.500000
O O12 0.762366 0.593291 0.112356
O O13 0.029786 0.340990 0.127410
O O14 0.428400 0.175560 0.234068
O O15 0.500000 0.000000 0.500000
O O16 0.280714 0.110169 0.078429
O O17 0.564756 0.887355 0.159719
#
# Coordination Sequence:
#
# PCOD8012500 Si02
#       8
#     2   2   2   2   2   2   2   2
#     4  10  21  40  60  88 126 163 208 262 304 368
#     4  10  22  38  62  89 124 162 210 256 309 379
#     4  10  22  39  59  91 124 162 211 260 306 375
#     4  10  22  40  60  90 125 166 210 258 310 373
#     4  10  22  39  59  89 122 158 200 251 309 378
#     4  10  21  41  61  89 122 159 203 260 309 373
#     4  10  22  39  60  90 124 156 203 255 308 371
#     4  10  22  38  61  89 122 157 208 254 308 373
#
# _framework density 20.892263
#
# number of rings (size 3 to 8) (size 9 to 14) (size 15 to 20)
#    0.000    2.000    0.000    2.250    3.500    1.000 
#    0.000    2.500    0.000    0.000    0.000    0.000 
#    0.000    0.000    0.000    0.000    0.000    0.000 
#
# Total GULP energy -198391.545542 kJ/mol
# GULP energy per Si atom -12399.471596 kJ/mol
# Density = 2.084471 g / cm^3
# Si number density = 20.892263 Si / 1000 Ang^3
#
#
#
# Elastic Constant Matrix: (Units=GPa)
#
#
# Indices 1 2 3 4 5 6 
#
# 1 89.6552 30.5122 38.6213 3.0899 9.4907 -4.5124
# 2 30.5122 91.3017 34.1313 5.1482 1.5096 -18.9748
# 3 38.6213 34.1313 115.8729 4.3081 -1.0468 -11.0028
# 4 3.0899 5.1482 4.3081 37.8421 -1.9226 -2.8880
# 5 9.4907 1.5096 -1.0468 -1.9226 29.3191 3.8912
# 6 -4.5124 -18.9748 -11.0028 -2.8880 3.8912 29.9187
#
#
#
# Elastic Compliance Matrix: (Units=1/GPa)
#
#
# Indices 1 2 3 4 5 6 
#
# 1 0.014472 -0.003455 -0.003912 -0.000567 -0.004563 -0.000909
# 2 -0.003455 0.014723 -0.002405 -0.000883 -0.000839 0.007956
# 3 -0.003912 -0.002405 0.010825 -0.000383 0.001535 0.001629
# 4 -0.000567 -0.000883 -0.000383 0.026846 0.001767 0.001575
# 5 -0.004563 -0.000839 0.001535 0.001767 0.036493 -0.005232
# 6 -0.000909 0.007956 0.001629 0.001575 -0.005232 0.039765
#
#
# Mechanical properties :
#
#
# Convention : Reuss Voigt Hill
#
# Bulk Modulus (GPa) = 48.83635 55.92881 52.38258
# Shear Modulus (GPa) = 29.49974 32.32032 30.91003
#
# Velocity S-wave (km/s) = 3.76173 3.93746 3.85060
# Velocity P-wave (km/s) = 6.50335 6.89200 6.70049
#
# Compressibility (1/GPa) = 0.02047655
#
# Stress axis : x y z
#
# Youngs Moduli (GPa) = 69.09937 67.91876 92.37671
#
# Poissons Ratio (x) = 0.23468 0.36140
# Poissons Ratio (y) = 0.23876 0.22212
# Poissons Ratio (z) = 0.27033 0.16331
#
# Static dielectric constant tensor:
#      x y z
#    x 3.706660 -0.195950 -0.188760 
#    y -0.195950 3.873260 -0.060000 
#    z -0.188760 -0.060000 3.698940 
# 
# 
# High freq. dielectric constant tensor:
#      x y z
#    x 1.812510 -0.015490 -0.005550 
#    y -0.015490 1.824400 -0.007640 
#    z -0.005550 -0.007640 1.813910 
# 
# From -- ./inp_files/98529.got.cif
#   From: 2010.06.25/outbox.cif.g09.slc.cpg/sg2_50_cif.got.tgz:98529.got - 2010.06.27 13:26:56.
