data_PCOD8012894
_publ_section_title
;
Structure prediction by ZEFSAII (Michael W. Deem and Ramdas Pophale) SiO2 
 PCOD8012894
Probable space group: P -1
;
_chemical_formula_sum "Si O2"
_cell_formula_units_Z 16
_cell_length_a 9.756271
_cell_length_b 14.570788
_cell_length_c 8.955723
_cell_angle_alpha 41.071757
_cell_angle_beta 105.966407
_cell_angle_gamma 110.524815
_cell_volume 783.224596
_symmetry_space_group_name_H-M "P -1"
_symmetry_group_IT_number 2
_symmetry_cell_setting 'triclinic'
loop_
_space_group_symop_operation_xyz
x,y,z
-x,-y,-z
loop_
_atom_site_type_symbol
_atom_site_label
_atom_site_fract_x
_atom_site_fract_y
_atom_site_fract_z
Si Si1 0.405560 0.026148 0.574993
Si Si2 0.710356 0.185403 0.945023
Si Si3 0.497594 0.753140 0.436383
Si Si4 0.826174 0.740765 0.574081
Si Si5 0.409093 0.435377 0.758428
Si Si6 0.205798 0.206432 0.174547
Si Si7 0.043095 0.968150 0.884659
Si Si8 0.275349 0.513699 0.333159
O O1 0.517433 0.151510 0.542738
O O2 0.260723 0.070862 0.418952
O O3 0.500000 0.000000 0.500000
O O4 0.348208 0.887257 0.828214
O O5 0.568283 0.184192 0.803628
O O6 0.791946 0.351545 0.801310
O O7 0.812781 0.097467 0.996883
O O8 0.668714 0.764122 0.446602
O O9 0.414349 0.590217 0.644092
O O10 0.846102 0.719765 0.783786
O O11 0.942000 0.882403 0.382086
O O12 0.841891 0.594202 0.674476
O O13 0.309658 0.420910 0.597972
O O14 0.572075 0.419101 0.788574
O O15 0.339665 0.316180 0.003035
O O16 0.079153 0.153650 0.082036
O O17 0.000000 0.000000 0.000000
#
# Coordination Sequence:
#
# PCOD8012894 Si02
#       8
#     2   2   2   2   2   2   2   2
#     4  11  23  34  62  94 124 153 189 261 313 356
#     4  11  22  40  61  92 125 156 204 255 294 357
#     4   9  20  38  63  91 121 154 203 253 305 347
#     4  10  21  40  64  90 120 162 194 256 308 361
#     4   9  18  36  62  89 121 158 194 252 300 365
#     4  11  23  40  59  88 127 159 205 240 302 374
#     4  12  26  41  63  83 118 178 210 243 290 359
#     4   9  19  37  64  92 118 151 205 251 309 350
#
# _framework density 20.428367999999999
#
# number of rings (size 3 to 8) (size 9 to 14) (size 15 to 20)
#    0.000    1.750    2.500    3.000    1.750    5.500 
#    0.000    6.250    0.000    0.000    0.000    0.000 
#    0.000    0.000    0.000    0.000    0.000    0.000 
#
# Total GULP energy -198352.586593 kJ/mol
# GULP energy per Si atom -12397.036662 kJ/mol
# Density = 2.038187 g / cm^3
# Si number density = 20.428368 Si / 1000 Ang^3
#
#
#
# Elastic Constant Matrix: (Units=GPa)
#
#
# Indices 1 2 3 4 5 6 
#
# 1 43.6678 21.0067 29.8095 -0.7232 -13.0280 -11.0000
# 2 21.0067 124.5661 29.8736 -2.7373 -1.9300 -17.7534
# 3 29.8095 29.8736 92.2657 4.5095 -12.7697 -2.2131
# 4 -0.7232 -2.7373 4.5095 29.9860 -1.5060 -0.6486
# 5 -13.0280 -1.9300 -12.7697 -1.5060 30.5355 2.5872
# 6 -11.0000 -17.7534 -2.2131 -0.6486 2.5872 36.7649
#
#
#
# Elastic Compliance Matrix: (Units=1/GPa)
#
#
# Indices 1 2 3 4 5 6 
#
# 1 0.035632 -0.002403 -0.009197 0.002736 0.010640 0.008246
# 2 -0.002403 0.009598 -0.002539 0.001196 -0.001752 0.003907
# 3 -0.009197 -0.002539 0.015007 -0.002664 0.002338 -0.003286
# 4 0.002736 0.001196 -0.002664 0.034045 0.001662 0.001720
# 5 0.010640 -0.001752 0.002338 0.001662 0.038253 -0.000184
# 6 0.008246 0.003907 -0.003286 0.001720 -0.000184 0.031400
#
#
# Mechanical properties :
#
#
# Convention : Reuss Voigt Hill
#
# Bulk Modulus (GPa) = 31.29022 46.87547 39.08284
# Shear Modulus (GPa) = 24.64697 31.44460 28.04578
#
# Velocity S-wave (km/s) = 3.47725 3.92760 3.70926
# Velocity P-wave (km/s) = 5.60999 6.60031 6.12520
#
# Compressibility (1/GPa) = 0.03195887
#
# Stress axis : x y z
#
# Youngs Moduli (GPa) = 28.06493 104.18931 66.63707
#
# Poissons Ratio (x) = 0.25036 0.61288
# Poissons Ratio (y) = 0.06744 0.16916
# Poissons Ratio (z) = 0.25812 0.26449
#
# Static dielectric constant tensor:
#      x y z
#    x 3.340350 -0.011020 -0.008190 
#    y -0.011020 4.148120 -0.158380 
#    z -0.008190 -0.158380 3.659880 
# 
# 
# High freq. dielectric constant tensor:
#      x y z
#    x 1.761990 -0.009240 -0.006930 
#    y -0.009240 1.819880 -0.003630 
#    z -0.006930 -0.003630 1.797290 
# 
# From -- ./inp_files/205425.got.cif
#   From: 2010.06.25/outbox.cif.g09.slc.cpg/sg2_103_cif.got.tgz:205425.got - 2010.06.27 13:26:56.
