data_PCOD8012710
_publ_section_title
;
Structure prediction by ZEFSAII (Michael W. Deem and Ramdas Pophale) SiO2 
 PCOD8012710
Probable space group: P -1
;
_chemical_formula_sum "Si O2"
_cell_formula_units_Z 16
_cell_length_a 15.059274
_cell_length_b 10.488761
_cell_length_c 9.389929
_cell_angle_alpha 118.187640
_cell_angle_beta 142.349206
_cell_angle_gamma 79.736376
_cell_volume 743.859182
_symmetry_space_group_name_H-M "P -1"
_symmetry_group_IT_number 2
_symmetry_cell_setting 'triclinic'
loop_
_space_group_symop_operation_xyz
x,y,z
-x,-y,-z
loop_
_atom_site_type_symbol
_atom_site_label
_atom_site_fract_x
_atom_site_fract_y
_atom_site_fract_z
Si Si1 0.237472 0.429753 0.425714
Si Si2 0.062614 0.301542 0.407783
Si Si3 0.128323 0.139084 0.658504
Si Si4 0.582192 0.901464 0.904331
Si Si5 0.049359 0.361412 0.866171
Si Si6 0.822003 0.420940 0.089430
Si Si7 0.517019 0.635638 0.478559
Si Si8 0.697232 0.227327 0.315945
O O1 0.151643 0.308035 0.375395
O O2 0.381739 0.384117 0.534914
O O3 0.302415 0.608940 0.657756
O O4 0.120168 0.420773 0.141210
O O5 0.064933 0.158536 0.431560
O O6 0.157048 0.460281 0.692855
O O7 0.881439 0.284409 0.146106
O O8 0.290953 0.114295 0.829698
O O9 0.158012 0.287242 0.878247
O O10 0.000000 0.000000 0.500000
O O11 0.626559 0.087688 0.036235
O O12 0.598814 0.809901 0.736646
O O13 0.408538 0.820242 0.702061
O O14 0.059702 0.507105 0.856060
O O15 0.871945 0.241905 0.588965
O O16 0.645644 0.362803 0.784492
O O17 0.500000 0.500000 0.500000
#
# Coordination Sequence:
#
# PCOD8012710 Si02
#       8
#     2   2   2   2   2   2   2   2
#     4  12  23  38  67 105 131 169 230 276 322 384
#     4  10  24  39  63 102 127 172 225 277 331 392
#     4  11  22  45  70  89 130 179 226 268 336 408
#     4  11  23  40  63 101 129 178 225 262 332 395
#     4  11  20  38  68  96 126 180 219 271 317 399
#     4  10  21  40  62  98 137 169 222 269 334 384
#     4  12  21  39  67  98 138 177 224 272 320 396
#     4  11  23  36  63 101 135 166 220 277 322 389
#
# _framework density 21.509446000000001
#
# number of rings (size 3 to 8) (size 9 to 14) (size 15 to 20)
#    0.000    1.000    6.250    1.125    1.750    0.500 
#    0.000    0.625    0.000    3.000    3.250    0.000 
#    0.000    0.000    0.000    0.000    0.000    0.000 
#
# Total GULP energy -198334.122098 kJ/mol
# GULP energy per Si atom -12395.882631 kJ/mol
# Density = 2.146049 g / cm^3
# Si number density = 21.509446 Si / 1000 Ang^3
#
#
#
# Elastic Constant Matrix: (Units=GPa)
#
#
# Indices 1 2 3 4 5 6 
#
# 1 116.7220 43.0792 37.2579 -11.3240 5.6060 0.9401
# 2 43.0792 91.5332 45.7301 -1.7889 -4.8399 -1.1003
# 3 37.2579 45.7301 99.4246 -10.5789 11.9044 -3.2592
# 4 -11.3240 -1.7889 -10.5789 38.5198 -7.5058 -5.1469
# 5 5.6060 -4.8399 11.9044 -7.5058 41.1159 -3.7652
# 6 0.9401 -1.1003 -3.2592 -5.1469 -3.7652 34.8701
#
#
#
# Elastic Compliance Matrix: (Units=1/GPa)
#
#
# Indices 1 2 3 4 5 6 
#
# 1 0.011003 -0.004309 -0.001778 0.002278 -0.001112 -0.000383
# 2 -0.004309 0.016445 -0.006599 -0.001465 0.004190 0.000255
# 3 -0.001778 -0.006599 0.014564 0.002503 -0.004192 0.001118
# 4 0.002278 -0.001465 0.002503 0.028774 0.004490 0.004858
# 5 -0.001112 0.004190 -0.004192 0.004490 0.027309 0.003382
# 6 -0.000383 0.000255 0.001118 0.004858 0.003382 0.029883
#
#
# Mechanical properties :
#
#
# Convention : Reuss Voigt Hill
#
# Bulk Modulus (GPa) = 60.09225 62.20157 61.14691
# Shear Modulus (GPa) = 31.46694 35.00867 33.23781
#
# Velocity S-wave (km/s) = 3.82898 4.03872 3.93525
# Velocity P-wave (km/s) = 6.89539 7.12246 7.00984
#
# Compressibility (1/GPa) = 0.01664108
#
# Stress axis : x y z
#
# Youngs Moduli (GPa) = 90.88617 60.80694 68.66159
#
# Poissons Ratio (x) = 0.26200 0.12211
# Poissons Ratio (y) = 0.39160 0.45307
# Poissons Ratio (z) = 0.16163 0.40124
#
# Static dielectric constant tensor:
#      x y z
#    x 3.997740 -0.271780 0.030260 
#    y -0.271780 4.053650 -0.064240 
#    z 0.030260 -0.064240 3.867670 
# 
# 
# High freq. dielectric constant tensor:
#      x y z
#    x 1.851470 -0.024280 0.013330 
#    y -0.024280 1.825720 -0.002100 
#    z 0.013330 -0.002100 1.834090 
# 
# From -- ./inp_files/308410.got.cif
#   From: 2010.06.25/outbox.cif.g09.slc.cpg/sg2_155_cif.got.tgz:308410.got - 2010.06.27 13:26:56.
