data_PCOD8012958
_publ_section_title
;
Structure prediction by ZEFSAII (Michael W. Deem and Ramdas Pophale) SiO2 
 PCOD8012958
Probable space group: P -1
;
_chemical_formula_sum "Si O2"
_cell_formula_units_Z 14
_cell_length_a 12.184916
_cell_length_b 8.956686
_cell_length_c 17.909604
_cell_angle_alpha 149.924150
_cell_angle_beta 141.771028
_cell_angle_gamma 49.421901
_cell_volume 603.431217
_symmetry_space_group_name_H-M "P -1"
_symmetry_group_IT_number 2
_symmetry_cell_setting 'triclinic'
loop_
_space_group_symop_operation_xyz
x,y,z
-x,-y,-z
loop_
_atom_site_type_symbol
_atom_site_label
_atom_site_fract_x
_atom_site_fract_y
_atom_site_fract_z
Si Si1 0.280496 0.468351 0.774977
Si Si2 0.388418 0.192907 0.968849
Si Si3 0.280509 0.771137 0.228219
Si Si4 0.986853 0.104709 0.156073
Si Si5 0.878448 0.807797 0.291686
Si Si6 0.839331 0.600328 0.758060
Si Si7 0.377373 0.905815 0.506381
O O1 0.262437 0.399452 0.823518
O O2 0.126332 0.682315 0.761755
O O3 0.256109 0.164562 0.581232
O O4 0.473214 0.633883 0.937727
O O5 0.238045 0.021261 0.758280
O O6 0.286204 0.421836 0.062646
O O7 0.500000 0.000000 0.000000
O O8 0.327046 0.808772 0.354866
O O9 0.085109 0.879575 0.162295
O O10 0.415308 0.968570 0.329755
O O11 0.134634 0.313249 0.277670
O O12 0.848404 0.905407 0.942517
O O13 0.997577 0.593814 0.215704
O O14 0.000000 0.000000 0.500000
O O15 0.656819 0.386145 0.584058
#
# Coordination Sequence:
#
# PCOD8012958 Si02
#       7
#     2   2   2   2   2   2   2
#     4  10  23  43  66  98 134 173 225 275 339 391
#     4  11  25  45  67  99 136 181 223 273 339 406
#     4  10  23  44  63  89 139 180 216 272 337 398
#     4  10  22  40  66  95 128 175 221 275 329 402
#     4  11  21  44  70  99 131 173 223 284 326 393
#     4  10  21  40  64  94 129 168 225 268 336 390
#     4  10  22  42  62  93 135 175 219 271 335 391
#
# _framework density 23.200654
#
# number of rings (size 3 to 8) (size 9 to 14) (size 15 to 20)
#    0.000    1.714    2.857    0.429    2.000    2.857 
#   15.429    0.000    0.000    0.000    0.000    0.000 
#    0.000    0.000    0.000    0.000    0.000    0.000 
#
# Total GULP energy -173455.334693 kJ/mol
# GULP energy per Si atom -12389.666764 kJ/mol
# Density = 2.314785 g / cm^3
# Si number density = 23.200654 Si / 1000 Ang^3
#
#
#
# Elastic Constant Matrix: (Units=GPa)
#
#
# Indices 1 2 3 4 5 6 
#
# 1 67.3916 7.4740 23.2911 9.8802 -12.8135 -14.2622
# 2 7.4740 135.5006 40.4260 -9.1935 -17.0360 -15.8074
# 3 23.2911 40.4260 101.2888 4.3192 -12.2650 -0.4125
# 4 9.8802 -9.1935 4.3192 35.5708 4.0624 -4.5474
# 5 -12.8135 -17.0360 -12.2650 4.0624 21.9102 13.8248
# 6 -14.2622 -15.8074 -0.4125 -4.5474 13.8248 27.9484
#
#
#
# Elastic Compliance Matrix: (Units=1/GPa)
#
#
# Indices 1 2 3 4 5 6 
#
# 1 0.019414 0.001444 -0.003973 -0.004511 0.007011 0.006463
# 2 0.001444 0.009620 -0.004050 0.003086 0.001901 0.005679
# 3 -0.003973 -0.004050 0.013538 -0.003677 0.008379 -0.008861
# 4 -0.004511 0.003086 -0.003677 0.034286 -0.017137 0.013444
# 5 0.007011 0.001901 0.008379 -0.017137 0.084073 -0.039599
# 6 0.006463 0.005679 -0.008861 0.013444 -0.039599 0.063935
#
#
# Mechanical properties :
#
#
# Convention : Reuss Voigt Hill
#
# Bulk Modulus (GPa) = 33.99751 49.61814 41.80782
# Shear Modulus (GPa) = 20.17541 32.61852 26.39697
#
# Velocity S-wave (km/s) = 2.95211 3.75364 3.37674
# Velocity P-wave (km/s) = 5.12888 6.34188 5.76736
#
# Compressibility (1/GPa) = 0.02941392
#
# Stress axis : x y z
#
# Youngs Moduli (GPa) = 51.51011 103.95524 73.86731
#
# Poissons Ratio (x) = -0.15008 0.29346
# Poissons Ratio (y) = -0.07437 0.29913
# Poissons Ratio (z) = 0.20464 0.42097
#
# Static dielectric constant tensor:
#      x y z
#    x 4.456970 -0.139080 0.161060 
#    y -0.139080 3.986980 0.253270 
#    z 0.161060 0.253270 4.085070 
# 
# 
# High freq. dielectric constant tensor:
#      x y z
#    x 1.928670 -0.008240 0.001970 
#    y -0.008240 1.897110 0.012590 
#    z 0.001970 0.012590 1.903440 
# 
# From -- ./inp_files/152252.got.cif
#   From: 2010.06.25/outbox.cif.g09.slc.cpg/sg2_77_cif.got.tgz:152252.got - 2010.06.27 13:26:56.
