data_PCOD8012590
_publ_section_title
;
Structure prediction by ZEFSAII (Michael W. Deem and Ramdas Pophale) SiO2 
 PCOD8012590
Probable space group: P -1
;
_chemical_formula_sum "Si O2"
_cell_formula_units_Z 16
_cell_length_a 15.288867
_cell_length_b 18.060387
_cell_length_c 5.070270
_cell_angle_alpha 89.513167
_cell_angle_beta 100.195633
_cell_angle_gamma 148.156515
_cell_volume 699.326736
_symmetry_space_group_name_H-M "P -1"
_symmetry_group_IT_number 2
_symmetry_cell_setting 'triclinic'
loop_
_space_group_symop_operation_xyz
x,y,z
-x,-y,-z
loop_
_atom_site_type_symbol
_atom_site_label
_atom_site_fract_x
_atom_site_fract_y
_atom_site_fract_z
Si Si1 0.414842 0.123490 0.997589
Si Si2 0.947842 0.866616 0.253061
Si Si3 0.645384 0.539185 0.074303
Si Si4 0.855747 0.196506 0.205814
Si Si5 0.263029 0.483701 0.378528
Si Si6 0.707549 0.167829 0.626646
Si Si7 0.843473 0.949109 0.130848
Si Si8 0.631038 0.273293 0.609364
O O1 0.572410 0.219374 0.881805
O O2 0.246876 0.953500 0.855009
O O3 0.350110 0.160585 0.901870
O O4 0.467424 0.151822 0.327717
O O5 0.837295 0.713090 0.179665
O O6 0.012372 0.923305 0.583083
O O7 0.824577 0.847361 0.106474
O O8 0.107202 0.979679 0.128064
O O9 0.633303 0.475556 0.318518
O O10 0.500000 0.500000 0.000000
O O11 0.636362 0.481203 0.813853
O O12 0.823343 0.209468 0.471767
O O13 0.057361 0.319034 0.273652
O O14 0.781154 0.198611 0.948640
O O15 0.270610 0.578619 0.379002
O O16 0.747041 0.284007 0.608605
O O17 0.500000 0.000000 0.500000
#
# Coordination Sequence:
#
# PCOD8012590 Si02
#       8
#     2   2   2   2   2   2   2   2
#     4  12  22  41  67  99 129 185 218 284 338 395
#     4  10  21  40  61  95 124 171 214 289 325 401
#     4  12  26  47  71  93 140 187 229 276 336 412
#     4  12  24  43  77  98 142 182 223 287 333 423
#     4  12  29  48  67 106 137 183 235 275 352 405
#     4  12  23  45  70 111 133 176 233 277 352 403
#     4  10  22  37  64  95 131 158 227 276 342 384
#     4  12  27  42  69  99 142 172 228 289 327 415
#
# _framework density 22.879149000000002
#
# number of rings (size 3 to 8) (size 9 to 14) (size 15 to 20)
#    0.000    0.500    2.500    6.000    3.500    1.000 
#    0.000    0.000    0.000    0.000    0.000    0.000 
#    0.000    0.000    0.000    0.000    0.000    0.000 
#
# Total GULP energy -198423.277165 kJ/mol
# GULP energy per Si atom -12401.454823 kJ/mol
# Density = 2.282707 g / cm^3
# Si number density = 22.879149 Si / 1000 Ang^3
#
#
#
# Elastic Constant Matrix: (Units=GPa)
#
#
# Indices 1 2 3 4 5 6 
#
# 1 97.9675 19.7944 28.6687 -7.2461 -2.6271 2.0982
# 2 19.7944 67.8678 24.2591 -7.8210 -4.9487 -12.0428
# 3 28.6687 24.2591 97.3018 -21.5887 -5.1057 -1.0963
# 4 -7.2461 -7.8210 -21.5887 26.3107 -0.0896 2.8191
# 5 -2.6271 -4.9487 -5.1057 -0.0896 44.7416 0.2600
# 6 2.0982 -12.0428 -1.0963 2.8191 0.2600 37.8550
#
#
#
# Elastic Compliance Matrix: (Units=1/GPa)
#
#
# Indices 1 2 3 4 5 6 
#
# 1 0.011594 -0.002655 -0.002685 0.000372 0.000091 -0.001593
# 2 -0.002655 0.017932 -0.003255 0.001328 0.001426 0.005649
# 3 -0.002685 -0.003255 0.014153 0.010042 0.001125 -0.001233
# 4 0.000372 0.001328 0.010042 0.047051 0.001425 -0.002821
# 5 0.000091 0.001426 0.001125 0.001425 0.022643 0.000219
# 6 -0.001593 0.005649 -0.001233 -0.002821 0.000219 0.028475
#
#
# Mechanical properties :
#
#
# Convention : Reuss Voigt Hill
#
# Bulk Modulus (GPa) = 37.75251 45.39793 41.57522
# Shear Modulus (GPa) = 29.78536 34.47580 32.13058
#
# Velocity S-wave (km/s) = 3.61204 3.88605 3.75155
# Velocity P-wave (km/s) = 5.82515 6.32619 6.08084
#
# Compressibility (1/GPa) = 0.02648831
#
# Stress axis : x y z
#
# Youngs Moduli (GPa) = 86.25450 55.76670 70.65595
#
# Poissons Ratio (x) = 0.14806 0.18968
# Poissons Ratio (y) = 0.22901 0.23002
# Poissons Ratio (z) = 0.23156 0.18155
#
# Static dielectric constant tensor:
#      x y z
#    x 4.378330 -0.204140 -0.084110 
#    y -0.204140 3.898380 -0.152400 
#    z -0.084110 -0.152400 4.180300 
# 
# 
# High freq. dielectric constant tensor:
#      x y z
#    x 1.925240 -0.012170 -0.003630 
#    y -0.012170 1.885330 -0.011940 
#    z -0.003630 -0.011940 1.914600 
# 
# From -- ./inp_files/99780.got.cif
#   From: 2010.06.25/outbox.cif.g09.slc.cpg/sg2_50_cif.got.tgz:99780.got - 2010.06.27 13:26:56.
