data_PCOD8012927
_publ_section_title
;
Structure prediction by ZEFSAII (Michael W. Deem and Ramdas Pophale) SiO2 
 PCOD8012927
Probable space group: P -1
;
_chemical_formula_sum "Si O2"
_cell_formula_units_Z 16
_cell_length_a 14.782386
_cell_length_b 11.213858
_cell_length_c 14.364322
_cell_angle_alpha 41.390000
_cell_angle_beta 152.198397
_cell_angle_gamma 136.082885
_cell_volume 721.774841
_symmetry_space_group_name_H-M "P -1"
_symmetry_group_IT_number 2
_symmetry_cell_setting 'triclinic'
loop_
_space_group_symop_operation_xyz
x,y,z
-x,-y,-z
loop_
_atom_site_type_symbol
_atom_site_label
_atom_site_fract_x
_atom_site_fract_y
_atom_site_fract_z
Si Si1 0.730551 0.149415 0.512723
Si Si2 0.981538 0.886988 0.956688
Si Si3 0.023954 0.089039 0.369572
Si Si4 0.377065 0.413117 0.525781
Si Si5 0.399218 0.872419 0.062963
Si Si6 0.839746 0.401171 0.630459
Si Si7 0.362333 0.075519 0.088886
Si Si8 0.937633 0.734315 0.384455
O O1 0.713465 0.241598 0.544486
O O2 0.524249 0.141340 0.277021
O O3 0.906005 0.294869 0.536254
O O4 0.792495 0.945753 0.697496
O O5 0.975159 0.674439 0.107218
O O6 0.177316 0.938327 0.043085
O O7 0.000000 0.000000 0.000000
O O8 0.203255 0.255106 0.423887
O O9 0.041058 0.929547 0.406309
O O10 0.834278 0.176737 0.124948
O O11 0.000000 0.000000 0.500000
O O12 0.500000 0.500000 0.500000
O O13 0.527450 0.316592 0.777012
O O14 0.302707 0.558717 0.439654
O O15 0.464424 0.970835 0.163645
O O16 0.500000 0.000000 0.000000
O O17 0.919475 0.582536 0.537213
O O18 0.276867 0.248678 0.864490
#
# Coordination Sequence:
#
# PCOD8012927 Si02
#       8
#     2   2   2   2   2   2   2   2
#     4  10  22  40  67  91 127 176 213 265 336 389
#     4   9  21  41  62  87 125 172 213 262 324 387
#     4  11  21  42  70  92 126 179 219 260 333 392
#     4  12  25  42  65  99 137 169 217 282 329 384
#     4  11  22  40  67  95 127 174 225 266 320 402
#     4  11  22  41  62  97 134 164 221 278 321 392
#     4  10  21  40  64  92 124 168 218 259 324 401
#     4  10  21  40  66  95 127 164 221 275 320 392
#
# _framework density 22.167577999999999
#
# number of rings (size 3 to 8) (size 9 to 14) (size 15 to 20)
#    0.000    1.500    2.500    2.625    0.000    3.000 
#    0.000   10.000    0.000    0.000    0.000    0.000 
#    0.000    0.000    0.000    0.000    0.000    0.000 
#
# Total GULP energy -198267.675962 kJ/mol
# GULP energy per Si atom -12391.729748 kJ/mol
# Density = 2.211712 g / cm^3
# Si number density = 22.167578 Si / 1000 Ang^3
#
#
#
# Elastic Constant Matrix: (Units=GPa)
#
#
# Indices 1 2 3 4 5 6 
#
# 1 135.1467 43.2469 39.4393 -11.9117 -2.8345 -3.5929
# 2 43.2469 93.4295 73.1128 -6.2394 0.0390 5.5551
# 3 39.4393 73.1128 143.1991 -19.0978 -6.6547 8.5880
# 4 -11.9117 -6.2394 -19.0978 44.1359 -0.9311 -6.7659
# 5 -2.8345 0.0390 -6.6547 -0.9311 32.4910 -6.8414
# 6 -3.5929 5.5551 8.5880 -6.7659 -6.8414 36.5440
#
#
#
# Elastic Compliance Matrix: (Units=1/GPa)
#
#
# Indices 1 2 3 4 5 6 
#
# 1 0.009012 -0.003968 -0.000245 0.002126 0.001260 0.002176
# 2 -0.003968 0.019852 -0.009406 -0.002738 -0.002846 -0.002237
# 3 -0.000245 -0.009406 0.012531 0.004035 0.002608 -0.000304
# 4 0.002126 -0.002738 0.004035 0.025399 0.002775 0.004899
# 5 0.001260 -0.002846 0.002608 0.002775 0.032898 0.006616
# 6 0.002176 -0.002237 -0.000304 0.004899 0.006616 0.030135
#
#
# Mechanical properties :
#
#
# Convention : Reuss Voigt Hill
#
# Bulk Modulus (GPa) = 70.63535 75.93038 73.28286
# Shear Modulus (GPa) = 30.90530 37.03260 33.96895
#
# Velocity S-wave (km/s) = 3.73791 4.09170 3.91880
# Velocity P-wave (km/s) = 7.11074 7.52662 7.32163
#
# Compressibility (1/GPa) = 0.01415722
#
# Stress axis : x y z
#
# Youngs Moduli (GPa) = 110.96091 50.37222 79.80426
#
# Poissons Ratio (x) = 0.19989 0.01951
# Poissons Ratio (y) = 0.44031 0.75065
# Poissons Ratio (z) = 0.02713 0.47381
#
# Static dielectric constant tensor:
#      x y z
#    x 3.745220 0.837470 -0.098150 
#    y 0.837470 1.812010 -0.113610 
#    z -0.098150 -0.113610 4.465750 
# 
# 
# High freq. dielectric constant tensor:
#      x y z
#    x 1.898930 -0.001560 -0.004280 
#    y -0.001560 1.834120 -0.019310 
#    z -0.004280 -0.019310 1.887530 
# 
# From -- ./inp_files/531672.got.cif
#   From: 2010.06.25/outbox.cif.g09.slc.cpg/sg2_266_cif.got.tgz:531672.got - 2010.06.27 13:26:56.
