data_PCOD8012292
_publ_section_title
;
Structure prediction by ZEFSAII (Michael W. Deem and Ramdas Pophale) SiO2 
 PCOD8012292
Probable space group: P -1
;
_chemical_formula_sum "Si O2"
_cell_formula_units_Z 16
_cell_length_a 24.723088
_cell_length_b 7.509032
_cell_length_c 9.407084
_cell_angle_alpha 80.426354
_cell_angle_beta 144.616786
_cell_angle_gamma 76.097903
_cell_volume 750.633593
_symmetry_space_group_name_H-M "P -1"
_symmetry_group_IT_number 2
_symmetry_cell_setting 'triclinic'
loop_
_space_group_symop_operation_xyz
x,y,z
-x,-y,-z
loop_
_atom_site_type_symbol
_atom_site_label
_atom_site_fract_x
_atom_site_fract_y
_atom_site_fract_z
Si Si1 0.059233 0.898121 0.293012
Si Si2 0.629813 0.917801 0.125285
Si Si3 0.738295 0.624381 0.118429
Si Si4 0.456627 0.417553 0.297087
Si Si5 0.355893 0.300333 0.538438
Si Si6 0.296156 0.065460 0.232761
Si Si7 0.268925 0.843407 0.646650
Si Si8 0.196158 0.834334 0.175692
O O1 0.134929 0.614891 0.511129
O O2 0.159330 0.932910 0.513158
O O3 0.000000 0.000000 0.000000
O O4 0.949233 0.038124 0.154737
O O5 0.658310 0.818972 0.042613
O O6 0.640215 0.736438 0.278547
O O7 0.726418 0.947415 0.378037
O O8 0.492288 0.177326 0.792516
O O9 0.647847 0.585908 0.861711
O O10 0.774794 0.726371 0.065936
O O11 0.500000 0.500000 0.500000
O O12 0.570684 0.160635 0.512272
O O13 0.397733 0.599784 0.013847
O O14 0.309637 0.173918 0.385208
O O15 0.268229 0.582768 0.282358
O O16 0.213908 0.996024 0.104501
O O17 0.245592 0.792798 0.447407
#
# Coordination Sequence:
#
# PCOD8012292 Si02
#       8
#     2   2   2   2   2   2   2   2
#     4   9  21  45  68  90 125 173 226 275 310 376
#     4  11  21  40  64 100 132 166 220 270 325 387
#     4  11  24  42  66  96 134 170 220 269 320 392
#     4  11  23  39  67  96 135 176 212 265 331 393
#     4  11  24  39  66  98 136 170 207 275 327 385
#     4  12  25  40  63 101 137 169 212 263 335 396
#     4  10  21  39  68  97 125 176 224 266 323 382
#     4  11  24  44  64  93 135 175 220 269 323 378
#
# _framework density 21.315328000000001
#
# number of rings (size 3 to 8) (size 9 to 14) (size 15 to 20)
#    0.000    1.250    2.500    4.125    5.250    1.500 
#    2.250    2.500    0.000    0.000    0.000    0.000 
#    0.000    0.000    0.000    0.000    0.000    0.000 
#
# Total GULP energy -198379.425128 kJ/mol
# GULP energy per Si atom -12398.714070 kJ/mol
# Density = 2.126681 g / cm^3
# Si number density = 21.315328 Si / 1000 Ang^3
#
#
#
# Elastic Constant Matrix: (Units=GPa)
#
#
# Indices 1 2 3 4 5 6 
#
# 1 117.5849 48.3042 51.4480 -22.5673 3.9692 11.2824
# 2 48.3042 122.4673 39.8951 -1.3747 12.8819 9.3985
# 3 51.4480 39.8951 100.3834 -19.3155 4.4792 6.9474
# 4 -22.5673 -1.3747 -19.3155 20.4149 -3.1243 -8.7418
# 5 3.9692 12.8819 4.4792 -3.1243 34.5509 1.0782
# 6 11.2824 9.3985 6.9474 -8.7418 1.0782 30.9563
#
#
#
# Elastic Compliance Matrix: (Units=1/GPa)
#
#
# Indices 1 2 3 4 5 6 
#
# 1 0.014102 -0.004654 -0.003003 0.012918 0.001656 0.000538
# 2 -0.004654 0.011877 -0.003860 -0.010266 -0.004203 -0.003796
# 3 -0.003003 -0.003860 0.015114 0.011776 0.000822 0.002171
# 4 0.012918 -0.010266 0.011776 0.083006 0.007732 0.018937
# 5 0.001656 -0.004203 0.000822 0.007732 0.030862 0.001597
# 6 0.000538 -0.003796 0.002171 0.018937 0.001597 0.038065
#
#
# Mechanical properties :
#
#
# Convention : Reuss Voigt Hill
#
# Bulk Modulus (GPa) = 55.37717 68.85890 62.11803
# Shear Modulus (GPa) = 22.51431 30.57031 26.54231
#
# Velocity S-wave (km/s) = 3.25353 3.79118 3.53260
# Velocity P-wave (km/s) = 6.33642 7.17907 6.77087
#
# Compressibility (1/GPa) = 0.01805798
#
# Stress axis : x y z
#
# Youngs Moduli (GPa) = 70.90998 84.19777 66.16394
#
# Poissons Ratio (x) = 0.39189 0.19871
# Poissons Ratio (y) = 0.33004 0.25538
# Poissons Ratio (z) = 0.21297 0.32499
#
# Static dielectric constant tensor:
#      x y z
#    x 4.089750 0.198460 0.171070 
#    y 0.198460 3.788710 -0.033760 
#    z 0.171070 -0.033760 3.968390 
# 
# 
# High freq. dielectric constant tensor:
#      x y z
#    x 1.846200 0.013370 -0.003610 
#    y 0.013370 1.829080 -0.004620 
#    z -0.003610 -0.004620 1.825700 
# 
# From -- ./inp_files/351750.got.cif
#   From: 2010.06.25/outbox.cif.g09.slc.cpg/sg2_176_cif.got.tgz:351750.got - 2010.06.27 13:26:56.
