data_PCOD8012095
_publ_section_title
;
Structure prediction by ZEFSAII (Michael W. Deem and Ramdas Pophale) SiO2 
 PCOD8012095
Probable space group: P -1
;
_chemical_formula_sum "Si O2"
_cell_formula_units_Z 16
_cell_length_a 11.504076
_cell_length_b 15.945291
_cell_length_c 15.138207
_cell_angle_alpha 26.511039
_cell_angle_beta 139.280588
_cell_angle_gamma 122.151225
_cell_volume 699.526576
_symmetry_space_group_name_H-M "P -1"
_symmetry_group_IT_number 2
_symmetry_cell_setting 'triclinic'
loop_
_space_group_symop_operation_xyz
x,y,z
-x,-y,-z
loop_
_atom_site_type_symbol
_atom_site_label
_atom_site_fract_x
_atom_site_fract_y
_atom_site_fract_z
Si Si1 0.621599 0.301922 0.031826
Si Si2 0.434675 0.097949 0.585051
Si Si3 0.664828 0.755732 0.422519
Si Si4 0.329636 0.592833 0.736801
Si Si5 0.096192 0.519784 0.946445
Si Si6 0.462197 0.253198 0.818394
Si Si7 0.137593 0.031306 0.122092
Si Si8 0.021637 0.497546 0.408844
O O1 0.831371 0.301305 0.173582
O O2 0.648400 0.068608 0.291361
O O3 0.435077 0.492137 0.799175
O O4 0.566792 0.354443 0.846197
O O5 0.412610 0.241042 0.525481
O O6 0.668651 0.970526 0.810933
O O7 0.288469 0.281398 0.256068
O O8 0.566461 0.667238 0.375465
O O9 0.911185 0.605993 0.689109
O O10 0.612071 0.997030 0.141998
O O11 0.215958 0.854338 0.412854
O O12 0.152950 0.534738 0.709823
O O13 0.500000 0.500000 0.000000
O O14 0.000000 0.500000 0.000000
O O15 0.245670 0.305444 0.689776
O O16 0.004571 0.273588 0.856104
O O17 0.000000 0.000000 0.000000
O O18 0.000000 0.500000 0.500000
#
# Coordination Sequence:
#
# PCOD8012095 Si02
#       8
#     2   2   2   2   2   2   2   2
#     4  11  21  43  68  90 132 177 217 273 344 401
#     4  10  21  40  69  97 131 172 223 273 340 404
#     4   9  21  40  63  95 128 171 220 276 326 392
#     4  12  27  43  67 103 140 181 227 289 347 409
#     4  10  22  40  65  92 128 173 218 272 329 398
#     4  10  21  39  66  94 131 172 219 276 330 398
#     4  12  23  41  74 102 136 181 226 279 352 421
#     4  12  22  43  70 102 136 180 229 277 351 417
#
# _framework density 22.872612
#
# number of rings (size 3 to 8) (size 9 to 14) (size 15 to 20)
#    0.000    1.250    5.000    0.750    1.750    5.000 
#    2.250    2.500    0.000    1.500    0.000    0.000 
#    0.000    0.000    0.000    0.000    0.000    0.000 
#
# Total GULP energy -198284.016860 kJ/mol
# GULP energy per Si atom -12392.751054 kJ/mol
# Density = 2.282055 g / cm^3
# Si number density = 22.872612 Si / 1000 Ang^3
#
#
#
# Elastic Constant Matrix: (Units=GPa)
#
#
# Indices 1 2 3 4 5 6 
#
# 1 32.7936 2.8896 12.2610 -9.1151 -0.8937 11.3643
# 2 2.8896 79.9733 39.0705 0.2833 -19.5451 12.7768
# 3 12.2610 39.0705 135.7438 6.3859 -11.8023 5.0324
# 4 -9.1151 0.2833 6.3859 35.3421 3.7713 -1.3742
# 5 -0.8937 -19.5451 -11.8023 3.7713 31.6830 -1.4125
# 6 11.3643 12.7768 5.0324 -1.3742 -1.4125 41.4565
#
#
#
# Elastic Compliance Matrix: (Units=1/GPa)
#
#
# Indices 1 2 3 4 5 6 
#
# 1 0.038318 0.002078 -0.004241 0.010328 -0.000907 -0.010318
# 2 0.002078 0.017549 -0.004259 -0.000003 0.009069 -0.005152
# 3 -0.004241 -0.004259 0.009149 -0.002774 0.001050 0.001309
# 4 0.010328 -0.000003 -0.002774 0.031890 -0.004611 -0.001593
# 5 -0.000907 0.009069 0.001050 -0.004611 0.038003 -0.001532
# 6 -0.010318 -0.005152 0.001309 -0.001593 -0.001532 0.028274
#
#
# Mechanical properties :
#
#
# Convention : Reuss Voigt Hill
#
# Bulk Modulus (GPa) = 19.16766 39.66144 29.41455
# Shear Modulus (GPa) = 25.85056 34.64897 30.24976
#
# Velocity S-wave (km/s) = 3.36549 3.89635 3.64061
# Velocity P-wave (km/s) = 4.84772 6.13350 5.52812
#
# Compressibility (1/GPa) = 0.05217122
#
# Stress axis : x y z
#
# Youngs Moduli (GPa) = 26.09740 56.98180 109.30093
#
# Poissons Ratio (x) = -0.11840 0.46358
# Poissons Ratio (y) = -0.05423 0.46553
# Poissons Ratio (z) = 0.11069 0.24270
#
# Static dielectric constant tensor:
#      x y z
#    x 3.911770 -0.029970 0.042950 
#    y -0.029970 4.361000 0.240270 
#    z 0.042950 0.240270 4.791530 
# 
# 
# High freq. dielectric constant tensor:
#      x y z
#    x 1.876780 0.005800 0.006340 
#    y 0.005800 1.893390 0.006640 
#    z 0.006340 0.006640 1.924920 
# 
# From -- ./inp_files/522200.got.cif
#   From: 2010.06.25/outbox.cif.g09.slc.cpg/sg2_262_cif.got.tgz:522200.got - 2010.06.27 13:26:56.
