data_PCOD8012170
_publ_section_title
;
Structure prediction by ZEFSAII (Michael W. Deem and Ramdas Pophale) SiO2 
 PCOD8012170
Probable space group: P -1
;
_chemical_formula_sum "Si O2"
_cell_formula_units_Z 16
_cell_length_a 9.688651
_cell_length_b 9.060154
_cell_length_c 24.912123
_cell_angle_alpha 141.896568
_cell_angle_beta 50.290500
_cell_angle_gamma 100.362177
_cell_volume 761.021464
_symmetry_space_group_name_H-M "P -1"
_symmetry_group_IT_number 2
_symmetry_cell_setting 'triclinic'
loop_
_space_group_symop_operation_xyz
x,y,z
-x,-y,-z
loop_
_atom_site_type_symbol
_atom_site_label
_atom_site_fract_x
_atom_site_fract_y
_atom_site_fract_z
Si Si1 0.392058 0.394255 0.204823
Si Si2 0.795749 0.323844 0.555372
Si Si3 0.767564 0.717812 0.891362
Si Si4 0.449845 0.326980 0.392999
Si Si5 0.746564 0.812562 0.416918
Si Si6 0.647101 0.119948 0.711221
Si Si7 0.419133 0.649952 0.005221
Si Si8 0.850758 0.295480 0.323745
O O1 0.294365 0.444022 0.303679
O O2 0.249462 0.342534 0.185055
O O3 0.361312 0.701474 0.287470
O O4 0.678554 0.066888 0.028568
O O5 0.619214 0.555169 0.617204
O O6 0.783280 0.053538 0.494899
O O7 0.067276 0.159580 0.423575
O O8 0.054939 0.433973 0.749618
O O9 0.597388 0.706840 0.965861
O O10 0.716132 0.199880 0.299564
O O11 0.243987 0.621346 0.567781
O O12 0.468779 0.029512 0.315726
O O13 0.775196 0.612113 0.403717
O O14 0.500000 0.000000 0.500000
O O15 0.479014 0.377740 0.873449
O O16 0.500000 0.500000 0.000000
O O17 0.139336 0.985202 0.163946
#
# Coordination Sequence:
#
# PCOD8012170 Si02
#       8
#     2   2   2   2   2   2   2   2
#     4  10  21  39  67  93 126 170 218 277 319 376
#     4  12  23  40  65  99 131 171 226 270 328 381
#     4  10  23  41  66  97 126 165 229 265 327 392
#     4  11  26  42  61 100 135 174 220 268 327 402
#     4  12  23  43  71  97 132 173 221 273 325 393
#     4  11  23  40  63  97 133 168 224 271 322 391
#     4  11  24  41  70  98 132 175 218 274 331 389
#     4  11  25  44  69  93 136 179 217 268 334 387
#
# _framework density 21.024374000000002
#
# number of rings (size 3 to 8) (size 9 to 14) (size 15 to 20)
#    0.000    1.000    3.750    4.500    5.250    0.500 
#    0.000    0.625    2.750    0.000    0.000    0.000 
#    0.000    0.000    0.000    0.000    0.000    0.000 
#
# Total GULP energy -198320.126987 kJ/mol
# GULP energy per Si atom -12395.007937 kJ/mol
# Density = 2.097652 g / cm^3
# Si number density = 21.024374 Si / 1000 Ang^3
#
#
#
# Elastic Constant Matrix: (Units=GPa)
#
#
# Indices 1 2 3 4 5 6 
#
# 1 65.6144 55.5031 40.3582 -0.2818 -8.0482 -4.9619
# 2 55.5031 102.8865 35.3879 -0.5437 -4.9296 -6.6649
# 3 40.3582 35.3879 135.1671 -1.6378 -16.4947 -16.2393
# 4 -0.2818 -0.5437 -1.6378 33.6938 2.4167 6.4628
# 5 -8.0482 -4.9296 -16.4947 2.4167 37.5125 -2.0096
# 6 -4.9619 -6.6649 -16.2393 6.4628 -2.0096 44.2418
#
#
#
# Elastic Compliance Matrix: (Units=1/GPa)
#
#
# Indices 1 2 3 4 5 6 
#
# 1 0.031492 -0.015113 -0.005208 -0.000316 0.002474 -0.000498
# 2 -0.015113 0.017952 -0.000193 0.000050 -0.000924 0.000890
# 3 -0.005208 -0.000193 0.009793 -0.000425 0.003362 0.003196
# 4 -0.000316 0.000050 -0.000425 0.030753 -0.002486 -0.004789
# 5 0.002474 -0.000924 0.003362 -0.002486 0.028869 0.003047
# 6 -0.000498 0.000890 0.003196 -0.004789 0.003047 0.024692
#
#
# Mechanical properties :
#
#
# Convention : Reuss Voigt Hill
#
# Bulk Modulus (GPa) = 54.91539 62.90738 58.91139
# Shear Modulus (GPa) = 26.22611 34.58422 30.40516
#
# Velocity S-wave (km/s) = 3.53571 4.06021 3.80700
# Velocity P-wave (km/s) = 6.54560 7.20878 6.88518
#
# Compressibility (1/GPa) = 0.01820983
#
# Stress axis : x y z
#
# Youngs Moduli (GPa) = 31.75373 55.70340 102.11517
#
# Poissons Ratio (x) = 0.84184 0.53182
# Poissons Ratio (y) = 0.47989 0.01970
# Poissons Ratio (z) = 0.16537 0.01074
#
# Static dielectric constant tensor:
#      x y z
#    x 3.628390 0.096270 -0.017890 
#    y 0.096270 3.960190 0.078320 
#    z -0.017890 0.078320 4.533020 
# 
# 
# High freq. dielectric constant tensor:
#      x y z
#    x 1.802390 0.003990 0.002870 
#    y 0.003990 1.835080 -0.000540 
#    z 0.002870 -0.000540 1.837760 
# 
# From -- ./inp_files/606871.got.cif
#   From: 2010.06.25/outbox.cif.g09.slc.cpg/sg2_304_cif.got.tgz:606871.got - 2010.06.27 13:26:56.
