data_PCOD8012681
_publ_section_title
;
Structure prediction by ZEFSAII (Michael W. Deem and Ramdas Pophale) SiO2 
 PCOD8012681
Probable space group: P -1
;
_chemical_formula_sum "Si O2"
_cell_formula_units_Z 16
_cell_length_a 14.273608
_cell_length_b 12.106034
_cell_length_c 11.965646
_cell_angle_alpha 82.662707
_cell_angle_beta 63.765451
_cell_angle_gamma 29.627840
_cell_volume 747.858610
_symmetry_space_group_name_H-M "P -1"
_symmetry_group_IT_number 2
_symmetry_cell_setting 'triclinic'
loop_
_space_group_symop_operation_xyz
x,y,z
-x,-y,-z
loop_
_atom_site_type_symbol
_atom_site_label
_atom_site_fract_x
_atom_site_fract_y
_atom_site_fract_z
Si Si1 0.082145 0.795201 0.997203
Si Si2 0.687399 0.016103 0.112153
Si Si3 0.139323 0.485261 0.795165
Si Si4 0.968840 0.580372 0.328917
Si Si5 0.686324 0.455217 0.330298
Si Si6 0.787514 0.418586 0.816744
Si Si7 0.108758 0.934310 0.571410
Si Si8 0.596818 0.912630 0.680031
O O1 0.243415 0.618916 0.046760
O O2 0.238262 0.608797 0.830557
O O3 0.831844 0.961678 0.123084
O O4 0.000000 0.000000 0.000000
O O5 0.502964 0.269264 0.099537
O O6 0.522403 0.095120 0.266687
O O7 0.882063 0.756947 0.965292
O O8 0.235855 0.498304 0.670233
O O9 0.097443 0.418687 0.748945
O O10 0.375448 0.218413 0.786383
O O11 0.045392 0.632055 0.253259
O O12 0.198231 0.286555 0.302616
O O13 0.723479 0.821430 0.507567
O O14 0.385066 0.724420 0.450967
O O15 0.856386 0.202916 0.344214
O O16 0.906965 0.220243 0.686637
O O17 0.000000 0.000000 0.500000
#
# Coordination Sequence:
#
# PCOD8012681 Si02
#       8
#     2   2   2   2   2   2   2   2
#     4  11  23  43  66  89 133 172 216 270 320 383
#     4  10  25  39  63  99 127 175 217 263 325 391
#     4  11  22  40  63  93 133 167 213 263 321 383
#     4  10  23  40  66  99 128 173 213 265 324 388
#     4  10  25  43  62 100 123 171 223 261 327 396
#     4  11  24  43  67  98 132 171 225 267 326 389
#     4  11  25  44  68  92 129 169 216 281 328 378
#     4  10  21  40  62  93 132 168 216 259 321 385
#
# _framework density 21.394418999999999
#
# number of rings (size 3 to 8) (size 9 to 14) (size 15 to 20)
#    0.000    1.500    1.250    2.250    1.750   12.500 
#    0.000    0.000    0.000    0.000    0.000    0.000 
#    0.000    0.000    0.000    0.000    0.000    0.000 
#
# Total GULP energy -198367.893947 kJ/mol
# GULP energy per Si atom -12397.993372 kJ/mol
# Density = 2.134572 g / cm^3
# Si number density = 21.394419 Si / 1000 Ang^3
#
#
#
# Elastic Constant Matrix: (Units=GPa)
#
#
# Indices 1 2 3 4 5 6 
#
# 1 76.6665 21.7143 14.7379 5.8865 14.2000 7.5837
# 2 21.7143 142.0387 50.1002 17.0072 13.4795 5.8134
# 3 14.7379 50.1002 78.8702 4.1025 5.2750 -5.7104
# 4 5.8865 17.0072 4.1025 37.6974 -1.2803 -2.7092
# 5 14.2000 13.4795 5.2750 -1.2803 29.7333 -0.3136
# 6 7.5837 5.8134 -5.7104 -2.7092 -0.3136 28.4867
#
#
#
# Elastic Compliance Matrix: (Units=1/GPa)
#
#
# Indices 1 2 3 4 5 6 
#
# 1 0.015596 -0.000343 -0.002446 -0.002605 -0.007023 -0.004897
# 2 -0.000343 0.010328 -0.006300 -0.004311 -0.003626 -0.003729
# 3 -0.002446 -0.006300 0.017379 0.001772 0.001076 0.005601
# 4 -0.002605 -0.004311 0.001772 0.029170 0.004190 0.004749
# 5 -0.007023 -0.003626 0.001076 0.004190 0.038658 0.003649
# 6 -0.004897 -0.003729 0.005601 0.004749 0.003649 0.038783
#
#
# Mechanical properties :
#
#
# Convention : Reuss Voigt Hill
#
# Bulk Modulus (GPa) = 39.79900 52.29781 46.04841
# Shear Modulus (GPa) = 28.33407 33.25168 30.79288
#
# Velocity S-wave (km/s) = 3.64313 3.94664 3.79792
# Velocity P-wave (km/s) = 6.02822 6.72797 6.38769
#
# Compressibility (1/GPa) = 0.02512626
#
# Stress axis : x y z
#
# Youngs Moduli (GPa) = 64.11906 96.82727 57.54015
#
# Poissons Ratio (x) = 0.03318 0.14075
# Poissons Ratio (y) = 0.02197 0.36248
# Poissons Ratio (z) = 0.15684 0.60997
#
# Static dielectric constant tensor:
#      x y z
#    x 4.141190 -0.204590 0.043610 
#    y -0.204590 4.180300 -0.205960 
#    z 0.043610 -0.205960 4.128020 
# 
# 
# High freq. dielectric constant tensor:
#      x y z
#    x 1.842310 0.007990 -0.016110 
#    y 0.007990 1.860800 0.001480 
#    z -0.016110 0.001480 1.836370 
# 
# From -- ./inp_files/315398.got.cif
#   From: 2010.06.25/outbox.cif.g09.slc.cpg/sg2_158_cif.got.tgz:315398.got - 2010.06.27 13:26:56.
