data_PCOD8012660
_publ_section_title
;
Structure prediction by ZEFSAII (Michael W. Deem and Ramdas Pophale) SiO2 
 PCOD8012660
Probable space group: P -1
;
_chemical_formula_sum "Si O2"
_cell_formula_units_Z 16
_cell_length_a 8.426481
_cell_length_b 8.703443
_cell_length_c 11.738445
_cell_angle_alpha 54.650219
_cell_angle_beta 86.063324
_cell_angle_gamma 84.051837
_cell_volume 698.351992
_symmetry_space_group_name_H-M "P -1"
_symmetry_group_IT_number 2
_symmetry_cell_setting 'triclinic'
loop_
_space_group_symop_operation_xyz
x,y,z
-x,-y,-z
loop_
_atom_site_type_symbol
_atom_site_label
_atom_site_fract_x
_atom_site_fract_y
_atom_site_fract_z
Si Si1 0.044952 0.634740 0.338702
Si Si2 0.476015 0.414123 0.915699
Si Si3 0.188807 0.270218 0.881113
Si Si4 0.863165 0.914000 0.615518
Si Si5 0.999196 0.923609 0.834879
Si Si6 0.668002 0.606030 0.641329
Si Si7 0.467062 0.911065 0.417854
Si Si8 0.347823 0.948958 0.862258
O O1 0.231433 0.582080 0.325553
O O2 0.000000 0.500000 0.500000
O O3 0.935201 0.603372 0.246188
O O4 0.023354 0.852030 0.282172
O O5 0.289955 0.405975 0.894625
O O6 0.550993 0.558423 0.766877
O O7 0.500000 0.500000 0.000000
O O8 0.561138 0.203383 0.993795
O O9 0.310154 0.142685 0.849609
O O10 0.093141 0.133243 0.023765
O O11 0.936017 0.823976 0.768041
O O12 0.793573 0.750323 0.615758
O O13 0.724985 0.077688 0.588325
O O14 0.000000 0.000000 0.500000
O O15 0.185982 0.862796 0.865277
O O16 0.555525 0.699475 0.505484
O O17 0.500000 0.000000 0.500000
O O18 0.539069 0.024555 0.262519
#
# Coordination Sequence:
#
# PCOD8012660 Si02
#       8
#     2   2   2   2   2   2   2   2
#     4  11  23  42  65  96 130 163 213 277 327 376
#     4  12  25  41  62  94 131 166 213 277 327 375
#     4  11  24  43  65  94 130 178 221 260 324 400
#     4  11  23  41  66  94 125 171 218 262 322 398
#     4  11  22  41  67  93 127 176 220 261 319 395
#     4  11  23  40  62  93 127 162 209 272 322 370
#     4  10  21  40  62  91 127 169 215 259 319 392
#     4  11  22  42  66  91 128 175 215 262 322 392
#
# _framework density 22.911083999999999
#
# number of rings (size 3 to 8) (size 9 to 14) (size 15 to 20)
#    0.000    1.000    0.000   10.125    0.000    4.000 
#    0.000    4.375    0.000    0.000    0.000    0.000 
#    0.000    0.000    0.000    0.000    0.000    0.000 
#
# Total GULP energy -198418.738440 kJ/mol
# GULP energy per Si atom -12401.171153 kJ/mol
# Density = 2.285894 g / cm^3
# Si number density = 22.911084 Si / 1000 Ang^3
#
#
#
# Elastic Constant Matrix: (Units=GPa)
#
#
# Indices 1 2 3 4 5 6 
#
# 1 143.1016 13.4393 51.5075 6.2824 -12.1061 -1.4153
# 2 13.4393 31.8151 10.6593 7.1190 -7.4649 0.0087
# 3 51.5075 10.6593 146.3607 1.9653 -15.4495 6.9033
# 4 6.2824 7.1190 1.9653 34.2485 -0.6507 4.9145
# 5 -12.1061 -7.4649 -15.4495 -0.6507 50.8742 -0.9354
# 6 -1.4153 0.0087 6.9033 4.9145 -0.9354 35.5014
#
#
#
# Elastic Compliance Matrix: (Units=1/GPa)
#
#
# Indices 1 2 3 4 5 6 
#
# 1 0.008293 -0.002165 -0.002706 -0.001047 0.000839 0.001024
# 2 -0.002165 0.035337 -0.001333 -0.006970 0.004199 0.001240
# 3 -0.002706 -0.001333 0.008125 0.000586 0.001603 -0.001726
# 4 -0.001047 -0.006970 0.000586 0.031440 -0.000775 -0.004527
# 5 0.000839 0.004199 0.001603 -0.000775 0.020956 0.000380
# 6 0.001024 0.001240 -0.001726 -0.004527 0.000380 0.029181
#
#
# Mechanical properties :
#
#
# Convention : Reuss Voigt Hill
#
# Bulk Modulus (GPa) = 25.41626 52.49882 38.95754
# Shear Modulus (GPa) = 31.47491 40.50292 35.98892
#
# Velocity S-wave (km/s) = 3.71048 4.20912 3.96764
# Velocity P-wave (km/s) = 5.42903 6.82540 6.16687
#
# Compressibility (1/GPa) = 0.03934490
#
# Stress axis : x y z
#
# Youngs Moduli (GPa) = 120.58974 28.29865 123.08056
#
# Poissons Ratio (x) = 0.06128 0.33309
# Poissons Ratio (y) = 0.26112 0.16409
# Poissons Ratio (z) = 0.32635 0.03773
#
# Static dielectric constant tensor:
#      x y z
#    x 4.946540 -0.728410 -0.420460 
#    y -0.728410 5.087250 1.580930 
#    z -0.420460 1.580930 6.500600 
# 
# 
# High freq. dielectric constant tensor:
#      x y z
#    x 1.921880 -0.006500 0.006710 
#    y -0.006500 1.884200 0.009820 
#    z 0.006710 0.009820 1.919140 
# 
# From -- ./inp_files/184257.got.cif
#   From: 2010.06.25/outbox.cif.g09.slc.cpg/sg2_93_cif.got.tgz:184257.got - 2010.06.27 13:26:56.
