data_PCOD8012438
_publ_section_title
;
Structure prediction by ZEFSAII (Michael W. Deem and Ramdas Pophale) SiO2 
 PCOD8012438
Probable space group: P -1
;
_chemical_formula_sum "Si O2"
_cell_formula_units_Z 16
_cell_length_a 5.477896
_cell_length_b 12.874501
_cell_length_c 16.617266
_cell_angle_alpha 135.847443
_cell_angle_beta 96.081678
_cell_angle_gamma 103.532558
_cell_volume 725.897731
_symmetry_space_group_name_H-M "P -1"
_symmetry_group_IT_number 2
_symmetry_cell_setting 'triclinic'
loop_
_space_group_symop_operation_xyz
x,y,z
-x,-y,-z
loop_
_atom_site_type_symbol
_atom_site_label
_atom_site_fract_x
_atom_site_fract_y
_atom_site_fract_z
Si Si1 0.212470 0.884720 0.884669
Si Si2 0.329935 0.635508 0.652448
Si Si3 0.699020 0.358449 0.914559
Si Si4 0.715303 0.597503 0.762369
Si Si5 0.008911 0.054329 0.852831
Si Si6 0.453344 0.998793 0.732416
Si Si7 0.594707 0.589743 0.929920
Si Si8 0.217018 0.648627 0.479385
O O1 0.242310 0.782152 0.751406
O O2 0.069895 0.999966 0.913098
O O3 0.026349 0.744514 0.865814
O O4 0.500000 0.000000 0.000000
O O5 0.608223 0.674268 0.729970
O O6 0.366041 0.626721 0.553190
O O7 0.108387 0.454267 0.575535
O O8 0.541494 0.418439 0.877510
O O9 0.633848 0.169708 0.783937
O O10 0.611828 0.351863 0.001647
O O11 0.000000 0.500000 0.000000
O O12 0.535352 0.558472 0.815522
O O13 0.699654 0.421929 0.635670
O O14 0.198876 0.009097 0.773922
O O15 0.679737 0.966710 0.776285
O O16 0.101969 0.254071 0.962836
O O17 0.313155 0.845544 0.579746
#
# Coordination Sequence:
#
# PCOD8012438 Si02
#       8
#     2   2   2   2   2   2   2   2
#     4  11  24  36  59  94 137 175 214 267 324 391
#     4  10  21  40  58  91 128 184 220 260 311 389
#     4  10  21  43  69  93 124 161 216 280 348 399
#     4  11  24  39  62  91 137 175 218 269 325 388
#     4  11  23  39  65  97 130 171 218 269 328 394
#     4  11  23  40  70  97 127 169 226 277 321 395
#     4  10  23  40  64  97 126 166 212 276 345 397
#     4  10  22  38  62  90 129 181 224 260 313 387
#
# _framework density 22.041672999999999
#
# number of rings (size 3 to 8) (size 9 to 14) (size 15 to 20)
#    0.000    1.500    2.500    1.875    3.500    3.000 
#    0.000    0.625    0.000    1.500    0.000    0.000 
#    0.000    0.000    0.000    0.000    0.000    0.000 
#
# Total GULP energy -198254.993957 kJ/mol
# GULP energy per Si atom -12390.937122 kJ/mol
# Density = 2.199151 g / cm^3
# Si number density = 22.041673 Si / 1000 Ang^3
#
#
#
# Elastic Constant Matrix: (Units=GPa)
#
#
# Indices 1 2 3 4 5 6 
#
# 1 75.8586 20.2909 26.3566 4.1841 4.2254 3.5601
# 2 20.2909 94.7505 61.0262 18.0290 -9.7541 8.0069
# 3 26.3566 61.0262 120.8833 22.4296 -1.2133 10.2040
# 4 4.1841 18.0290 22.4296 46.1471 2.5087 -8.0449
# 5 4.2254 -9.7541 -1.2133 2.5087 28.2268 0.3521
# 6 3.5601 8.0069 10.2040 -8.0449 0.3521 31.9413
#
#
#
# Elastic Compliance Matrix: (Units=1/GPa)
#
#
# Indices 1 2 3 4 5 6 
#
# 1 0.014682 -0.002118 -0.002290 0.000751 -0.003093 -0.000151
# 2 -0.002118 0.017315 -0.007255 -0.003887 0.006370 -0.002836
# 3 -0.002290 -0.007255 0.013431 -0.003980 -0.001193 -0.003206
# 4 0.000751 -0.003887 -0.003980 0.026843 -0.004124 0.008969
# 5 -0.003093 0.006370 -0.001193 -0.004124 0.038436 -0.002333
# 6 -0.000151 -0.002836 -0.003206 0.008969 -0.002333 0.035344
#
#
# Mechanical properties :
#
#
# Convention : Reuss Voigt Hill
#
# Bulk Modulus (GPa) = 45.24110 56.31550 50.77830
# Shear Modulus (GPa) = 28.28926 33.51762 30.90344
#
# Velocity S-wave (km/s) = 3.58641 3.90378 3.74845
# Velocity P-wave (km/s) = 6.14162 6.77675 6.46699
#
# Compressibility (1/GPa) = 0.02210380
#
# Stress axis : x y z
#
# Youngs Moduli (GPa) = 68.10855 57.75194 74.45202
#
# Poissons Ratio (x) = 0.12233 0.17047
# Poissons Ratio (y) = 0.14426 0.54015
# Poissons Ratio (z) = 0.15594 0.41899
#
# Static dielectric constant tensor:
#      x y z
#    x 3.967180 -0.203510 -0.149340 
#    y -0.203510 5.003290 0.649060 
#    z -0.149340 0.649060 4.127880 
# 
# 
# High freq. dielectric constant tensor:
#      x y z
#    x 1.863610 0.011270 -0.004590 
#    y 0.011270 1.850950 0.030120 
#    z -0.004590 0.030120 1.860570 
# 
# From -- ./inp_files/113162.got.cif
#   From: 2010.06.25/outbox.cif.g09.slc.cpg/sg2_57_cif.got.tgz:113162.got - 2010.06.27 13:26:56.
