data_PCOD8012401
_publ_section_title
;
Structure prediction by ZEFSAII (Michael W. Deem and Ramdas Pophale) SiO2 
 PCOD8012401
Probable space group: P -1
;
_chemical_formula_sum "Si O2"
_cell_formula_units_Z 14
_cell_length_a 9.256704
_cell_length_b 8.853874
_cell_length_c 11.532608
_cell_angle_alpha 99.596215
_cell_angle_beta 122.160426
_cell_angle_gamma 51.559757
_cell_volume 607.203550
_symmetry_space_group_name_H-M "P -1"
_symmetry_group_IT_number 2
_symmetry_cell_setting 'triclinic'
loop_
_space_group_symop_operation_xyz
x,y,z
-x,-y,-z
loop_
_atom_site_type_symbol
_atom_site_label
_atom_site_fract_x
_atom_site_fract_y
_atom_site_fract_z
Si Si1 0.738975 0.407658 0.376460
Si Si2 0.832746 0.572835 0.043552
Si Si3 0.983249 0.747809 0.759420
Si Si4 0.683271 0.216291 0.680184
Si Si5 0.445141 0.159930 0.405454
Si Si6 0.391040 0.850494 0.756289
Si Si7 0.987054 0.269854 0.702809
O O1 0.897475 0.322574 0.321881
O O2 0.520273 0.642362 0.297475
O O3 0.643261 0.293543 0.335665
O O4 0.880439 0.373877 0.546107
O O5 0.849708 0.389176 0.081191
O O6 0.881225 0.664787 0.178404
O O7 0.579318 0.739263 0.919907
O O8 0.000000 0.500000 0.000000
O O9 0.821439 0.689505 0.692222
O O10 0.849813 0.982360 0.758239
O O11 0.557150 0.251523 0.509717
O O12 0.808477 0.305181 0.723163
O O13 0.537916 0.072621 0.305664
O O14 0.500000 0.000000 0.500000
O O15 0.159721 0.032298 0.734314
#
# Coordination Sequence:
#
# PCOD8012401 Si02
#       7
#     2   2   2   2   2   2   2
#     4  12  25  44  80 109 140 185 246 301 358 420
#     4  12  27  47  70 101 150 196 236 287 364 437
#     4  11  25  47  69 108 147 183 242 304 352 421
#     4  11  23  43  73 108 141 185 235 301 355 416
#     4  10  21  39  72 103 141 179 235 294 354 410
#     4  12  24  46  73 107 147 192 234 296 364 430
#     4  12  24  46  75 110 142 189 242 294 362 429
#
# _framework density 23.056519000000002
#
# number of rings (size 3 to 8) (size 9 to 14) (size 15 to 20)
#    0.000    0.571    4.286    4.714    0.000    5.143 
#    2.571    1.429    0.000    0.000    0.000    0.000 
#    0.000    0.000    0.000    0.000    0.000    0.000 
#
# Total GULP energy -173483.871588 kJ/mol
# GULP energy per Si atom -12391.705113 kJ/mol
# Density = 2.300404 g / cm^3
# Si number density = 23.056519 Si / 1000 Ang^3
#
#
#
# Elastic Constant Matrix: (Units=GPa)
#
#
# Indices 1 2 3 4 5 6 
#
# 1 85.7471 12.0392 30.3761 -5.2715 -4.1276 -12.9153
# 2 12.0392 118.6647 36.0460 -14.0163 -8.1787 -24.2259
# 3 30.3761 36.0460 99.5471 -10.7270 -9.8649 0.7340
# 4 -5.2715 -14.0163 -10.7270 35.4881 3.2515 4.7952
# 5 -4.1276 -8.1787 -9.8649 3.2515 34.0857 -4.4633
# 6 -12.9153 -24.2259 0.7340 4.7952 -4.4633 32.1342
#
#
#
# Elastic Compliance Matrix: (Units=1/GPa)
#
#
# Indices 1 2 3 4 5 6 
#
# 1 0.014340 0.001646 -0.004841 0.000174 0.001672 0.007322
# 2 0.001646 0.012092 -0.004442 0.002061 0.002925 0.009978
# 3 -0.004841 -0.004442 0.013548 0.002282 0.001296 -0.005765
# 4 0.000174 0.002061 0.002282 0.030344 -0.002145 -0.003254
# 5 0.001672 0.002925 0.001296 -0.002145 0.031815 0.007587
# 6 0.007322 0.009978 -0.005765 -0.003254 0.007587 0.043255
#
#
# Mechanical properties :
#
#
# Convention : Reuss Voigt Hill
#
# Bulk Modulus (GPa) = 40.47732 51.20905 45.84318
# Shear Modulus (GPa) = 29.60252 35.37478 32.48865
#
# Velocity S-wave (km/s) = 3.58706 3.92122 3.75785
# Velocity P-wave (km/s) = 5.89489 6.53909 6.22533
#
# Compressibility (1/GPa) = 0.02470520
#
# Stress axis : x y z
#
# Youngs Moduli (GPa) = 69.73428 82.70268 73.81045
#
# Poissons Ratio (x) = -0.13616 0.35735
# Poissons Ratio (y) = -0.11481 0.32789
# Poissons Ratio (z) = 0.33761 0.36739
#
# Static dielectric constant tensor:
#      x y z
#    x 4.287420 -0.207900 0.639150 
#    y -0.207900 4.499120 -0.649980 
#    z 0.639150 -0.649980 5.261480 
# 
# 
# High freq. dielectric constant tensor:
#      x y z
#    x 1.915280 -0.006510 0.007430 
#    y -0.006510 1.920130 -0.016730 
#    z 0.007430 -0.016730 1.903080 
# 
# From -- ./inp_files/382083.got.cif
#   From: 2010.06.25/outbox.cif.g09.slc.cpg/sg2_192_cif.got.tgz:382083.got - 2010.06.27 13:26:56.
