data_PCOD8012847
_publ_section_title
;
Structure prediction by ZEFSAII (Michael W. Deem and Ramdas Pophale) SiO2 
 PCOD8012847
Probable space group: P -1
;
_chemical_formula_sum "Si O2"
_cell_formula_units_Z 16
_cell_length_a 5.478073
_cell_length_b 16.263588
_cell_length_c 17.135797
_cell_angle_alpha 33.693186
_cell_angle_beta 52.637662
_cell_angle_gamma 53.465727
_cell_volume 658.846940
_symmetry_space_group_name_H-M "P -1"
_symmetry_group_IT_number 2
_symmetry_cell_setting 'triclinic'
loop_
_space_group_symop_operation_xyz
x,y,z
-x,-y,-z
loop_
_atom_site_type_symbol
_atom_site_label
_atom_site_fract_x
_atom_site_fract_y
_atom_site_fract_z
Si Si1 0.548045 0.140216 0.580835
Si Si2 0.172384 0.594206 0.717206
Si Si3 0.445055 0.331277 0.146945
Si Si4 0.244847 0.981423 0.627985
Si Si5 0.548741 0.669447 0.026431
Si Si6 0.886291 0.627761 0.215951
Si Si7 0.210131 0.192298 0.765000
Si Si8 0.442223 0.878560 0.019705
O O1 0.595771 0.290586 0.406549
O O2 0.350624 0.051571 0.633007
O O3 0.341008 0.206470 0.642941
O O4 0.890967 0.049766 0.614684
O O5 0.188880 0.460095 0.882972
O O6 0.245197 0.514451 0.680465
O O7 0.818940 0.688293 0.723251
O O8 0.743918 0.198741 0.216800
O O9 0.500000 0.500000 0.000000
O O10 0.341501 0.293705 0.109532
O O11 0.500000 0.000000 0.500000
O O12 0.467655 0.826007 0.965847
O O13 0.246984 0.592001 0.148940
O O14 0.822060 0.650338 0.303699
O O15 0.742519 0.789404 0.076978
O O16 0.867762 0.154589 0.852956
O O17 0.436196 0.057514 0.876771
#
# Coordination Sequence:
#
# PCOD8012847 Si02
#       8
#     2   2   2   2   2   2   2   2
#     4  12  29  48  78 105 151 198 242 294 375 443
#     4  11  25  44  68 102 146 193 242 302 363 441
#     4  12  25  43  76 107 140 192 244 304 367 432
#     4  12  29  52  75 110 151 191 244 303 367 441
#     4  10  22  39  65 100 140 178 244 298 361 425
#     4  10  21  40  64 101 134 180 237 305 348 426
#     4  10  22  40  69  99 138 191 236 299 363 437
#     4   9  20  40  64  98 140 178 239 304 363 421
#
# _framework density 24.284849000000001
#
# number of rings (size 3 to 8) (size 9 to 14) (size 15 to 20)
#    0.000    1.250    2.500    1.875    7.000    1.500 
#    0.000    5.625    0.000    0.000    0.000    0.000 
#    0.000    0.000    0.000    0.000    0.000    0.000 
#
# Total GULP energy -198290.981462 kJ/mol
# GULP energy per Si atom -12393.186341 kJ/mol
# Density = 2.422958 g / cm^3
# Si number density = 24.284849 Si / 1000 Ang^3
#
#
#
# Elastic Constant Matrix: (Units=GPa)
#
#
# Indices 1 2 3 4 5 6 
#
# 1 78.4925 28.9313 -6.4285 -1.7441 8.0973 9.1201
# 2 28.9313 124.1810 35.4184 12.9510 7.9041 16.2772
# 3 -6.4285 35.4184 61.5438 -3.1442 1.5712 15.7213
# 4 -1.7441 12.9510 -3.1442 45.1530 6.0477 2.0406
# 5 8.0973 7.9041 1.5712 6.0477 25.2232 -1.0556
# 6 9.1201 16.2772 15.7213 2.0406 -1.0556 31.4551
#
#
#
# Elastic Compliance Matrix: (Units=1/GPa)
#
#
# Indices 1 2 3 4 5 6 
#
# 1 0.016326 -0.004870 0.006283 0.003417 -0.005166 -0.005749
# 2 -0.004870 0.011838 -0.007288 -0.003948 -0.000781 -0.000841
# 3 0.006283 -0.007288 0.024105 0.004867 -0.002841 -0.010509
# 4 0.003417 -0.003948 0.004867 0.024728 -0.006225 -0.003193
# 5 -0.005166 -0.000781 -0.002841 -0.006225 0.043436 0.005184
# 6 -0.005749 -0.000841 -0.010509 -0.003193 0.005184 0.039527
#
#
# Mechanical properties :
#
#
# Convention : Reuss Voigt Hill
#
# Bulk Modulus (GPa) = 24.67971 42.22885 33.45428
# Shear Modulus (GPa) = 26.99548 34.11932 30.55740
#
# Velocity S-wave (km/s) = 3.33771 3.75235 3.55109
# Velocity P-wave (km/s) = 5.00384 6.01666 5.53347
#
# Compressibility (1/GPa) = 0.04051911
#
# Stress axis : x y z
#
# Youngs Moduli (GPa) = 61.25073 84.47603 41.48551
#
# Poissons Ratio (x) = 0.41136 -0.26064
# Poissons Ratio (y) = 0.29826 0.30235
# Poissons Ratio (z) = -0.38482 0.61567
#
# Static dielectric constant tensor:
#      x y z
#    x 4.397400 0.098570 0.106400 
#    y 0.098570 4.865280 -0.066180 
#    z 0.106400 -0.066180 4.067450 
# 
# 
# High freq. dielectric constant tensor:
#      x y z
#    x 1.956020 0.004910 0.006300 
#    y 0.004910 1.993770 -0.005940 
#    z 0.006300 -0.005940 1.938350 
# 
# From -- ./inp_files/98625.got.cif
#   From: 2010.06.25/outbox.cif.g09.slc.cpg/sg2_50_cif.got.tgz:98625.got - 2010.06.27 13:26:56.
