data_PCOD8012276
_publ_section_title
;
Structure prediction by ZEFSAII (Michael W. Deem and Ramdas Pophale) SiO2 
 PCOD8012276
Probable space group: P -1
;
_chemical_formula_sum "Si O2"
_cell_formula_units_Z 16
_cell_length_a 14.132062
_cell_length_b 14.394822
_cell_length_c 13.925372
_cell_angle_alpha 139.609591
_cell_angle_beta 31.450847
_cell_angle_gamma 147.748576
_cell_volume 780.495970
_symmetry_space_group_name_H-M "P -1"
_symmetry_group_IT_number 2
_symmetry_cell_setting 'triclinic'
loop_
_space_group_symop_operation_xyz
x,y,z
-x,-y,-z
loop_
_atom_site_type_symbol
_atom_site_label
_atom_site_fract_x
_atom_site_fract_y
_atom_site_fract_z
Si Si1 0.934145 0.001730 0.214167
Si Si2 0.737581 0.044798 0.999949
Si Si3 0.047640 0.177555 0.554227
Si Si4 0.608469 0.366779 0.886117
Si Si5 0.205245 0.261450 0.027123
Si Si6 0.460648 0.305347 0.176666
Si Si7 0.102411 0.398304 0.857945
Si Si8 0.693807 0.089964 0.641571
O O1 0.771273 0.006586 0.433065
O O2 0.813121 0.810828 0.120970
O O3 0.152745 0.041208 0.108671
O O4 0.996122 0.136382 0.179208
O O5 0.927821 0.236072 0.949070
O O6 0.580161 0.888459 0.934492
O O7 0.569701 0.055661 0.223196
O O8 0.234807 0.271369 0.384360
O O9 0.138917 0.320579 0.671397
O O10 0.825000 0.134930 0.663832
O O11 0.000000 0.000000 0.500000
O O12 0.421195 0.284747 0.902564
O O13 0.725918 0.265439 0.710893
O O14 0.791041 0.565928 0.852225
O O15 0.505337 0.369994 0.079266
O O16 0.663568 0.459716 0.184356
O O17 0.000000 0.500000 0.000000
#
# Coordination Sequence:
#
# PCOD8012276 Si02
#       8
#     2   2   2   2   2   2   2   2
#     4  11  21  42  67  96 129 179 214 270 332 389
#     4  11  23  46  68  95 141 176 215 281 339 383
#     4  12  24  43  70  97 130 181 225 271 332 396
#     4  10  21  41  64  95 130 177 209 274 335 377
#     4  10  21  39  68  94 134 167 220 271 322 399
#     4  11  22  44  67  89 137 173 215 274 333 391
#     4  12  26  41  66 100 128 174 229 275 327 396
#     4  11  23  41  72  94 133 178 219 265 339 392
#
# _framework density 20.499784999999999
#
# number of rings (size 3 to 8) (size 9 to 14) (size 15 to 20)
#    0.000    1.000    5.000    2.625    1.750    2.000 
#    4.500    0.000    5.500    0.000    0.000    0.000 
#    0.000    0.000    0.000    0.000    0.000    0.000 
#
# Total GULP energy -198301.076987 kJ/mol
# GULP energy per Si atom -12393.817312 kJ/mol
# Density = 2.045313 g / cm^3
# Si number density = 20.499785 Si / 1000 Ang^3
#
#
#
# Elastic Constant Matrix: (Units=GPa)
#
#
# Indices 1 2 3 4 5 6 
#
# 1 80.4493 21.8179 33.7901 7.1426 -0.9064 5.4997
# 2 21.8179 81.4734 17.1439 0.8850 0.3941 2.7977
# 3 33.7901 17.1439 129.1098 -11.3447 6.9311 12.4067
# 4 7.1426 0.8850 -11.3447 30.6763 0.3685 5.2657
# 5 -0.9064 0.3941 6.9311 0.3685 33.9161 10.0413
# 6 5.4997 2.7977 12.4067 5.2657 10.0413 35.6840
#
#
#
# Elastic Compliance Matrix: (Units=1/GPa)
#
#
# Indices 1 2 3 4 5 6 
#
# 1 0.015520 -0.003230 -0.004113 -0.004993 0.001460 -0.000383
# 2 -0.003230 0.013335 -0.000895 0.000080 0.000016 -0.000253
# 3 -0.004113 -0.000895 0.009756 0.005138 -0.001231 -0.003100
# 4 -0.004993 0.000080 0.005138 0.036779 0.000355 -0.006551
# 5 0.001460 0.000016 -0.001231 0.000355 0.032429 -0.008976
# 6 -0.000383 -0.000253 -0.003100 -0.006551 -0.008976 0.032673
#
#
# Mechanical properties :
#
#
# Convention : Reuss Voigt Hill
#
# Bulk Modulus (GPa) = 45.17875 48.50404 46.84140
# Shear Modulus (GPa) = 30.42357 34.60733 32.51545
#
# Velocity S-wave (km/s) = 3.85657 4.11320 3.98695
# Velocity P-wave (km/s) = 6.47436 6.80221 6.64031
#
# Compressibility (1/GPa) = 0.02213430
#
# Stress axis : x y z
#
# Youngs Moduli (GPa) = 64.43373 74.99059 102.49946
#
# Poissons Ratio (x) = 0.24224 0.42161
# Poissons Ratio (y) = 0.20814 0.09172
# Poissons Ratio (z) = 0.26503 0.06710
#
# Static dielectric constant tensor:
#      x y z
#    x 3.763960 -0.034910 0.113510 
#    y -0.034910 3.751490 0.030800 
#    z 0.113510 0.030800 3.607320 
# 
# 
# High freq. dielectric constant tensor:
#      x y z
#    x 1.806540 0.004460 0.008170 
#    y 0.004460 1.812840 -0.001460 
#    z 0.008170 -0.001460 1.793580 
# 
# From -- ./inp_files/533809.got.cif
#   From: 2010.06.25/outbox.cif.g09.slc.cpg/sg2_267_cif.got.tgz:533809.got - 2010.06.27 13:26:56.
