data_PCOD8012091
_publ_section_title
;
Structure prediction by ZEFSAII (Michael W. Deem and Ramdas Pophale) SiO2 
 PCOD8012091
Probable space group: P -1
;
_chemical_formula_sum "Si O2"
_cell_formula_units_Z 16
_cell_length_a 19.903159
_cell_length_b 15.523581
_cell_length_c 8.994996
_cell_angle_alpha 74.396806
_cell_angle_beta 62.453118
_cell_angle_gamma 20.817375
_cell_volume 748.925466
_symmetry_space_group_name_H-M "P -1"
_symmetry_group_IT_number 2
_symmetry_cell_setting 'triclinic'
loop_
_space_group_symop_operation_xyz
x,y,z
-x,-y,-z
loop_
_atom_site_type_symbol
_atom_site_label
_atom_site_fract_x
_atom_site_fract_y
_atom_site_fract_z
Si Si1 0.336966 0.277011 0.373966
Si Si2 0.865820 0.394532 0.998951
Si Si3 0.009574 0.926428 0.386637
Si Si4 0.423492 0.356223 0.097517
Si Si5 0.324404 0.853799 0.308044
Si Si6 0.146029 0.181543 0.573698
Si Si7 0.171358 0.758352 0.828060
Si Si8 0.570716 0.834662 0.333913
O O1 0.458033 0.238013 0.234158
O O2 0.289241 0.330881 0.575202
O O3 0.094754 0.529650 0.409843
O O4 0.529924 0.984928 0.269457
O O5 0.697044 0.551237 0.966975
O O6 0.091085 0.190131 0.780746
O O7 0.926310 0.234708 0.100093
O O8 0.737380 0.608758 0.139012
O O9 0.273938 0.608241 0.199192
O O10 0.000000 0.000000 0.500000
O O11 0.913610 0.936527 0.523547
O O12 0.832747 0.178295 0.344249
O O13 0.672956 0.113496 0.882598
O O14 0.564199 0.528758 0.241045
O O15 0.326423 0.926262 0.400436
O O16 0.300988 0.095061 0.498626
O O17 0.000000 0.000000 0.000000
#
# Coordination Sequence:
#
# PCOD8012091 Si02
#       8
#     2   2   2   2   2   2   2   2
#     4  10  24  44  67  96 142 160 217 278 312 398
#     4  10  21  39  66  94 127 164 225 264 315 392
#     4  12  25  39  62  94 129 167 213 265 325 378
#     4  10  21  43  61  91 130 170 211 270 321 379
#     4  11  21  42  68  87 128 171 215 261 321 381
#     4  11  21  43  70  96 128 178 216 261 331 385
#     4  11  20  41  64  87 124 167 213 268 306 378
#     4  11  23  45  66 102 128 175 213 265 337 377
#
# _framework density 21.363941000000001
#
# number of rings (size 3 to 8) (size 9 to 14) (size 15 to 20)
#    0.000    1.250    7.500    0.750    1.750    2.500 
#    6.750    1.250    0.000    0.000    0.000    0.000 
#    0.000    0.000    0.000    0.000    0.000    0.000 
#
# Total GULP energy -198241.846670 kJ/mol
# GULP energy per Si atom -12390.115417 kJ/mol
# Density = 2.131532 g / cm^3
# Si number density = 21.363941 Si / 1000 Ang^3
#
#
#
# Elastic Constant Matrix: (Units=GPa)
#
#
# Indices 1 2 3 4 5 6 
#
# 1 65.3638 22.5688 30.7696 -0.5927 19.1019 14.6833
# 2 22.5688 73.6496 35.1469 -4.3812 -2.1968 26.3400
# 3 30.7696 35.1469 131.4005 7.0920 6.6754 20.2286
# 4 -0.5927 -4.3812 7.0920 30.1349 15.1226 2.1886
# 5 19.1019 -2.1968 6.6754 15.1226 39.1267 9.4936
# 6 14.6833 26.3400 20.2286 2.1886 9.4936 34.2045
#
#
#
# Elastic Compliance Matrix: (Units=1/GPa)
#
#
# Indices 1 2 3 4 5 6 
#
# 1 0.022920 -0.005080 -0.003646 0.007436 -0.013613 -0.000468
# 2 -0.005080 0.022326 -0.002842 0.001162 0.007529 -0.015495
# 3 -0.003646 -0.002842 0.009668 -0.003544 0.001890 -0.002261
# 4 0.007436 0.001162 -0.003544 0.044488 -0.020352 0.000811
# 5 -0.013613 0.007529 0.001890 -0.020352 0.043011 -0.011707
# 6 -0.000468 -0.015495 -0.002261 0.000811 -0.011707 0.045905
#
#
# Mechanical properties :
#
#
# Convention : Reuss Voigt Hill
#
# Bulk Modulus (GPa) = 31.46783 49.70940 40.58862
# Shear Modulus (GPa) = 22.51784 32.82179 27.66982
#
# Velocity S-wave (km/s) = 3.25008 3.92384 3.60274
# Velocity P-wave (km/s) = 5.37079 6.62172 6.02879
#
# Compressibility (1/GPa) = 0.03177848
#
# Stress axis : x y z
#
# Youngs Moduli (GPa) = 43.62943 44.79049 103.43704
#
# Poissons Ratio (x) = 0.22753 0.37714
# Poissons Ratio (y) = 0.22163 0.29397
# Poissons Ratio (z) = 0.15908 0.12729
#
# Static dielectric constant tensor:
#      x y z
#    x 3.747330 0.370310 -0.323890 
#    y 0.370310 3.721540 -0.199520 
#    z -0.323890 -0.199520 4.594760 
# 
# 
# High freq. dielectric constant tensor:
#      x y z
#    x 1.826260 0.021180 0.006350 
#    y 0.021180 1.827110 -0.007760 
#    z 0.006350 -0.007760 1.855800 
# 
# From -- ./inp_files/215704.got.cif
#   From: 2010.06.25/outbox.cif.g09.slc.cpg/sg2_108_cif.got.tgz:215704.got - 2010.06.27 13:26:56.
