data_PCOD8012679
_publ_section_title
;
Structure prediction by ZEFSAII (Michael W. Deem and Ramdas Pophale) SiO2 
 PCOD8012679
Probable space group: P -1
;
_chemical_formula_sum "Si O2"
_cell_formula_units_Z 16
_cell_length_a 10.003135
_cell_length_b 14.987930
_cell_length_c 10.782083
_cell_angle_alpha 53.963583
_cell_angle_beta 112.183545
_cell_angle_gamma 143.489891
_cell_volume 762.328306
_symmetry_space_group_name_H-M "P -1"
_symmetry_group_IT_number 2
_symmetry_cell_setting 'triclinic'
loop_
_space_group_symop_operation_xyz
x,y,z
-x,-y,-z
loop_
_atom_site_type_symbol
_atom_site_label
_atom_site_fract_x
_atom_site_fract_y
_atom_site_fract_z
Si Si1 0.800592 0.592584 0.613842
Si Si2 0.647264 0.745151 0.401475
Si Si3 0.728198 0.577995 0.073159
Si Si4 0.998203 0.049226 0.095438
Si Si5 0.205639 0.536006 0.032031
Si Si6 0.281306 0.836232 0.473127
Si Si7 0.376886 0.117664 0.225335
Si Si8 0.440391 0.711688 0.589500
O O1 0.792461 0.720650 0.498302
O O2 0.613617 0.434407 0.582057
O O3 0.750899 0.520862 0.792913
O O4 0.050597 0.694617 0.588660
O O5 0.633656 0.804999 0.476974
O O6 0.761145 0.888372 0.217399
O O7 0.673846 0.473218 0.263201
O O8 0.500000 0.500000 0.000000
O O9 0.841757 0.566641 0.020540
O O10 0.927443 0.779304 0.020925
O O11 0.191492 0.101432 0.195689
O O12 0.000000 0.000000 0.000000
O O13 0.440148 0.743603 0.929605
O O14 0.000000 0.500000 0.000000
O O15 0.285113 0.725373 0.481547
O O16 0.500000 0.000000 0.500000
O O17 0.265218 0.933974 0.296552
O O18 0.482658 0.180311 0.347452
#
# Coordination Sequence:
#
# PCOD8012679 Si02
#       8
#     2   2   2   2   2   2   2   2
#     4  11  23  41  63  95 136 170 219 269 333 396
#     4  11  26  39  63 100 128 175 216 274 335 386
#     4  11  22  40  66  95 128 176 219 275 329 391
#     4  12  25  42  65  95 135 173 220 274 337 390
#     4  11  22  40  67  97 130 174 224 274 328 392
#     4  10  21  41  64  93 130 172 215 269 329 391
#     4  10  21  40  62  93 129 174 214 269 327 388
#     4  10  22  40  65  96 129 166 227 266 332 388
#
# _framework density 20.988332
#
# number of rings (size 3 to 8) (size 9 to 14) (size 15 to 20)
#    0.000    1.250    3.750    3.750    3.500    4.000 
#    0.000    1.250    0.000    5.250    0.000    0.000 
#    0.000    0.000    0.000    0.000    0.000    0.000 
#
# Total GULP energy -198217.974815 kJ/mol
# GULP energy per Si atom -12388.623426 kJ/mol
# Density = 2.094056 g / cm^3
# Si number density = 20.988332 Si / 1000 Ang^3
#
#
#
# Elastic Constant Matrix: (Units=GPa)
#
#
# Indices 1 2 3 4 5 6 
#
# 1 142.0752 30.7411 50.7579 -20.2000 -5.9588 -8.6225
# 2 30.7411 51.6525 34.6169 -19.1473 -2.5985 -0.2194
# 3 50.7579 34.6169 140.9142 -26.7536 -10.6829 -23.2494
# 4 -20.2000 -19.1473 -26.7536 29.1299 -2.4327 3.8349
# 5 -5.9588 -2.5985 -10.6829 -2.4327 40.2861 -8.9121
# 6 -8.6225 -0.2194 -23.2494 3.8349 -8.9121 29.6014
#
#
#
# Elastic Compliance Matrix: (Units=1/GPa)
#
#
# Indices 1 2 3 4 5 6 
#
# 1 0.008774 -0.003169 -0.001630 0.002429 0.001088 0.001265
# 2 -0.003169 0.029292 -0.004474 0.013725 -0.000283 -0.006083
# 3 -0.001630 -0.004474 0.011895 0.006018 0.005111 0.009594
# 4 0.002429 0.013725 0.006018 0.050969 0.006088 0.000766
# 5 0.001088 -0.000283 0.005111 0.006088 0.029431 0.012401
# 6 0.001265 -0.006083 0.009594 0.000766 0.012401 0.045275
#
#
# Mechanical properties :
#
#
# Convention : Reuss Voigt Hill
#
# Bulk Modulus (GPa) = 31.83017 62.98598 47.40808
# Shear Modulus (GPa) = 24.43136 34.37189 29.40163
#
# Velocity S-wave (km/s) = 3.41551 4.05120 3.74686
# Velocity P-wave (km/s) = 5.54553 7.20820 6.43082
#
# Compressibility (1/GPa) = 0.03141673
#
# Stress axis : x y z
#
# Youngs Moduli (GPa) = 113.97023 34.13881 84.06605
#
# Poissons Ratio (x) = 0.10820 0.13699
# Poissons Ratio (y) = 0.36122 0.37607
# Poissons Ratio (z) = 0.18572 0.15272
#
# Static dielectric constant tensor:
#      x y z
#    x 3.815160 0.222960 0.177070 
#    y 0.222960 3.662260 -0.116400 
#    z 0.177070 -0.116400 4.092230 
# 
# 
# High freq. dielectric constant tensor:
#      x y z
#    x 1.832590 0.000460 0.013950 
#    y 0.000460 1.797110 -0.013300 
#    z 0.013950 -0.013300 1.839260 
# 
# From -- ./inp_files/398634.got.cif
#   From: 2010.06.25/outbox.cif.g09.slc.cpg/sg2_200_cif.got.tgz:398634.got - 2010.06.27 13:26:56.
