data_PCOD8012045
_publ_section_title
;
Structure prediction by ZEFSAII (Michael W. Deem and Ramdas Pophale) SiO2 
 PCOD8012045
Probable space group: P -1
;
_chemical_formula_sum "Si O2"
_cell_formula_units_Z 16
_cell_length_a 20.234872
_cell_length_b 9.292096
_cell_length_c 21.196447
_cell_angle_alpha 49.531734
_cell_angle_beta 160.943620
_cell_angle_gamma 139.623406
_cell_volume 794.004205
_symmetry_space_group_name_H-M "P -1"
_symmetry_group_IT_number 2
_symmetry_cell_setting 'triclinic'
loop_
_space_group_symop_operation_xyz
x,y,z
-x,-y,-z
loop_
_atom_site_type_symbol
_atom_site_label
_atom_site_fract_x
_atom_site_fract_y
_atom_site_fract_z
Si Si1 0.618822 0.972194 0.248406
Si Si2 0.245921 0.014666 0.199923
Si Si3 0.524234 0.672768 0.799249
Si Si4 0.028563 0.754760 0.617815
Si Si5 0.733988 0.355087 0.618779
Si Si6 0.208315 0.564471 0.913533
Si Si7 0.421269 0.252941 0.026566
Si Si8 0.090438 0.146942 0.382128
O O1 0.828446 0.040288 0.363991
O O2 0.604681 0.189194 0.185054
O O3 0.701908 0.903763 0.405785
O O4 0.347664 0.745898 0.045932
O O5 0.355894 0.108632 0.202504
O O6 0.445732 0.185702 0.385002
O O7 0.204597 0.763500 0.236964
O O8 0.000000 0.000000 0.000000
O O9 0.557778 0.754386 0.877604
O O10 0.234211 0.467485 0.582523
O O11 0.685370 0.578830 0.959950
O O12 0.223002 0.689357 0.825816
O O13 0.004468 0.849938 0.634913
O O14 0.791189 0.605560 0.618066
O O15 0.911308 0.391693 0.710216
O O16 0.500000 0.500000 0.000000
O O17 0.132811 0.060202 0.802244
#
# Coordination Sequence:
#
# PCOD8012045 Si02
#       8
#     2   2   2   2   2   2   2   2
#     4  12  23  39  68  92 125 185 216 262 321 392
#     4  11  21  39  69 101 129 161 220 280 332 373
#     4  12  24  41  64 100 132 171 214 278 328 381
#     4  11  22  37  66  95 126 166 235 260 307 390
#     4  10  21  39  66 101 123 158 220 281 315 377
#     4  11  20  37  67  94 125 167 220 262 314 383
#     4  12  28  43  60  96 144 172 213 268 334 387
#     4  11  23  42  62  91 131 172 218 269 315 392
#
# _framework density 20.151026999999999
#
# number of rings (size 3 to 8) (size 9 to 14) (size 15 to 20)
#    0.000    0.750    7.500    2.250    1.750    3.000 
#    0.000    0.625    0.000    1.500    0.000    0.000 
#    0.000    0.000    0.000    0.000    0.000    0.000 
#
# Total GULP energy -198321.273831 kJ/mol
# GULP energy per Si atom -12395.079614 kJ/mol
# Density = 2.010516 g / cm^3
# Si number density = 20.151027 Si / 1000 Ang^3
#
#
#
# Elastic Constant Matrix: (Units=GPa)
#
#
# Indices 1 2 3 4 5 6 
#
# 1 75.7828 39.6016 28.4481 2.7944 -18.5048 7.3804
# 2 39.6016 179.3735 65.6461 -21.8587 -17.7975 15.2549
# 3 28.4481 65.6461 144.7974 -4.7618 -14.8184 3.0250
# 4 2.7944 -21.8587 -4.7618 41.7200 1.5079 -3.9293
# 5 -18.5048 -17.7975 -14.8184 1.5079 35.4268 -2.6764
# 6 7.3804 15.2549 3.0250 -3.9293 -2.6764 34.4937
#
#
#
# Elastic Compliance Matrix: (Units=1/GPa)
#
#
# Indices 1 2 3 4 5 6 
#
# 1 0.017233 -0.002787 -0.001471 -0.003237 0.006961 -0.002154
# 2 -0.002787 0.007960 -0.002783 0.003798 0.001054 -0.002166
# 3 -0.001471 -0.002783 0.008581 -0.000353 0.001503 0.000870
# 4 -0.003237 0.003798 -0.000353 0.026354 -0.000903 0.001976
# 5 0.006961 0.001054 0.001503 -0.000903 0.033088 0.000377
# 6 -0.002154 -0.002166 0.000870 0.001976 0.000377 0.030588
#
#
# Mechanical properties :
#
#
# Convention : Reuss Voigt Hill
#
# Bulk Modulus (GPa) = 50.78297 74.14948 62.46622
# Shear Modulus (GPa) = 34.61345 40.07862 37.34603
#
# Velocity S-wave (km/s) = 4.14901 4.46456 4.30968
# Velocity P-wave (km/s) = 6.94322 7.96575 7.47200
#
# Compressibility (1/GPa) = 0.01969164
#
# Stress axis : x y z
#
# Youngs Moduli (GPa) = 58.02766 125.62113 116.53264
#
# Poissons Ratio (x) = 0.35007 0.17147
# Poissons Ratio (y) = 0.16171 0.32437
# Poissons Ratio (z) = 0.08538 0.34966
#
# Static dielectric constant tensor:
#      x y z
#    x 3.447660 0.314850 -0.124270 
#    y 0.314850 4.061190 -0.367020 
#    z -0.124270 -0.367020 4.020480 
# 
# 
# High freq. dielectric constant tensor:
#      x y z
#    x 1.743180 0.016140 0.002520 
#    y 0.016140 1.800650 -0.020250 
#    z 0.002520 -0.020250 1.813380 
# 
# From -- ./inp_files/213389.got.cif
#   From: 2010.06.25/outbox.cif.g09.slc.cpg/sg2_107_cif.got.tgz:213389.got - 2010.06.27 13:26:56.
