data_PCOD8012020
_publ_section_title
;
Structure prediction by ZEFSAII (Michael W. Deem and Ramdas Pophale) SiO2 
 PCOD8012020
Probable space group: P -1
;
_chemical_formula_sum "Si O2"
_cell_formula_units_Z 12
_cell_length_a 13.450588
_cell_length_b 6.342291
_cell_length_c 12.731612
_cell_angle_alpha 125.723773
_cell_angle_beta 137.627618
_cell_angle_gamma 54.454142
_cell_volume 571.480319
_symmetry_space_group_name_H-M "P -1"
_symmetry_group_IT_number 2
_symmetry_cell_setting 'triclinic'
loop_
_space_group_symop_operation_xyz
x,y,z
-x,-y,-z
loop_
_atom_site_type_symbol
_atom_site_label
_atom_site_fract_x
_atom_site_fract_y
_atom_site_fract_z
Si Si1 0.428815 0.784246 0.253549
Si Si2 0.393208 0.789299 0.469972
Si Si3 0.216662 0.765024 0.903104
Si Si4 0.605177 0.198769 0.148766
Si Si5 0.878534 0.767222 0.323639
Si Si6 0.066469 0.945493 0.361286
O O1 0.370367 0.828399 0.339402
O O2 0.520432 0.472831 0.220792
O O3 0.536664 0.975806 0.362971
O O4 0.277190 0.867755 0.086872
O O5 0.500000 0.500000 0.500000
O O6 0.229950 0.809115 0.399689
O O7 0.349651 0.733170 0.912286
O O8 0.197269 0.470894 0.823215
O O9 0.056376 0.970825 0.804265
O O10 0.756280 0.055882 0.290924
O O11 0.500000 0.000000 0.000000
O O12 0.018632 0.733133 0.340332
O O13 0.934240 0.786141 0.492643
#
# Coordination Sequence:
#
# PCOD8012020 Si02
#       6
#     2   2   2   2   2   2
#     4  11  25  41  65  99 125 169 220 258 319 377
#     4  11  26  45  66  88 130 176 216 262 312 383
#     4  11  23  39  65  97 130 161 212 270 320 372
#     4  11  22  37  68 100 127 161 208 268 317 374
#     4  10  21  39  65  97 130 167 209 260 324 375
#     4  10  23  40  63  93 128 172 209 262 318 381
#
# _framework density 20.998097999999999
#
# number of rings (size 3 to 8) (size 9 to 14) (size 15 to 20)
#    0.000    1.333    1.667    3.000    4.667    6.000 
#    0.000    1.667    0.000    0.000    0.000    0.000 
#    0.000    0.000    0.000    0.000    0.000    0.000 
#
# Total GULP energy -148834.796890 kJ/mol
# GULP energy per Si atom -12402.899741 kJ/mol
# Density = 2.095031 g / cm^3
# Si number density = 20.998098 Si / 1000 Ang^3
#
#
#
# Elastic Constant Matrix: (Units=GPa)
#
#
# Indices 1 2 3 4 5 6 
#
# 1 151.8641 55.5360 61.6673 1.1243 22.8189 -6.3044
# 2 55.5360 88.8146 46.3152 5.5128 11.4578 -7.2277
# 3 61.6673 46.3152 150.4981 -2.1971 9.9999 3.3698
# 4 1.1243 5.5128 -2.1971 44.7023 8.0414 6.0947
# 5 22.8189 11.4578 9.9999 8.0414 30.5919 -1.0357
# 6 -6.3044 -7.2277 3.3698 6.0947 -1.0357 28.6515
#
#
#
# Elastic Compliance Matrix: (Units=1/GPa)
#
#
# Indices 1 2 3 4 5 6 
#
# 1 0.009951 -0.004257 -0.002427 0.000963 -0.005254 0.001006
# 2 -0.004257 0.016266 -0.003317 -0.002421 -0.001060 0.004033
# 3 -0.002427 -0.003317 0.008755 0.001311 -0.000245 -0.002688
# 4 0.000963 -0.002421 0.001311 0.024790 -0.006962 -0.006078
# 5 -0.005254 -0.001060 -0.000245 -0.006962 0.038965 0.001495
# 6 0.001006 0.004033 -0.002688 -0.006078 0.001495 0.037804
#
#
# Mechanical properties :
#
#
# Convention : Reuss Voigt Hill
#
# Bulk Modulus (GPa) = 66.79351 79.80152 73.29751
# Shear Modulus (GPa) = 30.95511 35.96636 33.46073
#
# Velocity S-wave (km/s) = 3.84368 4.14314 3.99621
# Velocity P-wave (km/s) = 7.18170 7.80859 7.50170
#
# Compressibility (1/GPa) = 0.01497152
#
# Stress axis : x y z
#
# Youngs Moduli (GPa) = 100.49038 61.47702 114.21609
#
# Poissons Ratio (x) = 0.26171 0.27718
# Poissons Ratio (y) = 0.42779 0.37883
# Poissons Ratio (z) = 0.24387 0.20391
#
# Static dielectric constant tensor:
#      x y z
#    x 3.876550 0.189700 0.131990 
#    y 0.189700 3.710430 -0.136960 
#    z 0.131990 -0.136960 3.999920 
# 
# 
# High freq. dielectric constant tensor:
#      x y z
#    x 1.829340 0.015500 0.013170 
#    y 0.015500 1.815800 -0.013190 
#    z 0.013170 -0.013190 1.835110 
# 
# From -- ./inp_files/21001.got.cif
#   From: 2010.06.25/outbox.cif.g09.slc.cpg/sg2_11_cif.got.tgz:21001.got - 2010.06.27 13:26:56.
