data_PCOD8012735
_publ_section_title
;
Structure prediction by ZEFSAII (Michael W. Deem and Ramdas Pophale) SiO2 
 PCOD8012735
Probable space group: P -1
;
_chemical_formula_sum "Si O2"
_cell_formula_units_Z 14
_cell_length_a 14.310806
_cell_length_b 11.746770
_cell_length_c 11.354259
_cell_angle_alpha 40.828728
_cell_angle_beta 127.975553
_cell_angle_gamma 148.682417
_cell_volume 645.923753
_symmetry_space_group_name_H-M "P -1"
_symmetry_group_IT_number 2
_symmetry_cell_setting 'triclinic'
loop_
_space_group_symop_operation_xyz
x,y,z
-x,-y,-z
loop_
_atom_site_type_symbol
_atom_site_label
_atom_site_fract_x
_atom_site_fract_y
_atom_site_fract_z
Si Si1 0.307901 0.466824 0.456558
Si Si2 0.003219 0.621660 0.722286
Si Si3 0.760108 0.660874 0.228623
Si Si4 0.550971 0.877203 0.697974
Si Si5 0.336633 0.100350 0.737466
Si Si6 0.922540 0.236388 0.594923
Si Si7 0.726564 0.019575 0.957796
O O1 0.141937 0.395788 0.334672
O O2 0.315497 0.486062 0.588553
O O3 0.283750 0.243875 0.566255
O O4 0.489681 0.753396 0.320535
O O5 0.910980 0.331405 0.869087
O O6 0.090626 0.771731 0.549012
O O7 0.165985 0.794267 0.806752
O O8 0.614182 0.440126 0.191144
O O9 0.950714 0.782578 0.252296
O O10 0.787273 0.896596 0.058437
O O11 0.500000 0.000000 0.500000
O O12 0.724383 0.981436 0.690362
O O13 0.594878 0.960665 0.804614
O O14 0.380371 0.107599 0.902137
O O15 0.000000 0.500000 0.500000
#
# Coordination Sequence:
#
# PCOD8012735 Si02
#       7
#     2   2   2   2   2   2   2
#     4   9  20  40  64  91 116 160 210 248 291 374
#     4  11  21  39  61  88 123 161 202 248 308 360
#     4  10  22  41  63  91 127 156 204 260 303 357
#     4  12  22  41  65  87 119 165 206 253 309 361
#     4  10  21  40  63  87 124 161 202 251 308 351
#     4  11  21  41  64  91 115 162 214 249 298 370
#     4  11  24  39  59  95 129 158 204 256 303 372
#
# _framework density 21.674385999999998
#
# number of rings (size 3 to 8) (size 9 to 14) (size 15 to 20)
#    0.000    1.429    2.857    3.000    0.000    1.143 
#    0.000    4.286    0.000    0.000    0.000    0.000 
#    0.000    0.000    0.000    0.000    0.000    0.000 
#
# Total GULP energy -173676.737178 kJ/mol
# GULP energy per Si atom -12405.481227 kJ/mol
# Density = 2.162505 g / cm^3
# Si number density = 21.674386 Si / 1000 Ang^3
#
#
#
# Elastic Constant Matrix: (Units=GPa)
#
#
# Indices 1 2 3 4 5 6 
#
# 1 103.3894 51.6410 39.9357 12.3086 -4.8544 15.4536
# 2 51.6410 137.6741 51.8036 -0.1702 -3.2495 2.7847
# 3 39.9357 51.8036 104.9370 6.8229 4.3233 3.7591
# 4 12.3086 -0.1702 6.8229 33.9549 -3.3564 1.0776
# 5 -4.8544 -3.2495 4.3233 -3.3564 24.8394 -6.4280
# 6 15.4536 2.7847 3.7591 1.0776 -6.4280 34.1130
#
#
#
# Elastic Compliance Matrix: (Units=1/GPa)
#
#
# Indices 1 2 3 4 5 6 
#
# 1 0.014236 -0.004110 -0.002940 -0.004342 0.000743 -0.005513
# 2 -0.004110 0.010249 -0.003798 0.002445 0.001979 0.001740
# 3 -0.002940 -0.003798 0.012810 -0.001876 -0.003658 -0.000400
# 4 -0.004342 0.002445 -0.001876 0.031808 0.004570 0.001831
# 5 0.000743 0.001979 -0.003658 0.004570 0.044000 0.008052
# 6 -0.005513 0.001740 -0.000400 0.001831 0.008052 0.033173
#
#
# Mechanical properties :
#
#
# Convention : Reuss Voigt Hill
#
# Bulk Modulus (GPa) = 64.10407 70.30679 67.20543
# Shear Modulus (GPa) = 28.87286 32.08946 30.48116
#
# Velocity S-wave (km/s) = 3.65378 3.85193 3.75416
# Velocity P-wave (km/s) = 6.88769 7.23127 7.06157
#
# Compressibility (1/GPa) = 0.01559963
#
# Stress axis : x y z
#
# Youngs Moduli (GPa) = 70.24220 97.57080 78.06206
#
# Poissons Ratio (x) = 0.40104 0.22948
# Poissons Ratio (y) = 0.28871 0.29649
# Poissons Ratio (z) = 0.20649 0.37059
#
# Static dielectric constant tensor:
#      x y z
#    x 4.127410 -0.016140 -0.053560 
#    y -0.016140 3.925790 0.078930 
#    z -0.053560 0.078930 3.885690 
# 
# 
# High freq. dielectric constant tensor:
#      x y z
#    x 1.854610 -0.005390 -0.000880 
#    y -0.005390 1.849300 -0.000620 
#    z -0.000880 -0.000620 1.849350 
# 
# From -- ./inp_files/272575.got.cif
#   From: 2010.06.25/outbox.cif.g09.slc.cpg/sg2_137_cif.got.tgz:272575.got - 2010.06.27 13:26:56.
