data_PCOD8012261
_publ_section_title
;
Structure prediction by ZEFSAII (Michael W. Deem and Ramdas Pophale) SiO2 
 PCOD8012261
Probable space group: P -1
;
_chemical_formula_sum "Si O2"
_cell_formula_units_Z 16
_cell_length_a 9.123687
_cell_length_b 15.424604
_cell_length_c 24.208502
_cell_angle_alpha 152.066325
_cell_angle_beta 149.667115
_cell_angle_gamma 46.609009
_cell_volume 763.754793
_symmetry_space_group_name_H-M "P -1"
_symmetry_group_IT_number 2
_symmetry_cell_setting 'triclinic'
loop_
_space_group_symop_operation_xyz
x,y,z
-x,-y,-z
loop_
_atom_site_type_symbol
_atom_site_label
_atom_site_fract_x
_atom_site_fract_y
_atom_site_fract_z
Si Si1 0.763444 0.341024 0.727658
Si Si2 0.726883 0.977840 0.440895
Si Si3 0.055920 0.775006 0.071821
Si Si4 0.824741 0.246280 0.084633
Si Si5 0.846100 0.806618 0.141928
Si Si6 0.290020 0.609426 0.467035
Si Si7 0.139860 0.053164 0.163573
Si Si8 0.140732 0.216162 0.514732
O O1 0.437963 0.336992 0.644888
O O2 0.959855 0.290090 0.811547
O O3 0.715925 0.189684 0.576168
O O4 0.943199 0.558330 0.886502
O O5 0.421211 0.851437 0.239573
O O6 0.763730 0.858043 0.438769
O O7 0.000000 0.000000 0.500000
O O8 0.887412 0.762048 0.067208
O O9 0.963481 0.926286 0.086447
O O10 0.070045 0.456787 0.266274
O O11 0.930080 0.167427 0.131652
O O12 0.509641 0.289840 0.015065
O O13 0.785057 0.091989 0.936939
O O14 0.949415 0.037825 0.314040
O O15 0.500000 0.500000 0.500000
O O16 0.524119 0.805479 0.626688
O O17 0.076484 0.653956 0.470459
#
# Coordination Sequence:
#
# PCOD8012261 Si02
#       8
#     2   2   2   2   2   2   2   2
#     4  11  24  42  62  95 128 169 216 241 312 387
#     4  11  24  39  60  94 129 164 202 265 312 361
#     4  12  24  39  63  91 129 162 211 260 305 368
#     4  10  22  41  68  86 120 165 208 258 315 369
#     4  11  21  41  66  90 126 171 208 253 307 375
#     4  10  21  39  68  92 117 162 215 253 308 374
#     4  10  23  42  60  94 123 159 209 262 313 366
#     4  11  20  42  65  88 129 168 207 255 311 374
#
# _framework density 20.949131999999999
#
# number of rings (size 3 to 8) (size 9 to 14) (size 15 to 20)
#    0.000    1.250    3.750    2.625    3.500    3.000 
#    0.000    0.000    0.000    2.250    0.000    0.000 
#    0.000    0.000    0.000    0.000    0.000    0.000 
#
# Total GULP energy -198378.426495 kJ/mol
# GULP energy per Si atom -12398.651656 kJ/mol
# Density = 2.090145 g / cm^3
# Si number density = 20.949132 Si / 1000 Ang^3
#
#
#
# Elastic Constant Matrix: (Units=GPa)
#
#
# Indices 1 2 3 4 5 6 
#
# 1 52.3257 20.1330 17.9264 7.6137 8.0106 -6.0019
# 2 20.1330 60.1426 38.4560 10.7705 -0.3742 -15.1808
# 3 17.9264 38.4560 148.8189 20.0376 10.5465 1.1583
# 4 7.6137 10.7705 20.0376 33.2631 -5.4654 2.2424
# 5 8.0106 -0.3742 10.5465 -5.4654 21.9498 -2.8357
# 6 -6.0019 -15.1808 1.1583 2.2424 -2.8357 33.5510
#
#
#
# Elastic Compliance Matrix: (Units=1/GPa)
#
#
# Indices 1 2 3 4 5 6 
#
# 1 0.024203 -0.007410 0.000423 -0.005130 -0.010385 0.000427
# 2 -0.007410 0.026549 -0.006168 -0.002834 0.006923 0.011675
# 3 0.000423 -0.006168 0.009347 -0.004546 -0.006304 -0.003267
# 4 -0.005130 -0.002834 -0.004546 0.037235 0.012834 -0.003447
# 5 -0.010385 0.006923 -0.006304 0.012834 0.056389 0.005401
# 6 0.000427 0.011675 -0.003267 -0.003447 0.005401 0.035964
#
#
# Mechanical properties :
#
#
# Convention : Reuss Voigt Hill
#
# Bulk Modulus (GPa) = 29.59639 46.03534 37.81586
# Shear Modulus (GPa) = 22.00130 30.07088 26.03609
#
# Velocity S-wave (km/s) = 3.24423 3.79281 3.52920
# Velocity P-wave (km/s) = 5.30960 6.41896 5.89045
#
# Compressibility (1/GPa) = 0.03378790
#
# Stress axis : x y z
#
# Youngs Moduli (GPa) = 41.31766 37.66611 106.98983
#
# Poissons Ratio (x) = 0.27912 -0.04524
# Poissons Ratio (y) = 0.30618 0.65988
# Poissons Ratio (z) = -0.01747 0.23231
#
# Static dielectric constant tensor:
#      x y z
#    x 4.097220 -0.267320 -0.491020 
#    y -0.267320 3.815520 0.314010 
#    z -0.491020 0.314010 5.078980 
# 
# 
# High freq. dielectric constant tensor:
#      x y z
#    x 1.807280 -0.013220 -0.000760 
#    y -0.013220 1.808240 0.005940 
#    z -0.000760 0.005940 1.848090 
# 
# From -- ./inp_files/313026.got.cif
#   From: 2010.06.25/outbox.cif.g09.slc.cpg/sg2_157_cif.got.tgz:313026.got - 2010.06.27 13:26:56.
