data_PCOD8012907
_publ_section_title
;
Structure prediction by ZEFSAII (Michael W. Deem and Ramdas Pophale) SiO2 
 PCOD8012907
Probable space group: P -1
;
_chemical_formula_sum "Si O2"
_cell_formula_units_Z 16
_cell_length_a 24.085488
_cell_length_b 8.471472
_cell_length_c 14.953387
_cell_angle_alpha 52.161927
_cell_angle_beta 160.358612
_cell_angle_gamma 127.291766
_cell_volume 805.376695
_symmetry_space_group_name_H-M "P -1"
_symmetry_group_IT_number 2
_symmetry_cell_setting 'triclinic'
loop_
_space_group_symop_operation_xyz
x,y,z
-x,-y,-z
loop_
_atom_site_type_symbol
_atom_site_label
_atom_site_fract_x
_atom_site_fract_y
_atom_site_fract_z
Si Si1 0.048499 0.947149 0.490957
Si Si2 0.819944 0.957228 0.784205
Si Si3 0.324997 0.491203 0.286572
Si Si4 0.734734 0.674200 0.299183
Si Si5 0.846326 0.828461 0.062537
Si Si6 0.044540 0.555997 0.704026
Si Si7 0.596598 0.299626 0.319407
Si Si8 0.487731 0.763091 0.582989
O O1 0.099090 0.720445 0.652227
O O2 0.903316 0.954308 0.194016
O O3 0.194474 0.113322 0.622989
O O4 0.000000 0.000000 0.500000
O O5 0.736849 0.738965 0.702482
O O6 0.705542 0.122224 0.518086
O O7 0.834255 0.974475 0.908147
O O8 0.000000 0.000000 0.000000
O O9 0.500000 0.500000 0.500000
O O10 0.346743 0.633421 0.356878
O O11 0.184630 0.581903 0.983809
O O12 0.698881 0.514215 0.379690
O O13 0.864398 0.590642 0.456622
O O14 0.570761 0.721582 0.983321
O O15 0.973179 0.665861 0.288119
O O16 0.668847 0.699651 0.855023
O O17 0.552503 0.288858 0.359034
O O18 0.500000 0.000000 0.500000
#
# Coordination Sequence:
#
# PCOD8012907 Si02
#       8
#     2   2   2   2   2   2   2   2
#     4  10  22  36  61  90 126 166 210 259 312 382
#     4  11  24  44  68  93 129 172 212 273 329 381
#     4  11  22  40  65  97 126 166 217 263 325 379
#     4  10  24  41  61  91 126 176 213 252 325 383
#     4  11  22  40  62  96 125 163 218 263 325 380
#     4  10  21  40  64  90 126 167 213 262 312 383
#     4  11  23  42  63  89 133 167 212 268 315 387
#     4  12  23  37  64  99 127 163 212 271 325 376
#
# _framework density 19.866479000000002
#
# number of rings (size 3 to 8) (size 9 to 14) (size 15 to 20)
#    0.000    1.250    3.750    3.375    7.000    1.000 
#    0.000    1.875    0.000    4.500    0.000    0.000 
#    0.000    0.000    0.000    0.000    0.000    0.000 
#
# Total GULP energy -198356.602339 kJ/mol
# GULP energy per Si atom -12397.287646 kJ/mol
# Density = 1.982126 g / cm^3
# Si number density = 19.866479 Si / 1000 Ang^3
#
#
#
# Elastic Constant Matrix: (Units=GPa)
#
#
# Indices 1 2 3 4 5 6 
#
# 1 99.3547 51.5661 44.5484 5.9247 -8.9086 14.8994
# 2 51.5661 130.5202 59.5142 6.6815 -13.6171 29.5742
# 3 44.5484 59.5142 121.4686 -5.0224 2.0173 11.5780
# 4 5.9247 6.6815 -5.0224 39.4881 -3.8842 -0.2515
# 5 -8.9086 -13.6171 2.0173 -3.8842 43.2500 6.6623
# 6 14.8994 29.5742 11.5780 -0.2515 6.6623 28.1192
#
#
#
# Elastic Compliance Matrix: (Units=1/GPa)
#
#
# Indices 1 2 3 4 5 6 
#
# 1 0.013961 -0.002665 -0.003577 -0.001865 0.002615 -0.003758
# 2 -0.002665 0.014998 -0.005263 -0.002272 0.006327 -0.013715
# 3 -0.003577 -0.005263 0.011973 0.002654 -0.003220 0.003287
# 4 -0.001865 -0.002272 0.002654 0.026419 0.000789 0.002335
# 5 0.002615 0.006327 -0.003220 0.000789 0.027926 -0.013324
# 6 -0.003758 -0.013715 0.003287 0.002335 -0.013324 0.053803
#
#
# Mechanical properties :
#
#
# Convention : Reuss Voigt Hill
#
# Bulk Modulus (GPa) = 55.79467 73.62232 64.70850
# Shear Modulus (GPa) = 28.07990 35.21910 31.64950
#
# Velocity S-wave (km/s) = 3.76364 4.21502 3.99571
# Velocity P-wave (km/s) = 6.85802 7.79920 7.34370
#
# Compressibility (1/GPa) = 0.01792286
#
# Stress axis : x y z
#
# Youngs Moduli (GPa) = 71.62731 66.67391 83.52226
#
# Poissons Ratio (x) = 0.17768 0.29875
# Poissons Ratio (y) = 0.19089 0.43957
# Poissons Ratio (z) = 0.25620 0.35090
#
# Static dielectric constant tensor:
#      x y z
#    x 3.300060 0.726370 0.092310 
#    y 0.726370 2.818850 -0.321440 
#    z 0.092310 -0.321440 3.775290 
# 
# 
# High freq. dielectric constant tensor:
#      x y z
#    x 1.763250 0.004870 -0.003150 
#    y 0.004870 1.784710 -0.005760 
#    z -0.003150 -0.005760 1.785360 
# 
# From -- ./inp_files/500252.got.cif
#   From: 2010.06.25/outbox.cif.g09.slc.cpg/sg2_251_cif.got.tgz:500252.got - 2010.06.27 13:26:56.
