data_PCOD8012926
_publ_section_title
;
Structure prediction by ZEFSAII (Michael W. Deem and Ramdas Pophale) SiO2 
 PCOD8012926
Probable space group: P -1
;
_chemical_formula_sum "Si O2"
_cell_formula_units_Z 16
_cell_length_a 16.206673
_cell_length_b 7.038972
_cell_length_c 9.625843
_cell_angle_alpha 50.151684
_cell_angle_beta 120.909815
_cell_angle_gamma 102.685285
_cell_volume 713.251035
_symmetry_space_group_name_H-M "P -1"
_symmetry_group_IT_number 2
_symmetry_cell_setting 'triclinic'
loop_
_space_group_symop_operation_xyz
x,y,z
-x,-y,-z
loop_
_atom_site_type_symbol
_atom_site_label
_atom_site_fract_x
_atom_site_fract_y
_atom_site_fract_z
Si Si1 0.221984 0.010959 0.396021
Si Si2 0.421446 0.138214 0.526103
Si Si3 0.407804 0.192881 0.789184
Si Si4 0.103441 0.842447 0.126787
Si Si5 0.123524 0.849358 0.819507
Si Si6 0.302708 0.760030 0.849213
Si Si7 0.502227 0.389047 0.232127
Si Si8 0.075880 0.286114 0.354695
O O1 0.311764 0.152709 0.365268
O O2 0.186260 0.907966 0.270369
O O3 0.259887 0.788025 0.643266
O O4 0.134860 0.194771 0.309058
O O5 0.465909 0.842102 0.737517
O O6 0.418498 0.286661 0.597332
O O7 0.492206 0.260222 0.431729
O O8 0.409707 0.444811 0.763925
O O9 0.317351 0.040001 0.787847
O O10 0.500000 0.000000 0.000000
O O11 0.099647 0.554324 0.288456
O O12 0.133527 0.899313 0.968660
O O13 0.000000 0.000000 0.000000
O O14 0.223158 0.683301 0.923682
O O15 0.037733 0.689670 0.793811
O O16 0.101646 0.110279 0.593610
O O17 0.399546 0.553118 0.024579
#
# Coordination Sequence:
#
# PCOD8012926 Si02
#       8
#     2   2   2   2   2   2   2   2
#     4  10  23  43  61  97 130 169 216 261 322 382
#     4  10  22  38  61  95 127 162 212 263 316 377
#     4   9  19  38  62  82 119 164 207 253 316 368
#     4  12  25  42  69 100 128 176 216 263 329 384
#     4  10  22  44  68  95 130 173 216 264 329 380
#     4   9  21  41  66  92 126 173 213 261 323 379
#     4  10  21  40  64  92 124 167 209 266 315 377
#     4  10  23  45  67  92 136 169 212 275 317 386
#
# _framework density 22.432493999999998
#
# number of rings (size 3 to 8) (size 9 to 14) (size 15 to 20)
#    0.000    2.000    1.250    0.750    1.750    8.000 
#   11.250    1.250    0.000    0.000    0.000    0.000 
#    0.000    0.000    0.000    0.000    0.000    0.000 
#
# Total GULP energy -198271.701977 kJ/mol
# GULP energy per Si atom -12391.981374 kJ/mol
# Density = 2.238144 g / cm^3
# Si number density = 22.432494 Si / 1000 Ang^3
#
#
#
# Elastic Constant Matrix: (Units=GPa)
#
#
# Indices 1 2 3 4 5 6 
#
# 1 73.2730 9.3416 20.5316 15.3940 -1.3927 13.9462
# 2 9.3416 85.3796 45.9330 9.8222 0.2851 14.6198
# 3 20.5316 45.9330 91.4715 20.4499 1.7924 2.9772
# 4 15.3940 9.8222 20.4499 38.8010 2.4914 -2.3390
# 5 -1.3927 0.2851 1.7924 2.4914 30.3249 5.9460
# 6 13.9462 14.6198 2.9772 -2.3390 5.9460 22.4476
#
#
#
# Elastic Compliance Matrix: (Units=1/GPa)
#
#
# Indices 1 2 3 4 5 6 
#
# 1 0.018960 0.003582 -0.003939 -0.007601 0.004762 -0.015643
# 2 0.003582 0.019216 -0.009512 -0.002390 0.003622 -0.014687
# 3 -0.003939 -0.009512 0.017483 -0.004733 -0.001982 0.006355
# 4 -0.007601 -0.002390 -0.004733 0.032915 -0.005040 0.011672
# 5 0.004762 0.003622 -0.001982 -0.005040 0.036692 -0.015299
# 6 -0.015643 -0.014687 0.006355 0.011672 -0.015299 0.068258
#
#
# Mechanical properties :
#
#
# Convention : Reuss Voigt Hill
#
# Bulk Modulus (GPa) = 27.83933 44.63739 36.23836
# Shear Modulus (GPa) = 22.19904 29.93587 26.06745
#
# Velocity S-wave (km/s) = 3.14919 3.65703 3.41257
# Velocity P-wave (km/s) = 5.06561 6.14602 5.63178
#
# Compressibility (1/GPa) = 0.03592041
#
# Stress axis : x y z
#
# Youngs Moduli (GPa) = 52.74380 52.04131 57.19789
#
# Poissons Ratio (x) = -0.18641 0.22531
# Poissons Ratio (y) = -0.18893 0.54405
# Poissons Ratio (z) = 0.20776 0.49501
#
# Static dielectric constant tensor:
#      x y z
#    x 4.245360 0.195900 0.034930 
#    y 0.195900 4.355370 0.008460 
#    z 0.034930 0.008460 4.108780 
# 
# 
# High freq. dielectric constant tensor:
#      x y z
#    x 1.889900 0.004210 -0.000450 
#    y 0.004210 1.872090 0.005070 
#    z -0.000450 0.005070 1.893270 
# 
# From -- ./inp_files/323353.got.cif
#   From: 2010.06.25/outbox.cif.g09.slc.cpg/sg2_162_cif.got.tgz:323353.got - 2010.06.27 13:26:56.
