data_PCOD8012863
_publ_section_title
;
Structure prediction by ZEFSAII (Michael W. Deem and Ramdas Pophale) SiO2 
 PCOD8012863
Probable space group: P -1
;
_chemical_formula_sum "Si O2"
_cell_formula_units_Z 12
_cell_length_a 9.247711
_cell_length_b 15.278614
_cell_length_c 12.054306
_cell_angle_alpha 29.109625
_cell_angle_beta 91.793517
_cell_angle_gamma 72.068187
_cell_volume 599.882713
_symmetry_space_group_name_H-M "P -1"
_symmetry_group_IT_number 2
_symmetry_cell_setting 'triclinic'
loop_
_space_group_symop_operation_xyz
x,y,z
-x,-y,-z
loop_
_atom_site_type_symbol
_atom_site_label
_atom_site_fract_x
_atom_site_fract_y
_atom_site_fract_z
Si Si1 0.685956 0.434868 0.256659
Si Si2 0.662119 0.518350 0.760183
Si Si3 0.892126 0.916126 0.770387
Si Si4 0.116867 0.451444 0.705394
Si Si5 0.703277 0.724824 0.328932
Si Si6 0.500923 0.188686 0.351967
O O1 0.478471 0.536294 0.187874
O O2 0.773815 0.524222 0.227833
O O3 0.853254 0.135975 0.590806
O O4 0.631949 0.552510 0.002807
O O5 0.655587 0.600099 0.545640
O O6 0.585253 0.732963 0.610535
O O7 0.888264 0.269809 0.071285
O O8 0.733898 0.043547 0.524402
O O9 0.857352 0.780556 0.004983
O O10 0.216629 0.415358 0.631101
O O11 0.878449 0.697467 0.419439
O O12 0.500000 0.000000 0.000000
O O13 0.500000 0.000000 0.500000
#
# Coordination Sequence:
#
# PCOD8012863 Si02
#       6
#     2   2   2   2   2   2
#     4  11  23  39  63  90 122 162 197 249 301 350
#     4  10  23  40  61  92 122 159 203 247 298 355
#     4  10  21  42  60  91 127 156 201 245 295 362
#     4  10  22  41  62  89 122 160 198 246 304 349
#     4  10  21  40  64  87 121 159 200 250 297 357
#     4  11  22  39  63  89 124 161 197 249 300 355
#
# _framework density 20.003909
#
# number of rings (size 3 to 8) (size 9 to 14) (size 15 to 20)
#    0.000    1.667    1.667    4.000    0.000    5.333 
#    3.000   11.667    0.000    0.000    0.000    0.000 
#    0.000    0.000    0.000    0.000    0.000    0.000 
#
# Total GULP energy -148743.346202 kJ/mol
# GULP energy per Si atom -12395.278850 kJ/mol
# Density = 1.995838 g / cm^3
# Si number density = 20.003909 Si / 1000 Ang^3
#
#
#
# Elastic Constant Matrix: (Units=GPa)
#
#
# Indices 1 2 3 4 5 6 
#
# 1 89.4547 35.2510 53.3900 -6.4285 12.3255 -5.1928
# 2 35.2510 60.1740 42.4184 7.5506 1.1659 -6.5659
# 3 53.3900 42.4184 133.7194 -7.6920 17.9246 -1.0740
# 4 -6.4285 7.5506 -7.6920 31.7022 -3.3655 5.6746
# 5 12.3255 1.1659 17.9246 -3.3655 44.9863 -0.4436
# 6 -5.1928 -6.5659 -1.0740 5.6746 -0.4436 28.1146
#
#
#
# Elastic Compliance Matrix: (Units=1/GPa)
#
#
# Indices 1 2 3 4 5 6 
#
# 1 0.017213 -0.007839 -0.003786 0.004093 -0.002695 0.000335
# 2 -0.007839 0.028067 -0.006793 -0.010832 0.003387 0.007087
# 3 -0.003786 -0.006793 0.011776 0.003842 -0.003217 -0.002662
# 4 0.004093 -0.010832 0.003842 0.037570 0.000348 -0.009205
# 5 -0.002695 0.003387 -0.003217 0.000348 0.024192 0.000482
# 6 0.000335 0.007087 -0.002662 -0.009205 0.000482 0.039049
#
#
# Mechanical properties :
#
#
# Convention : Reuss Voigt Hill
#
# Bulk Modulus (GPa) = 49.46262 60.60742 55.03502
# Shear Modulus (GPa) = 24.82075 31.11320 27.96697
#
# Velocity S-wave (km/s) = 3.52631 3.94808 3.74314
# Velocity P-wave (km/s) = 6.43117 7.15169 6.80098
#
# Compressibility (1/GPa) = 0.02021729
#
# Stress axis : x y z
#
# Youngs Moduli (GPa) = 58.09662 35.62966 84.91756
#
# Poissons Ratio (x) = 0.27930 0.32154
# Poissons Ratio (y) = 0.45542 0.57689
# Poissons Ratio (z) = 0.21998 0.24205
#
# Static dielectric constant tensor:
#      x y z
#    x 4.944330 -0.995220 -0.330610 
#    y -0.995220 4.164400 0.507530 
#    z -0.330610 0.507530 4.230480 
# 
# 
# High freq. dielectric constant tensor:
#      x y z
#    x 1.782090 -0.007540 0.015830 
#    y -0.007540 1.768100 0.011050 
#    z 0.015830 0.011050 1.797030 
# 
# From -- ./inp_files/201140.got.cif
#   From: 2010.06.25/outbox.cif.g09.slc.cpg/sg2_101_cif.got.tgz:201140.got - 2010.06.27 13:26:56.
