data_PCOD8012407
_publ_section_title
;
Structure prediction by ZEFSAII (Michael W. Deem and Ramdas Pophale) SiO2 
 PCOD8012407
Probable space group: P -1
;
_chemical_formula_sum "Si O2"
_cell_formula_units_Z 16
_cell_length_a 10.795786
_cell_length_b 10.755620
_cell_length_c 11.062118
_cell_angle_alpha 51.414639
_cell_angle_beta 97.019264
_cell_angle_gamma 58.669343
_cell_volume 637.669846
_symmetry_space_group_name_H-M "P -1"
_symmetry_group_IT_number 2
_symmetry_cell_setting 'triclinic'
loop_
_space_group_symop_operation_xyz
x,y,z
-x,-y,-z
loop_
_atom_site_type_symbol
_atom_site_label
_atom_site_fract_x
_atom_site_fract_y
_atom_site_fract_z
Si Si1 0.573649 0.176128 0.936533
Si Si2 0.689692 0.687958 0.990301
Si Si3 0.193938 0.515538 0.308252
Si Si4 0.807781 0.914012 0.880007
Si Si5 0.029785 0.283176 0.614717
Si Si6 0.454042 0.608065 0.560829
Si Si7 0.974220 0.839787 0.576913
Si Si8 0.623935 0.978873 0.434480
O O1 0.464316 0.456320 0.752026
O O2 0.650299 0.067078 0.877844
O O3 0.406060 0.220415 0.940507
O O4 0.753887 0.990445 0.163228
O O5 0.776106 0.771412 0.907576
O O6 0.522195 0.796126 0.813179
O O7 0.868175 0.392783 0.174838
O O8 0.122305 0.646602 0.351273
O O9 0.391303 0.412372 0.361159
O O10 0.229157 0.289844 0.451612
O O11 0.028596 0.723101 0.064706
O O12 0.755297 0.096948 0.660008
O O13 0.000000 0.500000 0.500000
O O14 0.975351 0.270417 0.485196
O O15 0.500000 0.500000 0.500000
O O16 0.756817 0.991466 0.496854
O O17 0.000000 0.000000 0.500000
O O18 0.500000 0.000000 0.500000
#
# Coordination Sequence:
#
# PCOD8012407 Si02
#       8
#     2   2   2   2   2   2   2   2
#     4  10  22  39  68 111 150 183 234 310 374 425
#     4  12  23  46  76  99 140 197 255 294 367 455
#     4  11  22  45  74 105 144 190 251 303 366 442
#     4  10  21  39  72 107 142 186 244 301 366 442
#     4  11  21  44  80 107 145 192 248 305 362 450
#     4  10  23  39  61 108 156 185 231 304 385 433
#     4  12  28  50  73 116 152 191 248 316 382 434
#     4  12  27  51  75 105 147 200 255 307 367 458
#
# _framework density 25.091355
#
# number of rings (size 3 to 8) (size 9 to 14) (size 15 to 20)
#    0.000    1.000    5.000    1.125    3.500    6.500 
#    2.250    0.000    0.000    0.000    0.000    0.000 
#    0.000    0.000    0.000    0.000    0.000    0.000 
#
# Total GULP energy -198324.254582 kJ/mol
# GULP energy per Si atom -12395.265911 kJ/mol
# Density = 2.503425 g / cm^3
# Si number density = 25.091355 Si / 1000 Ang^3
#
#
#
# Elastic Constant Matrix: (Units=GPa)
#
#
# Indices 1 2 3 4 5 6 
#
# 1 118.4913 31.7200 62.8374 -4.8832 6.7778 16.8046
# 2 31.7200 55.0262 32.0573 -0.6448 5.0551 17.8050
# 3 62.8374 32.0573 233.7659 -27.7055 -0.9694 16.3067
# 4 -4.8832 -0.6448 -27.7055 27.5930 1.6761 -6.5764
# 5 6.7778 5.0551 -0.9694 1.6761 38.7354 -11.3394
# 6 16.8046 17.8050 16.3067 -6.5764 -11.3394 39.5449
#
#
#
# Elastic Compliance Matrix: (Units=1/GPa)
#
#
# Indices 1 2 3 4 5 6 
#
# 1 0.011279 -0.003970 -0.002426 -0.001070 -0.002302 -0.002844
# 2 -0.003970 0.026036 -0.002287 -0.004793 -0.005947 -0.011595
# 3 -0.002426 -0.002287 0.005845 0.005529 0.000870 0.000819
# 4 -0.001070 -0.004793 0.005529 0.043297 0.001400 0.007935
# 5 -0.002302 -0.005947 0.000870 0.001400 0.030555 0.012292
# 6 -0.002844 -0.011595 0.000819 0.007935 0.012292 0.036223
#
#
# Mechanical properties :
#
#
# Convention : Reuss Voigt Hill
#
# Bulk Modulus (GPa) = 38.76646 73.39031 56.07839
# Shear Modulus (GPa) = 27.90191 39.88591 33.89391
#
# Velocity S-wave (km/s) = 3.33830 3.99134 3.67934
# Velocity P-wave (km/s) = 5.50842 7.11012 6.35989
#
# Compressibility (1/GPa) = 0.02579549
#
# Stress axis : x y z
#
# Youngs Moduli (GPa) = 88.65748 38.40820 171.08188
#
# Poissons Ratio (x) = 0.15247 0.41497
# Poissons Ratio (y) = 0.35195 0.39130
# Poissons Ratio (z) = 0.21504 0.08785
#
# Static dielectric constant tensor:
#      x y z
#    x 4.499000 -0.048520 -0.190080 
#    y -0.048520 4.403210 -0.205040 
#    z -0.190080 -0.205040 5.231200 
# 
# 
# High freq. dielectric constant tensor:
#      x y z
#    x 1.993490 -0.008170 0.001880 
#    y -0.008170 1.982420 -0.007420 
#    z 0.001880 -0.007420 2.021080 
# 
# From -- ./inp_files/427607.got.cif
#   From: 2010.06.25/outbox.cif.g09.slc.cpg/sg2_214_cif.got.tgz:427607.got - 2010.06.27 13:26:56.
