data_PCOD8012300
_publ_section_title
;
Structure prediction by ZEFSAII (Michael W. Deem and Ramdas Pophale) SiO2 
 PCOD8012300
Probable space group: P -1
;
_chemical_formula_sum "Si O2"
_cell_formula_units_Z 14
_cell_length_a 8.444009
_cell_length_b 10.520667
_cell_length_c 14.114699
_cell_angle_alpha 62.658822
_cell_angle_beta 115.241772
_cell_angle_gamma 64.459214
_cell_volume 629.979454
_symmetry_space_group_name_H-M "P -1"
_symmetry_group_IT_number 2
_symmetry_cell_setting 'triclinic'
loop_
_space_group_symop_operation_xyz
x,y,z
-x,-y,-z
loop_
_atom_site_type_symbol
_atom_site_label
_atom_site_fract_x
_atom_site_fract_y
_atom_site_fract_z
Si Si1 0.674846 0.012324 0.489438
Si Si2 0.282215 0.477783 0.537223
Si Si3 0.460636 0.175824 0.000693
Si Si4 0.684016 0.864835 0.339903
Si Si5 0.685896 0.422211 0.162671
Si Si6 0.033703 0.229817 0.818547
Si Si7 0.570193 0.518007 0.729550
O O1 0.533748 0.254508 0.391166
O O2 0.500000 0.000000 0.500000
O O3 0.667758 0.973892 0.391142
O O4 0.993284 0.835371 0.668141
O O5 0.427530 0.228070 0.646418
O O6 0.479526 0.461167 0.647495
O O7 0.007351 0.643939 0.473638
O O8 0.221913 0.581456 0.382973
O O9 0.507305 0.061078 0.149262
O O10 0.756885 0.031525 0.072964
O O11 0.283055 0.428999 0.886051
O O12 0.254060 0.219805 0.864164
O O13 0.512916 0.477159 0.189569
O O14 0.500000 0.500000 0.000000
O O15 0.908411 0.300610 0.869062
#
# Coordination Sequence:
#
# PCOD8012300 Si02
#       7
#     2   2   2   2   2   2   2
#     4  12  26  46  71  95 134 184 231 269 332 409
#     4  10  21  39  68  98 131 167 227 275 321 394
#     4  10  23  43  67  93 141 174 215 269 342 406
#     4  10  21  41  68  95 130 181 219 265 335 396
#     4  12  27  44  67  99 139 174 224 281 337 388
#     4  10  23  41  67  99 133 171 219 272 339 393
#     4  12  25  42  71  99 134 172 229 279 328 394
#
# _framework density 22.222947999999999
#
# number of rings (size 3 to 8) (size 9 to 14) (size 15 to 20)
#    0.000    1.143    1.429    4.286   10.000    1.714 
#    0.000    2.857    0.000    0.000    0.000    0.000 
#    0.000    0.000    0.000    0.000    0.000    0.000 
#
# Total GULP energy -173460.889021 kJ/mol
# GULP energy per Si atom -12390.063502 kJ/mol
# Density = 2.217237 g / cm^3
# Si number density = 22.222948 Si / 1000 Ang^3
#
#
#
# Elastic Constant Matrix: (Units=GPa)
#
#
# Indices 1 2 3 4 5 6 
#
# 1 89.9066 31.0452 28.8421 7.1150 6.4832 -8.5807
# 2 31.0452 86.4585 34.2199 10.3555 13.2402 3.1239
# 3 28.8421 34.2199 79.3531 11.1834 7.3567 -6.2259
# 4 7.1150 10.3555 11.1834 28.3423 1.3307 -8.6269
# 5 6.4832 13.2402 7.3567 1.3307 25.0437 -7.2475
# 6 -8.5807 3.1239 -6.2259 -8.6269 -7.2475 46.5951
#
#
#
# Elastic Compliance Matrix: (Units=1/GPa)
#
#
# Indices 1 2 3 4 5 6 
#
# 1 0.013652 -0.003729 -0.003160 -0.000111 0.000045 0.002328
# 2 -0.003729 0.016640 -0.004882 -0.004204 -0.007445 -0.004391
# 3 -0.003160 -0.004882 0.016533 -0.003552 -0.000936 0.001151
# 4 -0.000111 -0.004204 -0.003552 0.040465 0.003405 0.007808
# 5 0.000045 -0.007445 -0.000936 0.003405 0.046327 0.008219
# 6 0.002328 -0.004391 0.001151 0.007808 0.008219 0.025062
#
#
# Mechanical properties :
#
#
# Convention : Reuss Voigt Hill
#
# Bulk Modulus (GPa) = 42.94932 49.32585 46.13758
# Shear Modulus (GPa) = 26.31815 30.77029 28.54422
#
# Velocity S-wave (km/s) = 3.44507 3.72508 3.58781
# Velocity P-wave (km/s) = 5.93238 6.38324 6.16194
#
# Compressibility (1/GPa) = 0.02328326
#
# Stress axis : x y z
#
# Youngs Moduli (GPa) = 73.25090 60.09626 60.48371
#
# Poissons Ratio (x) = 0.22411 0.19111
# Poissons Ratio (y) = 0.27317 0.29529
# Poissons Ratio (z) = 0.23144 0.29340
#
# Static dielectric constant tensor:
#      x y z
#    x 4.277360 -0.050230 0.038270 
#    y -0.050230 4.185260 -0.102990 
#    z 0.038270 -0.102990 3.970610 
# 
# 
# High freq. dielectric constant tensor:
#      x y z
#    x 1.879230 0.001130 0.001740 
#    y 0.001130 1.890020 -0.002160 
#    z 0.001740 -0.002160 1.868580 
# 
# From -- ./inp_files/397504.got.cif
#   From: 2010.06.25/outbox.cif.g09.slc.cpg/sg2_199_cif.got.tgz:397504.got - 2010.06.27 13:26:56.
