data_PCOD8012961
_publ_section_title
;
Structure prediction by ZEFSAII (Michael W. Deem and Ramdas Pophale) SiO2 
 PCOD8012961
Probable space group: P -1
;
_chemical_formula_sum "Si O2"
_cell_formula_units_Z 14
_cell_length_a 20.949921
_cell_length_b 8.535701
_cell_length_c 12.418358
_cell_angle_alpha 111.985943
_cell_angle_beta 148.308577
_cell_angle_gamma 45.471286
_cell_volume 669.292450
_symmetry_space_group_name_H-M "P -1"
_symmetry_group_IT_number 2
_symmetry_cell_setting 'triclinic'
loop_
_space_group_symop_operation_xyz
x,y,z
-x,-y,-z
loop_
_atom_site_type_symbol
_atom_site_label
_atom_site_fract_x
_atom_site_fract_y
_atom_site_fract_z
Si Si1 0.888938 0.018951 0.751331
Si Si2 0.585826 0.509589 0.289990
Si Si3 0.228288 0.290001 0.760611
Si Si4 0.637239 0.992724 0.746119
Si Si5 0.597673 0.216390 0.547969
Si Si6 0.436236 0.336147 0.938638
Si Si7 0.773980 0.587034 0.981512
O O1 0.788627 0.247746 0.577161
O O2 0.727042 0.076270 0.590146
O O3 0.000000 0.000000 0.000000
O O4 0.036526 0.737957 0.826435
O O5 0.473859 0.766692 0.267120
O O6 0.631807 0.539823 0.247258
O O7 0.455141 0.482773 0.077886
O O8 0.269240 0.390799 0.756828
O O9 0.000000 0.500000 0.500000
O O10 0.299846 0.281622 0.973999
O O11 0.350208 0.987141 0.832227
O O12 0.726180 0.014258 0.784046
O O13 0.500000 0.000000 0.500000
O O14 0.812414 0.708416 0.990885
O O15 0.500000 0.500000 0.500000
O O16 0.415896 0.292258 0.306697
#
# Coordination Sequence:
#
# PCOD8012961 Si02
#       7
#     2   2   2   2   2   2   2
#     4  12  23  39  65  99 130 167 223 271 326 394
#     4  11  21  44  69  98 133 176 228 269 333 400
#     4  11  23  44  65 100 131 168 228 275 339 390
#     4  10  21  40  64  94 131 168 213 267 326 392
#     4  11  21  40  66  92 128 175 215 264 335 388
#     4  10  24  43  71  93 131 184 219 275 332 397
#     4  11  23  41  64  91 132 170 212 278 327 393
#
# _framework density 20.917612999999999
#
# number of rings (size 3 to 8) (size 9 to 14) (size 15 to 20)
#    0.000    1.143    4.286    2.571    0.000    1.714 
#    2.571    7.857    0.000    0.000    0.000    0.000 
#    0.000    0.000    0.000    0.000    0.000    0.000 
#
# Total GULP energy -173501.942794 kJ/mol
# GULP energy per Si atom -12392.995914 kJ/mol
# Density = 2.087000 g / cm^3
# Si number density = 20.917613 Si / 1000 Ang^3
#
#
#
# Elastic Constant Matrix: (Units=GPa)
#
#
# Indices 1 2 3 4 5 6 
#
# 1 145.4498 32.8669 52.6201 -1.7600 -11.9190 18.9572
# 2 32.8669 121.9118 37.1635 11.4067 -4.3712 3.1657
# 3 52.6201 37.1635 82.2340 -9.7791 -6.3766 10.4755
# 4 -1.7600 11.4067 -9.7791 30.7028 -4.7991 -5.9015
# 5 -11.9190 -4.3712 -6.3766 -4.7991 39.0886 -7.4643
# 6 18.9572 3.1657 10.4755 -5.9015 -7.4643 34.9577
#
#
#
# Elastic Compliance Matrix: (Units=1/GPa)
#
#
# Indices 1 2 3 4 5 6 
#
# 1 0.009515 -0.000641 -0.005442 -0.001447 0.001100 -0.003481
# 2 -0.000641 0.010403 -0.004980 -0.005609 -0.000566 -0.000170
# 3 -0.005442 -0.004980 0.019028 0.007747 0.001720 -0.000624
# 4 -0.001447 -0.005609 0.007747 0.039374 0.006362 0.006976
# 5 0.001100 -0.000566 0.001720 0.006362 0.028063 0.006006
# 6 -0.003481 -0.000170 -0.000624 0.006976 0.006006 0.033156
#
#
# Mechanical properties :
#
#
# Convention : Reuss Voigt Hill
#
# Bulk Modulus (GPa) = 59.45883 66.09961 62.77922
# Shear Modulus (GPa) = 29.89136 36.07950 32.98543
#
# Velocity S-wave (km/s) = 3.78432 4.15762 3.97535
# Velocity P-wave (km/s) = 6.89795 7.39705 7.15185
#
# Compressibility (1/GPa) = 0.01681836
#
# Stress axis : x y z
#
# Youngs Moduli (GPa) = 105.09477 96.13045 52.55476
#
# Poissons Ratio (x) = 0.06162 0.28602
# Poissons Ratio (y) = 0.06737 0.26173
# Poissons Ratio (z) = 0.57196 0.47875
#
# Static dielectric constant tensor:
#      x y z
#    x 4.346960 0.050750 -0.346870 
#    y 0.050750 3.912270 0.122480 
#    z -0.346870 0.122480 3.291960 
# 
# 
# High freq. dielectric constant tensor:
#      x y z
#    x 1.836360 0.009310 -0.024160 
#    y 0.009310 1.834100 0.008120 
#    z -0.024160 0.008120 1.798390 
# 
# From -- ./inp_files/202221.got.cif
#   From: 2010.06.25/outbox.cif.g09.slc.cpg/sg2_102_cif.got.tgz:202221.got - 2010.06.27 13:26:56.
