data_PCOD8012324
_publ_section_title
;
Structure prediction by ZEFSAII (Michael W. Deem and Ramdas Pophale) SiO2 
 PCOD8012324
Probable space group: P -1
;
_chemical_formula_sum "Si O2"
_cell_formula_units_Z 14
_cell_length_a 15.252235
_cell_length_b 21.846551
_cell_length_c 8.993093
_cell_angle_alpha 151.429217
_cell_angle_beta 35.330153
_cell_angle_gamma 153.789528
_cell_volume 627.406068
_symmetry_space_group_name_H-M "P -1"
_symmetry_group_IT_number 2
_symmetry_cell_setting 'triclinic'
loop_
_space_group_symop_operation_xyz
x,y,z
-x,-y,-z
loop_
_atom_site_type_symbol
_atom_site_label
_atom_site_fract_x
_atom_site_fract_y
_atom_site_fract_z
Si Si1 0.809777 0.145259 0.654312
Si Si2 0.613866 0.190993 0.576244
Si Si3 0.598146 0.435920 0.644731
Si Si4 0.977671 0.967012 0.786842
Si Si5 0.474222 0.351913 0.299412
Si Si6 0.979631 0.248647 0.330490
Si Si7 0.627703 0.200787 0.248769
O O1 0.973280 0.260980 0.546065
O O2 0.867182 0.063831 0.519972
O O3 0.601116 0.996151 0.542320
O O4 0.802368 0.267693 0.029073
O O5 0.767112 0.175582 0.403714
O O6 0.700386 0.274968 0.472349
O O7 0.594742 0.307722 0.950920
O O8 0.553059 0.409348 0.477863
O O9 0.514625 0.262839 0.472681
O O10 0.840501 0.574505 0.616941
O O11 0.500000 0.500000 0.000000
O O12 0.757098 0.805835 0.704569
O O13 0.024696 0.123236 0.965545
O O14 0.000000 0.000000 0.000000
O O15 0.500000 0.500000 0.500000
O O16 0.500000 0.000000 0.000000
#
# Coordination Sequence:
#
# PCOD8012324 Si02
#       7
#     2   2   2   2   2   2   2
#     4  10  21  42  72 101 143 177 231 289 351 416
#     4  11  23  42  72  99 141 181 234 285 349 414
#     4  12  29  47  68 104 148 182 235 299 353 413
#     4  10  21  39  69 103 134 180 232 285 343 416
#     4  12  24  41  74 103 141 188 234 286 354 415
#     4  11  24  42  73  99 137 183 240 285 349 421
#     4  10  25  42  69  99 144 187 227 286 355 407
#
# _framework density 22.314097
#
# number of rings (size 3 to 8) (size 9 to 14) (size 15 to 20)
#    0.000    1.143    2.857    3.857    8.000    5.143 
#    0.000    1.429    0.000    0.000    0.000    0.000 
#    0.000    0.000    0.000    0.000    0.000    0.000 
#
# Total GULP energy -173505.306370 kJ/mol
# GULP energy per Si atom -12393.236169 kJ/mol
# Density = 2.226331 g / cm^3
# Si number density = 22.314097 Si / 1000 Ang^3
#
#
#
# Elastic Constant Matrix: (Units=GPa)
#
#
# Indices 1 2 3 4 5 6 
#
# 1 140.9203 30.2054 71.3311 -4.1611 -20.8866 -8.7252
# 2 30.2054 84.9630 31.3501 1.9036 -4.1316 -1.3578
# 3 71.3311 31.3501 162.9610 -18.0623 -6.5896 -13.6564
# 4 -4.1611 1.9036 -18.0623 36.7342 -9.9865 -2.2826
# 5 -20.8866 -4.1316 -6.5896 -9.9865 46.1203 -3.5041
# 6 -8.7252 -1.3578 -13.6564 -2.2826 -3.5041 44.9002
#
#
#
# Elastic Compliance Matrix: (Units=1/GPa)
#
#
# Indices 1 2 3 4 5 6 
#
# 1 0.010096 -0.002020 -0.003705 0.000605 0.004078 0.001123
# 2 -0.002020 0.013225 -0.001972 -0.002070 -0.000516 -0.000738
# 3 -0.003705 -0.001972 0.008813 0.004285 0.000497 0.002158
# 4 0.000605 -0.002070 0.004285 0.031870 0.007875 0.003593
# 5 0.004078 -0.000516 0.000497 0.007875 0.025511 0.003319
# 6 0.001123 -0.000738 0.002158 0.003593 0.003319 0.023566
#
#
# Mechanical properties :
#
#
# Convention : Reuss Voigt Hill
#
# Bulk Modulus (GPa) = 59.73213 72.73528 66.23370
# Shear Modulus (GPa) = 37.29815 42.61479 39.95647
#
# Velocity S-wave (km/s) = 4.09284 4.37483 4.23618
# Velocity P-wave (km/s) = 7.01156 7.62796 7.32625
#
# Compressibility (1/GPa) = 0.01674141
#
# Stress axis : x y z
#
# Youngs Moduli (GPa) = 99.04679 75.61380 113.46465
#
# Poissons Ratio (x) = 0.15271 0.42035
# Poissons Ratio (y) = 0.20004 0.22379
# Poissons Ratio (z) = 0.36693 0.14913
#
# Static dielectric constant tensor:
#      x y z
#    x 4.020720 -0.376310 -0.137000 
#    y -0.376310 3.907170 -0.191690 
#    z -0.137000 -0.191690 4.693970 
# 
# 
# High freq. dielectric constant tensor:
#      x y z
#    x 1.883600 -0.007820 -0.014910 
#    y -0.007820 1.866480 -0.008000 
#    z -0.014910 -0.008000 1.893090 
# 
# From -- ./inp_files/319141.got.cif
#   From: 2010.06.25/outbox.cif.g09.slc.cpg/sg2_160_cif.got.tgz:319141.got - 2010.06.27 13:26:56.
