data_PCOD8012782
_publ_section_title
;
Structure prediction by ZEFSAII (Michael W. Deem and Ramdas Pophale) SiO2 
 PCOD8012782
Probable space group: P -1
;
_chemical_formula_sum "Si O2"
_cell_formula_units_Z 16
_cell_length_a 8.466182
_cell_length_b 24.135458
_cell_length_c 10.032557
_cell_angle_alpha 29.057025
_cell_angle_beta 129.050537
_cell_angle_gamma 126.721666
_cell_volume 767.126490
_symmetry_space_group_name_H-M "P -1"
_symmetry_group_IT_number 2
_symmetry_cell_setting 'triclinic'
loop_
_space_group_symop_operation_xyz
x,y,z
-x,-y,-z
loop_
_atom_site_type_symbol
_atom_site_label
_atom_site_fract_x
_atom_site_fract_y
_atom_site_fract_z
Si Si1 0.195482 0.936338 0.725985
Si Si2 0.603400 0.628439 0.042659
Si Si3 0.905038 0.486292 0.623521
Si Si4 0.727199 0.709922 0.659774
Si Si5 0.177939 0.504890 0.976683
Si Si6 0.603252 0.129255 0.790085
Si Si7 0.159663 0.777771 0.792721
Si Si8 0.469656 0.851623 0.575994
O O1 0.181687 0.836201 0.823444
O O2 0.395052 0.025080 0.611372
O O3 0.205045 0.870631 0.010528
O O4 0.000000 0.000000 0.500000
O O5 0.698554 0.548626 0.369864
O O6 0.367504 0.591079 0.951350
O O7 0.737058 0.641695 0.949695
O O8 0.616631 0.751739 0.863567
O O9 0.000000 0.500000 0.500000
O O10 0.824284 0.357456 0.899734
O O11 0.073409 0.543047 0.702505
O O12 0.725223 0.615272 0.740477
O O13 0.540955 0.784663 0.399314
O O14 0.937584 0.795867 0.577640
O O15 0.000000 0.500000 0.000000
O O16 0.665748 0.166716 0.594122
O O17 0.500000 0.000000 0.000000
O O18 0.326987 0.841787 0.648875
#
# Coordination Sequence:
#
# PCOD8012782 Si02
#       8
#     2   2   2   2   2   2   2   2
#     4  11  23  42  68  92 123 167 217 260 317 390
#     4  11  21  42  67  89 132 174 217 263 317 390
#     4  11  24  40  67  96 128 177 222 257 323 392
#     4  10  21  40  63  92 124 170 214 256 319 387
#     4  11  24  39  61  95 132 168 214 271 322 379
#     4   9  20  40  64  86 117 165 213 251 311 387
#     4  11  22  40  64  93 132 158 208 277 316 370
#     4  10  23  42  62  94 128 165 210 268 322 372
#
# _framework density 20.857056
#
# number of rings (size 3 to 8) (size 9 to 14) (size 15 to 20)
#    0.000    1.500    2.500    4.500    1.750    3.000 
#    0.000    6.875    0.000    0.000    0.000    0.000 
#    0.000    0.000    0.000    0.000    0.000    0.000 
#
# Total GULP energy -198270.640527 kJ/mol
# GULP energy per Si atom -12391.915033 kJ/mol
# Density = 2.080958 g / cm^3
# Si number density = 20.857056 Si / 1000 Ang^3
#
#
#
# Elastic Constant Matrix: (Units=GPa)
#
#
# Indices 1 2 3 4 5 6 
#
# 1 55.5607 -18.4103 12.5029 5.5647 -2.1632 -5.6758
# 2 -18.4103 48.9479 14.1502 2.6019 14.0224 -1.4259
# 3 12.5029 14.1502 110.2675 18.5132 21.0770 0.9151
# 4 5.5647 2.6019 18.5132 34.2545 3.1218 1.0891
# 5 -2.1632 14.0224 21.0770 3.1218 32.6722 -4.7472
# 6 -5.6758 -1.4259 0.9151 1.0891 -4.7472 36.5657
#
#
#
# Elastic Compliance Matrix: (Units=1/GPa)
#
#
# Indices 1 2 3 4 5 6 
#
# 1 0.022700 0.009679 -0.003481 -0.002714 0.000454 0.004128
# 2 0.009679 0.027573 -0.002663 -0.001444 -0.009119 0.001503
# 3 -0.003481 -0.002663 0.011910 -0.005022 -0.006529 -0.001640
# 4 -0.002714 -0.001444 -0.005022 0.032462 0.000394 -0.001268
# 5 0.000454 -0.009119 -0.006529 0.000394 0.039450 0.004988
# 6 0.004128 0.001503 -0.001640 -0.001268 0.004988 0.028774
#
#
# Mechanical properties :
#
#
# Convention : Reuss Voigt Hill
#
# Bulk Modulus (GPa) = 14.43983 25.69573 20.06778
# Shear Modulus (GPa) = 27.95106 34.46737 31.20922
#
# Velocity S-wave (km/s) = 3.66474 4.06957 3.87245
# Velocity P-wave (km/s) = 4.98451 5.86758 5.44398
#
# Compressibility (1/GPa) = 0.06925289
#
# Stress axis : x y z
#
# Youngs Moduli (GPa) = 44.05273 36.26737 83.96216
#
# Poissons Ratio (x) = -0.35103 0.29230
# Poissons Ratio (y) = -0.42638 0.22357
# Poissons Ratio (z) = 0.15336 0.09657
#
# Static dielectric constant tensor:
#      x y z
#    x 3.784620 -0.020790 -0.001070 
#    y -0.020790 4.018820 0.171350 
#    z -0.001070 0.171350 4.225660 
# 
# 
# High freq. dielectric constant tensor:
#      x y z
#    x 1.812530 -0.008760 0.008890 
#    y -0.008760 1.821100 -0.002270 
#    z 0.008890 -0.002270 1.815980 
# 
# From -- ./inp_files/225875.got.cif
#   From: 2010.06.25/outbox.cif.g09.slc.cpg/sg2_113_cif.got.tgz:225875.got - 2010.06.27 13:26:56.
