data_PCOD8012552
_publ_section_title
;
Structure prediction by ZEFSAII (Michael W. Deem and Ramdas Pophale) SiO2 
 PCOD8012552
Probable space group: P -1
;
_chemical_formula_sum "Si O2"
_cell_formula_units_Z 12
_cell_length_a 15.345816
_cell_length_b 13.740267
_cell_length_c 4.983290
_cell_angle_alpha 78.873240
_cell_angle_beta 83.322529
_cell_angle_gamma 30.813541
_cell_volume 525.563973
_symmetry_space_group_name_H-M "P -1"
_symmetry_group_IT_number 2
_symmetry_cell_setting 'triclinic'
loop_
_space_group_symop_operation_xyz
x,y,z
-x,-y,-z
loop_
_atom_site_type_symbol
_atom_site_label
_atom_site_fract_x
_atom_site_fract_y
_atom_site_fract_z
Si Si1 0.341828 0.489825 0.976635
Si Si2 0.131240 0.321118 0.742930
Si Si3 0.313091 0.642468 0.426136
Si Si4 0.148458 0.120636 0.560103
Si Si5 0.867806 0.482910 0.147675
Si Si6 0.265566 0.895085 0.127970
O O1 0.242942 0.659242 0.713896
O O2 0.263815 0.455491 0.005586
O O3 0.541068 0.290585 0.944217
O O4 0.317908 0.553090 0.248493
O O5 0.240274 0.133214 0.635998
O O6 0.232946 0.317622 0.832237
O O7 0.000000 0.500000 0.500000
O O8 0.033550 0.353636 0.987724
O O9 0.500000 0.500000 0.500000
O O10 0.204328 0.843871 0.264666
O O11 0.950879 0.338355 0.440513
O O12 0.252986 0.979378 0.343790
O O13 0.143730 0.045297 0.844794
#
# Coordination Sequence:
#
# PCOD8012552 Si02
#       6
#     2   2   2   2   2   2
#     4  11  23  39  66  92 118 157 214 248 282 358
#     4   9  20  40  67  82 122 164 201 233 313 369
#     4  10  21  40  61  88 124 166 198 238 302 365
#     4  11  21  39  63  89 122 163 196 243 310 361
#     4  10  22  41  65  91 117 161 207 247 292 366
#     4  11  21  39  62  89 122 162 197 248 305 351
#
# _framework density 22.832616999999999
#
# number of rings (size 3 to 8) (size 9 to 14) (size 15 to 20)
#    0.000    1.667    1.667    5.000    4.667    0.000 
#    0.000    6.667    0.000    0.000    0.000    0.000 
#    0.000    0.000    0.000    0.000    0.000    0.000 
#
# Total GULP energy -148669.374069 kJ/mol
# GULP energy per Si atom -12389.114506 kJ/mol
# Density = 2.278065 g / cm^3
# Si number density = 22.832617 Si / 1000 Ang^3
#
#
#
# Elastic Constant Matrix: (Units=GPa)
#
#
# Indices 1 2 3 4 5 6 
#
# 1 101.4752 3.8881 9.3910 8.0014 19.0315 28.6605
# 2 3.8881 57.4609 3.7973 16.2520 10.2850 27.5987
# 3 9.3910 3.7973 114.7841 6.0350 5.2913 11.9997
# 4 8.0014 16.2520 6.0350 29.7516 16.9817 6.6588
# 5 19.0315 10.2850 5.2913 16.9817 31.1178 9.3990
# 6 28.6605 27.5987 11.9997 6.6588 9.3990 26.2037
#
#
#
# Elastic Compliance Matrix: (Units=1/GPa)
#
#
# Indices 1 2 3 4 5 6 
#
# 1 0.025105 0.026763 0.003267 -0.007475 -0.004475 -0.053638
# 2 0.026763 0.071132 0.007373 -0.027323 0.004679 -0.102302
# 3 0.003267 0.007373 0.009958 -0.003851 0.000538 -0.015114
# 4 -0.007475 -0.027323 -0.003851 0.060211 -0.028794 0.033744
# 5 -0.004475 0.004679 0.000538 -0.028794 0.052512 -0.011798
# 6 -0.053638 -0.102302 -0.015114 0.033744 -0.011798 0.207157
#
#
# Mechanical properties :
#
#
# Convention : Reuss Voigt Hill
#
# Bulk Modulus (GPa) = 5.52481 34.20811 19.86646
# Shear Modulus (GPa) = 12.14768 34.52420 23.33594
#
# Velocity S-wave (km/s) = 2.30908 3.89274 3.20041
# Velocity P-wave (km/s) = 3.08774 5.93457 4.73039
#
# Compressibility (1/GPa) = 0.18100174
#
# Stress axis : x y z
#
# Youngs Moduli (GPa) = 39.83278 14.05847 100.41715
#
# Poissons Ratio (x) = -0.37625 -0.32810
# Poissons Ratio (y) = -1.06605 -0.74036
# Poissons Ratio (z) = -0.13015 -0.10365
#
# Static dielectric constant tensor:
#      x y z
#    x 4.364440 1.037830 -0.081080 
#    y 1.037830 4.374040 -0.276740 
#    z -0.081080 -0.276740 2.325350 
# 
# 
# High freq. dielectric constant tensor:
#      x y z
#    x 1.876840 0.058360 0.000370 
#    y 0.058360 1.877520 0.002890 
#    z 0.000370 0.002890 1.928810 
# 
# From -- ./inp_files/50022.got.cif
#   From: 2010.06.25/outbox.cif.g09.slc.cpg/sg2_26_cif.got.tgz:50022.got - 2010.06.27 13:26:56.
