data_PCOD8012259
_publ_section_title
;
Structure prediction by ZEFSAII (Michael W. Deem and Ramdas Pophale) SiO2 
 PCOD8012259
Probable space group: P -1
;
_chemical_formula_sum "Si O2"
_cell_formula_units_Z 16
_cell_length_a 16.563270
_cell_length_b 8.786287
_cell_length_c 12.341562
_cell_angle_alpha 71.820987
_cell_angle_beta 35.289065
_cell_angle_gamma 48.451563
_cell_volume 658.215641
_symmetry_space_group_name_H-M "P -1"
_symmetry_group_IT_number 2
_symmetry_cell_setting 'triclinic'
loop_
_space_group_symop_operation_xyz
x,y,z
-x,-y,-z
loop_
_atom_site_type_symbol
_atom_site_label
_atom_site_fract_x
_atom_site_fract_y
_atom_site_fract_z
Si Si1 0.590072 0.595776 0.585118
Si Si2 0.964824 0.489339 0.219122
Si Si3 0.858475 0.036953 0.733291
Si Si4 0.201535 0.120833 0.855241
Si Si5 0.003911 0.290354 0.686493
Si Si6 0.313034 0.035040 0.209860
Si Si7 0.079067 0.889135 0.755203
Si Si8 0.577705 0.499967 0.039673
O O1 0.788560 0.511626 0.444857
O O2 0.690976 0.389617 0.430677
O O3 0.442684 0.859805 0.638201
O O4 0.448570 0.610465 0.814633
O O5 0.844027 0.719519 0.225628
O O6 0.049052 0.510456 0.227215
O O7 0.151162 0.248018 0.999019
O O8 0.966478 0.952167 0.749276
O O9 0.817977 0.882404 0.777930
O O10 0.638376 0.330442 0.908418
O O11 0.000000 0.000000 0.500000
O O12 0.059092 0.080750 0.008201
O O13 0.786297 0.428147 0.841229
O O14 0.168462 0.203839 0.432187
O O15 0.097105 0.065981 0.708765
O O16 0.387841 0.786419 0.194970
O O17 0.500000 0.000000 0.000000
#
# Coordination Sequence:
#
# PCOD8012259 Si02
#       8
#     2   2   2   2   2   2   2   2
#     4  11  20  41  68  92 122 169 212 254 307 390
#     4  10  25  39  69  94 130 162 213 266 317 370
#     4  11  20  43  66  89 123 174 213 251 310 386
#     4  10  21  45  64  95 126 170 212 257 318 385
#     4  11  23  45  60  96 130 162 208 273 316 370
#     4  12  27  42  62  97 130 163 215 267 315 367
#     4  10  21  39  68  91 125 165 216 254 314 382
#     4  11  23  43  66  88 129 170 212 253 317 383
#
# _framework density 24.308143000000001
#
# number of rings (size 3 to 8) (size 9 to 14) (size 15 to 20)
#    0.000    1.250    6.250    0.750    1.750    4.000 
#    2.250    0.625    0.000    0.000    0.000    0.000 
#    0.000    0.000    0.000    0.000    0.000    0.000 
#
# Total GULP energy -198230.579714 kJ/mol
# GULP energy per Si atom -12389.411232 kJ/mol
# Density = 2.425282 g / cm^3
# Si number density = 24.308143 Si / 1000 Ang^3
#
#
#
# Elastic Constant Matrix: (Units=GPa)
#
#
# Indices 1 2 3 4 5 6 
#
# 1 40.3727 -5.9001 7.4623 -5.9726 -1.6335 29.6381
# 2 -5.9001 98.4735 7.1330 18.0642 -3.6047 17.6315
# 3 7.4623 7.1330 106.9450 -2.7117 -7.4964 9.6242
# 4 -5.9726 18.0642 -2.7117 59.9149 4.5278 -4.8281
# 5 -1.6335 -3.6047 -7.4964 4.5278 23.0125 -5.2382
# 6 29.6381 17.6315 9.6242 -4.8281 -5.2382 27.0700
#
#
#
# Elastic Compliance Matrix: (Units=1/GPa)
#
#
# Indices 1 2 3 4 5 6 
#
# 1 -1.709978 -0.531965 -0.029553 0.153547 0.281516 2.311055
# 2 -0.531965 -0.152876 -0.009298 0.043184 0.088411 0.710121
# 3 -0.029553 -0.009298 0.009286 0.002704 0.007365 0.037019
# 4 0.153547 0.043184 0.002704 0.004981 -0.028372 -0.201804
# 5 0.281516 0.088411 0.007365 -0.028372 0.000263 -0.373435
# 6 2.311055 0.710121 0.037019 -0.201804 -0.373435 -3.077301
#
#
# Mechanical properties :
#
#
# Convention : Reuss Voigt Hill
#
# Bulk Modulus (GPa) = -0.33387 29.24239 14.45426
# Shear Modulus (GPa) = -1.04550 37.80589 18.38019
#
# Velocity S-wave (km/s) = -0.65653 3.94798 2.75277
# Velocity P-wave (km/s) = 0.84402 5.73045 4.00785
#
# Compressibility (1/GPa) = -2.99520053
#
# Stress axis : x y z
#
# Youngs Moduli (GPa) = -0.58480 -6.54126 107.68549
#
# Poissons Ratio (x) = -3.47972 3.18246
# Poissons Ratio (y) = -0.31109 1.00126
# Poissons Ratio (z) = -0.01728 -0.06082
#
# Static dielectric constant tensor:
#      x y z
#    x 4.269430 0.026890 0.089040 
#    y 0.026890 5.565320 0.180280 
#    z 0.089040 0.180280 4.507340 
# 
# 
# High freq. dielectric constant tensor:
#      x y z
#    x 1.934030 0.009790 -0.002780 
#    y 0.009790 2.001380 0.011020 
#    z -0.002780 0.011020 1.976220 
# 
# From -- ./inp_files/537345.got.cif
#   From: 2010.06.25/outbox.cif.g09.slc.cpg/sg2_269_cif.got.tgz:537345.got - 2010.06.27 13:26:56.
