data_PCOD8012759
_publ_section_title
;
Structure prediction by ZEFSAII (Michael W. Deem and Ramdas Pophale) SiO2 
 PCOD8012759
Probable space group: P -1
;
_chemical_formula_sum "Si O2"
_cell_formula_units_Z 16
_cell_length_a 12.225818
_cell_length_b 9.049275
_cell_length_c 20.204827
_cell_angle_alpha 55.025833
_cell_angle_beta 151.162136
_cell_angle_gamma 129.731432
_cell_volume 828.645681
_symmetry_space_group_name_H-M "P -1"
_symmetry_group_IT_number 2
_symmetry_cell_setting 'triclinic'
loop_
_space_group_symop_operation_xyz
x,y,z
-x,-y,-z
loop_
_atom_site_type_symbol
_atom_site_label
_atom_site_fract_x
_atom_site_fract_y
_atom_site_fract_z
Si Si1 0.108519 0.104450 0.740543
Si Si2 0.248499 0.309075 0.200021
Si Si3 0.873718 0.904424 0.094027
Si Si4 0.656279 0.205514 0.501847
Si Si5 0.066229 0.569695 0.293412
Si Si6 0.558053 0.371736 0.119588
Si Si7 0.984109 0.675868 0.790118
Si Si8 0.581981 0.414283 0.896206
O O1 0.187762 0.110565 0.857318
O O2 0.347064 0.235393 0.794400
O O3 0.894886 0.191899 0.596532
O O4 0.022613 0.885915 0.726281
O O5 0.501709 0.271805 0.349046
O O6 0.181773 0.365509 0.222312
O O7 0.276580 0.483462 0.120504
O O8 0.042362 0.120028 0.109988
O O9 0.005180 0.752137 0.186275
O O10 0.622699 0.847693 0.933534
O O11 0.722551 0.356263 0.559300
O O12 0.500000 0.000000 0.500000
O O13 0.151040 0.476175 0.299322
O O14 0.840801 0.404664 0.252303
O O15 0.507282 0.436257 0.148753
O O16 0.500000 0.500000 0.000000
O O17 0.243566 0.660603 0.947819
#
# Coordination Sequence:
#
# PCOD8012759 Si02
#       8
#     2   2   2   2   2   2   2   2
#     4  10  20  36  62  83 107 158 199 238 275 334
#     4  11  25  36  56  90 123 159 179 234 308 341
#     4   9  16  35  56  81 111 146 193 233 278 338
#     4  11  19  41  62  82 115 154 208 231 264 361
#     4  10  18  34  65  84 106 146 208 244 267 327
#     4  10  16  33  58  86 109 145 198 243 274 333
#     4  11  21  37  58  89 115 151 191 240 297 341
#     4  12  21  36  59  90 124 144 191 246 296 347
#
# _framework density 19.308613000000001
#
# number of rings (size 3 to 8) (size 9 to 14) (size 15 to 20)
#    0.000    1.500   10.000    0.750    0.000    2.500 
#    0.000    0.000    0.000    0.750    0.000    0.000 
#    0.000    0.000    0.000    0.000    0.000    0.000 
#
# Total GULP energy -198365.334257 kJ/mol
# GULP energy per Si atom -12397.833391 kJ/mol
# Density = 1.926467 g / cm^3
# Si number density = 19.308613 Si / 1000 Ang^3
#
#
#
# Elastic Constant Matrix: (Units=GPa)
#
#
# Indices 1 2 3 4 5 6 
#
# 1 75.3439 50.1207 10.0045 11.8253 4.8348 -4.1929
# 2 50.1207 102.7156 24.8479 23.8215 -4.0811 -5.5905
# 3 10.0045 24.8479 68.6937 19.1926 4.0745 1.8241
# 4 11.8253 23.8215 19.1926 29.9286 -3.0950 2.4764
# 5 4.8348 -4.0811 4.0745 -3.0950 19.7473 6.7146
# 6 -4.1929 -5.5905 1.8241 2.4764 6.7146 33.5919
#
#
#
# Elastic Compliance Matrix: (Units=1/GPa)
#
#
# Indices 1 2 3 4 5 6 
#
# 1 0.021020 -0.010346 0.001806 -0.002387 -0.008974 0.002774
# 2 -0.010346 0.017540 -0.003096 -0.007461 0.005182 0.001310
# 3 0.001806 -0.003096 0.018937 -0.011200 -0.007057 0.000918
# 4 -0.002387 -0.007461 -0.011200 0.049220 0.011392 -0.006837
# 5 -0.008974 0.005182 -0.007057 0.011392 0.061578 -0.013023
# 6 0.002774 0.001310 0.000918 -0.006837 -0.013023 0.033391
#
#
# Mechanical properties :
#
#
# Convention : Reuss Voigt Hill
#
# Bulk Modulus (GPa) = 29.21640 46.29993 37.75817
# Shear Modulus (GPa) = 21.15374 27.43890 24.29632
#
# Velocity S-wave (km/s) = 3.31351 3.77380 3.55112
# Velocity P-wave (km/s) = 5.45924 6.55894 6.03419
#
# Compressibility (1/GPa) = 0.03422735
#
# Stress axis : x y z
#
# Youngs Moduli (GPa) = 47.57435 57.01182 52.80572
#
# Poissons Ratio (x) = 0.58983 -0.09539
# Poissons Ratio (y) = 0.49220 0.16346
# Poissons Ratio (z) = -0.08594 0.17648
#
# Static dielectric constant tensor:
#      x y z
#    x 3.336710 -0.155240 0.170930 
#    y -0.155240 3.820920 0.436920 
#    z 0.170930 0.436920 3.855260 
# 
# 
# High freq. dielectric constant tensor:
#      x y z
#    x 1.729820 -0.012980 0.017370 
#    y -0.012980 1.742450 0.029360 
#    z 0.017370 0.029360 1.734930 
# 
# From -- ./inp_files/181583.got.cif
#   From: 2010.06.25/outbox.cif.g09.slc.cpg/sg2_91_cif.got.tgz:181583.got - 2010.06.27 13:26:56.
