data_PCOD8012356
_publ_section_title
;
Structure prediction by ZEFSAII (Michael W. Deem and Ramdas Pophale) SiO2 
 PCOD8012356
Probable space group: P -1
;
_chemical_formula_sum "Si O2"
_cell_formula_units_Z 16
_cell_length_a 12.255870
_cell_length_b 8.860948
_cell_length_c 13.722980
_cell_angle_alpha 149.695117
_cell_angle_beta 93.113208
_cell_angle_gamma 96.571057
_cell_volume 711.366937
_symmetry_space_group_name_H-M "P -1"
_symmetry_group_IT_number 2
_symmetry_cell_setting 'triclinic'
loop_
_space_group_symop_operation_xyz
x,y,z
-x,-y,-z
loop_
_atom_site_type_symbol
_atom_site_label
_atom_site_fract_x
_atom_site_fract_y
_atom_site_fract_z
Si Si1 0.160175 0.568426 0.747066
Si Si2 0.758793 0.646709 0.569173
Si Si3 0.678871 0.205315 0.838703
Si Si4 0.466840 0.892341 0.777780
Si Si5 0.060431 0.537204 0.420632
Si Si6 0.364173 0.846058 0.413786
Si Si7 0.209730 0.176960 0.700178
Si Si8 0.366296 0.189165 0.098517
O O1 0.190697 0.412926 0.564499
O O2 0.148168 0.322777 0.696627
O O3 0.037025 0.628526 0.757542
O O4 0.258216 0.892299 0.959298
O O5 0.630619 0.399660 0.438206
O O6 0.837317 0.615692 0.647959
O O7 0.751764 0.997248 0.772744
O O8 0.688527 0.178502 0.709374
O O9 0.546969 0.078382 0.798372
O O10 0.733203 0.566696 0.072435
O O11 0.534028 0.757090 0.786422
O O12 0.412063 0.132837 0.962705
O O13 0.000000 0.500000 0.500000
O O14 0.112988 0.902423 0.597267
O O15 0.328531 0.499364 0.265942
O O16 0.500000 0.000000 0.500000
O O17 0.310275 0.062521 0.595651
#
# Coordination Sequence:
#
# PCOD8012356 Si02
#       8
#     2   2   2   2   2   2   2   2
#     4  10  21  48  70  96 141 180 233 293 344 405
#     4  10  22  42  67 103 138 182 231 281 348 413
#     4  12  25  42  69 104 145 182 229 281 353 419
#     4  10  21  39  70 100 141 186 221 285 345 417
#     4  10  25  45  75  99 135 184 238 297 342 405
#     4  12  28  43  67 110 149 183 229 284 343 427
#     4  12  26  46  71 103 141 183 231 290 352 407
#     4  10  22  41  70 101 140 186 233 275 351 418
#
# _framework density 22.491907999999999
#
# number of rings (size 3 to 8) (size 9 to 14) (size 15 to 20)
#    0.000    1.250    2.500    2.250   10.500    1.000 
#    0.000    6.250    0.000    0.000    0.000    0.000 
#    0.000    0.000    0.000    0.000    0.000    0.000 
#
# Total GULP energy -198441.663866 kJ/mol
# GULP energy per Si atom -12402.603992 kJ/mol
# Density = 2.244072 g / cm^3
# Si number density = 22.491908 Si / 1000 Ang^3
#
#
#
# Elastic Constant Matrix: (Units=GPa)
#
#
# Indices 1 2 3 4 5 6 
#
# 1 118.5952 54.3843 58.8113 6.4891 23.6234 -22.9077
# 2 54.3843 90.0645 28.0962 19.9179 6.1906 -4.5370
# 3 58.8113 28.0962 92.2901 8.6316 -10.2290 -8.3480
# 4 6.4891 19.9179 8.6316 28.9590 4.5026 1.5228
# 5 23.6234 6.1906 -10.2290 4.5026 27.3271 1.7142
# 6 -22.9077 -4.5370 -8.3480 1.5228 1.7142 45.6397
#
#
#
# Elastic Compliance Matrix: (Units=1/GPa)
#
#
# Indices 1 2 3 4 5 6 
#
# 1 0.036683 -0.014506 -0.023546 0.014346 -0.040462 0.013704
# 2 -0.014506 0.020185 0.005410 -0.013973 0.012564 -0.004290
# 3 -0.023546 0.005410 0.028183 -0.011456 0.032002 -0.006945
# 4 0.014346 -0.013973 -0.011456 0.047537 -0.021541 0.002939
# 5 -0.040462 0.012564 0.032002 -0.021541 0.085238 -0.015689
# 6 0.013704 -0.004290 -0.006945 0.002939 -0.015689 0.027583
#
#
# Mechanical properties :
#
#
# Convention : Reuss Voigt Hill
#
# Bulk Modulus (GPa) = 50.59068 64.83705 57.71386
# Shear Modulus (GPa) = 15.75881 31.02904 23.39392
#
# Velocity S-wave (km/s) = 2.64984 3.71828 3.22856
# Velocity P-wave (km/s) = 5.64835 6.87921 6.29394
#
# Compressibility (1/GPa) = 0.01976649
#
# Stress axis : x y z
#
# Youngs Moduli (GPa) = 27.26092 49.54132 35.48194
#
# Poissons Ratio (x) = 0.71865 0.83547
# Poissons Ratio (y) = 0.39545 -0.19196
# Poissons Ratio (z) = 0.64190 -0.26802
#
# Static dielectric constant tensor:
#      x y z
#    x 4.438230 -0.212510 0.038230 
#    y -0.212510 4.197580 -0.014530 
#    z 0.038230 -0.014530 3.987110 
# 
# 
# High freq. dielectric constant tensor:
#      x y z
#    x 1.886630 -0.004150 0.000270 
#    y -0.004150 1.900200 -0.002260 
#    z 0.000270 -0.002260 1.880840 
# 
# From -- ./inp_files/221880.got.cif
#   From: 2010.06.25/outbox.cif.g09.slc.cpg/sg2_111_cif.got.tgz:221880.got - 2010.06.27 13:26:56.
