data_PCOD8012150
_publ_section_title
;
Structure prediction by ZEFSAII (Michael W. Deem and Ramdas Pophale) SiO2 
 PCOD8012150
Probable space group: P -1
;
_chemical_formula_sum "Si O2"
_cell_formula_units_Z 14
_cell_length_a 18.689115
_cell_length_b 9.190965
_cell_length_c 15.357833
_cell_angle_alpha 132.913729
_cell_angle_beta 160.006189
_cell_angle_gamma 46.957758
_cell_volume 650.935406
_symmetry_space_group_name_H-M "P -1"
_symmetry_group_IT_number 2
_symmetry_cell_setting 'triclinic'
loop_
_space_group_symop_operation_xyz
x,y,z
-x,-y,-z
loop_
_atom_site_type_symbol
_atom_site_label
_atom_site_fract_x
_atom_site_fract_y
_atom_site_fract_z
Si Si1 0.702107 0.074766 0.008205
Si Si2 0.064793 0.151726 0.563047
Si Si3 0.265603 0.459392 0.015032
Si Si4 0.071223 0.396788 0.173490
Si Si5 0.965440 0.222611 0.817772
Si Si6 0.402127 0.932870 0.737885
Si Si7 0.495301 0.804984 0.352980
O O1 0.568311 0.156924 0.804489
O O2 0.551530 0.066738 0.915576
O O3 0.882791 0.200062 0.300050
O O4 0.828296 0.854650 0.037267
O O5 0.296448 0.042002 0.748426
O O6 0.096742 0.369039 0.724264
O O7 0.000000 0.000000 0.500000
O O8 0.473640 0.290699 0.192627
O O9 0.329152 0.667897 0.140729
O O10 0.145382 0.513937 0.989996
O O11 0.266274 0.320349 0.429276
O O12 0.137486 0.559235 0.248004
O O13 0.028298 0.214702 0.987939
O O14 0.790554 0.079671 0.553422
O O15 0.500000 0.000000 0.500000
#
# Coordination Sequence:
#
# PCOD8012150 Si02
#       7
#     2   2   2   2   2   2   2
#     4  11  24  44  69 103 139 176 228 285 342 404
#     4  11  24  44  76 106 134 170 240 291 331 407
#     4  12  25  42  71 101 136 186 227 277 348 403
#     4  11  23  40  68  98 138 176 236 283 334 407
#     4  10  21  39  67 103 130 175 236 287 328 409
#     4  11  22  41  75 103 131 180 230 286 345 398
#     4  12  28  46  65 101 150 183 222 282 350 404
#
# _framework density 21.507511000000001
#
# number of rings (size 3 to 8) (size 9 to 14) (size 15 to 20)
#    0.000    0.857    5.714    1.286    2.000    4.000 
#    0.000    1.429    0.000    0.000    0.000    0.000 
#    0.000    0.000    0.000    0.000    0.000    0.000 
#
# Total GULP energy -173496.483926 kJ/mol
# GULP energy per Si atom -12392.605995 kJ/mol
# Density = 2.145856 g / cm^3
# Si number density = 21.507511 Si / 1000 Ang^3
#
#
#
# Elastic Constant Matrix: (Units=GPa)
#
#
# Indices 1 2 3 4 5 6 
#
# 1 121.1436 36.4824 48.5571 6.3821 7.6562 -16.0859
# 2 36.4824 70.3632 45.2422 13.9028 3.0862 6.5728
# 3 48.5571 45.2422 103.1826 2.7946 -0.8635 2.8710
# 4 6.3821 13.9028 2.7946 45.2840 0.3248 -5.4715
# 5 7.6562 3.0862 -0.8635 0.3248 37.6320 -8.7672
# 6 -16.0859 6.5728 2.8710 -5.4715 -8.7672 31.8460
#
#
#
# Elastic Compliance Matrix: (Units=1/GPa)
#
#
# Indices 1 2 3 4 5 6 
#
# 1 0.012217 -0.004648 -0.003947 0.000859 -0.000453 0.007509
# 2 -0.004648 0.024161 -0.007992 -0.007304 -0.003194 -0.008748
# 3 -0.003947 -0.007992 0.015039 0.001958 0.001570 -0.000932
# 4 0.000859 -0.007304 0.001958 0.024859 0.001775 0.006524
# 5 -0.000453 -0.003194 0.001570 0.001775 0.028943 0.008562
# 6 0.007509 -0.008748 -0.000932 0.006524 0.008562 0.040562
#
#
# Mechanical properties :
#
#
# Convention : Reuss Voigt Hill
#
# Bulk Modulus (GPa) = 54.81540 61.69475 58.25507
# Shear Modulus (GPa) = 27.02190 33.91293 30.46741
#
# Velocity S-wave (km/s) = 3.54841 3.97520 3.76785
# Velocity P-wave (km/s) = 6.50617 7.05812 6.78776
#
# Compressibility (1/GPa) = 0.01824305
#
# Stress axis : x y z
#
# Youngs Moduli (GPa) = 81.85379 41.38943 66.49163
#
# Poissons Ratio (x) = 0.19236 0.26247
# Poissons Ratio (y) = 0.38042 0.53141
# Poissons Ratio (z) = 0.32311 0.33079
#
# Static dielectric constant tensor:
#      x y z
#    x 3.779770 -0.171320 -0.122510 
#    y -0.171320 3.777000 0.050100 
#    z -0.122510 0.050100 4.237980 
# 
# 
# High freq. dielectric constant tensor:
#      x y z
#    x 1.842870 -0.018250 -0.004170 
#    y -0.018250 1.819220 0.000530 
#    z -0.004170 0.000530 1.869620 
# 
# From -- ./inp_files/27566.got.cif
#   From: 2010.06.25/outbox.cif.g09.slc.cpg/sg2_14_cif.got.tgz:27566.got - 2010.06.27 13:26:56.
