data_PCOD8012115
_publ_section_title
;
Structure prediction by ZEFSAII (Michael W. Deem and Ramdas Pophale) SiO2 
 PCOD8012115
Probable space group: P -1
;
_chemical_formula_sum "Si O2"
_cell_formula_units_Z 16
_cell_length_a 5.260697
_cell_length_b 17.304339
_cell_length_c 11.722598
_cell_angle_alpha 42.139046
_cell_angle_beta 86.690574
_cell_angle_gamma 85.339095
_cell_volume 713.606975
_symmetry_space_group_name_H-M "P -1"
_symmetry_group_IT_number 2
_symmetry_cell_setting 'triclinic'
loop_
_space_group_symop_operation_xyz
x,y,z
-x,-y,-z
loop_
_atom_site_type_symbol
_atom_site_label
_atom_site_fract_x
_atom_site_fract_y
_atom_site_fract_z
Si Si1 0.066027 0.248938 0.807457
Si Si2 0.797594 0.578857 0.781333
Si Si3 0.111346 0.719298 0.459159
Si Si4 0.092486 0.126700 0.162135
Si Si5 0.072476 0.673776 0.889531
Si Si6 0.600376 0.231050 0.401862
Si Si7 0.595330 0.000184 0.370018
Si Si8 0.566039 0.367538 0.642088
O O1 0.055413 0.213718 0.710677
O O2 0.822312 0.337917 0.742497
O O3 0.330217 0.303942 0.769568
O O4 0.044739 0.142267 0.010777
O O5 0.517465 0.640666 0.704763
O O6 0.967975 0.612275 0.632710
O O7 0.889963 0.629809 0.843822
O O8 0.783242 0.440432 0.934330
O O9 0.185097 0.802619 0.469959
O O10 0.376169 0.669874 0.449047
O O11 0.077916 0.250205 0.093203
O O12 0.877542 0.044421 0.303159
O O13 0.378786 0.071640 0.225899
O O14 0.271828 0.760354 0.735579
O O15 0.391131 0.135177 0.518193
O O16 0.500000 0.000000 0.500000
O O17 0.500000 0.500000 0.500000
#
# Coordination Sequence:
#
# PCOD8012115 Si02
#       8
#     2   2   2   2   2   2   2   2
#     4  10  23  42  62  95 139 170 223 275 328 400
#     4  10  21  41  64 100 134 175 223 268 351 401
#     4   9  23  38  66  94 132 179 217 272 329 408
#     4  12  26  45  68 103 135 178 225 285 337 394
#     4  10  23  38  65  99 136 174 216 285 337 412
#     4  11  22  42  68  94 135 177 227 279 334 404
#     4  12  26  45  72  98 133 179 234 278 339 394
#     4  10  21  39  66  96 132 179 224 269 328 402
#
# _framework density 22.421303999999999
#
# number of rings (size 3 to 8) (size 9 to 14) (size 15 to 20)
#    0.750    0.750    1.250    3.375    5.250    1.000 
#    0.000    1.250    0.000    0.000    0.000    0.000 
#    0.000    0.000    0.000    0.000    0.000    0.000 
#
# Total GULP energy -198251.392788 kJ/mol
# GULP energy per Si atom -12390.712049 kJ/mol
# Density = 2.237027 g / cm^3
# Si number density = 22.421304 Si / 1000 Ang^3
#
#
#
# Elastic Constant Matrix: (Units=GPa)
#
#
# Indices 1 2 3 4 5 6 
#
# 1 85.8855 -2.2678 8.8888 5.0854 -3.7619 -7.7773
# 2 -2.2678 44.3755 28.7432 -1.1568 0.5256 4.9993
# 3 8.8888 28.7432 107.0510 17.7022 4.2701 8.8496
# 4 5.0854 -1.1568 17.7022 34.7172 -0.5400 3.6084
# 5 -3.7619 0.5256 4.2701 -0.5400 42.0031 -4.9295
# 6 -7.7773 4.9993 8.8496 3.6084 -4.9295 22.6964
#
#
#
# Elastic Compliance Matrix: (Units=1/GPa)
#
#
# Indices 1 2 3 4 5 6 
#
# 1 0.012485 0.000991 -0.001565 -0.001521 0.001870 0.005318
# 2 0.000991 0.028536 -0.008364 0.005438 0.000241 -0.003497
# 3 -0.001565 -0.008364 0.013117 -0.006435 -0.001825 -0.003182
# 4 -0.001521 0.005438 -0.006435 0.032949 0.000361 -0.004370
# 5 0.001870 0.000241 -0.001825 0.000361 0.024944 0.006659
# 6 0.005318 -0.003497 -0.003182 -0.004370 0.006659 0.050034
#
#
# Mechanical properties :
#
#
# Convention : Reuss Voigt Hill
#
# Bulk Modulus (GPa) = 27.57737 34.22669 30.90203
# Shear Modulus (GPa) = 26.03766 33.34652 29.69209
#
# Velocity S-wave (km/s) = 3.41147 3.86070 3.64301
# Velocity P-wave (km/s) = 5.27673 5.93057 5.61318
#
# Compressibility (1/GPa) = 0.03626161
#
# Stress axis : x y z
#
# Youngs Moduli (GPa) = 80.09514 35.04351 76.23669
#
# Poissons Ratio (x) = -0.03473 0.11934
# Poissons Ratio (y) = -0.07938 0.63764
# Poissons Ratio (z) = 0.12538 0.29310
#
# Static dielectric constant tensor:
#      x y z
#    x 3.765710 0.324840 1.194970 
#    y 0.324840 3.846740 0.004080 
#    z 1.194970 0.004080 3.502340 
# 
# 
# High freq. dielectric constant tensor:
#      x y z
#    x 1.887270 -0.002340 0.000790 
#    y -0.002340 1.859340 0.013500 
#    z 0.000790 0.013500 1.886850 
# 
# From -- ./inp_files/368837.got.cif
#   From: 2010.06.25/outbox.cif.g09.slc.cpg/sg2_185_cif.got.tgz:368837.got - 2010.06.27 13:26:56.
