data_PCOD8012015
_publ_section_title
;
Structure prediction by ZEFSAII (Michael W. Deem and Ramdas Pophale) SiO2 
 PCOD8012015
Probable space group: P -1
;
_chemical_formula_sum "Si O2"
_cell_formula_units_Z 12
_cell_length_a 18.842283
_cell_length_b 7.051771
_cell_length_c 12.657843
_cell_angle_alpha 127.845676
_cell_angle_beta 24.510521
_cell_angle_gamma 136.006338
_cell_volume 479.692223
_symmetry_space_group_name_H-M "P -1"
_symmetry_group_IT_number 2
_symmetry_cell_setting 'triclinic'
loop_
_space_group_symop_operation_xyz
x,y,z
-x,-y,-z
loop_
_atom_site_type_symbol
_atom_site_label
_atom_site_fract_x
_atom_site_fract_y
_atom_site_fract_z
Si Si1 0.309891 0.218075 0.723205
Si Si2 0.478328 0.985005 0.777491
Si Si3 0.079954 0.229676 0.857880
Si Si4 0.814781 0.176104 0.536181
Si Si5 0.091379 0.817104 0.354766
Si Si6 0.420659 0.702028 0.452053
O O1 0.181752 0.325107 0.868855
O O2 0.431380 0.393155 0.723289
O O3 0.474935 0.229736 0.422265
O O4 0.156592 0.892470 0.852688
O O5 0.594224 0.076290 0.761861
O O6 0.544086 0.257798 0.707310
O O7 0.248914 0.840362 0.062807
O O8 0.191159 0.482424 0.712038
O O9 0.089216 0.960891 0.713746
O O10 0.808262 0.074861 0.630076
O O11 0.928854 0.502377 0.479466
O O12 0.000000 0.000000 0.500000
O O13 0.500000 0.000000 0.500000
#
# Coordination Sequence:
#
# PCOD8012015 Si02
#       6
#     2   2   2   2   2   2
#     4   9  21  39  63  96 133 174 210 266 326 393
#     4  10  23  42  66  99 132 172 218 273 327 393
#     4  10  21  39  65  96 134 174 214 263 330 394
#     4  10  25  46  68  97 128 177 219 276 332 386
#     4  11  26  47  69  94 129 173 228 281 326 386
#     4  10  22  36  61  98 133 171 210 262 321 393
#
# _framework density 25.016041000000001
#
# number of rings (size 3 to 8) (size 9 to 14) (size 15 to 20)
#    0.000    2.000    0.000    1.000    4.667   14.000 
#    6.000    0.000    0.000    0.000    0.000    0.000 
#    0.000    0.000    0.000    0.000    0.000    0.000 
#
# Total GULP energy -148680.265376 kJ/mol
# GULP energy per Si atom -12390.022115 kJ/mol
# Density = 2.495910 g / cm^3
# Si number density = 25.016041 Si / 1000 Ang^3
#
#
#
# Elastic Constant Matrix: (Units=GPa)
#
#
# Indices 1 2 3 4 5 6 
#
# 1 150.9225 17.1003 13.2186 -2.8774 11.6346 -7.1134
# 2 17.1003 69.3515 8.0517 -6.9796 5.2202 -11.8258
# 3 13.2186 8.0517 115.9857 -17.2126 4.1445 -1.7368
# 4 -2.8774 -6.9796 -17.2126 38.2543 -2.1286 3.7963
# 5 11.6346 5.2202 4.1445 -2.1286 26.4894 -11.7082
# 6 -7.1134 -11.8258 -1.7368 3.7963 -11.7082 33.4007
#
#
#
# Elastic Compliance Matrix: (Units=1/GPa)
#
#
# Indices 1 2 3 4 5 6 
#
# 1 0.007055 -0.001477 -0.000630 -0.000175 -0.002717 0.000014
# 2 -0.001477 0.015916 -0.000558 0.002040 0.000000 0.005060
# 3 -0.000630 -0.000558 0.009364 0.004073 -0.001050 -0.000676
# 4 -0.000175 0.002040 0.004073 0.028573 0.000349 -0.002229
# 5 -0.002717 0.000000 -0.001050 0.000349 0.045960 0.015438
# 6 0.000014 0.005060 -0.000676 -0.002229 0.015438 0.037364
#
#
# Mechanical properties :
#
#
# Convention : Reuss Voigt Hill
#
# Bulk Modulus (GPa) = 37.03032 45.88899 41.45965
# Shear Modulus (GPa) = 31.53282 39.48817 35.51050
#
# Velocity S-wave (km/s) = 3.55421 3.97736 3.77172
# Velocity P-wave (km/s) = 5.62832 6.28301 5.96465
#
# Compressibility (1/GPa) = 0.02700490
#
# Stress axis : x y z
#
# Youngs Moduli (GPa) = 141.73819 62.82826 106.79051
#
# Poissons Ratio (x) = 0.09281 0.06730
# Poissons Ratio (y) = 0.20937 0.05960
# Poissons Ratio (z) = 0.08932 0.03506
#
# Static dielectric constant tensor:
#      x y z
#    x 5.854270 -0.287580 -0.338570 
#    y -0.287580 4.210510 -0.291090 
#    z -0.338570 -0.291090 4.524040 
# 
# 
# High freq. dielectric constant tensor:
#      x y z
#    x 2.020360 -0.018000 -0.007280 
#    y -0.018000 1.978160 -0.038320 
#    z -0.007280 -0.038320 1.990640 
# 
# From -- ./inp_files/542437.got.cif
#   From: 2010.06.25/outbox.cif.g09.slc.cpg/sg2_272_cif.got.tgz:542437.got - 2010.06.27 13:26:56.
