data_PCOD8012610
_publ_section_title
;
Structure prediction by ZEFSAII (Michael W. Deem and Ramdas Pophale) SiO2 
 PCOD8012610
Probable space group: P -1
;
_chemical_formula_sum "Si O2"
_cell_formula_units_Z 14
_cell_length_a 9.206786
_cell_length_b 15.497235
_cell_length_c 15.657127
_cell_angle_alpha 154.654138
_cell_angle_beta 53.670259
_cell_angle_gamma 110.722140
_cell_volume 655.007325
_symmetry_space_group_name_H-M "P -1"
_symmetry_group_IT_number 2
_symmetry_cell_setting 'triclinic'
loop_
_space_group_symop_operation_xyz
x,y,z
-x,-y,-z
loop_
_atom_site_type_symbol
_atom_site_label
_atom_site_fract_x
_atom_site_fract_y
_atom_site_fract_z
Si Si1 0.220722 0.975331 0.914693
Si Si2 0.155913 0.135614 0.492993
Si Si3 0.312571 0.710846 0.804173
Si Si4 0.644547 0.745211 0.981744
Si Si5 0.509474 0.513875 0.293613
Si Si6 0.952672 0.254038 0.844449
Si Si7 0.971113 0.609494 0.889520
O O1 0.261898 0.941170 0.972365
O O2 0.395603 0.760591 0.602931
O O3 0.222207 0.204702 0.089275
O O4 0.000000 0.000000 0.000000
O O5 0.051197 0.281997 0.747898
O O6 0.105066 0.326329 0.606970
O O7 0.047204 0.989081 0.374589
O O8 0.405296 0.963934 0.268326
O O9 0.500000 0.500000 0.500000
O O10 0.389451 0.708501 0.872199
O O11 0.112230 0.677341 0.844077
O O12 0.647920 0.513025 0.738530
O O13 0.755730 0.685839 0.982126
O O14 0.711632 0.483174 0.144100
O O15 0.091391 0.245368 0.869634
#
# Coordination Sequence:
#
# PCOD8012610 Si02
#       7
#     2   2   2   2   2   2   2
#     4  11  21  38  57  84 120 150 191 245 289 337
#     4  10  21  40  62  86 119 153 194 238 293 348
#     4   9  18  37  57  77 113 155 189 236 290 336
#     4  11  23  38  59  91 116 151 201 240 284 352
#     4   9  21  39  59  83 116 151 196 242 288 347
#     4   9  20  40  62  85 117 155 190 238 296 348
#     4  11  21  37  59  86 118 153 195 240 291 341
#
# _framework density 21.373808
#
# number of rings (size 3 to 8) (size 9 to 14) (size 15 to 20)
#    0.000    2.000    1.429    3.000    0.000    2.857 
#    2.571    6.429    0.000    0.000    0.000    0.000 
#    0.000    0.000    0.000    0.000    0.000    0.000 
#
# Total GULP energy -173529.446725 kJ/mol
# GULP energy per Si atom -12394.960480 kJ/mol
# Density = 2.132516 g / cm^3
# Si number density = 21.373808 Si / 1000 Ang^3
#
#
#
# Elastic Constant Matrix: (Units=GPa)
#
#
# Indices 1 2 3 4 5 6 
#
# 1 141.0518 23.2689 6.1394 2.6076 -7.3244 -15.8598
# 2 23.2689 84.2946 7.8614 -7.1695 -7.6609 -4.5278
# 3 6.1394 7.8614 47.9647 -6.6589 -5.7083 -4.7125
# 4 2.6076 -7.1695 -6.6589 30.8696 -2.4569 -5.1863
# 5 -7.3244 -7.6609 -5.7083 -2.4569 24.8014 0.2611
# 6 -15.8598 -4.5278 -4.7125 -5.1863 0.2611 25.9907
#
#
#
# Elastic Compliance Matrix: (Units=1/GPa)
#
#
# Indices 1 2 3 4 5 6 
#
# 1 0.007991 -0.001820 -0.000115 -0.000236 0.001701 0.004474
# 2 -0.001820 0.013177 -0.000816 0.003621 0.003685 0.001722
# 3 -0.000115 -0.000816 0.023006 0.006085 0.005558 0.005117
# 4 -0.000236 0.003621 0.006085 0.036525 0.005975 0.008819
# 5 0.001701 0.003685 0.005558 0.005975 0.043796 0.003440
# 6 0.004474 0.001722 0.005117 0.008819 0.003440 0.044158
#
#
# Mechanical properties :
#
#
# Convention : Reuss Voigt Hill
#
# Bulk Modulus (GPa) = 25.85939 38.65005 32.25472
# Shear Modulus (GPa) = 26.73133 32.06843 29.39988
#
# Velocity S-wave (km/s) = 3.54030 3.87765 3.71281
# Velocity P-wave (km/s) = 5.36997 6.17822 5.78822
#
# Compressibility (1/GPa) = 0.03867067
#
# Stress axis : x y z
#
# Youngs Moduli (GPa) = 125.14732 75.88903 43.46654
#
# Poissons Ratio (x) = 0.13813 0.00501
# Poissons Ratio (y) = 0.22779 0.03548
# Poissons Ratio (z) = 0.01442 0.06194
#
# Static dielectric constant tensor:
#      x y z
#    x 3.935460 -0.158150 -0.059840 
#    y -0.158150 4.396630 -0.075470 
#    z -0.059840 -0.075470 3.622380 
# 
# 
# High freq. dielectric constant tensor:
#      x y z
#    x 1.837970 0.004520 0.001340 
#    y 0.004520 1.843670 -0.013410 
#    z 0.001340 -0.013410 1.822290 
# 
# From -- ./inp_files/180864.got.cif
#   From: 2010.06.25/outbox.cif.g09.slc.cpg/sg2_91_cif.got.tgz:180864.got - 2010.06.27 13:26:56.
