data_PCOD8012075
_publ_section_title
;
Structure prediction by ZEFSAII (Michael W. Deem and Ramdas Pophale) SiO2 
 PCOD8012075
Probable space group: P -1
;
_chemical_formula_sum "Si O2"
_cell_formula_units_Z 14
_cell_length_a 14.229653
_cell_length_b 14.473127
_cell_length_c 14.720023
_cell_angle_alpha 139.574977
_cell_angle_beta 140.540121
_cell_angle_gamma 19.763413
_cell_volume 642.946683
_symmetry_space_group_name_H-M "P -1"
_symmetry_group_IT_number 2
_symmetry_cell_setting 'triclinic'
loop_
_space_group_symop_operation_xyz
x,y,z
-x,-y,-z
loop_
_atom_site_type_symbol
_atom_site_label
_atom_site_fract_x
_atom_site_fract_y
_atom_site_fract_z
Si Si1 0.602450 0.616720 0.388720
Si Si2 0.236466 0.218772 0.849833
Si Si3 0.153173 0.184632 0.566703
Si Si4 0.161341 0.188547 0.964305
Si Si5 0.581237 0.291127 0.960612
Si Si6 0.126951 0.781821 0.103438
Si Si7 0.627256 0.773539 0.361513
O O1 0.367491 0.695555 0.246756
O O2 0.756518 0.553413 0.365372
O O3 0.867496 0.334203 0.433709
O O4 0.446542 0.864062 0.519233
O O5 0.132104 0.219465 0.684700
O O6 0.231351 0.114144 0.853626
O O7 0.040664 0.512628 0.945784
O O8 0.553984 0.016564 0.918425
O O9 0.148171 0.342829 0.629238
O O10 0.025073 0.154220 0.872458
O O11 0.603911 0.128342 0.795662
O O12 0.500000 0.500000 0.000000
O O13 0.305827 0.505091 0.982675
O O14 0.888277 0.052946 0.062840
O O15 0.500000 0.000000 0.500000
#
# Coordination Sequence:
#
# PCOD8012075 Si02
#       7
#     2   2   2   2   2   2   2
#     4  11  24  38  57  86 125 166 202 255 301 383
#     4  10  21  40  64  94 121 153 214 263 319 370
#     4  11  22  39  59  86 121 164 207 252 312 365
#     4  10  21  39  66  92 121 159 201 271 319 374
#     4  12  25  41  66  92 130 167 212 262 311 380
#     4  12  24  42  63  92 129 166 212 253 328 371
#     4  10  23  40  62  89 125 165 211 256 313 371
#
# _framework density 21.774744999999999
#
# number of rings (size 3 to 8) (size 9 to 14) (size 15 to 20)
#    0.000    1.143    1.429    5.143    0.000    4.571 
#    0.000    1.429    0.000    0.000    0.000    0.000 
#    0.000    0.000    0.000    0.000    0.000    0.000 
#
# Total GULP energy -173498.579642 kJ/mol
# GULP energy per Si atom -12392.755689 kJ/mol
# Density = 2.172518 g / cm^3
# Si number density = 21.774745 Si / 1000 Ang^3
#
#
#
# Elastic Constant Matrix: (Units=GPa)
#
#
# Indices 1 2 3 4 5 6 
#
# 1 103.7693 16.5855 46.2256 -9.2265 -7.1439 4.1933
# 2 16.5855 107.8245 28.3215 -23.3787 -4.9728 -5.3259
# 3 46.2256 28.3215 116.5543 -15.4859 -11.4743 6.0046
# 4 -9.2265 -23.3787 -15.4859 37.8161 0.5934 -6.0382
# 5 -7.1439 -4.9728 -11.4743 0.5934 33.3397 1.6875
# 6 4.1933 -5.3259 6.0046 -6.0382 1.6875 25.5795
#
#
#
# Elastic Compliance Matrix: (Units=1/GPa)
#
#
# Indices 1 2 3 4 5 6 
#
# 1 0.011812 -0.000553 -0.004323 0.000601 0.000999 -0.000961
# 2 -0.000553 0.011618 -0.001846 0.007009 0.000624 0.004556
# 3 -0.004323 -0.001846 0.011402 0.002104 0.002788 -0.002039
# 4 0.000601 0.007009 0.002104 0.033150 0.000871 0.008635
# 5 0.000999 0.000624 0.002788 0.000871 0.031375 -0.002553
# 6 -0.000961 0.004556 -0.002039 0.008635 -0.002553 0.042885
#
#
# Mechanical properties :
#
#
# Convention : Reuss Voigt Hill
#
# Bulk Modulus (GPa) = 46.75284 56.71258 51.73271
# Shear Modulus (GPa) = 30.71007 35.14812 32.92909
#
# Velocity S-wave (km/s) = 3.75954 4.02203 3.89300
# Velocity P-wave (km/s) = 6.35321 6.90439 6.63453
#
# Compressibility (1/GPa) = 0.02138907
#
# Stress axis : x y z
#
# Youngs Moduli (GPa) = 84.66221 86.07497 87.70664
#
# Poissons Ratio (x) = 0.04756 0.37912
# Poissons Ratio (y) = 0.04678 0.16190
# Poissons Ratio (z) = 0.36596 0.15888
#
# Static dielectric constant tensor:
#      x y z
#    x 4.302190 -0.128350 -0.279970 
#    y -0.128350 4.020320 0.041450 
#    z -0.279970 0.041450 3.953920 
# 
# 
# High freq. dielectric constant tensor:
#      x y z
#    x 1.850740 -0.007820 -0.010720 
#    y -0.007820 1.858360 -0.009110 
#    z -0.010720 -0.009110 1.851190 
# 
# From -- ./inp_files/453200.got.cif
#   From: 2010.06.25/outbox.cif.g09.slc.cpg/sg2_227_cif.got.tgz:453200.got - 2010.06.27 13:26:56.
