data_PCOD8012648
_publ_section_title
;
Structure prediction by ZEFSAII (Michael W. Deem and Ramdas Pophale) SiO2 
 PCOD8012648
Probable space group: P -1
;
_chemical_formula_sum "Si O2"
_cell_formula_units_Z 16
_cell_length_a 16.638555
_cell_length_b 9.768850
_cell_length_c 12.785592
_cell_angle_alpha 73.142342
_cell_angle_beta 65.819294
_cell_angle_gamma 25.682671
_cell_volume 804.988846
_symmetry_space_group_name_H-M "P -1"
_symmetry_group_IT_number 2
_symmetry_cell_setting 'triclinic'
loop_
_space_group_symop_operation_xyz
x,y,z
-x,-y,-z
loop_
_atom_site_type_symbol
_atom_site_label
_atom_site_fract_x
_atom_site_fract_y
_atom_site_fract_z
Si Si1 0.654369 0.659896 0.031865
Si Si2 0.033361 0.212760 0.815325
Si Si3 0.643116 0.352551 0.086625
Si Si4 0.904034 0.549300 0.265427
Si Si5 0.821410 0.387757 0.710196
Si Si6 0.217837 0.873240 0.162525
Si Si7 0.441368 0.087251 0.762982
Si Si8 0.685229 0.765923 0.524385
O O1 0.582390 0.606555 0.053526
O O2 0.667002 0.656758 0.151830
O O3 0.871747 0.367974 0.937050
O O4 0.500000 0.000000 0.000000
O O5 0.024827 0.393445 0.802292
O O6 0.993463 0.230652 0.711292
O O7 0.243877 0.844415 0.821934
O O8 0.443504 0.550974 0.153377
O O9 0.781151 0.107889 0.967991
O O10 0.718793 0.777871 0.240973
O O11 0.842460 0.627926 0.404102
O O12 0.088417 0.181267 0.220389
O O13 0.872680 0.147159 0.750022
O O14 0.804637 0.455501 0.580468
O O15 0.606922 0.737288 0.802613
O O16 0.571666 0.001751 0.633673
O O17 0.500000 0.000000 0.500000
#
# Coordination Sequence:
#
# PCOD8012648 Si02
#       8
#     2   2   2   2   2   2   2   2
#     4  12  20  37  63  91 124 158 201 247 307 365
#     4  12  24  37  61  94 128 162 196 248 311 360
#     4  11  25  39  59  89 135 160 197 251 304 365
#     4  11  23  39  65  90 118 162 211 250 293 364
#     4  10  21  40  62  90 120 162 198 249 310 354
#     4  11  23  40  61  90 123 165 205 244 303 364
#     4   9  20  38  63  87 117 159 200 243 304 363
#     4   8  19  41  64  87 118 160 204 255 298 352
#
# _framework density 19.876052999999999
#
# number of rings (size 3 to 8) (size 9 to 14) (size 15 to 20)
#    0.750    0.750    2.500    2.625    1.750    5.000 
#    0.000    0.000    0.000    1.500    0.000    0.000 
#    0.000    0.000    0.000    0.000    0.000    0.000 
#
# Total GULP energy -198228.437882 kJ/mol
# GULP energy per Si atom -12389.277368 kJ/mol
# Density = 1.983081 g / cm^3
# Si number density = 19.876053 Si / 1000 Ang^3
#
#
#
# Elastic Constant Matrix: (Units=GPa)
#
#
# Indices 1 2 3 4 5 6 
#
# 1 100.0532 33.0256 28.4998 -7.8295 0.5340 -1.5765
# 2 33.0256 86.3713 11.2234 -18.6689 6.1109 -8.4284
# 3 28.4998 11.2234 64.7291 -4.9214 11.5898 0.0416
# 4 -7.8295 -18.6689 -4.9214 21.9467 -3.7341 6.9768
# 5 0.5340 6.1109 11.5898 -3.7341 20.6298 -3.0635
# 6 -1.5765 -8.4284 0.0416 6.9768 -3.0635 35.5801
#
#
#
# Elastic Compliance Matrix: (Units=1/GPa)
#
#
# Indices 1 2 3 4 5 6 
#
# 1 0.013118 -0.004518 -0.005728 0.000333 0.004250 -0.000182
# 2 -0.004518 0.015973 0.000564 0.011278 -0.002721 0.001137
# 3 -0.005728 0.000564 0.019989 0.001457 -0.011191 -0.001393
# 4 0.000333 0.011278 0.001457 0.059196 0.005290 -0.008468
# 5 0.004250 -0.002721 -0.011191 0.005290 0.056922 0.003421
# 6 -0.000182 0.001137 -0.001393 -0.008468 0.003421 0.030324
#
#
# Mechanical properties :
#
#
# Convention : Reuss Voigt Hill
#
# Bulk Modulus (GPa) = 33.65260 44.07235 38.86247
# Shear Modulus (GPa) = 22.24280 27.52497 24.88388
#
# Velocity S-wave (km/s) = 3.34889 3.72537 3.54213
# Velocity P-wave (km/s) = 5.64990 6.38171 6.02692
#
# Compressibility (1/GPa) = 0.02971539
#
# Stress axis : x y z
#
# Youngs Moduli (GPa) = 76.23051 62.60413 50.02808
#
# Poissons Ratio (x) = 0.28285 0.28656
# Poissons Ratio (y) = 0.34441 -0.02820
# Poissons Ratio (z) = 0.43664 -0.03528
#
# Static dielectric constant tensor:
#      x y z
#    x 3.612080 -0.192120 0.199190 
#    y -0.192120 3.517390 -0.015770 
#    z 0.199190 -0.015770 3.921280 
# 
# 
# High freq. dielectric constant tensor:
#      x y z
#    x 1.767690 -0.016610 0.007570 
#    y -0.016610 1.772360 -0.006160 
#    z 0.007570 -0.006160 1.766280 
# 
# From -- ./inp_files/292111.got.cif
#   From: 2010.06.25/outbox.cif.g09.slc.cpg/sg2_147_cif.got.tgz:292111.got - 2010.06.27 13:26:56.
