data_PCOD8012509
_publ_section_title
;
Structure prediction by ZEFSAII (Michael W. Deem and Ramdas Pophale) SiO2 
 PCOD8012509
Probable space group: P -1
;
_chemical_formula_sum "Si O2"
_cell_formula_units_Z 12
_cell_length_a 15.306643
_cell_length_b 15.879421
_cell_length_c 12.160255
_cell_angle_alpha 154.219238
_cell_angle_beta 149.803199
_cell_angle_gamma 28.789012
_cell_volume 577.879602
_symmetry_space_group_name_H-M "P -1"
_symmetry_group_IT_number 2
_symmetry_cell_setting 'triclinic'
loop_
_space_group_symop_operation_xyz
x,y,z
-x,-y,-z
loop_
_atom_site_type_symbol
_atom_site_label
_atom_site_fract_x
_atom_site_fract_y
_atom_site_fract_z
Si Si1 0.250482 0.527037 0.335043
Si Si2 0.669423 0.311548 0.611995
Si Si3 0.831330 0.349528 0.049774
Si Si4 0.832096 0.819469 0.282704
Si Si5 0.750002 0.778645 0.586164
Si Si6 0.668633 0.020079 0.557620
O O1 0.435603 0.442762 0.517568
O O2 0.261867 0.662694 0.403056
O O3 0.065685 0.692499 0.397667
O O4 0.238690 0.312935 0.030156
O O5 0.752903 0.057155 0.424999
O O6 0.749936 0.416409 0.916339
O O7 0.761591 0.552867 0.292956
O O8 0.065044 0.240779 0.166494
O O9 0.749945 0.192856 0.827854
O O10 0.749899 0.834912 0.334804
O O11 0.738387 0.925843 0.642747
O O12 0.565072 0.879487 0.583911
#
# Coordination Sequence:
#
# PCOD8012509 Si02
#       6
#     2   2   2   2   2   2
#     4  10  21  40  62  86 122 158 197 250 294 360
#     4  10  21  40  60  91 118 157 201 244 302 356
#     4  10  21  40  60  91 118 157 201 244 302 356
#     4  10  21  40  60  91 118 157 201 244 302 356
#     4  10  21  40  62  86 122 158 197 250 294 360
#     4  10  21  40  60  91 118 157 201 244 302 356
#
# _framework density 20.765571999999999
#
# number of rings (size 3 to 8) (size 9 to 14) (size 15 to 20)
#    0.000    2.000    0.000    3.000    0.000    0.000 
#   54.000    0.000    0.000    0.000    0.000    0.000 
#    0.000    0.000    0.000    0.000    0.000    0.000 
#
# Total GULP energy -148807.005466 kJ/mol
# GULP energy per Si atom -12400.583789 kJ/mol
# Density = 2.071831 g / cm^3
# Si number density = 20.765572 Si / 1000 Ang^3
#
#
#
# Elastic Constant Matrix: (Units=GPa)
#
#
# Indices 1 2 3 4 5 6 
#
# 1 111.9960 67.0861 60.0773 -12.7842 -1.2173 -39.0775
# 2 67.0861 135.6378 71.6460 -27.4722 1.9758 -25.5454
# 3 60.0773 71.6460 91.2405 -30.4386 8.0309 -2.6675
# 4 -12.7842 -27.4722 -30.4386 43.6332 4.9035 11.0035
# 5 -1.2173 1.9758 8.0309 4.9035 25.3392 -1.9247
# 6 -39.0775 -25.5454 -2.6675 11.0035 -1.9247 34.3475
#
#
#
# Elastic Compliance Matrix: (Units=1/GPa)
#
#
# Indices 1 2 3 4 5 6 
#
# 1 0.091224 0.016988 -0.098640 -0.072038 0.058524 0.135118
# 2 0.016988 0.019517 -0.032271 -0.016445 0.015551 0.037477
# 3 -0.098640 -0.032271 0.134256 0.093170 -0.074944 -0.159845
# 4 -0.072038 -0.016445 0.093170 0.093377 -0.058905 -0.120169
# 5 0.058524 0.015551 -0.074944 -0.058905 0.083497 0.095878
# 6 0.135118 0.037477 -0.159845 -0.120169 0.095878 0.242168
#
#
# Mechanical properties :
#
#
# Convention : Reuss Voigt Hill
#
# Bulk Modulus (GPa) = 58.30396 81.83258 70.06827
# Shear Modulus (GPa) = 5.57040 30.00165 17.78602
#
# Velocity S-wave (km/s) = 1.63962 3.80515 2.92980
# Velocity P-wave (km/s) = 5.63228 7.66804 6.72761
#
# Compressibility (1/GPa) = 0.01715149
#
# Stress axis : x y z
#
# Youngs Moduli (GPa) = 10.96207 51.23689 7.44847
#
# Poissons Ratio (x) = -0.87043 0.73472
# Poissons Ratio (y) = -0.18623 0.24037
# Poissons Ratio (z) = 1.08130 1.65347
#
# Static dielectric constant tensor:
#      x y z
#    x 4.118930 -0.641720 0.364360 
#    y -0.641720 4.796450 -0.606670 
#    z 0.364360 -0.606670 4.082430 
# 
# 
# High freq. dielectric constant tensor:
#      x y z
#    x 1.812940 -0.003240 0.009690 
#    y -0.003240 1.825320 0.000210 
#    z 0.009690 0.000210 1.817060 
# 
# From -- ./inp_files/172477.got.cif
#   From: 2010.06.25/outbox.cif.g09.slc.cpg/sg2_87_cif.got.tgz:172477.got - 2010.06.27 13:26:56.
