data_PCOD8012416
_publ_section_title
;
Structure prediction by ZEFSAII (Michael W. Deem and Ramdas Pophale) SiO2 
 PCOD8012416
Probable space group: P -1
;
_chemical_formula_sum "Si O2"
_cell_formula_units_Z 14
_cell_length_a 15.962753
_cell_length_b 11.054355
_cell_length_c 11.190914
_cell_angle_alpha 42.194965
_cell_angle_beta 142.746636
_cell_angle_gamma 153.012547
_cell_volume 538.863770
_symmetry_space_group_name_H-M "P -1"
_symmetry_group_IT_number 2
_symmetry_cell_setting 'triclinic'
loop_
_space_group_symop_operation_xyz
x,y,z
-x,-y,-z
loop_
_atom_site_type_symbol
_atom_site_label
_atom_site_fract_x
_atom_site_fract_y
_atom_site_fract_z
Si Si1 0.247651 0.561822 0.496487
Si Si2 0.883445 0.265752 0.445609
Si Si3 0.512729 0.088835 0.258034
Si Si4 0.177763 0.449428 0.174041
Si Si5 0.137160 0.136147 0.172407
Si Si6 0.613003 0.601713 0.382179
Si Si7 0.219511 0.891396 0.883195
O O1 0.356007 0.679870 0.662996
O O2 0.262447 0.372183 0.605066
O O3 0.005462 0.392777 0.362007
O O4 0.362262 0.795698 0.359621
O O5 0.650933 0.115612 0.295804
O O6 0.000000 0.500000 0.500000
O O7 0.905647 0.081187 0.641577
O O8 0.365275 0.082864 0.023047
O O9 0.068036 0.247139 0.085740
O O10 0.357759 0.484716 0.398175
O O11 0.021698 0.321766 0.202061
O O12 0.267486 0.727533 0.028019
O O13 0.377568 0.384053 0.232426
O O14 0.000000 0.000000 0.000000
O O15 0.710434 0.897603 0.293639
#
# Coordination Sequence:
#
# PCOD8012416 Si02
#       7
#     2   2   2   2   2   2   2
#     4  10  21  39  74 102 152 197 235 309 377 431
#     4  10  22  42  68 107 149 192 240 305 381 429
#     4  10  21  42  67 110 148 191 250 305 363 441
#     4  11  26  51  71 105 155 193 251 308 372 456
#     4  12  28  47  72 110 151 192 254 316 364 451
#     4  12  25  48  75 106 151 199 245 307 387 435
#     4  11  25  45  78 106 141 198 257 300 373 448
#
# _framework density 25.980592000000001
#
# number of rings (size 3 to 8) (size 9 to 14) (size 15 to 20)
#    0.000    1.143    2.857    1.714    6.000    1.143 
#    2.571    0.000    0.000    0.000    0.000    0.000 
#    0.000    0.000    0.000    0.000    0.000    0.000 
#
# Total GULP energy -173583.064716 kJ/mol
# GULP energy per Si atom -12398.790337 kJ/mol
# Density = 2.592146 g / cm^3
# Si number density = 25.980592 Si / 1000 Ang^3
#
#
#
# Elastic Constant Matrix: (Units=GPa)
#
#
# Indices 1 2 3 4 5 6 
#
# 1 113.1349 36.3490 7.3773 -16.2925 12.0299 9.6296
# 2 36.3490 145.0023 48.5948 -22.6665 11.9326 -4.2719
# 3 7.3773 48.5948 104.2921 -9.4433 10.6751 -10.3867
# 4 -16.2925 -22.6665 -9.4433 46.3234 -1.2412 11.9934
# 5 12.0299 11.9326 10.6751 -1.2412 28.6205 3.3282
# 6 9.6296 -4.2719 -10.3867 11.9934 3.3282 45.8806
#
#
#
# Elastic Compliance Matrix: (Units=1/GPa)
#
#
# Indices 1 2 3 4 5 6 
#
# 1 0.010586 -0.002127 0.000600 0.003482 -0.003292 -0.002955
# 2 -0.002127 0.009281 -0.003778 0.003047 -0.001406 -0.000239
# 3 0.000600 -0.003778 0.011904 0.000065 -0.003399 0.002447
# 4 0.003482 0.003047 0.000065 0.026163 -0.000784 -0.007215
# 5 -0.003292 -0.001406 -0.003399 -0.000784 0.038469 -0.002795
# 6 -0.002955 -0.000239 0.002447 -0.007215 -0.002795 0.025036
#
#
# Mechanical properties :
#
#
# Convention : Reuss Voigt Hill
#
# Bulk Modulus (GPa) = 47.25549 60.78572 54.02061
# Shear Modulus (GPa) = 35.94491 42.17211 39.05851
#
# Velocity S-wave (km/s) = 3.72362 4.03329 3.88154
# Velocity P-wave (km/s) = 6.05932 6.71843 6.39737
#
# Compressibility (1/GPa) = 0.02116156
#
# Stress axis : x y z
#
# Youngs Moduli (GPa) = 94.46248 107.75092 84.00731
#
# Poissons Ratio (x) = 0.22915 -0.05041
# Poissons Ratio (y) = 0.20089 0.31737
# Poissons Ratio (z) = -0.05668 0.40707
#
# Static dielectric constant tensor:
#      x y z
#    x 5.041780 -0.070670 0.228550 
#    y -0.070670 4.947980 0.103040 
#    z 0.228550 0.103040 4.628780 
# 
# 
# High freq. dielectric constant tensor:
#      x y z
#    x 2.043250 -0.008070 0.003290 
#    y -0.008070 2.060430 0.013020 
#    z 0.003290 0.013020 2.034510 
# 
# From -- ./inp_files/463537.got.cif
#   From: 2010.06.25/outbox.cif.g09.slc.cpg/sg2_232_cif.got.tgz:463537.got - 2010.06.27 13:26:56.
