data_PCOD8012986
_publ_section_title
;
Structure prediction by ZEFSAII (Michael W. Deem and Ramdas Pophale) SiO2 
 PCOD8012986
Probable space group: P -1
;
_chemical_formula_sum "Si O2"
_cell_formula_units_Z 12
_cell_length_a 13.512939
_cell_length_b 7.235881
_cell_length_c 8.491590
_cell_angle_alpha 54.632227
_cell_angle_beta 102.139193
_cell_angle_gamma 131.856768
_cell_volume 482.664379
_symmetry_space_group_name_H-M "P -1"
_symmetry_group_IT_number 2
_symmetry_cell_setting 'triclinic'
loop_
_space_group_symop_operation_xyz
x,y,z
-x,-y,-z
loop_
_atom_site_type_symbol
_atom_site_label
_atom_site_fract_x
_atom_site_fract_y
_atom_site_fract_z
Si Si1 0.912958 0.521408 0.127450
Si Si2 0.436944 0.598076 0.104264
Si Si3 0.557069 0.323652 0.295266
Si Si4 0.143665 0.200197 0.777372
Si Si5 0.046136 0.399391 0.430495
Si Si6 0.274490 0.733162 0.107149
O O1 0.837132 0.562674 0.208715
O O2 0.937755 0.297380 0.304991
O O3 0.832507 0.371094 0.014338
O O4 0.067393 0.865886 0.986931
O O5 0.434895 0.325175 0.271875
O O6 0.322179 0.541958 0.203938
O O7 0.402707 0.619329 0.903854
O O8 0.591922 0.908761 0.047466
O O9 0.695210 0.607860 0.300878
O O10 0.500000 0.000000 0.500000
O O11 0.047757 0.145758 0.625333
O O12 0.203578 0.672589 0.282190
O O13 0.000000 0.500000 0.500000
#
# Coordination Sequence:
#
# PCOD8012986 Si02
#       6
#     2   2   2   2   2   2
#     4  10  21  40  66  95 133 175 217 279 339 396
#     4  10  24  42  68  97 137 181 221 278 334 403
#     4  11  22  43  68  98 131 182 228 270 337 407
#     4  10  21  40  64  96 129 173 226 271 337 402
#     4  10  22  39  63  95 131 175 218 275 333 397
#     4  11  21  44  68 101 139 175 226 280 340 396
#
# _framework density 24.861996999999999
#
# number of rings (size 3 to 8) (size 9 to 14) (size 15 to 20)
#    0.000    1.667    1.667    2.500    0.000    2.000 
#    6.000   10.833    0.000    0.000    0.000    0.000 
#    0.000    0.000    0.000    0.000    0.000    0.000 
#
# Total GULP energy -148672.529664 kJ/mol
# GULP energy per Si atom -12389.377472 kJ/mol
# Density = 2.480541 g / cm^3
# Si number density = 24.861997 Si / 1000 Ang^3
#
#
#
# Elastic Constant Matrix: (Units=GPa)
#
#
# Indices 1 2 3 4 5 6 
#
# 1 155.6237 22.8639 73.3422 9.6839 3.1546 5.8774
# 2 22.8639 73.3451 23.3447 11.3582 13.4544 23.9545
# 3 73.3422 23.3447 113.4816 11.9337 24.5232 11.0774
# 4 9.6839 11.3582 11.9337 19.5299 1.3345 0.2335
# 5 3.1546 13.4544 24.5232 1.3345 52.4914 -0.1503
# 6 5.8774 23.9545 11.0774 0.2335 -0.1503 30.0229
#
#
#
# Elastic Compliance Matrix: (Units=1/GPa)
#
#
# Indices 1 2 3 4 5 6 
#
# 1 0.009806 -0.002348 -0.006835 0.000431 0.003202 0.002488
# 2 -0.002348 0.022949 0.001167 -0.012266 -0.006027 -0.018216
# 3 -0.006835 0.001167 0.015711 -0.006342 -0.007083 -0.005376
# 4 0.000431 -0.012266 -0.006342 0.061549 0.004549 0.011586
# 5 0.003202 -0.006027 -0.007083 0.004549 0.023616 0.006878
# 6 0.002488 -0.018216 -0.005376 0.011586 0.006878 0.049283
#
#
# Mechanical properties :
#
#
# Convention : Reuss Voigt Hill
#
# Bulk Modulus (GPa) = 30.83087 64.61687 47.72387
# Shear Modulus (GPa) = 23.83696 35.26880 29.55288
#
# Velocity S-wave (km/s) = 3.09976 3.77049 3.45146
# Velocity P-wave (km/s) = 5.02385 6.70836 5.92626
#
# Compressibility (1/GPa) = 0.03243502
#
# Stress axis : x y z
#
# Youngs Moduli (GPa) = 101.97763 43.57452 63.64827
#
# Poissons Ratio (x) = 0.10232 0.43501
# Poissons Ratio (y) = 0.23947 -0.07428
# Poissons Ratio (z) = 0.69698 -0.05086
#
# Static dielectric constant tensor:
#      x y z
#    x 5.080050 0.099470 0.171160 
#    y 0.099470 4.177570 0.346240 
#    z 0.171160 0.346240 4.559400 
# 
# 
# High freq. dielectric constant tensor:
#      x y z
#    x 2.019960 0.014400 0.013990 
#    y 0.014400 1.966350 0.019720 
#    z 0.013990 0.019720 1.975510 
# 
# From -- ./inp_files/184582.got.cif
#   From: 2010.06.25/outbox.cif.g09.slc.cpg/sg2_93_cif.got.tgz:184582.got - 2010.06.27 13:26:56.
