data_PCOD8012636
_publ_section_title
;
Structure prediction by ZEFSAII (Michael W. Deem and Ramdas Pophale) SiO2 
 PCOD8012636
Probable space group: P -1
;
_chemical_formula_sum "Si O2"
_cell_formula_units_Z 12
_cell_length_a 10.098048
_cell_length_b 10.187210
_cell_length_c 9.316453
_cell_angle_alpha 67.180485
_cell_angle_beta 63.057491
_cell_angle_gamma 39.714076
_cell_volume 544.605325
_symmetry_space_group_name_H-M "P -1"
_symmetry_group_IT_number 2
_symmetry_cell_setting 'triclinic'
loop_
_space_group_symop_operation_xyz
x,y,z
-x,-y,-z
loop_
_atom_site_type_symbol
_atom_site_label
_atom_site_fract_x
_atom_site_fract_y
_atom_site_fract_z
Si Si1 0.985724 0.783284 0.762101
Si Si2 0.186451 0.776110 0.938400
Si Si3 0.647421 0.592949 0.808856
Si Si4 0.430464 0.743073 0.296898
Si Si5 0.309904 0.514544 0.465557
Si Si6 0.318506 0.237067 0.027023
O O1 0.131507 0.772101 0.803419
O O2 0.106320 0.674183 0.600066
O O3 0.772926 0.017380 0.726336
O O4 0.911454 0.683480 0.912389
O O5 0.400509 0.719967 0.861884
O O6 0.206494 0.621661 0.089287
O O7 0.000000 0.000000 0.000000
O O8 0.742517 0.547594 0.620178
O O9 0.659038 0.732940 0.830011
O O10 0.381302 0.617662 0.319311
O O11 0.493844 0.692001 0.454910
O O12 0.640735 0.653334 0.142063
O O13 0.500000 0.000000 0.000000
#
# Coordination Sequence:
#
# PCOD8012636 Si02
#       6
#     2   2   2   2   2   2
#     4  11  23  40  64  91 122 163 207 249 304 367
#     4  11  22  39  65  92 121 163 212 254 296 362
#     4  11  23  39  60  92 127 159 204 256 307 363
#     4  10  21  40  62  89 124 161 203 251 306 364
#     4  11  22  37  62  92 125 160 198 254 313 363
#     4  10  22  43  64  87 124 166 208 253 303 363
#
# _framework density 22.034306999999998
#
# number of rings (size 3 to 8) (size 9 to 14) (size 15 to 20)
#    0.000    1.333    0.000    8.500    0.000    4.667 
#    0.000    3.333    0.000    0.000    0.000    0.000 
#    0.000    0.000    0.000    0.000    0.000    0.000 
#
# Total GULP energy -148798.747916 kJ/mol
# GULP energy per Si atom -12399.895660 kJ/mol
# Density = 2.198416 g / cm^3
# Si number density = 22.034307 Si / 1000 Ang^3
#
#
#
# Elastic Constant Matrix: (Units=GPa)
#
#
# Indices 1 2 3 4 5 6 
#
# 1 98.8519 38.1941 32.2327 9.8836 2.1296 9.3050
# 2 38.1941 102.0110 39.1875 12.6514 13.2666 -0.1142
# 3 32.2327 39.1875 104.9948 13.5562 7.4642 12.0250
# 4 9.8836 12.6514 13.5562 37.6433 11.1457 7.9940
# 5 2.1296 13.2666 7.4642 11.1457 49.2753 7.8139
# 6 9.3050 -0.1142 12.0250 7.9940 7.8139 37.7587
#
#
#
# Elastic Compliance Matrix: (Units=1/GPa)
#
#
# Indices 1 2 3 4 5 6 
#
# 1 0.012656 -0.004005 -0.002059 -0.001141 0.001505 -0.002545
# 2 -0.004005 0.013331 -0.003656 -0.001924 -0.002935 0.003206
# 3 -0.002059 -0.003656 0.012109 -0.002010 0.000164 -0.002969
# 4 -0.001141 -0.001924 -0.002010 0.030781 -0.005379 -0.004488
# 5 0.001505 -0.002935 0.000164 -0.005379 0.022849 -0.004022
# 6 -0.002545 0.003206 -0.002969 -0.004488 -0.004022 0.029849
#
#
# Mechanical properties :
#
#
# Convention : Reuss Voigt Hill
#
# Bulk Modulus (GPa) = 53.60218 58.34293 55.97256
# Shear Modulus (GPa) = 33.96002 38.01836 35.98919
#
# Velocity S-wave (km/s) = 3.93011 4.15832 4.04583
# Velocity P-wave (km/s) = 6.70626 7.04210 6.87623
#
# Compressibility (1/GPa) = 0.01865596
#
# Stress axis : x y z
#
# Youngs Moduli (GPa) = 79.01389 75.01451 82.58531
#
# Poissons Ratio (x) = 0.30041 0.17003
# Poissons Ratio (y) = 0.31643 0.30195
# Poissons Ratio (z) = 0.16268 0.27427
#
# Static dielectric constant tensor:
#      x y z
#    x 4.218270 0.069450 -0.152060 
#    y 0.069450 4.044830 -0.003460 
#    z -0.152060 -0.003460 4.257560 
# 
# 
# High freq. dielectric constant tensor:
#      x y z
#    x 1.861290 -0.005800 0.004790 
#    y -0.005800 1.881350 0.007560 
#    z 0.004790 0.007560 1.866890 
# 
# From -- ./inp_files/157077.got.cif
#   From: 2010.06.25/outbox.cif.g09.slc.cpg/sg2_79_cif.got.tgz:157077.got - 2010.06.27 13:26:56.
