data_PCOD8012099
_publ_section_title
;
Structure prediction by ZEFSAII (Michael W. Deem and Ramdas Pophale) SiO2 
 PCOD8012099
Probable space group: P -1
;
_chemical_formula_sum "Si O2"
_cell_formula_units_Z 16
_cell_length_a 10.472235
_cell_length_b 12.587837
_cell_length_c 8.896744
_cell_angle_alpha 126.367417
_cell_angle_beta 81.274523
_cell_angle_gamma 64.856626
_cell_volume 711.855993
_symmetry_space_group_name_H-M "P -1"
_symmetry_group_IT_number 2
_symmetry_cell_setting 'triclinic'
loop_
_space_group_symop_operation_xyz
x,y,z
-x,-y,-z
loop_
_atom_site_type_symbol
_atom_site_label
_atom_site_fract_x
_atom_site_fract_y
_atom_site_fract_z
Si Si1 0.605937 0.669488 0.319713
Si Si2 0.379766 0.582037 0.732518
Si Si3 0.808899 0.041063 0.943085
Si Si4 0.255163 0.141992 0.603995
Si Si5 0.695090 0.986803 0.195557
Si Si6 0.975271 0.148133 0.525880
Si Si7 0.505262 0.868439 0.100178
Si Si8 0.627648 0.530372 0.886720
O O1 0.696445 0.511894 0.292774
O O2 0.730518 0.711021 0.306272
O O3 0.427943 0.820572 0.556156
O O4 0.562320 0.613442 0.132499
O O5 0.500000 0.500000 0.500000
O O6 0.224533 0.781087 0.891583
O O7 0.479503 0.557862 0.845125
O O8 0.832821 0.963614 0.040755
O O9 0.646016 0.076105 0.932529
O O10 0.976461 0.914997 0.707990
O O11 0.091720 0.191743 0.593489
O O12 0.219873 0.142013 0.786172
O O13 0.427107 0.955938 0.355565
O O14 0.591097 0.944235 0.084720
O O15 0.786772 0.328460 0.704790
O O16 0.000000 0.000000 0.500000
O O17 0.650318 0.659012 0.909496
#
# Coordination Sequence:
#
# PCOD8012099 Si02
#       8
#     2   2   2   2   2   2   2   2
#     4  11  20  38  66  96 124 155 212 266 308 357
#     4  11  23  39  65  98 120 159 213 269 309 354
#     4  10  22  39  62  90 126 164 207 252 318 366
#     4  10  21  39  66  95 122 164 212 254 310 371
#     4  11  18  36  66  96 123 149 209 272 306 358
#     4  11  26  44  60  88 130 178 205 243 313 388
#     4   9  18  37  63  94 118 159 208 259 310 357
#     4  11  22  40  63  88 128 164 210 249 309 376
#
# _framework density 22.476455999999999
#
# number of rings (size 3 to 8) (size 9 to 14) (size 15 to 20)
#    0.000    1.500    3.750    2.250    1.750    0.500 
#    0.000    4.375    0.000    0.000    0.000    0.000 
#    0.000    0.000    0.000    0.000    0.000    0.000 
#
# Total GULP energy -198251.869205 kJ/mol
# GULP energy per Si atom -12390.741825 kJ/mol
# Density = 2.242530 g / cm^3
# Si number density = 22.476456 Si / 1000 Ang^3
#
#
#
# Elastic Constant Matrix: (Units=GPa)
#
#
# Indices 1 2 3 4 5 6 
#
# 1 46.4007 38.1706 22.3092 -3.3842 6.7895 14.8249
# 2 38.1706 142.2746 55.3959 -4.6724 -2.7088 41.6692
# 3 22.3092 55.3959 99.6019 0.0034 2.0000 23.1612
# 4 -3.3842 -4.6724 0.0034 40.0668 1.2967 -6.7064
# 5 6.7895 -2.7088 2.0000 1.2967 25.7610 0.7512
# 6 14.8249 41.6692 23.1612 -6.7064 0.7512 28.3244
#
#
#
# Elastic Compliance Matrix: (Units=1/GPa)
#
#
# Indices 1 2 3 4 5 6 
#
# 1 0.030406 -0.006050 -0.002188 0.001351 -0.008412 -0.004681
# 2 -0.006050 0.014673 -0.003068 -0.001674 0.003939 -0.016411
# 3 -0.002188 -0.003068 0.013596 -0.001496 -0.000557 -0.005798
# 4 0.001351 -0.001674 -0.001496 0.026501 -0.002021 0.009307
# 5 -0.008412 0.003939 -0.000557 -0.002021 0.041668 -0.002520
# 6 -0.004681 -0.016411 -0.005798 0.009307 -0.002520 0.068910
#
#
# Mechanical properties :
#
#
# Convention : Reuss Voigt Hill
#
# Bulk Modulus (GPa) = 27.73043 57.78097 42.75570
# Shear Modulus (GPa) = 21.70258 30.32386 26.01322
#
# Velocity S-wave (km/s) = 3.11073 3.67705 3.40568
# Velocity P-wave (km/s) = 5.02658 6.61745 5.87611
#
# Compressibility (1/GPa) = 0.03606147
#
# Stress axis : x y z
#
# Youngs Moduli (GPa) = 32.88874 68.15185 73.55060
#
# Poissons Ratio (x) = 0.41234 0.16092
# Poissons Ratio (y) = 0.19899 0.22568
# Poissons Ratio (z) = 0.07196 0.20912
#
# Static dielectric constant tensor:
#      x y z
#    x 3.911850 0.359430 0.419000 
#    y 0.359430 4.322130 0.007810 
#    z 0.419000 0.007810 4.176160 
# 
# 
# High freq. dielectric constant tensor:
#      x y z
#    x 1.866460 0.026580 0.029920 
#    y 0.026580 1.897940 -0.007740 
#    z 0.029920 -0.007740 1.879310 
# 
# From -- ./inp_files/259963.got.cif
#   From: 2010.06.25/outbox.cif.g09.slc.cpg/sg2_130_cif.got.tgz:259963.got - 2010.06.27 13:26:56.
