data_PCOD8012207
_publ_section_title
;
Structure prediction by ZEFSAII (Michael W. Deem and Ramdas Pophale) SiO2 
 PCOD8012207
Probable space group: P -1
;
_chemical_formula_sum "Si O2"
_cell_formula_units_Z 16
_cell_length_a 12.461624
_cell_length_b 18.617559
_cell_length_c 9.492537
_cell_angle_alpha 141.665251
_cell_angle_beta 142.372825
_cell_angle_gamma 33.999792
_cell_volume 697.195469
_symmetry_space_group_name_H-M "P -1"
_symmetry_group_IT_number 2
_symmetry_cell_setting 'triclinic'
loop_
_space_group_symop_operation_xyz
x,y,z
-x,-y,-z
loop_
_atom_site_type_symbol
_atom_site_label
_atom_site_fract_x
_atom_site_fract_y
_atom_site_fract_z
Si Si1 0.296817 0.569929 0.092674
Si Si2 0.711464 0.460317 0.501141
Si Si3 0.427885 0.977346 0.739769
Si Si4 0.133530 0.880304 0.342643
Si Si5 0.802026 0.564704 0.996691
Si Si6 0.831994 0.872305 0.807492
Si Si7 0.148508 0.197335 0.573575
Si Si8 0.879682 0.449881 0.382885
O O1 0.518940 0.464961 0.235756
O O2 0.208928 0.732275 0.263390
O O3 0.146874 0.533024 0.964014
O O4 0.311376 0.526991 0.878414
O O5 0.632562 0.561020 0.711293
O O6 0.798858 0.517233 0.556927
O O7 0.895011 0.302032 0.488211
O O8 0.343112 0.875908 0.509861
O O9 0.622377 0.919145 0.746976
O O10 0.234534 0.119647 0.692369
O O11 0.500000 0.000000 0.000000
O O12 0.000000 0.000000 0.500000
O O13 0.977282 0.915819 0.101868
O O14 0.738855 0.717911 0.208873
O O15 0.000000 0.500000 0.000000
O O16 0.787977 0.915452 0.661537
O O17 0.959601 0.710052 0.671517
O O18 0.000000 0.500000 0.500000
#
# Coordination Sequence:
#
# PCOD8012207 Si02
#       8
#     2   2   2   2   2   2   2   2
#     4  11  23  41  66 101 136 172 229 275 342 409
#     4  10  22  39  63  98 134 173 216 277 339 393
#     4  12  26  45  74  98 132 188 229 282 344 408
#     4  11  26  44  69 103 140 179 230 284 334 404
#     4  10  22  40  65  94 129 176 215 279 335 394
#     4  10  23  46  66 101 136 181 229 278 346 397
#     4  10  24  46  67 101 137 171 231 281 342 408
#     4  10  21  39  67  96 138 174 218 281 334 411
#
# _framework density 22.949086000000001
#
# number of rings (size 3 to 8) (size 9 to 14) (size 15 to 20)
#    0.000    1.500    1.250    3.375    7.000    0.500 
#    9.000    0.000    0.000    0.000    0.000    0.000 
#    0.000    0.000    0.000    0.000    0.000    0.000 
#
# Total GULP energy -198213.941896 kJ/mol
# GULP energy per Si atom -12388.371368 kJ/mol
# Density = 2.289685 g / cm^3
# Si number density = 22.949086 Si / 1000 Ang^3
#
#
#
# Elastic Constant Matrix: (Units=GPa)
#
#
# Indices 1 2 3 4 5 6 
#
# 1 74.8882 35.0121 24.1441 -6.1652 -9.3291 13.6009
# 2 35.0121 84.9905 46.8743 -23.3185 -7.3280 19.6744
# 3 24.1441 46.8743 116.4171 -10.8715 -24.4746 6.6051
# 4 -6.1652 -23.3185 -10.8715 40.2820 6.8687 5.8098
# 5 -9.3291 -7.3280 -24.4746 6.8687 52.6658 -2.4298
# 6 13.6009 19.6744 6.6051 5.8098 -2.4298 39.5497
#
#
#
# Elastic Compliance Matrix: (Units=1/GPa)
#
#
# Indices 1 2 3 4 5 6 
#
# 1 0.017064 -0.006351 -0.000557 -0.001210 0.001931 -0.002320
# 2 -0.006351 0.024256 -0.007309 0.013231 -0.003371 -0.010812
# 3 -0.000557 -0.007309 0.012365 -0.002181 0.005025 0.002392
# 4 -0.001210 0.013231 -0.002181 0.034047 -0.004338 -0.011069
# 5 0.001931 -0.003371 0.005025 -0.004338 0.021861 0.002154
# 6 -0.002320 -0.010812 0.002392 -0.011069 0.002154 0.032820
#
#
# Mechanical properties :
#
#
# Convention : Reuss Voigt Hill
#
# Bulk Modulus (GPa) = 39.60188 54.26186 46.93187
# Shear Modulus (GPa) = 27.89180 37.85053 32.87117
#
# Velocity S-wave (km/s) = 3.49001 4.06560 3.78875
# Velocity P-wave (km/s) = 5.79086 6.76273 6.29558
#
# Compressibility (1/GPa) = 0.02525133
#
# Stress axis : x y z
#
# Youngs Moduli (GPa) = 58.60194 41.22762 80.87064
#
# Poissons Ratio (x) = 0.26182 0.04508
# Poissons Ratio (y) = 0.37216 0.59107
# Poissons Ratio (z) = 0.03266 0.30133
#
# Static dielectric constant tensor:
#      x y z
#    x 4.678030 0.152060 -0.221370 
#    y 0.152060 3.918400 -0.363640 
#    z -0.221370 -0.363640 5.344750 
# 
# 
# High freq. dielectric constant tensor:
#      x y z
#    x 1.914490 0.010350 -0.011540 
#    y 0.010350 1.878020 -0.026160 
#    z -0.011540 -0.026160 1.931330 
# 
# From -- ./inp_files/280200.got.cif
#   From: 2010.06.25/outbox.cif.g09.slc.cpg/sg2_141_cif.got.tgz:280200.got - 2010.06.27 13:26:56.
