data_PCOD8012234
_publ_section_title
;
Structure prediction by ZEFSAII (Michael W. Deem and Ramdas Pophale) SiO2 
 PCOD8012234
Probable space group: P -1
;
_chemical_formula_sum "Si O2"
_cell_formula_units_Z 12
_cell_length_a 8.992969
_cell_length_b 4.988012
_cell_length_c 12.732596
_cell_angle_alpha 62.704010
_cell_angle_beta 88.082342
_cell_angle_gamma 84.457500
_cell_volume 505.138243
_symmetry_space_group_name_H-M "P -1"
_symmetry_group_IT_number 2
_symmetry_cell_setting 'triclinic'
loop_
_space_group_symop_operation_xyz
x,y,z
-x,-y,-z
loop_
_atom_site_type_symbol
_atom_site_label
_atom_site_fract_x
_atom_site_fract_y
_atom_site_fract_z
Si Si1 0.145446 0.397852 0.715964
Si Si2 0.052720 0.653615 0.074005
Si Si3 0.626745 0.630795 0.835904
Si Si4 0.127625 0.067160 0.567163
Si Si5 0.533342 0.776306 0.211642
Si Si6 0.608356 0.726733 0.590297
O O1 0.207278 0.728978 0.643353
O O2 0.291804 0.178534 0.785373
O O3 0.019316 0.451933 0.797909
O O4 0.070954 0.243489 0.644177
O O5 0.229942 0.570119 0.087572
O O6 0.000000 0.500000 0.000000
O O7 0.000000 0.000000 0.000000
O O8 0.494859 0.409443 0.860495
O O9 0.662453 0.791877 0.695751
O O10 0.560547 0.900642 0.863717
O O11 0.242505 0.294660 0.479562
O O12 0.000000 0.000000 0.500000
O O13 0.470800 0.591402 0.347370
O O14 0.500000 0.000000 0.500000
#
# Coordination Sequence:
#
# PCOD8012234 Si02
#       6
#     2   2   2   2   2   2
#     4  12  25  46  67 101 140 177 241 292 340 417
#     4  12  27  50  74  96 132 189 238 302 366 399
#     4  10  23  42  68 102 139 179 235 277 342 425
#     4  12  25  39  64 105 146 189 224 275 339 422
#     4  10  22  41  70  99 144 179 223 281 341 402
#     4  10  21  39  68 100 147 185 221 259 348 422
#
# _framework density 23.755873999999999
#
# number of rings (size 3 to 8) (size 9 to 14) (size 15 to 20)
#    1.000    0.000    1.667    5.500    2.333    2.667 
#    0.000    5.000    0.000    0.000    0.000    0.000 
#    0.000    0.000    0.000    0.000    0.000    0.000 
#
# Total GULP energy -148666.048788 kJ/mol
# GULP energy per Si atom -12388.837399 kJ/mol
# Density = 2.370180 g / cm^3
# Si number density = 23.755874 Si / 1000 Ang^3
#
#
#
# Elastic Constant Matrix: (Units=GPa)
#
#
# Indices 1 2 3 4 5 6 
#
# 1 99.3582 18.4538 19.0485 11.8761 14.0238 -1.9458
# 2 18.4538 153.6430 19.3798 12.0928 10.2017 1.9118
# 3 19.0485 19.3798 47.4979 21.5324 14.3456 6.9108
# 4 11.8761 12.0928 21.5324 41.3476 -3.6239 14.1336
# 5 14.0238 10.2017 14.3456 -3.6239 36.7644 0.1252
# 6 -1.9458 1.9118 6.9108 14.1336 0.1252 38.2026
#
#
#
# Elastic Compliance Matrix: (Units=1/GPa)
#
#
# Indices 1 2 3 4 5 6 
#
# 1 0.011528 -0.000653 -0.002182 -0.003041 -0.003672 0.002152
# 2 -0.000653 0.006971 -0.001784 -0.001145 -0.001103 0.000368
# 3 -0.002182 -0.001784 0.035395 -0.018729 -0.014332 0.000551
# 4 -0.003041 -0.001145 -0.018729 0.040247 0.012793 -0.011642
# 5 -0.003672 -0.001103 -0.014332 0.012793 0.035769 -0.002389
# 6 0.002152 0.000368 0.000551 -0.011642 -0.002389 0.030483
#
#
# Mechanical properties :
#
#
# Convention : Reuss Voigt Hill
#
# Bulk Modulus (GPa) = 22.39320 46.02927 34.21123
# Shear Modulus (GPa) = 27.09793 39.50403 33.30098
#
# Velocity S-wave (km/s) = 3.38106 4.08231 3.74812
# Velocity P-wave (km/s) = 4.96880 6.45278 5.75879
#
# Compressibility (1/GPa) = 0.04465641
#
# Stress axis : x y z
#
# Youngs Moduli (GPa) = 86.74427 143.45588 28.25234
#
# Poissons Ratio (x) = 0.09367 0.06165
# Poissons Ratio (y) = 0.05664 0.05039
# Poissons Ratio (z) = 0.18930 0.25587
#
# Static dielectric constant tensor:
#      x y z
#    x 4.646050 0.003420 0.591530 
#    y 0.003420 4.310820 -0.197330 
#    z 0.591530 -0.197330 5.149960 
# 
# 
# High freq. dielectric constant tensor:
#      x y z
#    x 1.936130 -0.004210 0.013040 
#    y -0.004210 1.949050 -0.002650 
#    z 0.013040 -0.002650 1.930090 
# 
# From -- ./inp_files/371670.got.cif
#   From: 2010.06.25/outbox.cif.g09.slc.cpg/sg2_186_cif.got.tgz:371670.got - 2010.06.27 13:26:56.
