data_PCOD8012915
_publ_section_title
;
Structure prediction by ZEFSAII (Michael W. Deem and Ramdas Pophale) SiO2 
 PCOD8012915
Probable space group: P -1
;
_chemical_formula_sum "Si O2"
_cell_formula_units_Z 16
_cell_length_a 23.370217
_cell_length_b 19.509982
_cell_length_c 6.971575
_cell_angle_alpha 60.079167
_cell_angle_beta 45.418035
_cell_angle_gamma 23.849752
_cell_volume 794.266041
_symmetry_space_group_name_H-M "P -1"
_symmetry_group_IT_number 2
_symmetry_cell_setting 'triclinic'
loop_
_space_group_symop_operation_xyz
x,y,z
-x,-y,-z
loop_
_atom_site_type_symbol
_atom_site_label
_atom_site_fract_x
_atom_site_fract_y
_atom_site_fract_z
Si Si1 0.513231 0.533103 0.619441
Si Si2 0.513900 0.716339 0.353619
Si Si3 0.776478 0.674870 0.306204
Si Si4 0.213565 0.505499 0.303989
Si Si5 0.766942 0.208291 0.746290
Si Si6 0.460628 0.016896 0.850133
Si Si7 0.239418 0.052091 0.264858
Si Si8 0.555987 0.234542 0.120811
O O1 0.500000 0.500000 0.500000
O O2 0.537004 0.603097 0.419908
O O3 0.704147 0.331211 0.569769
O O4 0.317082 0.693830 0.983380
O O5 0.515123 0.735139 0.548916
O O6 0.309442 0.932690 0.440545
O O7 0.699382 0.590150 0.981232
O O8 0.778414 0.580294 0.468610
O O9 0.673733 0.812814 0.533227
O O10 0.652025 0.806639 0.223249
O O11 0.000000 0.500000 0.000000
O O12 0.363379 0.429682 0.171269
O O13 0.997553 0.736861 0.474161
O O14 0.687891 0.193801 0.888545
O O15 0.000000 0.000000 0.500000
O O16 0.500000 0.000000 0.000000
O O17 0.319415 0.068240 0.083852
O O18 0.317499 0.948410 0.023251
#
# Coordination Sequence:
#
# PCOD8012915 Si02
#       8
#     2   2   2   2   2   2   2   2
#     4  10  21  40  64  91 126 165 204 261 313 369
#     4  10  23  40  61  92 128 162 208 258 314 372
#     4  11  23  44  65  93 124 166 211 258 319 372
#     4  11  23  42  63  92 127 165 214 257 313 378
#     4  10  23  41  66  96 126 164 217 256 313 377
#     4  11  25  43  66  91 127 162 210 265 313 374
#     4  11  23  42  62  93 124 167 212 259 314 375
#     4  10  23  43  64  89 130 169 204 265 313 371
#
# _framework density 20.144383000000001
#
# number of rings (size 3 to 8) (size 9 to 14) (size 15 to 20)
#    0.000    1.500    3.750    1.500    1.750    8.000 
#    2.250    0.000    0.000    0.000    0.000    0.000 
#    0.000    0.000    0.000    0.000    0.000    0.000 
#
# Total GULP energy -198405.145230 kJ/mol
# GULP energy per Si atom -12400.321577 kJ/mol
# Density = 2.009853 g / cm^3
# Si number density = 20.144383 Si / 1000 Ang^3
#
#
#
# Elastic Constant Matrix: (Units=GPa)
#
#
# Indices 1 2 3 4 5 6 
#
# 1 97.1912 41.6492 52.2545 8.2807 12.6291 -6.7892
# 2 41.6492 155.6570 75.1138 15.3882 1.2248 -8.0549
# 3 52.2545 75.1138 118.1447 11.1287 8.4249 -24.3135
# 4 8.2807 15.3882 11.1287 50.2388 -2.6203 -11.5590
# 5 12.6291 1.2248 8.4249 -2.6203 42.1664 -5.7113
# 6 -6.7892 -8.0549 -24.3135 -11.5590 -5.7113 27.0995
#
#
#
# Elastic Compliance Matrix: (Units=1/GPa)
#
#
# Indices 1 2 3 4 5 6 
#
# 1 0.014314 -0.000868 -0.006109 -0.001777 -0.003650 -0.003680
# 2 -0.000868 0.009810 -0.006499 -0.002310 0.000589 -0.003994
# 3 -0.006109 -0.006499 0.017857 0.002189 0.000426 0.013582
# 4 -0.001777 -0.002310 0.002189 0.023206 0.003147 0.011394
# 5 -0.003650 0.000589 0.000426 0.003147 0.025771 0.006417
# 6 -0.003680 -0.003994 0.013582 0.011394 0.006417 0.053190
#
#
# Mechanical properties :
#
#
# Convention : Reuss Voigt Hill
#
# Bulk Modulus (GPa) = 66.54071 78.78089 72.66080
# Shear Modulus (GPa) = 28.39124 37.36594 32.87859
#
# Velocity S-wave (km/s) = 3.75825 4.31153 4.04437
# Velocity P-wave (km/s) = 7.20668 7.99867 7.61298
#
# Compressibility (1/GPa) = 0.01502839
#
# Stress axis : x y z
#
# Youngs Moduli (GPa) = 69.86160 101.93557 56.00146
#
# Poissons Ratio (x) = 0.08851 0.34209
# Poissons Ratio (y) = 0.06066 0.36398
# Poissons Ratio (z) = 0.42675 0.66252
#
# Static dielectric constant tensor:
#      x y z
#    x 3.275560 0.494980 0.199970 
#    y 0.494980 4.722050 -1.173530 
#    z 0.199970 -1.173530 4.343870 
# 
# 
# High freq. dielectric constant tensor:
#      x y z
#    x 1.776880 0.006040 0.006250 
#    y 0.006040 1.798890 -0.009680 
#    z 0.006250 -0.009680 1.797430 
# 
# From -- ./inp_files/125003.got.cif
#   From: 2010.06.25/outbox.cif.g09.slc.cpg/sg2_63_cif.got.tgz:125003.got - 2010.06.27 13:26:56.
