data_PCOD8012796
_publ_section_title
;
Structure prediction by ZEFSAII (Michael W. Deem and Ramdas Pophale) SiO2 
 PCOD8012796
Probable space group: P -1
;
_chemical_formula_sum "Si O2"
_cell_formula_units_Z 14
_cell_length_a 14.358321
_cell_length_b 7.988534
_cell_length_c 19.208710
_cell_angle_alpha 65.410623
_cell_angle_beta 159.285784
_cell_angle_gamma 103.591552
_cell_volume 621.870745
_symmetry_space_group_name_H-M "P -1"
_symmetry_group_IT_number 2
_symmetry_cell_setting 'triclinic'
loop_
_space_group_symop_operation_xyz
x,y,z
-x,-y,-z
loop_
_atom_site_type_symbol
_atom_site_label
_atom_site_fract_x
_atom_site_fract_y
_atom_site_fract_z
Si Si1 0.317915 0.161922 0.678146
Si Si2 0.543267 0.274599 0.440502
Si Si3 0.684666 0.248291 0.811332
Si Si4 0.644913 0.760625 0.159757
Si Si5 0.782568 0.364063 0.173418
Si Si6 0.374094 0.959999 0.326230
Si Si7 0.145855 0.271797 0.834345
O O1 0.511273 0.253513 0.759129
O O2 0.196576 0.289682 0.644617
O O3 0.044166 0.183028 0.434965
O O4 0.530276 0.917512 0.886674
O O5 0.333218 0.524591 0.246824
O O6 0.461790 0.203374 0.468536
O O7 0.889634 0.216470 0.686118
O O8 0.480104 0.138202 0.361509
O O9 0.537845 0.182028 0.656677
O O10 0.025737 0.071924 0.082673
O O11 0.877993 0.653033 0.277143
O O12 0.351671 0.724035 0.964371
O O13 0.500000 0.000000 0.000000
O O14 0.899676 0.517144 0.194215
O O15 0.500000 0.500000 0.000000
#
# Coordination Sequence:
#
# PCOD8012796 Si02
#       7
#     2   2   2   2   2   2   2
#     4  11  22  42  65  91 133 170 213 272 317 392
#     4  11  21  43  66  94 127 172 215 275 327 394
#     4  11  22  42  64  95 129 169 220 268 333 390
#     4   9  22  40  63  93 129 169 211 263 320 386
#     4  10  22  41  62  92 127 170 216 260 324 387
#     4  10  24  41  66  94 130 166 219 275 333 381
#     4  10  21  40  63  92 131 165 219 263 323 392
#
# _framework density 22.512716000000001
#
# number of rings (size 3 to 8) (size 9 to 14) (size 15 to 20)
#    0.000    1.714    2.857    0.857    0.000    9.714 
#    2.571    1.429    0.000    0.000    0.000    0.000 
#    0.000    0.000    0.000    0.000    0.000    0.000 
#
# Total GULP energy -173484.288885 kJ/mol
# GULP energy per Si atom -12391.734920 kJ/mol
# Density = 2.246148 g / cm^3
# Si number density = 22.512716 Si / 1000 Ang^3
#
#
#
# Elastic Constant Matrix: (Units=GPa)
#
#
# Indices 1 2 3 4 5 6 
#
# 1 75.2120 34.0626 8.1539 -1.7903 -4.2740 7.5495
# 2 34.0626 140.2331 -7.0957 13.2114 -9.9780 2.1364
# 3 8.1539 -7.0957 58.0450 2.3507 -5.2941 1.9490
# 4 -1.7903 13.2114 2.3507 42.1197 3.0938 -2.1252
# 5 -4.2740 -9.9780 -5.2941 3.0938 33.3617 1.4083
# 6 7.5495 2.1364 1.9490 -2.1252 1.4083 21.5877
#
#
#
# Elastic Compliance Matrix: (Units=1/GPa)
#
#
# Indices 1 2 3 4 5 6 
#
# 1 0.015978 -0.004081 -0.002616 0.001831 0.000444 -0.004796
# 2 -0.004081 0.008723 0.002021 -0.003227 0.002711 -0.000113
# 3 -0.002616 0.002021 0.018285 -0.002086 0.003422 -0.001365
# 4 0.001831 -0.003227 -0.002086 0.025338 -0.003521 0.002592
# 5 0.000444 0.002711 0.003422 -0.003521 0.031845 -0.003156
# 6 -0.004796 -0.000113 -0.001365 0.002592 -0.003156 0.048596
#
#
# Mechanical properties :
#
#
# Convention : Reuss Voigt Hill
#
# Bulk Modulus (GPa) = 29.73130 38.19240 33.96185
# Shear Modulus (GPa) = 29.52857 35.30511 32.41684
#
# Velocity S-wave (km/s) = 3.62559 3.96438 3.79876
# Velocity P-wave (km/s) = 5.54631 6.16091 5.86167
#
# Compressibility (1/GPa) = 0.03363459
#
# Stress axis : x y z
#
# Youngs Moduli (GPa) = 62.58626 114.63602 54.68961
#
# Poissons Ratio (x) = 0.46786 0.14307
# Poissons Ratio (y) = 0.25543 -0.11055
# Poissons Ratio (z) = 0.16373 -0.23173
#
# Static dielectric constant tensor:
#      x y z
#    x 4.688390 -0.497190 -0.071900 
#    y -0.497190 4.988290 0.212210 
#    z -0.071900 0.212210 4.296020 
# 
# 
# High freq. dielectric constant tensor:
#      x y z
#    x 1.866220 0.004960 -0.001270 
#    y 0.004960 1.904730 -0.003600 
#    z -0.001270 -0.003600 1.885050 
# 
# From -- ./inp_files/597343.got.cif
#   From: 2010.06.25/outbox.cif.g09.slc.cpg/sg2_299_cif.got.tgz:597343.got - 2010.06.27 13:26:56.
