data_PCOD8012296
_publ_section_title
;
Structure prediction by ZEFSAII (Michael W. Deem and Ramdas Pophale) SiO2 
 PCOD8012296
Probable space group: P -1
;
_chemical_formula_sum "Si O2"
_cell_formula_units_Z 16
_cell_length_a 18.680669
_cell_length_b 12.385585
_cell_length_c 8.409811
_cell_angle_alpha 129.601877
_cell_angle_beta 64.397003
_cell_angle_gamma 148.310228
_cell_volume 757.772700
_symmetry_space_group_name_H-M "P -1"
_symmetry_group_IT_number 2
_symmetry_cell_setting 'triclinic'
loop_
_space_group_symop_operation_xyz
x,y,z
-x,-y,-z
loop_
_atom_site_type_symbol
_atom_site_label
_atom_site_fract_x
_atom_site_fract_y
_atom_site_fract_z
Si Si1 0.895353 0.519215 0.083641
Si Si2 0.148505 0.583426 0.335873
Si Si3 0.626957 0.275033 0.218769
Si Si4 0.816631 0.127838 0.934500
Si Si5 0.829085 0.093971 0.248640
Si Si6 0.631413 0.284361 0.594416
Si Si7 0.494843 0.344805 0.281432
Si Si8 0.390963 0.448299 0.981983
O O1 0.782649 0.477286 0.183412
O O2 0.064765 0.806491 0.193492
O O3 0.865342 0.419702 0.841888
O O4 0.881213 0.378707 0.100085
O O5 0.223594 0.837130 0.558698
O O6 0.237823 0.579968 0.300210
O O7 0.997789 0.335315 0.331323
O O8 0.647536 0.276918 0.385850
O O9 0.589205 0.381122 0.331897
O O10 0.500000 0.000000 0.000000
O O11 0.670010 0.932647 0.800748
O O12 0.779669 0.023037 0.047258
O O13 0.758784 0.853947 0.172152
O O14 0.500000 0.000000 0.500000
O O15 0.618026 0.429501 0.781011
O O16 0.500000 0.500000 0.500000
O O17 0.555440 0.424280 0.120902
O O18 0.500000 0.500000 0.000000
#
# Coordination Sequence:
#
# PCOD8012296 Si02
#       8
#     2   2   2   2   2   2   2   2
#     4  10  21  39  68  98 127 167 214 270 319 383
#     4  10  22  41  67  97 126 168 217 263 324 381
#     4  12  24  43  66  95 127 168 220 267 319 385
#     4  10  21  40  65  94 134 165 213 262 324 377
#     4  10  22  41  67  95 129 169 215 266 318 390
#     4  12  26  42  66  95 130 170 217 268 321 383
#     4  12  26  42  64  97 132 172 211 265 324 388
#     4  12  24  42  67  94 130 171 214 265 326 378
#
# _framework density 21.114509999999999
#
# number of rings (size 3 to 8) (size 9 to 14) (size 15 to 20)
#    0.000    1.000    2.500    4.500    1.750    1.500 
#    0.000    0.625    0.000    0.000    0.000    0.000 
#    0.000    0.000    0.000    0.000    0.000    0.000 
#
# Total GULP energy -198305.152523 kJ/mol
# GULP energy per Si atom -12394.072033 kJ/mol
# Density = 2.106645 g / cm^3
# Si number density = 21.114510 Si / 1000 Ang^3
#
#
#
# Elastic Constant Matrix: (Units=GPa)
#
#
# Indices 1 2 3 4 5 6 
#
# 1 119.2838 38.3492 13.2478 0.0828 -12.8929 19.5840
# 2 38.3492 121.0635 35.4615 -0.4507 -6.5365 13.0084
# 3 13.2478 35.4615 75.3081 -1.7553 -21.1156 4.7266
# 4 0.0828 -0.4507 -1.7553 31.3788 -4.2450 -3.5005
# 5 -12.8929 -6.5365 -21.1156 -4.2450 37.7469 -5.5065
# 6 19.5840 13.0084 4.7266 -3.5005 -5.5065 38.1557
#
#
#
# Elastic Compliance Matrix: (Units=1/GPa)
#
#
# Indices 1 2 3 4 5 6 
#
# 1 0.010166 -0.002808 0.000535 -0.000113 0.002697 -0.003948
# 2 -0.002808 0.010728 -0.005098 -0.000658 -0.002316 -0.001979
# 3 0.000535 -0.005098 0.018386 0.002398 0.009978 0.000846
# 4 -0.000113 -0.000658 0.002398 0.033160 0.005475 0.003817
# 5 0.002697 -0.002316 0.009978 0.005475 0.033726 0.003539
# 6 -0.003948 -0.001979 0.000846 0.003817 0.003539 0.029666
#
#
# Mechanical properties :
#
#
# Convention : Reuss Voigt Hill
#
# Bulk Modulus (GPa) = 40.75211 54.41915 47.58563
# Shear Modulus (GPa) = 31.49527 36.69606 34.09567
#
# Velocity S-wave (km/s) = 3.86637 4.17340 4.02281
# Velocity P-wave (km/s) = 6.26691 7.00374 6.64554
#
# Compressibility (1/GPa) = 0.02453861
#
# Stress axis : x y z
#
# Youngs Moduli (GPa) = 98.36321 93.21331 54.38944
#
# Poissons Ratio (x) = 0.26171 -0.02910
# Poissons Ratio (y) = 0.27617 0.27729
# Poissons Ratio (z) = -0.05263 0.47523
#
# Static dielectric constant tensor:
#      x y z
#    x 3.897860 0.064920 -0.207220 
#    y 0.064920 4.131400 -0.257050 
#    z -0.207220 -0.257050 3.500400 
# 
# 
# High freq. dielectric constant tensor:
#      x y z
#    x 1.839970 0.010260 0.006890 
#    y 0.010260 1.841550 -0.012550 
#    z 0.006890 -0.012550 1.808610 
# 
# From -- ./inp_files/333742.got.cif
#   From: 2010.06.25/outbox.cif.g09.slc.cpg/sg2_167_cif.got.tgz:333742.got - 2010.06.27 13:26:56.
