data_PCOD8012721
_publ_section_title
;
Structure prediction by ZEFSAII (Michael W. Deem and Ramdas Pophale) SiO2 
 PCOD8012721
Probable space group: P -1
;
_chemical_formula_sum "Si O2"
_cell_formula_units_Z 10
_cell_length_a 14.317830
_cell_length_b 23.652287
_cell_length_c 20.575102
_cell_angle_alpha 169.954752
_cell_angle_beta 20.993032
_cell_angle_gamma 158.009854
_cell_volume 431.880409
_symmetry_space_group_name_H-M "P -1"
_symmetry_group_IT_number 2
_symmetry_cell_setting 'triclinic'
loop_
_space_group_symop_operation_xyz
x,y,z
-x,-y,-z
loop_
_atom_site_type_symbol
_atom_site_label
_atom_site_fract_x
_atom_site_fract_y
_atom_site_fract_z
Si Si1 0.167182 0.195933 0.419381
Si Si2 0.708407 0.502666 0.454980
Si Si3 0.415096 0.516756 0.147986
Si Si4 0.592530 0.247033 0.851814
Si Si5 0.872495 0.664348 0.671215
O O1 0.397372 0.371409 0.514113
O O2 0.241465 0.247601 0.354103
O O3 0.899146 0.343779 0.779077
O O4 0.130322 0.804690 0.010491
O O5 0.799838 0.702548 0.686245
O O6 0.098640 0.423579 0.256202
O O7 0.506670 0.888113 0.530103
O O8 0.500000 0.500000 0.000000
O O9 0.554780 0.272565 0.826978
O O10 0.395536 0.474666 0.272685
O O11 0.000000 0.000000 0.000000
#
# Coordination Sequence:
#
# PCOD8012721 Si02
#       5
#     2   2   2   2   2
#     4  10  21  40  63  86 111 153 200 240 281 335
#     4  10  22  40  62  85 116 152 196 240 283 341
#     4  11  22  37  58  82 115 155 193 233 279 342
#     4  11  22  36  57  85 116 148 191 237 288 340
#     4  10  23  39  58  88 123 153 187 237 295 345
#
# _framework density 23.154558000000002
#
# number of rings (size 3 to 8) (size 9 to 14) (size 15 to 20)
#    0.000    1.600    0.000    4.800    0.000    8.800 
#    0.000    0.000    0.000   13.200    0.000    0.000 
#    0.000    0.000    0.000    0.000    0.000    0.000 
#
# Total GULP energy -123958.656589 kJ/mol
# GULP energy per Si atom -12395.865659 kJ/mol
# Density = 2.310186 g / cm^3
# Si number density = 23.154558 Si / 1000 Ang^3
#
#
#
# Elastic Constant Matrix: (Units=GPa)
#
#
# Indices 1 2 3 4 5 6 
#
# 1 113.0767 24.1746 26.9478 -3.8384 -4.0862 23.7328
# 2 24.1746 112.7745 39.1987 -44.2371 -8.1594 20.9327
# 3 26.9478 39.1987 46.4406 -19.9900 -9.0744 13.7454
# 4 -3.8384 -44.2371 -19.9900 52.5522 3.4645 -13.7681
# 5 -4.0862 -8.1594 -9.0744 3.4645 37.3604 0.7181
# 6 23.7328 20.9327 13.7454 -13.7681 0.7181 35.8533
#
#
#
# Elastic Compliance Matrix: (Units=1/GPa)
#
#
# Indices 1 2 3 4 5 6 
#
# 1 0.011606 -0.000699 -0.005762 -0.003639 0.000179 -0.006466
# 2 -0.000699 0.016183 -0.008304 0.009842 0.000567 -0.002033
# 3 -0.005762 -0.008304 0.036247 0.005094 0.005953 -0.003397
# 4 -0.003639 0.009842 0.005094 0.030685 0.000019 0.006492
# 5 0.000179 0.000567 0.005953 0.000019 0.028417 -0.003294
# 6 -0.006466 -0.002033 -0.003397 0.006492 -0.003294 0.037220
#
#
# Mechanical properties :
#
#
# Convention : Reuss Voigt Hill
#
# Bulk Modulus (GPa) = 28.98106 50.32599 39.65353
# Shear Modulus (GPa) = 24.82722 37.28455 31.05588
#
# Velocity S-wave (km/s) = 3.27806 4.01714 3.66627
# Velocity P-wave (km/s) = 5.18373 6.58016 5.92324
#
# Compressibility (1/GPa) = 0.03450530
#
# Stress axis : x y z
#
# Youngs Moduli (GPa) = 86.16003 61.79398 27.58847
#
# Poissons Ratio (x) = 0.04321 0.15896
# Poissons Ratio (y) = 0.06025 0.22910
# Poissons Ratio (z) = 0.49644 0.51315
#
# Static dielectric constant tensor:
#      x y z
#    x 4.092350 0.153780 -0.254070 
#    y 0.153780 4.521240 -0.435630 
#    z -0.254070 -0.435630 4.263190 
# 
# 
# High freq. dielectric constant tensor:
#      x y z
#    x 1.912300 0.006950 -0.022470 
#    y 0.006950 1.923980 -0.018780 
#    z -0.022470 -0.018780 1.890250 
# 
# From -- ./inp_files/15583.got.cif
#   From: 2010.06.25/outbox.cif.g09.slc.cpg/sg2_8_cif.got.tgz:15583.got - 2010.06.27 13:26:56.
