data_PCOD8012662
_publ_section_title
;
Structure prediction by ZEFSAII (Michael W. Deem and Ramdas Pophale) SiO2 
 PCOD8012662
Probable space group: P -1
;
_chemical_formula_sum "Si O2"
_cell_formula_units_Z 14
_cell_length_a 12.155047
_cell_length_b 14.006904
_cell_length_c 12.401424
_cell_angle_alpha 134.585270
_cell_angle_beta 23.238034
_cell_angle_gamma 133.587205
_cell_volume 585.843195
_symmetry_space_group_name_H-M "P -1"
_symmetry_group_IT_number 2
_symmetry_cell_setting 'triclinic'
loop_
_space_group_symop_operation_xyz
x,y,z
-x,-y,-z
loop_
_atom_site_type_symbol
_atom_site_label
_atom_site_fract_x
_atom_site_fract_y
_atom_site_fract_z
Si Si1 0.541816 0.316030 0.995631
Si Si2 0.862575 0.232020 0.222984
Si Si3 0.603990 0.158675 0.027192
Si Si4 0.334614 0.055923 0.595976
Si Si5 0.932387 0.232294 0.409028
Si Si6 0.203465 0.316612 0.630551
Si Si7 0.633059 0.471109 0.524970
O O1 0.491959 0.458334 0.204303
O O2 0.268210 0.257918 0.126816
O O3 0.590774 0.207890 0.956144
O O4 0.804158 0.331673 0.687581
O O5 0.576769 0.134257 0.362519
O O6 0.834263 0.257292 0.396357
O O7 0.856223 0.374389 0.282364
O O8 0.134928 0.163594 0.897778
O O9 0.908525 0.223685 0.853471
O O10 0.391672 0.210757 0.339401
O O11 0.500000 0.000000 0.000000
O O12 0.500000 0.000000 0.500000
O O13 0.159756 0.924057 0.592111
O O14 0.346568 0.397914 0.668354
O O15 0.176636 0.422731 0.641789
#
# Coordination Sequence:
#
# PCOD8012662 Si02
#       7
#     2   2   2   2   2   2   2
#     4  11  24  40  63  92 135 173 211 274 327 391
#     4  11  23  39  67  96 129 174 225 269 315 409
#     4  11  24  44  69  99 126 167 224 275 337 398
#     4  10  21  40  62  91 128 169 221 275 324 376
#     4  11  22  40  62  92 132 175 211 270 340 377
#     4  10  24  45  69  93 135 174 214 286 331 378
#     4  10  25  44  66  99 133 180 230 263 330 394
#
# _framework density 23.897179999999999
#
# number of rings (size 3 to 8) (size 9 to 14) (size 15 to 20)
#    0.000    1.429    0.000    6.429    0.000   15.429 
#    0.000    0.000    0.000    0.000    0.000    0.000 
#    0.000    0.000    0.000    0.000    0.000    0.000 
#
# Total GULP energy -173554.435405 kJ/mol
# GULP energy per Si atom -12396.745386 kJ/mol
# Density = 2.384279 g / cm^3
# Si number density = 23.897180 Si / 1000 Ang^3
#
#
#
# Elastic Constant Matrix: (Units=GPa)
#
#
# Indices 1 2 3 4 5 6 
#
# 1 57.0563 31.6920 13.9453 19.2588 -8.1066 4.4491
# 2 31.6920 136.4032 42.4730 14.8690 -22.1370 1.4502
# 3 13.9453 42.4730 158.2150 4.1955 -12.3667 3.9712
# 4 19.2588 14.8690 4.1955 54.1320 -0.4973 -16.9008
# 5 -8.1066 -22.1370 -12.3667 -0.4973 27.6138 9.7942
# 6 4.4491 1.4502 3.9712 -16.9008 9.7942 37.2168
#
#
#
# Elastic Compliance Matrix: (Units=1/GPa)
#
#
# Indices 1 2 3 4 5 6 
#
# 1 0.024965 -0.003117 -0.000187 -0.011057 0.008092 -0.009994
# 2 -0.003117 0.010069 -0.001721 -0.002340 0.007349 -0.002833
# 3 -0.000187 -0.001721 0.007019 -0.000434 0.002212 -0.001439
# 4 -0.011057 -0.002340 -0.000434 0.028356 -0.010909 0.017207
# 5 0.008092 0.007349 0.002212 -0.010909 0.052456 -0.020248
# 6 -0.009994 -0.002833 -0.001439 0.017207 -0.020248 0.041471
#
#
# Mechanical properties :
#
#
# Convention : Reuss Voigt Hill
#
# Bulk Modulus (GPa) = 31.24699 58.65501 44.95100
# Shear Modulus (GPa) = 27.01913 41.36348 34.19130
#
# Velocity S-wave (km/s) = 3.36615 4.16491 3.78665
# Velocity P-wave (km/s) = 5.31149 6.90845 6.16192
#
# Compressibility (1/GPa) = 0.03200308
#
# Stress axis : x y z
#
# Youngs Moduli (GPa) = 40.05632 99.31273 142.46207
#
# Poissons Ratio (x) = 0.30960 0.02665
# Poissons Ratio (y) = 0.12487 0.24514
# Poissons Ratio (z) = 0.00749 0.17089
#
# Static dielectric constant tensor:
#      x y z
#    x 4.209130 0.176920 -0.119520 
#    y 0.176920 4.779380 -0.072900 
#    z -0.119520 -0.072900 4.285810 
# 
# 
# High freq. dielectric constant tensor:
#      x y z
#    x 1.942150 0.012550 -0.008530 
#    y 0.012550 1.953180 0.001190 
#    z -0.008530 0.001190 1.957910 
# 
# From -- ./inp_files/534391.got.cif
#   From: 2010.06.25/outbox.cif.g09.slc.cpg/sg2_268_cif.got.tgz:534391.got - 2010.06.27 13:26:56.
