data_PCOD8012931
_publ_section_title
;
Structure prediction by ZEFSAII (Michael W. Deem and Ramdas Pophale) SiO2 
 PCOD8012931
Probable space group: P -1
;
_chemical_formula_sum "Si O2"
_cell_formula_units_Z 16
_cell_length_a 11.479568
_cell_length_b 24.128084
_cell_length_c 9.109318
_cell_angle_alpha 142.423349
_cell_angle_beta 135.484825
_cell_angle_gamma 27.237720
_cell_volume 703.891190
_symmetry_space_group_name_H-M "P -1"
_symmetry_group_IT_number 2
_symmetry_cell_setting 'triclinic'
loop_
_space_group_symop_operation_xyz
x,y,z
-x,-y,-z
loop_
_atom_site_type_symbol
_atom_site_label
_atom_site_fract_x
_atom_site_fract_y
_atom_site_fract_z
Si Si1 0.881970 0.064128 0.187101
Si Si2 0.959182 0.450677 0.103789
Si Si3 0.550526 0.874350 0.129410
Si Si4 0.332760 0.664420 0.374192
Si Si5 0.379220 0.949830 0.468607
Si Si6 0.829177 0.391536 0.126089
Si Si7 0.778964 0.402808 0.607311
Si Si8 0.135432 0.301790 0.467860
O O1 0.665614 0.230855 0.364013
O O2 0.710225 0.045508 0.027259
O O3 0.118897 0.999474 0.364969
O O4 0.000000 0.000000 0.000000
O O5 0.798395 0.483887 0.170406
O O6 0.981085 0.549218 0.327911
O O7 0.817468 0.484357 0.893271
O O8 0.232244 0.291012 0.039279
O O9 0.487964 0.897858 0.294445
O O10 0.651806 0.929115 0.274406
O O11 0.614506 0.503579 0.291570
O O12 0.158331 0.694148 0.409788
O O13 0.209439 0.690037 0.158601
O O14 0.567894 0.825474 0.494712
O O15 0.092917 0.278845 0.217629
O O16 0.500000 0.500000 0.500000
O O17 0.984615 0.304037 0.456943
#
# Coordination Sequence:
#
# PCOD8012931 Si02
#       8
#     2   2   2   2   2   2   2   2
#     4  10  22  38  66  93 125 176 218 268 326 396
#     4  11  23  41  64  95 131 172 221 270 327 396
#     4  10  21  40  64  92 130 172 215 270 333 394
#     4  10  21  41  63  97 129 170 226 261 328 405
#     4  10  22  39  60  96 134 163 218 275 329 390
#     4  10  22  40  65  91 135 179 209 267 334 400
#     4  11  22  35  62  96 132 164 210 285 335 375
#     4  12  23  39  62  98 131 166 218 277 333 380
#
# _framework density 22.730786999999999
#
# number of rings (size 3 to 8) (size 9 to 14) (size 15 to 20)
#    0.000    1.500    2.500    3.000    3.500    1.000 
#    0.000    2.500    0.000    2.250    0.000    0.000 
#    0.000    0.000    0.000    0.000    0.000    0.000 
#
# Total GULP energy -198209.396556 kJ/mol
# GULP energy per Si atom -12388.087285 kJ/mol
# Density = 2.267905 g / cm^3
# Si number density = 22.730787 Si / 1000 Ang^3
#
#
#
# Elastic Constant Matrix: (Units=GPa)
#
#
# Indices 1 2 3 4 5 6 
#
# 1 57.0880 25.0211 21.9248 -9.1785 8.0715 -10.0064
# 2 25.0211 128.0796 55.7910 -21.9246 15.8806 -19.1136
# 3 21.9248 55.7910 113.9872 -11.8907 10.9681 -8.4102
# 4 -9.1785 -21.9246 -11.8907 46.7055 -9.9964 5.0590
# 5 8.0715 15.8806 10.9681 -9.9964 29.6009 -10.8643
# 6 -10.0064 -19.1136 -8.4102 5.0590 -10.8643 31.9180
#
#
#
# Elastic Compliance Matrix: (Units=1/GPa)
#
#
# Indices 1 2 3 4 5 6 
#
# 1 0.020444 -0.001876 -0.002387 0.001754 -0.001696 0.003801
# 2 -0.001876 0.011447 -0.004478 0.003118 -0.001408 0.004113
# 3 -0.002387 -0.004478 0.011515 0.000138 -0.001508 -0.000931
# 4 0.001754 0.003118 0.000138 0.024535 0.006350 0.000726
# 5 -0.001696 -0.001408 -0.001508 0.006350 0.041921 0.011491
# 6 0.003801 0.004113 -0.000931 0.000726 0.011491 0.038536
#
#
# Mechanical properties :
#
#
# Convention : Reuss Voigt Hill
#
# Bulk Modulus (GPa) = 38.57523 56.06984 47.32253
# Shear Modulus (GPa) = 28.65000 34.73940 31.69470
#
# Velocity S-wave (km/s) = 3.55407 3.91359 3.73815
# Velocity P-wave (km/s) = 5.81801 6.71878 6.28455
#
# Compressibility (1/GPa) = 0.02592337
#
# Stress axis : x y z
#
# Youngs Moduli (GPa) = 48.91378 87.36187 86.84688
#
# Poissons Ratio (x) = 0.16389 0.20734
# Poissons Ratio (y) = 0.09176 0.38886
# Poissons Ratio (z) = 0.11678 0.39116
#
# Static dielectric constant tensor:
#      x y z
#    x 4.232540 -0.260440 -0.008660 
#    y -0.260440 3.957860 -0.370750 
#    z -0.008660 -0.370750 4.541670 
# 
# 
# High freq. dielectric constant tensor:
#      x y z
#    x 1.884570 -0.028420 0.003690 
#    y -0.028420 1.876310 -0.022850 
#    z 0.003690 -0.022850 1.905390 
# 
# From -- ./inp_files/283445.got.cif
#   From: 2010.06.25/outbox.cif.g09.slc.cpg/sg2_142_cif.got.tgz:283445.got - 2010.06.27 13:26:56.
