data_PCOD8012315
_publ_section_title
;
Structure prediction by ZEFSAII (Michael W. Deem and Ramdas Pophale) SiO2 
 PCOD8012315
Probable space group: P -1
;
_chemical_formula_sum "Si O2"
_cell_formula_units_Z 16
_cell_length_a 8.503409
_cell_length_b 22.532945
_cell_length_c 8.594455
_cell_angle_alpha 125.981239
_cell_angle_beta 121.983758
_cell_angle_gamma 30.820150
_cell_volume 681.480712
_symmetry_space_group_name_H-M "P -1"
_symmetry_group_IT_number 2
_symmetry_cell_setting 'triclinic'
loop_
_space_group_symop_operation_xyz
x,y,z
-x,-y,-z
loop_
_atom_site_type_symbol
_atom_site_label
_atom_site_fract_x
_atom_site_fract_y
_atom_site_fract_z
Si Si1 0.479603 0.742277 0.361478
Si Si2 0.977525 0.332587 0.927011
Si Si3 0.324491 0.971777 0.962707
Si Si4 0.520065 0.754095 0.750708
Si Si5 0.482330 0.598826 0.987953
Si Si6 0.164112 0.758159 0.766665
Si Si7 0.243907 0.052138 0.717544
Si Si8 0.688477 0.820219 0.428597
O O1 0.612746 0.716167 0.561023
O O2 0.554378 0.783400 0.344683
O O3 0.116090 0.840610 0.330845
O O4 0.639186 0.619271 0.185985
O O5 0.724668 0.456425 0.883899
O O6 0.185658 0.219667 0.742834
O O7 0.816132 0.329245 0.957952
O O8 0.171947 0.330776 0.120990
O O9 0.364417 0.961618 0.781432
O O10 0.293892 0.895994 0.875233
O O11 0.026979 0.113748 0.065075
O O12 0.634583 0.904399 0.106918
O O13 0.362111 0.729329 0.685739
O O14 0.382073 0.653403 0.847343
O O15 0.956721 0.758716 0.592621
O O16 0.413152 0.967181 0.520940
#
# Coordination Sequence:
#
# PCOD8012315 Si02
#       8
#     2   2   2   2   2   2   2   2
#     4  12  23  40  72  99 137 176 222 271 332 400
#     4  11  27  47  69  98 130 175 231 278 335 392
#     4  10  21  40  67 101 139 178 214 272 332 397
#     4  12  25  40  66 104 138 176 223 271 327 404
#     4  11  25  49  72  92 132 178 224 285 333 393
#     4  11  24  43  69  99 138 177 222 273 335 395
#     4  10  21  39  69 101 138 178 215 267 341 392
#     4  11  24  42  67 102 135 174 222 273 332 399
#
# _framework density 23.478287000000002
#
# number of rings (size 3 to 8) (size 9 to 14) (size 15 to 20)
#    0.000    1.000    2.500    3.750    1.750    4.000 
#    0.000    3.125    0.000    0.000    0.000    0.000 
#    0.000    0.000    0.000    0.000    0.000    0.000 
#
# Total GULP energy -198448.366045 kJ/mol
# GULP energy per Si atom -12403.022878 kJ/mol
# Density = 2.342485 g / cm^3
# Si number density = 23.478287 Si / 1000 Ang^3
#
#
#
# Elastic Constant Matrix: (Units=GPa)
#
#
# Indices 1 2 3 4 5 6 
#
# 1 72.3569 4.0746 6.8678 1.5109 0.6107 7.2079
# 2 4.0746 49.3775 18.4117 -8.4817 -2.2993 7.6835
# 3 6.8678 18.4117 87.4487 -5.1275 -2.3709 -3.7354
# 4 1.5109 -8.4817 -5.1275 27.0395 2.0070 -0.4849
# 5 0.6107 -2.2993 -2.3709 2.0070 40.5720 -0.8794
# 6 7.2079 7.6835 -3.7354 -0.4849 -0.8794 30.4692
#
#
#
# Elastic Compliance Matrix: (Units=1/GPa)
#
#
# Indices 1 2 3 4 5 6 
#
# 1 0.014337 -0.000389 -0.001272 -0.001203 -0.000328 -0.003478
# 2 -0.000389 0.024303 -0.004964 0.006540 0.000628 -0.006523
# 3 -0.001272 -0.004964 0.012785 0.000957 0.000506 0.003150
# 4 -0.001203 0.006540 0.000957 0.039384 -0.001518 -0.000664
# 5 -0.000328 0.000628 0.000506 -0.001518 0.024807 0.000673
# 6 -0.003478 -0.006523 0.003150 -0.000664 0.000673 0.035683
#
#
# Mechanical properties :
#
#
# Convention : Reuss Voigt Hill
#
# Bulk Modulus (GPa) = 26.19614 29.76573 27.98093
# Shear Modulus (GPa) = 28.20475 31.60475 29.90475
#
# Velocity S-wave (km/s) = 3.46976 3.67294 3.57279
# Velocity P-wave (km/s) = 5.21863 5.54011 5.38177
#
# Compressibility (1/GPa) = 0.03817357
#
# Stress axis : x y z
#
# Youngs Moduli (GPa) = 69.74771 41.14715 78.21806
#
# Poissons Ratio (x) = 0.01603 0.09949
# Poissons Ratio (y) = 0.02716 0.38830
# Poissons Ratio (z) = 0.08872 0.20427
#
# Static dielectric constant tensor:
#      x y z
#    x 4.274490 -0.003000 0.043430 
#    y -0.003000 3.935930 0.002320 
#    z 0.043430 0.002320 4.325630 
# 
# 
# High freq. dielectric constant tensor:
#      x y z
#    x 1.938120 0.008030 0.004250 
#    y 0.008030 1.914520 -0.005410 
#    z 0.004250 -0.005410 1.935090 
# 
# From -- ./inp_files/226549.got.cif
#   From: 2010.06.25/outbox.cif.g09.slc.cpg/sg2_114_cif.got.tgz:226549.got - 2010.06.27 13:26:56.
