data_PCOD8012714
_publ_section_title
;
Structure prediction by ZEFSAII (Michael W. Deem and Ramdas Pophale) SiO2 
 PCOD8012714
Probable space group: P -1
;
_chemical_formula_sum "Si O2"
_cell_formula_units_Z 16
_cell_length_a 8.159975
_cell_length_b 12.638967
_cell_length_c 11.264539
_cell_angle_alpha 89.841697
_cell_angle_beta 115.165060
_cell_angle_gamma 49.236268
_cell_volume 726.729643
_symmetry_space_group_name_H-M "P -1"
_symmetry_group_IT_number 2
_symmetry_cell_setting 'triclinic'
loop_
_space_group_symop_operation_xyz
x,y,z
-x,-y,-z
loop_
_atom_site_type_symbol
_atom_site_label
_atom_site_fract_x
_atom_site_fract_y
_atom_site_fract_z
Si Si1 0.092119 0.077980 0.065295
Si Si2 0.978594 0.674811 0.063060
Si Si3 0.709877 0.593335 0.375563
Si Si4 0.650412 0.216105 0.518648
Si Si5 0.615868 0.680228 0.803891
Si Si6 0.056798 0.876143 0.713774
Si Si7 0.909912 0.294491 0.479518
Si Si8 0.324207 0.208615 0.786206
O O1 0.944376 0.237251 0.951496
O O2 0.045926 0.113259 0.189759
O O3 0.395255 0.966279 0.123723
O O4 0.000000 0.000000 0.000000
O O5 0.796238 0.698109 0.907194
O O6 0.825919 0.745529 0.139043
O O7 0.236953 0.494823 0.157934
O O8 0.511667 0.721205 0.411718
O O9 0.705419 0.468746 0.366956
O O10 0.636097 0.681853 0.228001
O O11 0.000000 0.500000 0.500000
O O12 0.476487 0.245711 0.355885
O O13 0.738419 0.297604 0.516618
O O14 0.913946 0.039044 0.617960
O O15 0.366746 0.770210 0.813397
O O16 0.988516 0.810557 0.603460
O O17 0.162022 0.231840 0.625294
#
# Coordination Sequence:
#
# PCOD8012714 Si02
#       8
#     2   2   2   2   2   2   2   2
#     4  12  28  44  66  98 136 184 227 276 335 412
#     4  11  26  44  70  95 136 188 227 276 332 408
#     4  10  21  40  63 100 137 173 220 274 333 403
#     4  11  22  42  70 102 138 173 224 282 345 398
#     4  10  23  45  69 100 133 179 228 277 342 402
#     4  11  25  44  68 104 135 173 223 287 342 396
#     4  10  23  38  70 101 132 176 216 284 344 394
#     4  11  24  43  65  97 134 178 227 273 338 404
#
# _framework density 22.016442000000001
#
# number of rings (size 3 to 8) (size 9 to 14) (size 15 to 20)
#    0.000    1.250    1.250    4.500    5.250    8.000 
#    0.000    0.000    0.000    0.000    0.000    0.000 
#    0.000    0.000    0.000    0.000    0.000    0.000 
#
# Total GULP energy -198406.364068 kJ/mol
# GULP energy per Si atom -12400.397754 kJ/mol
# Density = 2.196633 g / cm^3
# Si number density = 22.016442 Si / 1000 Ang^3
#
#
#
# Elastic Constant Matrix: (Units=GPa)
#
#
# Indices 1 2 3 4 5 6 
#
# 1 103.0880 58.6643 44.5792 2.9206 -23.7952 1.3459
# 2 58.6643 100.2805 12.8610 -3.7138 -13.5784 -5.7576
# 3 44.5792 12.8610 47.2360 -3.8747 -10.1182 4.0343
# 4 2.9206 -3.7138 -3.8747 32.2716 4.9574 5.5422
# 5 -23.7952 -13.5784 -10.1182 4.9574 37.5433 -12.8938
# 6 1.3459 -5.7576 4.0343 5.5422 -12.8938 36.6182
#
#
#
# Elastic Compliance Matrix: (Units=1/GPa)
#
#
# Indices 1 2 3 4 5 6 
#
# 1 0.030261 -0.013266 -0.023812 -0.009597 0.010844 0.004696
# 2 -0.013266 0.016929 0.008074 0.003840 -0.000045 0.001663
# 3 -0.023812 0.008074 0.041834 0.009637 -0.004001 -0.005332
# 4 -0.009597 0.003840 0.009637 0.036582 -0.010084 -0.009193
# 5 0.010844 -0.000045 -0.004001 -0.010084 0.038998 0.015293
# 6 0.004696 0.001663 -0.005332 -0.009193 0.015293 0.034761
#
#
# Mechanical properties :
#
#
# Convention : Reuss Voigt Hill
#
# Bulk Modulus (GPa) = 32.24308 53.64595 42.94451
# Shear Modulus (GPa) = 18.67686 30.25327 24.46506
#
# Velocity S-wave (km/s) = 2.91574 3.71094 3.33711
# Velocity P-wave (km/s) = 5.10022 6.54069 5.86484
#
# Compressibility (1/GPa) = 0.03101441
#
# Stress axis : x y z
#
# Youngs Moduli (GPa) = 33.04622 59.07111 23.90428
#
# Poissons Ratio (x) = 0.78364 0.56921
# Poissons Ratio (y) = 0.43839 -0.19300
# Poissons Ratio (z) = 0.78690 -0.47694
#
# Static dielectric constant tensor:
#      x y z
#    x 3.980270 0.203430 -0.053800 
#    y 0.203430 4.429240 -0.235240 
#    z -0.053800 -0.235240 3.959560 
# 
# 
# High freq. dielectric constant tensor:
#      x y z
#    x 1.870980 -0.001730 -0.005740 
#    y -0.001730 1.882110 -0.010380 
#    z -0.005740 -0.010380 1.864530 
# 
# From -- ./inp_files/392691.got.cif
#   From: 2010.06.25/outbox.cif.g09.slc.cpg/sg2_197_cif.got.tgz:392691.got - 2010.06.27 13:26:56.
