data_PCOD8012412
_publ_section_title
;
Structure prediction by ZEFSAII (Michael W. Deem and Ramdas Pophale) SiO2 
 PCOD8012412
Probable space group: P -1
;
_chemical_formula_sum "Si O2"
_cell_formula_units_Z 16
_cell_length_a 18.275454
_cell_length_b 11.510907
_cell_length_c 9.131779
_cell_angle_alpha 50.186268
_cell_angle_beta 30.868646
_cell_angle_gamma 48.181432
_cell_volume 722.847088
_symmetry_space_group_name_H-M "P -1"
_symmetry_group_IT_number 2
_symmetry_cell_setting 'triclinic'
loop_
_space_group_symop_operation_xyz
x,y,z
-x,-y,-z
loop_
_atom_site_type_symbol
_atom_site_label
_atom_site_fract_x
_atom_site_fract_y
_atom_site_fract_z
Si Si1 0.599661 0.852091 0.855924
Si Si2 0.241871 0.460461 0.640203
Si Si3 0.892875 0.170995 0.190634
Si Si4 0.064266 0.114710 0.207289
Si Si5 0.421470 0.615592 0.411532
Si Si6 0.354426 0.114297 0.589622
Si Si7 0.995389 0.611835 0.719616
Si Si8 0.071655 0.195703 0.595296
O O1 0.618561 0.893482 0.623050
O O2 0.760554 0.797533 0.698748
O O3 0.535958 0.703315 0.085251
O O4 0.500000 0.000000 0.000000
O O5 0.371070 0.527462 0.431311
O O6 0.322262 0.284421 0.584687
O O7 0.158028 0.546699 0.567634
O O8 0.118195 0.489321 0.963185
O O9 0.719807 0.248797 0.388064
O O10 0.933918 0.222067 0.239025
O O11 0.938130 0.979523 0.283311
O O12 0.992768 0.236824 0.854172
O O13 0.104158 0.225366 0.169019
O O14 0.216646 0.039866 0.914021
O O15 0.000000 0.000000 0.500000
O O16 0.500000 0.500000 0.500000
O O17 0.500000 0.000000 0.500000
O O18 0.016170 0.659461 0.477923
#
# Coordination Sequence:
#
# PCOD8012412 Si02
#       8
#     2   2   2   2   2   2   2   2
#     4  12  27  47  70 105 149 190 239 295 362 431
#     4  10  24  45  67 103 140 183 244 290 358 434
#     4  11  23  42  67 107 140 180 243 295 345 432
#     4  11  21  41  71 103 136 181 237 290 358 414
#     4  12  27  45  72 103 150 195 231 300 367 428
#     4  11  28  45  72 104 142 191 240 298 355 435
#     4  10  21  39  73  98 136 183 230 298 354 415
#     4  11  23  42  71 103 141 183 240 297 350 425
#
# _framework density 22.134694
#
# number of rings (size 3 to 8) (size 9 to 14) (size 15 to 20)
#    0.000    1.000    5.000    0.750    7.000    1.500 
#    0.000    1.875    0.000    0.000    0.000    0.000 
#    0.000    0.000    0.000    0.000    0.000    0.000 
#
# Total GULP energy -198253.557151 kJ/mol
# GULP energy per Si atom -12390.847322 kJ/mol
# Density = 2.208431 g / cm^3
# Si number density = 22.134694 Si / 1000 Ang^3
#
#
#
# Elastic Constant Matrix: (Units=GPa)
#
#
# Indices 1 2 3 4 5 6 
#
# 1 138.9693 47.3276 71.8186 -12.2308 2.7927 -26.0740
# 2 47.3276 86.6654 50.7769 -3.6609 6.8524 -18.1662
# 3 71.8186 50.7769 170.4851 -15.6140 2.3731 -13.4564
# 4 -12.2308 -3.6609 -15.6140 32.6734 -1.8162 0.3957
# 5 2.7927 6.8524 2.3731 -1.8162 45.0999 -2.0082
# 6 -26.0740 -18.1662 -13.4564 0.3957 -2.0082 48.9851
#
#
#
# Elastic Compliance Matrix: (Units=1/GPa)
#
#
# Indices 1 2 3 4 5 6 
#
# 1 0.010767 -0.003226 -0.003090 0.002161 0.000237 0.003678
# 2 -0.003226 0.015974 -0.003216 -0.001103 -0.001958 0.003252
# 3 -0.003090 -0.003216 0.008303 0.002475 0.000318 -0.000563
# 4 0.002161 -0.001103 0.002475 0.032530 0.001267 0.001211
# 5 0.000237 -0.001958 0.000318 0.001267 0.022508 0.000400
# 6 0.003678 0.003252 -0.000563 0.001211 0.000400 0.023430
#
#
# Mechanical properties :
#
#
# Convention : Reuss Voigt Hill
#
# Bulk Modulus (GPa) = 62.57500 81.77399 72.17450
# Shear Modulus (GPa) = 36.25755 40.43145 38.34450
#
# Velocity S-wave (km/s) = 4.05166 4.27852 4.16664
# Velocity P-wave (km/s) = 7.08657 7.83784 7.47165
#
# Compressibility (1/GPa) = 0.01598082
#
# Stress axis : x y z
#
# Youngs Moduli (GPa) = 92.87800 62.60036 120.43978
#
# Poissons Ratio (x) = 0.20193 0.37215
# Poissons Ratio (y) = 0.29960 0.38732
# Poissons Ratio (z) = 0.28699 0.20132
#
# Static dielectric constant tensor:
#      x y z
#    x 3.041660 -0.824680 -1.436060 
#    y -0.824680 2.913330 -1.339000 
#    z -1.436060 -1.339000 1.525150 
# 
# 
# High freq. dielectric constant tensor:
#      x y z
#    x 1.881140 -0.001720 -0.000240 
#    y -0.001720 1.873380 -0.009190 
#    z -0.000240 -0.009190 1.875850 
# 
# From -- ./inp_files/332810.got.cif
#   From: 2010.06.25/outbox.cif.g09.slc.cpg/sg2_167_cif.got.tgz:332810.got - 2010.06.27 13:26:56.
