data_PCOD8012910
_publ_section_title
;
Structure prediction by ZEFSAII (Michael W. Deem and Ramdas Pophale) SiO2 
 PCOD8012910
Probable space group: P -1
;
_chemical_formula_sum "Si O2"
_cell_formula_units_Z 16
_cell_length_a 12.875441
_cell_length_b 19.865709
_cell_length_c 9.533574
_cell_angle_alpha 55.480506
_cell_angle_beta 48.307015
_cell_angle_gamma 23.979006
_cell_volume 733.205366
_symmetry_space_group_name_H-M "P -1"
_symmetry_group_IT_number 2
_symmetry_cell_setting 'triclinic'
loop_
_space_group_symop_operation_xyz
x,y,z
-x,-y,-z
loop_
_atom_site_type_symbol
_atom_site_label
_atom_site_fract_x
_atom_site_fract_y
_atom_site_fract_z
Si Si1 0.725430 0.546184 0.604111
Si Si2 0.842913 0.556713 0.780820
Si Si3 0.761496 0.350327 0.840690
Si Si4 0.667687 0.345496 0.619104
Si Si5 0.448814 0.777870 0.119271
Si Si6 0.266883 0.239177 0.924980
Si Si7 0.925618 0.157508 0.159337
Si Si8 0.178437 0.111556 0.255373
O O1 0.719292 0.598877 0.691550
O O2 0.890644 0.374154 0.667817
O O3 0.394322 0.704667 0.672289
O O4 0.902410 0.507096 0.378003
O O5 0.976476 0.406350 0.906042
O O6 0.576923 0.724793 0.911514
O O7 0.657206 0.363734 0.773717
O O8 0.500000 0.500000 0.000000
O O9 0.959965 0.186801 0.943840
O O10 0.500000 0.500000 0.500000
O O11 0.538365 0.323316 0.726958
O O12 0.995799 0.178178 0.474118
O O13 0.651158 0.722761 0.107214
O O14 0.124230 0.975954 0.183529
O O15 0.516033 0.088777 0.768350
O O16 0.215176 0.190384 0.134014
O O17 0.033957 0.161903 0.178174
#
# Coordination Sequence:
#
# PCOD8012910 Si02
#       8
#     2   2   2   2   2   2   2   2
#     4  10  23  39  65  90 127 172 215 264 322 390
#     4  11  23  40  60  94 129 171 213 261 331 385
#     4  10  21  40  64  90 128 170 208 268 323 374
#     4  12  25  38  65 101 128 167 225 269 314 391
#     4  11  25  40  68  97 130 169 216 271 328 374
#     4  10  23  42  66  88 138 172 204 272 326 391
#     4  10  22  44  69  92 131 170 222 268 322 386
#     4  10  23  42  66  98 127 172 220 262 331 379
#
# _framework density 21.82199
#
# number of rings (size 3 to 8) (size 9 to 14) (size 15 to 20)
#    0.000    1.500    0.000    4.875    7.000    3.000 
#    2.250    0.625    0.000    0.000    0.000    0.000 
#    0.000    0.000    0.000    0.000    0.000    0.000 
#
# Total GULP energy -198400.409459 kJ/mol
# GULP energy per Si atom -12400.025591 kJ/mol
# Density = 2.177232 g / cm^3
# Si number density = 21.821990 Si / 1000 Ang^3
#
#
#
# Elastic Constant Matrix: (Units=GPa)
#
#
# Indices 1 2 3 4 5 6 
#
# 1 87.1498 31.6557 35.1748 -4.6633 -9.8844 17.1547
# 2 31.6557 85.7752 31.1742 -3.8156 -4.6607 9.3485
# 3 35.1748 31.1742 88.9195 10.5888 -5.6928 17.4752
# 4 -4.6633 -3.8156 10.5888 35.9343 -1.7218 -4.6341
# 5 -9.8844 -4.6607 -5.6928 -1.7218 38.3566 -4.9735
# 6 17.1547 9.3485 17.4752 -4.6341 -4.9735 34.4885
#
#
#
# Elastic Compliance Matrix: (Units=1/GPa)
#
#
# Indices 1 2 3 4 5 6 
#
# 1 0.015718 -0.003539 -0.004341 0.002558 0.002580 -0.003943
# 2 -0.003539 0.014511 -0.003977 0.002299 0.000391 0.000207
# 3 -0.004341 -0.003977 0.016290 -0.006563 -0.000248 -0.005934
# 4 0.002558 0.002299 -0.006563 0.031206 0.002134 0.005931
# 5 0.002580 0.000391 -0.000248 0.002134 0.027225 0.002950
# 6 -0.003943 0.000207 -0.005934 0.005931 0.002950 0.035129
#
#
# Mechanical properties :
#
#
# Convention : Reuss Voigt Hill
#
# Bulk Modulus (GPa) = 43.85287 50.87266 47.36277
# Shear Modulus (GPa) = 29.17251 32.67851 30.92551
#
# Velocity S-wave (km/s) = 3.66025 3.87396 3.76862
# Velocity P-wave (km/s) = 6.16462 6.58584 6.37871
#
# Compressibility (1/GPa) = 0.02280352
#
# Stress axis : x y z
#
# Youngs Moduli (GPa) = 63.62128 68.91445 61.38890
#
# Poissons Ratio (x) = 0.24390 0.26652
# Poissons Ratio (y) = 0.22517 0.24413
# Poissons Ratio (z) = 0.27621 0.27405
#
# Static dielectric constant tensor:
#      x y z
#    x 3.909110 0.151660 -0.188760 
#    y 0.151660 4.218050 -0.198430 
#    z -0.188760 -0.198430 4.387580 
# 
# 
# High freq. dielectric constant tensor:
#      x y z
#    x 1.860010 0.011980 -0.010450 
#    y 0.011980 1.854180 0.000310 
#    z -0.010450 0.000310 1.860930 
# 
# From -- ./inp_files/279202.got.cif
#   From: 2010.06.25/outbox.cif.g09.slc.cpg/sg2_140_cif.got.tgz:279202.got - 2010.06.27 13:26:56.
