data_PCOD8012041
_publ_section_title
;
Structure prediction by ZEFSAII (Michael W. Deem and Ramdas Pophale) SiO2 
 PCOD8012041
Probable space group: P -1
;
_chemical_formula_sum "Si O2"
_cell_formula_units_Z 14
_cell_length_a 16.989821
_cell_length_b 5.084726
_cell_length_c 9.272284
_cell_angle_alpha 70.884602
_cell_angle_beta 117.908893
_cell_angle_gamma 76.982548
_cell_volume 596.147689
_symmetry_space_group_name_H-M "P -1"
_symmetry_group_IT_number 2
_symmetry_cell_setting 'triclinic'
loop_
_space_group_symop_operation_xyz
x,y,z
-x,-y,-z
loop_
_atom_site_type_symbol
_atom_site_label
_atom_site_fract_x
_atom_site_fract_y
_atom_site_fract_z
Si Si1 0.103251 0.081986 0.223040
Si Si2 0.453507 0.076915 0.604130
Si Si3 0.955391 0.808241 0.147852
Si Si4 0.777796 0.168064 0.114853
Si Si5 0.053153 0.215556 0.476601
Si Si6 0.329615 0.801670 0.434497
Si Si7 0.338304 0.114006 0.093439
O O1 0.053554 0.851125 0.199561
O O2 0.220925 0.867947 0.383251
O O3 0.061330 0.273069 0.299614
O O4 0.075616 0.293441 0.014350
O O5 0.388163 0.445011 0.500825
O O6 0.500000 0.000000 0.500000
O O7 0.386812 0.890428 0.596335
O O8 0.546064 0.957695 0.817537
O O9 0.976021 0.591227 0.354715
O O10 0.855796 0.113767 0.059578
O O11 0.835110 0.943038 0.338594
O O12 0.733788 0.523769 0.062748
O O13 0.688522 0.089116 0.006691
O O14 0.000000 0.000000 0.500000
O O15 0.319956 0.027904 0.253225
#
# Coordination Sequence:
#
# PCOD8012041 Si02
#       7
#     2   2   2   2   2   2   2
#     4  11  26  41  69  98 140 181 228 283 340 397
#     4  10  21  39  66 100 137 167 220 291 344 395
#     4  11  25  44  66  98 139 179 233 284 334 402
#     4  12  24  40  70  97 137 179 225 277 337 410
#     4  12  26  44  65  95 142 190 230 276 335 407
#     4  11  22  39  68 100 136 173 223 282 346 397
#     4  11  22  40  68 101 135 172 228 281 346 402
#
# _framework density 23.484114000000002
#
# number of rings (size 3 to 8) (size 9 to 14) (size 15 to 20)
#    0.000    0.857    2.857    6.000    4.000    1.143 
#    0.000    0.000    0.000    5.143    0.000    0.000 
#    0.000    0.000    0.000    0.000    0.000    0.000 
#
# Total GULP energy -173514.446976 kJ/mol
# GULP energy per Si atom -12393.889070 kJ/mol
# Density = 2.343066 g / cm^3
# Si number density = 23.484114 Si / 1000 Ang^3
#
#
#
# Elastic Constant Matrix: (Units=GPa)
#
#
# Indices 1 2 3 4 5 6 
#
# 1 91.8787 24.0062 50.6012 3.4405 37.2682 17.6287
# 2 24.0062 83.5972 23.0020 -18.2264 14.7944 28.4031
# 3 50.6012 23.0020 119.6752 -4.9852 18.8188 1.1617
# 4 3.4405 -18.2264 -4.9852 42.6945 5.9028 6.9037
# 5 37.2682 14.7944 18.8188 5.9028 47.5296 10.3633
# 6 17.6287 28.4031 1.1617 6.9037 10.3633 26.6129
#
#
#
# Elastic Compliance Matrix: (Units=1/GPa)
#
#
# Indices 1 2 3 4 5 6 
#
# 1 0.021738 0.003062 -0.007592 0.002514 -0.012438 -0.013145
# 2 0.003062 0.029666 -0.005281 0.018264 -0.003807 -0.036715
# 3 -0.007592 -0.005281 0.012284 -0.001983 0.000719 0.010363
# 4 0.002514 0.018264 -0.001983 0.036095 -0.005156 -0.028427
# 5 -0.012438 -0.003807 0.000719 -0.005156 0.032091 0.001112
# 6 -0.013145 -0.036715 0.010363 -0.028427 0.001112 0.091956
#
#
# Mechanical properties :
#
#
# Convention : Reuss Voigt Hill
#
# Bulk Modulus (GPa) = 22.69236 54.48553 38.58894
# Shear Modulus (GPa) = 19.36937 36.53684 27.95310
#
# Velocity S-wave (km/s) = 2.87502 3.94866 3.45381
# Velocity P-wave (km/s) = 4.55026 6.63631 5.68970
#
# Compressibility (1/GPa) = 0.04406770
#
# Stress axis : x y z
#
# Youngs Moduli (GPa) = 46.00224 33.70881 81.40353
#
# Poissons Ratio (x) = -0.10321 0.61798
# Poissons Ratio (y) = -0.14085 0.42986
# Poissons Ratio (z) = 0.34923 0.17800
#
# Static dielectric constant tensor:
#      x y z
#    x 4.374610 0.046220 0.415610 
#    y 0.046220 4.377530 0.397670 
#    z 0.415610 0.397670 4.940190 
# 
# 
# High freq. dielectric constant tensor:
#      x y z
#    x 1.907820 0.000200 0.025740 
#    y 0.000200 1.942450 0.003740 
#    z 0.025740 0.003740 1.945730 
# 
# From -- ./inp_files/323465.got.cif
#   From: 2010.06.25/outbox.cif.g09.slc.cpg/sg2_162_cif.got.tgz:323465.got - 2010.06.27 13:26:56.
