data_PCOD8012725
_publ_section_title
;
Structure prediction by ZEFSAII (Michael W. Deem and Ramdas Pophale) SiO2 
 PCOD8012725
Probable space group: P -1
;
_chemical_formula_sum "Si O2"
_cell_formula_units_Z 16
_cell_length_a 25.334130
_cell_length_b 21.433221
_cell_length_c 9.592323
_cell_angle_alpha 29.137998
_cell_angle_beta 27.041408
_cell_angle_gamma 19.911441
_cell_volume 784.337984
_symmetry_space_group_name_H-M "P -1"
_symmetry_group_IT_number 2
_symmetry_cell_setting 'triclinic'
loop_
_space_group_symop_operation_xyz
x,y,z
-x,-y,-z
loop_
_atom_site_type_symbol
_atom_site_label
_atom_site_fract_x
_atom_site_fract_y
_atom_site_fract_z
Si Si1 0.761105 0.681026 0.258784
Si Si2 0.522681 0.124569 0.251696
Si Si3 0.816437 0.938127 0.611082
Si Si4 0.446887 0.304214 0.794604
Si Si5 0.008293 0.301127 0.583933
Si Si6 0.677512 0.791810 0.944107
Si Si7 0.863767 0.981806 0.711328
Si Si8 0.830874 0.292132 0.261834
O O1 0.587259 0.764560 0.567934
O O2 0.921010 0.486909 0.338752
O O3 0.767056 0.830237 0.969515
O O4 0.752273 0.651416 0.173996
O O5 0.500000 0.000000 0.500000
O O6 0.451168 0.269933 0.014051
O O7 0.718010 0.001266 0.066034
O O8 0.937558 0.851265 0.360068
O O9 0.640034 0.159251 0.564987
O O10 0.910589 0.920981 0.557536
O O11 0.340611 0.522386 0.617775
O O12 0.342812 0.282166 0.996369
O O13 0.181694 0.214787 0.414976
O O14 0.887031 0.340820 0.909020
O O15 0.500000 0.000000 0.000000
O O16 0.795158 0.181566 0.499983
O O17 0.026943 0.824613 0.726736
#
# Coordination Sequence:
#
# PCOD8012725 Si02
#       8
#     2   2   2   2   2   2   2   2
#     4  11  21  37  58  99 124 157 198 248 317 360
#     4  11  20  38  65  93 122 156 201 251 319 355
#     4  10  21  40  63  86 127 159 195 251 309 361
#     4  11  22  37  61  95 118 159 205 246 307 362
#     4  11  24  38  61  93 126 162 203 248 309 371
#     4  11  21  36  61  93 130 158 195 257 310 358
#     4  10  25  43  63  84 127 162 203 262 298 367
#     4  11  26  42  61  91 120 165 214 246 305 355
#
# _framework density 20.399369
#
# number of rings (size 3 to 8) (size 9 to 14) (size 15 to 20)
#    0.000    1.250    6.250    1.500    7.000    3.000 
#    0.000    0.000    0.000    2.250    0.000    0.000 
#    0.000    0.000    0.000    0.000    0.000    0.000 
#
# Total GULP energy -198337.367465 kJ/mol
# GULP energy per Si atom -12396.085467 kJ/mol
# Density = 2.035294 g / cm^3
# Si number density = 20.399369 Si / 1000 Ang^3
#
#
#
# Elastic Constant Matrix: (Units=GPa)
#
#
# Indices 1 2 3 4 5 6 
#
# 1 100.6689 20.0332 3.4447 -2.1820 -3.2503 4.0803
# 2 20.0332 118.5542 18.9158 -6.7260 -1.1067 8.4563
# 3 3.4447 18.9158 32.0012 -0.8251 -4.6630 -3.3711
# 4 -2.1820 -6.7260 -0.8251 29.5324 2.3389 2.9361
# 5 -3.2503 -1.1067 -4.6630 2.3389 22.8660 2.6863
# 6 4.0803 8.4563 -3.3711 2.9361 2.6863 31.2032
#
#
#
# Elastic Compliance Matrix: (Units=1/GPa)
#
#
# Indices 1 2 3 4 5 6 
#
# 1 0.010359 -0.001632 -0.000040 0.000383 0.001473 -0.001080
# 2 -0.001632 0.010064 -0.006188 0.002398 -0.000860 -0.003334
# 3 -0.000040 -0.006188 0.036389 -0.001437 0.006654 0.005176
# 4 0.000383 0.002398 -0.001437 0.035038 -0.003252 -0.003872
# 5 0.001473 -0.000860 0.006654 -0.003252 0.045930 -0.002889
# 6 -0.001080 -0.003334 0.005176 -0.003872 -0.002889 0.034265
#
#
# Mechanical properties :
#
#
# Convention : Reuss Voigt Hill
#
# Bulk Modulus (GPa) = 24.33505 37.33464 30.83484
# Shear Modulus (GPa) = 24.81876 30.64236 27.73056
#
# Velocity S-wave (km/s) = 3.49183 3.87993 3.69098
# Velocity P-wave (km/s) = 5.31153 6.19785 5.77173
#
# Compressibility (1/GPa) = 0.04109300
#
# Stress axis : x y z
#
# Youngs Moduli (GPa) = 96.53211 99.36602 27.48120
#
# Poissons Ratio (x) = 0.16213 0.00110
# Poissons Ratio (y) = 0.15750 0.17005
# Poissons Ratio (z) = 0.00385 0.61486
#
# Static dielectric constant tensor:
#      x y z
#    x 3.657190 0.026860 -0.334530 
#    y 0.026860 3.969760 0.192400 
#    z -0.334530 0.192400 2.799920 
# 
# 
# High freq. dielectric constant tensor:
#      x y z
#    x 1.806980 -0.003030 0.009640 
#    y -0.003030 1.810480 0.007990 
#    z 0.009640 0.007990 1.762380 
# 
# From -- ./inp_files/355237.got.cif
#   From: 2010.06.25/outbox.cif.g09.slc.cpg/sg2_178_cif.got.tgz:355237.got - 2010.06.27 13:26:56.
