data_PCOD8012332
_publ_section_title
;
Structure prediction by ZEFSAII (Michael W. Deem and Ramdas Pophale) SiO2 
 PCOD8012332
Probable space group: P -1
;
_chemical_formula_sum "Si O2"
_cell_formula_units_Z 12
_cell_length_a 11.106285
_cell_length_b 6.466671
_cell_length_c 9.277158
_cell_angle_alpha 104.945404
_cell_angle_beta 82.424532
_cell_angle_gamma 66.123301
_cell_volume 567.227872
_symmetry_space_group_name_H-M "P -1"
_symmetry_group_IT_number 2
_symmetry_cell_setting 'triclinic'
loop_
_space_group_symop_operation_xyz
x,y,z
-x,-y,-z
loop_
_atom_site_type_symbol
_atom_site_label
_atom_site_fract_x
_atom_site_fract_y
_atom_site_fract_z
Si Si1 0.954270 0.677450 0.673827
Si Si2 0.180638 0.668179 0.827946
Si Si3 0.296262 0.819449 0.228882
Si Si4 0.338596 0.919968 0.935683
Si Si5 0.473860 0.481818 0.665329
Si Si6 0.804981 0.545192 0.918355
O O1 0.912153 0.566793 0.796829
O O2 0.000000 0.500000 0.500000
O O3 0.077893 0.725483 0.720846
O O4 0.834877 0.925650 0.678108
O O5 0.196259 0.907273 0.913689
O O6 0.332125 0.468112 0.715614
O O7 0.129492 0.579449 0.961566
O O8 0.399861 0.756104 0.334869
O O9 0.255548 0.605717 0.183817
O O10 0.377282 0.830607 0.077230
O O11 0.462484 0.729310 0.784374
O O12 0.316267 0.190570 0.973830
O O13 0.500000 0.500000 0.500000
#
# Coordination Sequence:
#
# PCOD8012332 Si02
#       6
#     2   2   2   2   2   2
#     4  11  25  42  61  95 126 158 209 254 308 363
#     4   9  22  42  62  89 126 163 201 254 300 366
#     4  10  22  42  64  90 125 163 204 254 301 369
#     4   8  20  39  65  92 122 158 208 246 303 367
#     4  10  22  42  64  89 129 161 201 258 309 352
#     4  10  21  39  69  92 120 166 205 248 307 367
#
# _framework density 21.155518000000001
#
# number of rings (size 3 to 8) (size 9 to 14) (size 15 to 20)
#    1.000    1.333    0.000    1.000    2.333   10.000 
#    3.000    1.667    0.000    0.000    0.000    0.000 
#    0.000    0.000    0.000    0.000    0.000    0.000 
#
# Total GULP energy -148697.115350 kJ/mol
# GULP energy per Si atom -12391.426279 kJ/mol
# Density = 2.110737 g / cm^3
# Si number density = 21.155518 Si / 1000 Ang^3
#
#
#
# Elastic Constant Matrix: (Units=GPa)
#
#
# Indices 1 2 3 4 5 6 
#
# 1 91.1310 40.4208 52.7730 -5.1720 1.5502 -28.2504
# 2 40.4208 104.9065 61.7806 15.0437 -4.1068 -10.5106
# 3 52.7730 61.7806 149.5994 -6.0604 -2.5827 -24.5150
# 4 -5.1720 15.0437 -6.0604 27.5641 -6.9259 0.5921
# 5 1.5502 -4.1068 -2.5827 -6.9259 25.2760 -3.2272
# 6 -28.2504 -10.5106 -24.5150 0.5921 -3.2272 32.3810
#
#
#
# Elastic Compliance Matrix: (Units=1/GPa)
#
#
# Indices 1 2 3 4 5 6 
#
# 1 0.019112 -0.005772 -0.001893 0.006318 0.001134 0.013365
# 2 -0.005772 0.016443 -0.005917 -0.011591 -0.001278 -0.004093
# 3 -0.001893 -0.005917 0.010856 0.005776 0.002458 0.004787
# 4 0.006318 -0.011591 0.005776 0.048012 0.012301 0.006470
# 5 0.001134 -0.001278 0.002458 0.012301 0.043747 0.006571
# 6 0.013365 -0.004093 0.004787 0.006470 0.006571 0.045374
#
#
# Mechanical properties :
#
#
# Convention : Reuss Voigt Hill
#
# Bulk Modulus (GPa) = 51.95198 72.84286 62.39742
# Shear Modulus (GPa) = 23.02852 29.75504 26.39178
#
# Velocity S-wave (km/s) = 3.30287 3.75439 3.53585
# Velocity P-wave (km/s) = 6.25746 7.30074 6.79914
#
# Compressibility (1/GPa) = 0.01924855
#
# Stress axis : x y z
#
# Youngs Moduli (GPa) = 52.32440 60.81783 92.11130
#
# Poissons Ratio (x) = 0.35102 0.17434
# Poissons Ratio (y) = 0.30200 0.54499
# Poissons Ratio (z) = 0.09903 0.35984
#
# Static dielectric constant tensor:
#      x y z
#    x 3.630250 0.006250 0.016670 
#    y 0.006250 3.737390 0.058800 
#    z 0.016670 0.058800 3.720270 
# 
# 
# High freq. dielectric constant tensor:
#      x y z
#    x 1.817430 -0.004820 0.002560 
#    y -0.004820 1.821690 -0.000890 
#    z 0.002560 -0.000890 1.826480 
# 
# From -- ./inp_files/66642.got.cif
#   From: 2010.06.25/outbox.cif.g09.slc.cpg/sg2_34_cif.got.tgz:66642.got - 2010.06.27 13:26:56.
