data_PCOD8012384
_publ_section_title
;
Structure prediction by ZEFSAII (Michael W. Deem and Ramdas Pophale) SiO2 
 PCOD8012384
Probable space group: P -1
;
_chemical_formula_sum "Si O2"
_cell_formula_units_Z 16
_cell_length_a 8.818532
_cell_length_b 12.421592
_cell_length_c 9.162758
_cell_angle_alpha 105.298740
_cell_angle_beta 46.411475
_cell_angle_gamma 101.749262
_cell_volume 700.882382
_symmetry_space_group_name_H-M "P -1"
_symmetry_group_IT_number 2
_symmetry_cell_setting 'triclinic'
loop_
_space_group_symop_operation_xyz
x,y,z
-x,-y,-z
loop_
_atom_site_type_symbol
_atom_site_label
_atom_site_fract_x
_atom_site_fract_y
_atom_site_fract_z
Si Si1 0.041983 0.112920 0.597772
Si Si2 0.174779 0.288484 0.086614
Si Si3 0.022141 0.701113 0.496020
Si Si4 0.077356 0.890763 0.989953
Si Si5 0.457998 0.654923 0.320812
Si Si6 0.025107 0.482476 0.758172
Si Si7 0.665292 0.435276 0.192726
Si Si8 0.500885 0.782441 0.636510
O O1 0.284624 0.152591 0.443328
O O2 0.909128 0.204317 0.632153
O O3 0.000000 0.000000 0.500000
O O4 0.962004 0.098122 0.808969
O O5 0.143683 0.247542 0.259729
O O6 0.045562 0.216873 0.028794
O O7 0.093302 0.412688 0.183885
O O8 0.417269 0.291619 0.881131
O O9 0.215258 0.660645 0.449630
O O10 0.918875 0.596914 0.441267
O O11 0.322831 0.874927 0.791119
O O12 0.000000 0.000000 0.000000
O O13 0.514067 0.525425 0.255637
O O14 0.520333 0.728604 0.445328
O O15 0.250273 0.517350 0.690423
O O16 0.872446 0.416372 0.950196
O O17 0.547091 0.315914 0.249079
#
# Coordination Sequence:
#
# PCOD8012384 Si02
#       8
#     2   2   2   2   2   2   2   2
#     4  12  30  50  74 107 143 184 247 309 362 421
#     4  11  23  43  68 105 146 190 239 290 353 426
#     4  12  25  43  69 109 151 187 237 301 356 413
#     4  12  26  49  79 105 136 189 247 301 361 431
#     4  11  24  41  71 107 148 196 237 280 357 442
#     4  10  21  39  71 104 156 189 239 294 350 426
#     4  10  21  40  70 109 146 200 239 281 358 442
#     4  12  24  46  77 104 142 193 245 293 365 435
#
# _framework density 22.828365999999999
#
# number of rings (size 3 to 8) (size 9 to 14) (size 15 to 20)
#    0.000    0.750    3.750    3.000    1.750    8.000 
#    0.000    0.000    0.000    0.000    0.000    0.000 
#    0.000    0.000    0.000    0.000    0.000    0.000 
#
# Total GULP energy -198449.628530 kJ/mol
# GULP energy per Si atom -12403.101783 kJ/mol
# Density = 2.277641 g / cm^3
# Si number density = 22.828366 Si / 1000 Ang^3
#
#
#
# Elastic Constant Matrix: (Units=GPa)
#
#
# Indices 1 2 3 4 5 6 
#
# 1 78.1804 35.6421 29.6006 -0.4698 0.0842 6.3128
# 2 35.6421 108.0208 42.3578 5.7804 3.0389 3.9643
# 3 29.6006 42.3578 134.3672 -4.8717 12.4275 4.5065
# 4 -0.4698 5.7804 -4.8717 35.0324 4.0319 3.3598
# 5 0.0842 3.0389 12.4275 4.0319 47.0055 3.2382
# 6 6.3128 3.9643 4.5065 3.3598 3.2382 44.7424
#
#
#
# Elastic Compliance Matrix: (Units=1/GPa)
#
#
# Indices 1 2 3 4 5 6 
#
# 1 0.015713 -0.004367 -0.002081 0.000709 0.000863 -0.001736
# 2 -0.004367 0.011969 -0.002921 -0.002466 0.000217 0.000019
# 3 -0.002081 -0.002921 0.009126 0.002029 -0.002370 -0.000348
# 4 0.000709 -0.002466 0.002029 0.029768 -0.002786 -0.002120
# 5 0.000863 0.000217 -0.002370 -0.002786 0.022214 -0.001301
# 6 -0.001736 0.000019 -0.000348 -0.002120 -0.001301 0.022882
#
#
# Mechanical properties :
#
#
# Convention : Reuss Voigt Hill
#
# Bulk Modulus (GPa) = 55.34012 59.52995 57.43503
# Shear Modulus (GPa) = 36.64797 39.55391 38.10094
#
# Velocity S-wave (km/s) = 4.01105 4.16705 4.08979
# Velocity P-wave (km/s) = 6.76357 7.02041 6.89319
#
# Compressibility (1/GPa) = 0.01807007
#
# Stress axis : x y z
#
# Youngs Moduli (GPa) = 63.64045 83.54831 109.57711
#
# Poissons Ratio (x) = 0.36488 0.22800
# Poissons Ratio (y) = 0.27794 0.32009
# Poissons Ratio (z) = 0.13242 0.24406
#
# Static dielectric constant tensor:
#      x y z
#    x 4.159540 -0.228820 0.018830 
#    y -0.228820 4.328590 0.008370 
#    z 0.018830 0.008370 4.640860 
# 
# 
# High freq. dielectric constant tensor:
#      x y z
#    x 1.897560 0.000470 0.006650 
#    y 0.000470 1.892610 -0.006360 
#    z 0.006650 -0.006360 1.922500 
# 
# From -- ./inp_files/188214.got.cif
#   From: 2010.06.25/outbox.cif.g09.slc.cpg/sg2_95_cif.got.tgz:188214.got - 2010.06.27 13:26:56.
