data_PCOD8012904
_publ_section_title
;
Structure prediction by ZEFSAII (Michael W. Deem and Ramdas Pophale) SiO2 
 PCOD8012904
Probable space group: P -1
;
_chemical_formula_sum "Si O2"
_cell_formula_units_Z 14
_cell_length_a 9.810384
_cell_length_b 14.121487
_cell_length_c 8.776709
_cell_angle_alpha 82.717664
_cell_angle_beta 123.002154
_cell_angle_gamma 53.851662
_cell_volume 617.430902
_symmetry_space_group_name_H-M "P -1"
_symmetry_group_IT_number 2
_symmetry_cell_setting 'triclinic'
loop_
_space_group_symop_operation_xyz
x,y,z
-x,-y,-z
loop_
_atom_site_type_symbol
_atom_site_label
_atom_site_fract_x
_atom_site_fract_y
_atom_site_fract_z
Si Si1 0.659420 0.250217 0.910976
Si Si2 0.445140 0.547873 0.783929
Si Si3 0.787268 0.000230 0.628170
Si Si4 0.389757 0.840806 0.808088
Si Si5 0.843372 0.859446 0.407436
Si Si6 0.151607 0.474333 0.958980
Si Si7 0.358976 0.221553 0.570989
O O1 0.531016 0.413448 0.769261
O O2 0.487446 0.256304 0.710669
O O3 0.687648 0.210413 0.117348
O O4 0.970438 0.099477 0.082939
O O5 0.131522 0.714185 0.533635
O O6 0.500000 0.500000 0.000000
O O7 0.623609 0.555094 0.839868
O O8 0.754406 0.100990 0.459533
O O9 0.520673 0.113234 0.542068
O O10 0.853471 0.874193 0.595036
O O11 0.316470 0.979036 0.805058
O O12 0.706060 0.680976 0.007748
O O13 0.662029 0.847973 0.293387
O O14 0.948248 0.617614 0.690498
O O15 0.000000 0.500000 0.000000
#
# Coordination Sequence:
#
# PCOD8012904 Si02
#       7
#     2   2   2   2   2   2   2
#     4  12  24  40  65  99 129 170 214 266 328 371
#     4  12  21  41  67  93 126 174 219 259 312 398
#     4  10  21  40  64  90 125 173 217 255 316 384
#     4  10  22  38  69  90 124 171 221 257 305 395
#     4  10  22  39  68  94 124 173 225 251 315 388
#     4  12  23  42  67  95 126 171 218 265 317 388
#     4  12  24  40  64  98 136 163 210 278 322 373
#
# _framework density 22.674600999999999
#
# number of rings (size 3 to 8) (size 9 to 14) (size 15 to 20)
#    0.857    0.000    5.714    1.286    2.000    4.000 
#    0.000    0.714    0.000    0.000    0.000    0.000 
#    0.000    0.000    0.000    0.000    0.000    0.000 
#
# Total GULP energy -173449.080990 kJ/mol
# GULP energy per Si atom -12389.220071 kJ/mol
# Density = 2.262299 g / cm^3
# Si number density = 22.674601 Si / 1000 Ang^3
#
#
#
# Elastic Constant Matrix: (Units=GPa)
#
#
# Indices 1 2 3 4 5 6 
#
# 1 91.2000 26.9076 18.4433 -11.6263 10.5360 13.7295
# 2 26.9076 87.3720 57.6516 -31.4112 9.8813 14.9325
# 3 18.4433 57.6516 92.1723 -30.3215 18.4307 1.0813
# 4 -11.6263 -31.4112 -30.3215 45.6731 4.6246 1.0765
# 5 10.5360 9.8813 18.4307 4.6246 24.8784 -4.2702
# 6 13.7295 14.9325 1.0813 1.0765 -4.2702 31.1496
#
#
#
# Elastic Compliance Matrix: (Units=1/GPa)
#
#
# Indices 1 2 3 4 5 6 
#
# 1 0.013607 -0.001462 0.001294 0.004290 -0.008070 -0.006596
# 2 -0.001462 0.025906 -0.010991 0.011024 -0.005733 -0.012560
# 3 0.001294 -0.010991 0.023908 0.010185 -0.015550 0.001385
# 4 0.004290 0.011024 0.010185 0.039969 -0.023247 -0.012097
# 5 -0.008070 -0.005733 -0.015550 -0.023247 0.064564 0.016499
# 6 -0.006596 -0.012560 0.001385 -0.012097 0.016499 0.043663
#
#
# Mechanical properties :
#
#
# Convention : Reuss Voigt Hill
#
# Bulk Modulus (GPa) = 24.32871 52.97216 38.65044
# Shear Modulus (GPa) = 20.19095 31.52301 25.85698
#
# Velocity S-wave (km/s) = 2.98730 3.73263 3.38057
# Velocity P-wave (km/s) = 4.75935 6.47992 5.68510
#
# Compressibility (1/GPa) = 0.04110369
#
# Stress axis : x y z
#
# Youngs Moduli (GPa) = 73.49329 38.60105 41.82637
#
# Poissons Ratio (x) = 0.05644 -0.05413
# Poissons Ratio (y) = 0.10746 0.45970
# Poissons Ratio (z) = -0.09511 0.42425
#
# Static dielectric constant tensor:
#      x y z
#    x 4.003170 0.162700 0.267810 
#    y 0.162700 4.283190 -0.596580 
#    z 0.267810 -0.596580 4.277330 
# 
# 
# High freq. dielectric constant tensor:
#      x y z
#    x 1.883330 0.014560 0.019160 
#    y 0.014560 1.886970 -0.036820 
#    z 0.019160 -0.036820 1.887670 
# 
# From -- ./inp_files/397305.got.cif
#   From: 2010.06.25/outbox.cif.g09.slc.cpg/sg2_199_cif.got.tgz:397305.got - 2010.06.27 13:26:56.
