data_PCOD8012278
_publ_section_title
;
Structure prediction by ZEFSAII (Michael W. Deem and Ramdas Pophale) SiO2 
 PCOD8012278
Probable space group: P -1
;
_chemical_formula_sum "Si O2"
_cell_formula_units_Z 16
_cell_length_a 8.641194
_cell_length_b 14.653665
_cell_length_c 8.909810
_cell_angle_alpha 136.546985
_cell_angle_beta 92.073535
_cell_angle_gamma 74.234525
_cell_volume 724.301180
_symmetry_space_group_name_H-M "P -1"
_symmetry_group_IT_number 2
_symmetry_cell_setting 'triclinic'
loop_
_space_group_symop_operation_xyz
x,y,z
-x,-y,-z
loop_
_atom_site_type_symbol
_atom_site_label
_atom_site_fract_x
_atom_site_fract_y
_atom_site_fract_z
Si Si1 0.312000 0.739327 0.014267
Si Si2 0.114795 0.143641 0.263459
Si Si3 0.949514 0.466056 0.618725
Si Si4 0.020715 0.073122 0.870947
Si Si5 0.379679 0.163418 0.506614
Si Si6 0.284908 0.990448 0.539571
Si Si7 0.401507 0.397211 0.336549
Si Si8 0.273910 0.453294 0.720840
O O1 0.294390 0.856576 0.278531
O O2 0.142235 0.783527 0.965434
O O3 0.462758 0.735459 0.903046
O O4 0.339215 0.583763 0.901023
O O5 0.294521 0.128816 0.314128
O O6 0.983529 0.301595 0.449323
O O7 0.138698 0.082049 0.022030
O O8 0.036212 0.060063 0.271321
O O9 0.750828 0.545517 0.720545
O O10 0.000000 0.500000 0.500000
O O11 0.070866 0.510510 0.790309
O O12 0.111039 0.055540 0.694396
O O13 0.573743 0.068776 0.399029
O O14 0.349231 0.332952 0.708205
O O15 0.303356 0.120956 0.603378
O O16 0.500000 0.500000 0.500000
O O17 0.333039 0.369170 0.462043
#
# Coordination Sequence:
#
# PCOD8012278 Si02
#       8
#     2   2   2   2   2   2   2   2
#     4  11  22  41  64  94 128 171 209 252 321 382
#     4  10  21  39  68  95 120 157 224 257 302 378
#     4   9  17  36  58  95 128 157 195 267 320 357
#     4  11  23  40  66  93 123 170 211 259 308 373
#     4  10  23  46  60  94 125 166 209 263 314 374
#     4  11  25  45  64  84 138 171 203 256 321 383
#     4   9  18  34  63  94 129 160 203 268 314 360
#     4   9  20  39  66  92 126 158 217 263 306 370
#
# _framework density 22.090257999999999
#
# number of rings (size 3 to 8) (size 9 to 14) (size 15 to 20)
#    0.000    2.000    1.250    2.625    0.000    5.000 
#   18.000    0.625    0.000    0.000    0.000    0.000 
#    0.000    0.000    0.000    0.000    0.000    0.000 
#
# Total GULP energy -198263.188210 kJ/mol
# GULP energy per Si atom -12391.449263 kJ/mol
# Density = 2.203998 g / cm^3
# Si number density = 22.090258 Si / 1000 Ang^3
#
#
#
# Elastic Constant Matrix: (Units=GPa)
#
#
# Indices 1 2 3 4 5 6 
#
# 1 107.9232 42.8843 40.1682 0.7014 -14.8810 -16.5531
# 2 42.8843 138.3622 30.5767 20.1106 -3.2646 0.8504
# 3 40.1682 30.5767 68.5652 2.7738 -20.5605 0.4704
# 4 0.7014 20.1106 2.7738 22.1920 2.2024 5.8350
# 5 -14.8810 -3.2646 -20.5605 2.2024 33.3992 5.9401
# 6 -16.5531 0.8504 0.4704 5.8350 5.9401 38.1618
#
#
#
# Elastic Compliance Matrix: (Units=1/GPa)
#
#
# Indices 1 2 3 4 5 6 
#
# 1 0.013977 -0.003101 -0.006719 0.001601 0.000638 0.005870
# 2 -0.003101 0.009991 -0.002761 -0.008458 -0.001547 0.000000
# 3 -0.006719 -0.002761 0.023399 -0.000090 0.012037 -0.005001
# 4 0.001601 -0.008458 -0.000090 0.054804 -0.002519 -0.007103
# 5 0.000638 -0.001547 0.012037 -0.002519 0.038622 -0.005463
# 6 0.005870 0.000000 -0.005001 -0.007103 -0.005463 0.030749
#
#
# Mechanical properties :
#
#
# Convention : Reuss Voigt Hill
#
# Bulk Modulus (GPa) = 45.03194 60.23434 52.63314
# Shear Modulus (GPa) = 24.49718 32.16538 28.33128
#
# Velocity S-wave (km/s) = 3.33372 3.82001 3.58512
# Velocity P-wave (km/s) = 5.93699 6.83983 6.40434
#
# Compressibility (1/GPa) = 0.02220646
#
# Stress axis : x y z
#
# Youngs Moduli (GPa) = 71.54747 100.08569 42.73633
#
# Poissons Ratio (x) = 0.31036 0.28714
# Poissons Ratio (y) = 0.22186 0.11798
# Poissons Ratio (z) = 0.48072 0.27631
#
# Static dielectric constant tensor:
#      x y z
#    x 4.538120 -0.155150 -0.058090 
#    y -0.155150 4.191420 0.082590 
#    z -0.058090 0.082590 3.684020 
# 
# 
# High freq. dielectric constant tensor:
#      x y z
#    x 1.884890 -0.004020 0.011790 
#    y -0.004020 1.875240 0.010200 
#    z 0.011790 0.010200 1.830650 
# 
# From -- ./inp_files/204244.got.cif
#   From: 2010.06.25/outbox.cif.g09.slc.cpg/sg2_103_cif.got.tgz:204244.got - 2010.06.27 13:26:56.
