data_PCOD8012205
_publ_section_title
;
Structure prediction by ZEFSAII (Michael W. Deem and Ramdas Pophale) SiO2 
 PCOD8012205
Probable space group: P -1
;
_chemical_formula_sum "Si O2"
_cell_formula_units_Z 14
_cell_length_a 8.582779
_cell_length_b 9.935877
_cell_length_c 11.317107
_cell_angle_alpha 67.887951
_cell_angle_beta 111.383098
_cell_angle_gamma 63.353417
_cell_volume 611.241325
_symmetry_space_group_name_H-M "P -1"
_symmetry_group_IT_number 2
_symmetry_cell_setting 'triclinic'
loop_
_space_group_symop_operation_xyz
x,y,z
-x,-y,-z
loop_
_atom_site_type_symbol
_atom_site_label
_atom_site_fract_x
_atom_site_fract_y
_atom_site_fract_z
Si Si1 0.253302 0.117536 0.146486
Si Si2 0.554497 0.382436 0.174254
Si Si3 0.360637 0.734247 0.329364
Si Si4 0.233783 0.636057 0.533240
Si Si5 0.747065 0.955591 0.346302
Si Si6 0.754893 0.798486 0.629076
Si Si7 0.816944 0.441235 0.797739
O O1 0.143040 0.233436 0.202482
O O2 0.236411 0.953907 0.186734
O O3 0.514878 0.009370 0.230703
O O4 0.089084 0.280602 0.948648
O O5 0.708176 0.388440 0.303297
O O6 0.318606 0.478590 0.141428
O O7 0.701168 0.153284 0.260849
O O8 0.500000 0.500000 0.000000
O O9 0.339871 0.718696 0.470418
O O10 0.627545 0.582139 0.412578
O O11 0.240086 0.667023 0.257591
O O12 0.963256 0.787922 0.377634
O O13 0.854901 0.840741 0.539759
O O14 0.768044 0.620732 0.656061
O O15 0.500000 0.000000 0.500000
#
# Coordination Sequence:
#
# PCOD8012205 Si02
#       7
#     2   2   2   2   2   2   2
#     4  11  23  40  68  98 136 172 219 275 334 388
#     4  11  24  40  67 102 135 168 221 279 337 389
#     4  10  24  44  70  92 132 185 228 259 330 408
#     4  10  24  43  67  93 132 176 228 266 326 396
#     4  11  24  40  66 101 130 171 224 278 331 380
#     4  10  21  39  67  96 132 170 225 273 323 387
#     4  11  23  43  67  99 135 179 219 269 336 399
#
# _framework density 22.904211
#
# number of rings (size 3 to 8) (size 9 to 14) (size 15 to 20)
#    0.000    1.429    2.857    2.143   14.000    0.571 
#    0.000    0.714    0.000    0.000    0.000    0.000 
#    0.000    0.000    0.000    0.000    0.000    0.000 
#
# Total GULP energy -173462.373870 kJ/mol
# GULP energy per Si atom -12390.169562 kJ/mol
# Density = 2.285208 g / cm^3
# Si number density = 22.904211 Si / 1000 Ang^3
#
#
#
# Elastic Constant Matrix: (Units=GPa)
#
#
# Indices 1 2 3 4 5 6 
#
# 1 77.0389 34.1450 47.6236 -9.0658 0.3482 -6.8913
# 2 34.1450 91.5647 30.1604 -6.8984 -4.1821 13.7253
# 3 47.6236 30.1604 101.5317 -2.4836 -6.7950 1.9881
# 4 -9.0658 -6.8984 -2.4836 26.8396 2.0259 -7.3817
# 5 0.3482 -4.1821 -6.7950 2.0259 49.4331 -9.8853
# 6 -6.8913 13.7253 1.9881 -7.3817 -9.8853 35.5263
#
#
#
# Elastic Compliance Matrix: (Units=1/GPa)
#
#
# Indices 1 2 3 4 5 6 
#
# 1 0.023075 -0.006440 -0.008926 0.007812 -0.000463 0.008958
# 2 -0.006440 0.014746 -0.001250 -0.000416 -0.000269 -0.007038
# 3 -0.008926 -0.001250 0.014492 -0.002715 0.001626 -0.002171
# 4 0.007812 -0.000416 -0.002715 0.042468 -0.000078 0.010630
# 5 -0.000463 -0.000269 0.001626 -0.000078 0.021621 0.005923
# 6 0.008958 -0.007038 -0.002171 0.010630 0.005923 0.036583
#
#
# Mechanical properties :
#
#
# Convention : Reuss Voigt Hill
#
# Bulk Modulus (GPa) = 52.40715 54.88813 53.64764
# Shear Modulus (GPa) = 25.96358 32.90691 29.43524
#
# Velocity S-wave (km/s) = 3.37051 3.79452 3.58878
# Velocity P-wave (km/s) = 6.17072 6.57374 6.37542
#
# Compressibility (1/GPa) = 0.01908136
#
# Stress axis : x y z
#
# Youngs Moduli (GPa) = 43.33660 67.81598 69.00383
#
# Poissons Ratio (x) = 0.43675 0.61590
# Poissons Ratio (y) = 0.27910 0.08625
# Poissons Ratio (z) = 0.38681 0.08476
#
# Static dielectric constant tensor:
#      x y z
#    x -32.277480 22.029550 20.584120 
#    y 22.029550 -8.873260 -12.176560 
#    z 20.584120 -12.176560 -7.019750 
# 
# 
# High freq. dielectric constant tensor:
#      x y z
#    x 1.888610 -0.004580 0.005000 
#    y -0.004580 1.900170 -0.015330 
#    z 0.005000 -0.015330 1.911200 
# 
# From -- ./inp_files/381736.got.cif
#   From: 2010.06.25/outbox.cif.g09.slc.cpg/sg2_191_cif.got.tgz:381736.got - 2010.06.27 13:26:56.
