data_PCOD8012518
_publ_section_title
;
Structure prediction by ZEFSAII (Michael W. Deem and Ramdas Pophale) SiO2 
 PCOD8012518
Probable space group: P -1
;
_chemical_formula_sum "Si O2"
_cell_formula_units_Z 16
_cell_length_a 13.847724
_cell_length_b 14.927108
_cell_length_c 6.562996
_cell_angle_alpha 58.109319
_cell_angle_beta 69.154366
_cell_angle_gamma 41.688857
_cell_volume 764.275853
_symmetry_space_group_name_H-M "P -1"
_symmetry_group_IT_number 2
_symmetry_cell_setting 'triclinic'
loop_
_space_group_symop_operation_xyz
x,y,z
-x,-y,-z
loop_
_atom_site_type_symbol
_atom_site_label
_atom_site_fract_x
_atom_site_fract_y
_atom_site_fract_z
Si Si1 0.945376 0.782210 0.190038
Si Si2 0.686222 0.123335 0.948984
Si Si3 0.778946 0.429080 0.045128
Si Si4 0.989936 0.364535 0.285499
Si Si5 0.504029 0.277834 0.291771
Si Si6 0.846227 0.669134 0.144692
Si Si7 0.525216 0.858917 0.179910
Si Si8 0.611407 0.359151 0.443059
O O1 0.860612 0.735838 0.247147
O O2 0.979540 0.751221 0.441403
O O3 0.096248 0.686758 0.072721
O O4 0.843676 0.956266 0.025362
O O5 0.562875 0.136589 0.934183
O O6 0.704920 0.214428 0.689927
O O7 0.634379 0.188808 0.137184
O O8 0.846061 0.443212 0.168024
O O9 0.717803 0.361901 0.246086
O O10 0.653637 0.593461 0.847745
O O11 0.968754 0.489926 0.272497
O O12 0.129850 0.274842 0.140740
O O13 0.515087 0.157458 0.546022
O O14 0.521935 0.359437 0.340779
O O15 0.695160 0.716390 0.192655
O O16 0.500000 0.000000 0.000000
O O17 0.500000 0.500000 0.500000
#
# Coordination Sequence:
#
# PCOD8012518 Si02
#       8
#     2   2   2   2   2   2   2   2
#     4  11  24  40  64  95 136 170 215 261 328 386
#     4  11  25  43  64 103 131 172 214 272 326 387
#     4  11  24  43  69  98 124 173 221 268 322 385
#     4  10  23  39  65  90 135 169 221 262 316 382
#     4  11  25  42  71  97 128 166 224 267 326 390
#     4  10  21  40  60  93 128 178 216 260 318 379
#     4  11  23  40  65  94 137 168 215 262 319 380
#     4  11  25  45  73  95 129 163 221 279 326 382
#
# _framework density 20.934849
#
# number of rings (size 3 to 8) (size 9 to 14) (size 15 to 20)
#    0.000    1.250    2.500    2.250    5.250    5.000 
#    0.000    1.250    0.000    0.000    0.000    0.000 
#    0.000    0.000    0.000    0.000    0.000    0.000 
#
# Total GULP energy -198427.460323 kJ/mol
# GULP energy per Si atom -12401.716270 kJ/mol
# Density = 2.088720 g / cm^3
# Si number density = 20.934849 Si / 1000 Ang^3
#
#
#
# Elastic Constant Matrix: (Units=GPa)
#
#
# Indices 1 2 3 4 5 6 
#
# 1 56.0504 12.9276 40.0675 0.8172 -9.7245 2.2752
# 2 12.9276 88.1132 37.9904 -5.7973 9.0127 -2.4561
# 3 40.0675 37.9904 146.6473 -10.0134 -2.7496 3.5298
# 4 0.8172 -5.7973 -10.0134 32.6203 2.9333 -5.6702
# 5 -9.7245 9.0127 -2.7496 2.9333 34.2900 3.4477
# 6 2.2752 -2.4561 3.5298 -5.6702 3.4477 33.4295
#
#
#
# Elastic Compliance Matrix: (Units=1/GPa)
#
#
# Indices 1 2 3 4 5 6 
#
# 1 0.024160 -0.001990 -0.006154 -0.003970 0.007481 -0.002586
# 2 -0.001990 0.013641 -0.002973 0.002406 -0.004831 0.002358
# 3 -0.006154 -0.002973 0.009442 0.002501 -0.000387 -0.000332
# 4 -0.003970 0.002406 0.002501 0.033517 -0.005067 0.006390
# 5 0.007481 -0.004831 -0.000387 -0.005067 0.033473 -0.005135
# 6 -0.002586 0.002358 -0.000332 0.006390 -0.005135 0.031912
#
#
# Mechanical properties :
#
#
# Convention : Reuss Voigt Hill
#
# Bulk Modulus (GPa) = 39.98558 52.53132 46.25845
# Shear Modulus (GPa) = 28.29401 33.38964 30.84183
#
# Velocity S-wave (km/s) = 3.68030 3.99799 3.84243
# Velocity P-wave (km/s) = 6.09926 6.81609 6.46762
#
# Compressibility (1/GPa) = 0.02500902
#
# Stress axis : x y z
#
# Youngs Moduli (GPa) = 41.39065 73.30824 105.90580
#
# Poissons Ratio (x) = 0.14586 0.65177
# Poissons Ratio (y) = 0.08236 0.31489
# Poissons Ratio (z) = 0.25473 0.21797
#
# Static dielectric constant tensor:
#      x y z
#    x 3.845490 0.015510 -0.096910 
#    y 0.015510 3.731240 0.019820 
#    z -0.096910 0.019820 4.101400 
# 
# 
# High freq. dielectric constant tensor:
#      x y z
#    x 1.814780 0.000830 -0.001510 
#    y 0.000830 1.816600 0.003150 
#    z -0.001510 0.003150 1.835210 
# 
# From -- ./inp_files/81030.got.cif
#   From: 2010.06.25/outbox.cif.g09.slc.cpg/sg2_41_cif.got.tgz:81030.got - 2010.06.27 13:26:56.
