data_PCOD8012410
_publ_section_title
;
Structure prediction by ZEFSAII (Michael W. Deem and Ramdas Pophale) SiO2 
 PCOD8012410
Probable space group: P -1
;
_chemical_formula_sum "Si O2"
_cell_formula_units_Z 16
_cell_length_a 14.279852
_cell_length_b 14.452730
_cell_length_c 14.679164
_cell_angle_alpha 146.495552
_cell_angle_beta 26.570468
_cell_angle_gamma 140.395905
_cell_volume 744.269154
_symmetry_space_group_name_H-M "P -1"
_symmetry_group_IT_number 2
_symmetry_cell_setting 'triclinic'
loop_
_space_group_symop_operation_xyz
x,y,z
-x,-y,-z
loop_
_atom_site_type_symbol
_atom_site_label
_atom_site_fract_x
_atom_site_fract_y
_atom_site_fract_z
Si Si1 0.862316 0.884838 0.863004
Si Si2 0.188115 0.384954 0.735652
Si Si3 0.207216 0.399982 0.029010
Si Si4 0.202319 0.644010 0.392167
Si Si5 0.349640 0.534197 0.547738
Si Si6 0.326919 0.459733 0.305660
Si Si7 0.054419 0.781621 0.045149
Si Si8 0.386044 0.133902 0.765178
O O1 0.704470 0.742503 0.834992
O O2 0.071232 0.804817 0.649057
O O3 0.740065 0.956067 0.114064
O O4 0.924201 0.031288 0.857949
O O5 0.254499 0.374229 0.562358
O O6 0.397800 0.458269 0.667893
O O7 0.000000 0.500000 0.000000
O O8 0.083993 0.214592 0.737489
O O9 0.433083 0.475881 0.861718
O O10 0.219112 0.218199 0.917147
O O11 0.119747 0.532088 0.284738
O O12 0.062051 0.362348 0.037261
O O13 0.184332 0.530829 0.407173
O O14 0.445935 0.713849 0.221419
O O15 0.255408 0.518876 0.515487
O O16 0.281855 0.707835 0.796255
O O17 0.500000 0.000000 0.500000
#
# Coordination Sequence:
#
# PCOD8012410 Si02
#       8
#     2   2   2   2   2   2   2   2
#     4  12  25  39  60  93 134 172 208 260 314 359
#     4   9  20  43  66  98 119 150 208 268 317 379
#     4  11  21  41  61  85 126 178 216 254 295 368
#     4  11  23  41  60  85 133 177 222 255 288 371
#     4  10  21  39  73  90 119 163 210 257 316 384
#     4  11  21  41  62  90 123 174 219 253 304 371
#     4  11  24  37  63  98 128 158 210 263 318 367
#     4  11  24  38  54  85 128 169 213 263 305 351
#
# _framework density 21.497599999999998
#
# number of rings (size 3 to 8) (size 9 to 14) (size 15 to 20)
#    0.000    1.250    3.750    2.625    5.250    2.000 
#    0.000    0.625    0.000    6.750    0.000    0.000 
#    0.000    0.000    0.000    0.000    0.000    0.000 
#
# Total GULP energy -198314.620189 kJ/mol
# GULP energy per Si atom -12394.663762 kJ/mol
# Density = 2.144867 g / cm^3
# Si number density = 21.497600 Si / 1000 Ang^3
#
#
#
# Elastic Constant Matrix: (Units=GPa)
#
#
# Indices 1 2 3 4 5 6 
#
# 1 80.9935 36.8191 20.8152 -1.2591 -0.6671 -22.2137
# 2 36.8191 139.4350 39.4898 -9.3529 3.8166 -43.3867
# 3 20.8152 39.4898 99.9241 -6.3902 -2.0681 -21.0740
# 4 -1.2591 -9.3529 -6.3902 32.6945 -3.9562 4.6507
# 5 -0.6671 3.8166 -2.0681 -3.9562 27.0284 -9.9804
# 6 -22.2137 -43.3867 -21.0740 4.6507 -9.9804 38.7887
#
#
#
# Elastic Compliance Matrix: (Units=1/GPa)
#
#
# Indices 1 2 3 4 5 6 
#
# 1 0.015368 -0.001630 -0.000993 -0.000732 0.003134 0.007332
# 2 -0.001630 0.011806 -0.001654 0.001638 0.002799 0.011897
# 3 -0.000993 -0.001654 0.012028 0.001542 0.003101 0.004729
# 4 -0.000732 0.001638 0.001542 0.031921 0.004374 -0.000452
# 5 0.003134 0.002799 0.003101 0.004374 0.043984 0.017403
# 6 0.007332 0.011897 0.004729 -0.000452 0.017403 0.050388
#
#
# Mechanical properties :
#
#
# Convention : Reuss Voigt Hill
#
# Bulk Modulus (GPa) = 32.62874 57.17785 44.90330
# Shear Modulus (GPa) = 27.13463 34.58425 30.85944
#
# Velocity S-wave (km/s) = 3.55662 4.01527 3.79289
# Velocity P-wave (km/s) = 5.66365 6.93914 6.33358
#
# Compressibility (1/GPa) = 0.03064783
#
# Stress axis : x y z
#
# Youngs Moduli (GPa) = 65.06865 84.70396 83.13677
#
# Poissons Ratio (x) = 0.13810 0.08252
# Poissons Ratio (y) = 0.10609 0.13754
# Poissons Ratio (z) = 0.06459 0.14013
#
# Static dielectric constant tensor:
#      x y z
#    x 4.049110 -0.220060 0.008900 
#    y -0.220060 4.126460 -0.408310 
#    z 0.008900 -0.408310 3.769890 
# 
# 
# High freq. dielectric constant tensor:
#      x y z
#    x 1.835970 -0.008360 -0.011590 
#    y -0.008360 1.847940 -0.039520 
#    z -0.011590 -0.039520 1.840790 
# 
# From -- ./inp_files/534517.got.cif
#   From: 2010.06.25/outbox.cif.g09.slc.cpg/sg2_268_cif.got.tgz:534517.got - 2010.06.27 13:26:56.
