data_PCOD8012364
_publ_section_title
;
Structure prediction by ZEFSAII (Michael W. Deem and Ramdas Pophale) SiO2 
 PCOD8012364
Probable space group: P -1
;
_chemical_formula_sum "Si O2"
_cell_formula_units_Z 14
_cell_length_a 12.365015
_cell_length_b 11.809010
_cell_length_c 14.525775
_cell_angle_alpha 138.337433
_cell_angle_beta 149.736981
_cell_angle_gamma 36.161210
_cell_volume 621.851038
_symmetry_space_group_name_H-M "P -1"
_symmetry_group_IT_number 2
_symmetry_cell_setting 'triclinic'
loop_
_space_group_symop_operation_xyz
x,y,z
-x,-y,-z
loop_
_atom_site_type_symbol
_atom_site_label
_atom_site_fract_x
_atom_site_fract_y
_atom_site_fract_z
Si Si1 0.228287 0.807677 0.015639
Si Si2 0.630998 0.796086 0.419375
Si Si3 0.432872 0.907046 0.048231
Si Si4 0.043574 0.756615 0.176403
Si Si5 0.107490 0.432374 0.894616
Si Si6 0.378484 0.949769 0.576387
Si Si7 0.112604 0.353342 0.310325
O O1 0.443608 0.731311 0.202147
O O2 0.314656 0.833731 0.994783
O O3 0.138856 0.648635 0.852885
O O4 0.000000 0.000000 0.000000
O O5 0.802897 0.620847 0.509121
O O6 0.500000 0.000000 0.500000
O O7 0.763852 0.846257 0.462443
O O8 0.611087 0.730231 0.006794
O O9 0.596860 0.999412 0.268455
O O10 0.221287 0.057132 0.917207
O O11 0.250697 0.817780 0.387573
O O12 0.042377 0.632325 0.187070
O O13 0.108479 0.625569 0.052209
O O14 0.965088 0.474566 0.717008
O O15 0.663483 0.840910 0.686509
#
# Coordination Sequence:
#
# PCOD8012364 Si02
#       7
#     2   2   2   2   2   2   2
#     4  11  18  35  65  93 129 166 205 257 324 377
#     4   9  18  30  59  96 116 164 211 247 308 390
#     4  11  23  45  67  98 126 168 219 266 312 389
#     4  11  24  47  66  90 129 176 211 273 322 368
#     4  11  26  44  65  95 131 168 221 265 320 375
#     4  10  21  39  70  93 125 172 215 255 327 378
#     4  11  21  37  60  96 129 167 208 256 313 395
#
# _framework density 22.513428999999999
#
# number of rings (size 3 to 8) (size 9 to 14) (size 15 to 20)
#    0.000    1.429    5.714    1.286    6.000    1.714 
#    2.571    2.857    0.000    0.000    0.000    0.000 
#    0.000    0.000    0.000    0.000    0.000    0.000 
#
# Total GULP energy -173474.027701 kJ/mol
# GULP energy per Si atom -12391.001979 kJ/mol
# Density = 2.246219 g / cm^3
# Si number density = 22.513429 Si / 1000 Ang^3
#
#
#
# Elastic Constant Matrix: (Units=GPa)
#
#
# Indices 1 2 3 4 5 6 
#
# 1 78.3522 25.1618 47.0362 0.4779 5.0313 16.2202
# 2 25.1618 71.8080 42.5552 -14.4571 1.0566 5.3295
# 3 47.0362 42.5552 154.6984 -3.6041 2.5155 28.7048
# 4 0.4779 -14.4571 -3.6041 14.9978 10.0994 -3.8520
# 5 5.0313 1.0566 2.5155 10.0994 28.1522 -10.0427
# 6 16.2202 5.3295 28.7048 -3.8520 -10.0427 41.1017
#
#
#
# Elastic Compliance Matrix: (Units=1/GPa)
#
#
# Indices 1 2 3 4 5 6 
#
# 1 0.017509 -0.005100 -0.003042 -0.005930 -0.002419 -0.005271
# 2 -0.005100 0.024441 -0.004849 0.029423 -0.009146 0.002753
# 3 -0.003042 -0.004849 0.009684 -0.002963 -0.001025 -0.005462
# 4 -0.005930 0.029423 -0.002963 0.124459 -0.043880 0.001536
# 5 -0.002419 -0.009146 -0.001025 -0.043880 0.056617 0.012578
# 6 -0.005271 0.002753 -0.005462 0.001536 0.012578 0.033085
#
#
# Mechanical properties :
#
#
# Convention : Reuss Voigt Hill
#
# Bulk Modulus (GPa) = 38.98204 59.37390 49.17797
# Shear Modulus (GPa) = 16.64848 29.52403 23.08626
#
# Velocity S-wave (km/s) = 2.72231 3.62525 3.20573
# Velocity P-wave (km/s) = 5.21861 6.62972 5.96603
#
# Compressibility (1/GPa) = 0.02565284
#
# Stress axis : x y z
#
# Youngs Moduli (GPa) = 57.11271 40.91523 103.26128
#
# Poissons Ratio (x) = 0.20866 0.31408
# Poissons Ratio (y) = 0.29126 0.50075
# Poissons Ratio (z) = 0.17371 0.19841
#
# Static dielectric constant tensor:
#      x y z
#    x 4.203350 0.204120 -0.178600 
#    y 0.204120 3.851440 -0.163670 
#    z -0.178600 -0.163670 4.542300 
# 
# 
# High freq. dielectric constant tensor:
#      x y z
#    x 1.888880 0.009350 -0.012380 
#    y 0.009350 1.866270 -0.011780 
#    z -0.012380 -0.011780 1.885750 
# 
# From -- ./inp_files/426323.got.cif
#   From: 2010.06.25/outbox.cif.g09.slc.cpg/sg2_214_cif.got.tgz:426323.got - 2010.06.27 13:26:56.
