data_PCOD8012823
_publ_section_title
;
Structure prediction by ZEFSAII (Michael W. Deem and Ramdas Pophale) SiO2 
 PCOD8012823
Probable space group: P -1
;
_chemical_formula_sum "Si O2"
_cell_formula_units_Z 16
_cell_length_a 22.736950
_cell_length_b 10.160690
_cell_length_c 8.871316
_cell_angle_alpha 43.552589
_cell_angle_beta 54.719267
_cell_angle_gamma 33.900417
_cell_volume 786.086177
_symmetry_space_group_name_H-M "P -1"
_symmetry_group_IT_number 2
_symmetry_cell_setting 'triclinic'
loop_
_space_group_symop_operation_xyz
x,y,z
-x,-y,-z
loop_
_atom_site_type_symbol
_atom_site_label
_atom_site_fract_x
_atom_site_fract_y
_atom_site_fract_z
Si Si1 0.250197 0.718166 0.501393
Si Si2 0.397568 0.141686 0.621781
Si Si3 0.918642 0.334294 0.509127
Si Si4 0.696336 0.815550 0.553640
Si Si5 0.096266 0.701650 0.788240
Si Si6 0.458284 0.178120 0.064317
Si Si7 0.933469 0.651827 0.820650
Si Si8 0.386852 0.660252 0.596617
O O1 0.325873 0.470363 0.473462
O O2 0.188373 0.671039 0.724779
O O3 0.319141 0.704610 0.525843
O O4 0.170002 0.013322 0.284836
O O5 0.337548 0.099860 0.643376
O O6 0.500000 0.000000 0.500000
O O7 0.436550 0.986025 0.854652
O O8 0.821320 0.531598 0.605009
O O9 0.882864 0.386619 0.344952
O O10 0.990387 0.387540 0.379237
O O11 0.982986 0.018945 0.718765
O O12 0.629950 0.775345 0.760646
O O13 0.677808 0.041120 0.486993
O O14 0.101094 0.497171 0.051022
O O15 0.402427 0.484463 0.856070
O O16 0.500000 0.000000 0.000000
O O17 0.000000 0.500000 0.000000
O O18 0.500000 0.500000 0.500000
#
# Coordination Sequence:
#
# PCOD8012823 Si02
#       8
#     2   2   2   2   2   2   2   2
#     4  11  21  39  66  92 128 177 214 262 336 383
#     4  10  21  40  63  95 130 165 220 279 319 382
#     4   9  18  36  60  93 130 161 204 278 321 375
#     4  11  23  40  65  98 131 166 220 282 319 382
#     4   9  18  36  61  91 130 167 207 260 331 394
#     4  11  22  43  66  88 130 182 219 262 334 395
#     4   9  20  36  63 100 127 162 220 266 324 403
#     4  12  25  43  63  92 134 177 220 269 325 397
#
# _framework density 20.354005000000001
#
# number of rings (size 3 to 8) (size 9 to 14) (size 15 to 20)
#    0.000    1.750    3.750    1.500    0.000    3.500 
#    6.750    2.500    0.000    4.500    0.000    0.000 
#    0.000    0.000    0.000    0.000    0.000    0.000 
#
# Total GULP energy -198294.260833 kJ/mol
# GULP energy per Si atom -12393.391302 kJ/mol
# Density = 2.030768 g / cm^3
# Si number density = 20.354005 Si / 1000 Ang^3
#
#
#
# Elastic Constant Matrix: (Units=GPa)
#
#
# Indices 1 2 3 4 5 6 
#
# 1 113.7449 47.1395 27.8387 0.6035 -11.4668 -1.1332
# 2 47.1395 158.8925 39.0518 -1.9931 -11.7187 -12.1301
# 3 27.8387 39.0518 93.0063 -12.8282 -17.1020 -9.4220
# 4 0.6035 -1.9931 -12.8282 27.4015 2.3570 0.9771
# 5 -11.4668 -11.7187 -17.1020 2.3570 36.5610 -1.3040
# 6 -1.1332 -12.1301 -9.4220 0.9771 -1.3040 32.5947
#
#
#
# Elastic Compliance Matrix: (Units=1/GPa)
#
#
# Indices 1 2 3 4 5 6 
#
# 1 0.010534 -0.002599 -0.002095 -0.001496 0.001548 -0.001100
# 2 -0.002599 0.007830 -0.002219 -0.000558 0.000772 0.002230
# 3 -0.002095 -0.002219 0.014421 0.006080 0.005103 0.003292
# 4 -0.001496 -0.000558 0.006080 0.039351 -0.000330 0.000305
# 5 0.001548 0.000772 0.005103 -0.000330 0.030602 0.003050
# 6 -0.001100 0.002230 0.003292 0.000305 0.003050 0.032536
#
#
# Mechanical properties :
#
#
# Convention : Reuss Voigt Hill
#
# Bulk Modulus (GPa) = 52.74245 65.96709 59.35477
# Shear Modulus (GPa) = 32.17098 36.08568 34.12833
#
# Velocity S-wave (km/s) = 3.97995 4.21515 4.09924
# Velocity P-wave (km/s) = 6.86213 7.49468 7.18537
#
# Compressibility (1/GPa) = 0.01896006
#
# Stress axis : x y z
#
# Youngs Moduli (GPa) = 94.92631 127.71157 69.34291
#
# Poissons Ratio (x) = 0.33192 0.14527
# Poissons Ratio (y) = 0.24671 0.15386
# Poissons Ratio (z) = 0.19887 0.28338
#
# Static dielectric constant tensor:
#      x y z
#    x 4.383670 -0.166270 -1.237270 
#    y -0.166270 3.770930 -0.138070 
#    z -1.237270 -0.138070 -11.784260 
# 
# 
# High freq. dielectric constant tensor:
#      x y z
#    x 1.798760 -0.015590 -0.012610 
#    y -0.015590 1.800540 -0.013580 
#    z -0.012610 -0.013580 1.775010 
# 
# From -- ./inp_files/343312.got.cif
#   From: 2010.06.25/outbox.cif.g09.slc.cpg/sg2_172_cif.got.tgz:343312.got - 2010.06.27 13:26:56.
