data_PCOD8012843
_publ_section_title
;
Structure prediction by ZEFSAII (Michael W. Deem and Ramdas Pophale) SiO2 
 PCOD8012843
Probable space group: P -1
;
_chemical_formula_sum "Si O2"
_cell_formula_units_Z 14
_cell_length_a 11.710813
_cell_length_b 14.682181
_cell_length_c 21.101420
_cell_angle_alpha 28.198379
_cell_angle_beta 22.058613
_cell_angle_gamma 39.630055
_cell_volume 621.234424
_symmetry_space_group_name_H-M "P -1"
_symmetry_group_IT_number 2
_symmetry_cell_setting 'triclinic'
loop_
_space_group_symop_operation_xyz
x,y,z
-x,-y,-z
loop_
_atom_site_type_symbol
_atom_site_label
_atom_site_fract_x
_atom_site_fract_y
_atom_site_fract_z
Si Si1 0.177368 0.341196 0.529198
Si Si2 0.848099 0.920126 0.009496
Si Si3 0.408102 0.725416 0.464887
Si Si4 0.410345 0.599444 0.359551
Si Si5 0.506483 0.924522 0.710906
Si Si6 0.256318 0.310102 0.370413
Si Si7 0.318108 0.367418 0.118716
O O1 0.450880 0.472610 0.353715
O O2 0.296895 0.252725 0.458334
O O3 0.000000 0.500000 0.500000
O O4 0.951272 0.156869 0.796837
O O5 0.142591 0.839904 0.930093
O O6 0.592846 0.876444 0.223796
O O7 0.693205 0.801481 0.098240
O O8 0.564172 0.540034 0.507297
O O9 0.046855 0.644657 0.681067
O O10 0.424618 0.840168 0.454161
O O11 0.079690 0.654029 0.495672
O O12 0.707695 0.872307 0.580794
O O13 0.604756 0.843288 0.777756
O O14 0.526362 0.519368 0.094065
O O15 0.500000 0.500000 0.000000
#
# Coordination Sequence:
#
# PCOD8012843 Si02
#       7
#     2   2   2   2   2   2   2
#     4  10  25  45  68  98 134 183 228 271 329 400
#     4  12  24  43  73  98 137 175 227 279 331 399
#     4  12  24  42  70 105 132 174 228 275 339 403
#     4  11  23  45  69 102 131 181 226 272 336 399
#     4  11  23  41  66 103 133 173 215 284 341 385
#     4  10  23  45  66  95 143 172 224 275 332 402
#     4  10  21  40  63  98 134 171 212 277 338 387
#
# _framework density 22.535775999999998
#
# number of rings (size 3 to 8) (size 9 to 14) (size 15 to 20)
#    0.000    1.143    1.429    5.571    4.000    2.857 
#    2.571    1.429    0.000    0.000    0.000    0.000 
#    0.000    0.000    0.000    0.000    0.000    0.000 
#
# Total GULP energy -173461.972954 kJ/mol
# GULP energy per Si atom -12390.140925 kJ/mol
# Density = 2.248448 g / cm^3
# Si number density = 22.535776 Si / 1000 Ang^3
#
#
#
# Elastic Constant Matrix: (Units=GPa)
#
#
# Indices 1 2 3 4 5 6 
#
# 1 115.2423 37.1548 55.9162 6.9960 -19.7571 11.1067
# 2 37.1548 91.3952 38.8116 0.1011 -12.8199 2.0512
# 3 55.9162 38.8116 100.9953 11.8709 -17.8373 -0.6656
# 4 6.9960 0.1011 11.8709 33.8671 -2.8025 -7.1753
# 5 -19.7571 -12.8199 -17.8373 -2.8025 44.0875 -2.3471
# 6 11.1067 2.0512 -0.6656 -7.1753 -2.3471 44.3823
#
#
#
# Elastic Compliance Matrix: (Units=1/GPa)
#
#
# Indices 1 2 3 4 5 6 
#
# 1 0.013077 -0.002446 -0.005728 -0.001171 0.002581 -0.003298
# 2 -0.002446 0.013800 -0.003925 0.002030 0.001475 0.000322
# 3 -0.005728 -0.003925 0.015449 -0.003733 0.002378 0.001369
# 4 -0.001171 0.002030 -0.003733 0.032292 0.000896 0.005411
# 5 0.002581 0.001475 0.002378 0.000896 0.025330 0.000806
# 6 -0.003298 0.000322 0.001369 0.005411 0.000806 0.024280
#
#
# Mechanical properties :
#
#
# Convention : Reuss Voigt Hill
#
# Bulk Modulus (GPa) = 55.16526 63.48865 59.32696
# Shear Modulus (GPa) = 32.36898 36.18405 34.27652
#
# Velocity S-wave (km/s) = 3.79402 4.01137 3.90421
# Velocity P-wave (km/s) = 6.61248 7.04900 6.83422
#
# Compressibility (1/GPa) = 0.01812735
#
# Stress axis : x y z
#
# Youngs Moduli (GPa) = 76.47077 72.46322 64.72949
#
# Poissons Ratio (x) = 0.17726 0.37078
# Poissons Ratio (y) = 0.18707 0.25406
# Poissons Ratio (z) = 0.43803 0.28441
#
# Static dielectric constant tensor:
#      x y z
#    x -5.829450 12.608000 -10.156220 
#    y 12.608000 -10.458770 11.970210 
#    z -10.156220 11.970210 -5.880690 
# 
# 
# High freq. dielectric constant tensor:
#      x y z
#    x 1.899440 -0.000380 -0.013330 
#    y -0.000380 1.899060 -0.012030 
#    z -0.013330 -0.012030 1.863570 
# 
# From -- ./inp_files/426625.got.cif
#   From: 2010.06.25/outbox.cif.g09.slc.cpg/sg2_214_cif.got.tgz:426625.got - 2010.06.27 13:26:56.
