data_PCOD8012023
_publ_section_title
;
Structure prediction by ZEFSAII (Michael W. Deem and Ramdas Pophale) SiO2 
 PCOD8012023
Probable space group: P -1
;
_chemical_formula_sum "Si O2"
_cell_formula_units_Z 14
_cell_length_a 12.418352
_cell_length_b 9.558816
_cell_length_c 12.113269
_cell_angle_alpha 128.930877
_cell_angle_beta 34.447284
_cell_angle_gamma 136.609083
_cell_volume 557.174738
_symmetry_space_group_name_H-M "P -1"
_symmetry_group_IT_number 2
_symmetry_cell_setting 'triclinic'
loop_
_space_group_symop_operation_xyz
x,y,z
-x,-y,-z
loop_
_atom_site_type_symbol
_atom_site_label
_atom_site_fract_x
_atom_site_fract_y
_atom_site_fract_z
Si Si1 0.180222 0.349616 0.704220
Si Si2 0.190310 0.769697 0.698494
Si Si3 0.501867 0.536468 0.887114
Si Si4 0.096657 0.340517 0.526788
Si Si5 0.341955 0.175992 0.671313
Si Si6 0.757271 0.226510 0.108055
Si Si7 0.614817 0.121001 0.853791
O O1 0.224219 0.344889 0.534067
O O2 0.273114 0.232503 0.642035
O O3 0.297355 0.585923 0.760711
O O4 0.919317 0.248659 0.882435
O O5 0.074218 0.547374 0.629688
O O6 0.439108 0.830823 0.541157
O O7 0.104003 0.759791 0.891725
O O8 0.164361 0.942763 0.737738
O O9 0.753285 0.670447 0.703005
O O10 0.375252 0.327414 0.820930
O O11 0.500000 0.500000 0.000000
O O12 0.369956 0.658702 0.039394
O O13 0.854783 0.149988 0.638727
O O14 0.538289 0.011854 0.182709
O O15 0.500000 0.000000 0.000000
#
# Coordination Sequence:
#
# PCOD8012023 Si02
#       7
#     2   2   2   2   2   2   2
#     4  10  21  41  70 102 130 176 232 289 341 401
#     4   9  21  41  66  97 133 179 229 284 342 405
#     4  11  26  46  69 102 141 183 233 280 347 422
#     4  10  24  47  69 103 141 180 233 284 344 411
#     4  10  21  41  70  99 134 178 231 287 341 405
#     4  10  21  39  65  97 137 177 229 280 343 410
#     4  12  24  44  69  99 143 187 221 287 346 409
#
# _framework density 25.126767999999998
#
# number of rings (size 3 to 8) (size 9 to 14) (size 15 to 20)
#    0.000    1.714    1.429    1.714    4.000    8.000 
#    5.143    0.000    0.000    0.000    0.000    0.000 
#    0.000    0.000    0.000    0.000    0.000    0.000 
#
# Total GULP energy -173567.007773 kJ/mol
# GULP energy per Si atom -12397.643412 kJ/mol
# Density = 2.506958 g / cm^3
# Si number density = 25.126768 Si / 1000 Ang^3
#
#
#
# Elastic Constant Matrix: (Units=GPa)
#
#
# Indices 1 2 3 4 5 6 
#
# 1 87.6416 50.6634 51.9323 -6.2560 2.0594 -15.9027
# 2 50.6634 104.8036 14.1983 -7.7452 -6.8754 -21.7547
# 3 51.9323 14.1983 103.7781 -21.3788 16.2688 -5.0814
# 4 -6.2560 -7.7452 -21.3788 36.2289 -0.1335 -2.9526
# 5 2.0594 -6.8754 16.2688 -0.1335 31.8948 -6.3512
# 6 -15.9027 -21.7547 -5.0814 -2.9526 -6.3512 52.3416
#
#
#
# Elastic Compliance Matrix: (Units=1/GPa)
#
#
# Indices 1 2 3 4 5 6 
#
# 1 0.024256 -0.009789 -0.012159 -0.004889 0.002944 0.002202
# 2 -0.009789 0.015192 0.003351 0.003893 0.003062 0.004256
# 3 -0.012159 0.003351 0.018405 0.009369 -0.008033 -0.000961
# 4 -0.004889 0.003893 0.009369 0.033317 -0.002975 0.002560
# 5 0.002944 0.003062 -0.008033 -0.002975 0.037046 0.005715
# 6 0.002202 0.004256 -0.000961 0.002560 0.005715 0.022288
#
#
# Mechanical properties :
#
#
# Convention : Reuss Voigt Hill
#
# Bulk Modulus (GPa) = 48.41244 58.86793 53.64019
# Shear Modulus (GPa) = 25.69584 36.05502 30.87543
#
# Velocity S-wave (km/s) = 3.20136 3.79215 3.50921
# Velocity P-wave (km/s) = 5.74230 6.53093 6.14927
#
# Compressibility (1/GPa) = 0.02065585
#
# Stress axis : x y z
#
# Youngs Moduli (GPa) = 41.22775 65.82378 54.33418
#
# Poissons Ratio (x) = 0.64437 0.66068
# Poissons Ratio (y) = 0.40359 -0.18205
# Poissons Ratio (z) = 0.50131 -0.22055
#
# Static dielectric constant tensor:
#      x y z
#    x 4.181950 -0.144790 0.165480 
#    y -0.144790 4.704350 -0.260940 
#    z 0.165480 -0.260940 4.628670 
# 
# 
# High freq. dielectric constant tensor:
#      x y z
#    x 1.981770 -0.008200 0.007920 
#    y -0.008200 2.005880 -0.013250 
#    z 0.007920 -0.013250 2.007460 
# 
# From -- ./inp_files/419637.got.cif
#   From: 2010.06.25/outbox.cif.g09.slc.cpg/sg2_210_cif.got.tgz:419637.got - 2010.06.27 13:26:56.
