data_PCOD8012298
_publ_section_title
;
Structure prediction by ZEFSAII (Michael W. Deem and Ramdas Pophale) SiO2 
 PCOD8012298
Probable space group: P -1
;
_chemical_formula_sum "Si O2"
_cell_formula_units_Z 16
_cell_length_a 13.594466
_cell_length_b 9.465230
_cell_length_c 11.719434
_cell_angle_alpha 104.069098
_cell_angle_beta 148.405464
_cell_angle_gamma 88.152951
_cell_volume 719.570206
_symmetry_space_group_name_H-M "P -1"
_symmetry_group_IT_number 2
_symmetry_cell_setting 'triclinic'
loop_
_space_group_symop_operation_xyz
x,y,z
-x,-y,-z
loop_
_atom_site_type_symbol
_atom_site_label
_atom_site_fract_x
_atom_site_fract_y
_atom_site_fract_z
Si Si1 0.479646 0.339617 0.006693
Si Si2 0.167010 0.233740 0.299796
Si Si3 0.201767 0.870267 0.948297
Si Si4 0.579912 0.411684 0.365531
Si Si5 0.097147 0.677288 0.597200
Si Si6 0.643293 0.895477 0.345408
Si Si7 0.219438 0.204915 0.086826
Si Si8 0.883383 0.240436 0.610127
O O1 0.435985 0.350720 0.099920
O O2 0.672432 0.290328 0.188734
O O3 0.500000 0.500000 0.000000
O O4 0.324257 0.207117 0.749637
O O5 0.330369 0.403075 0.509679
O O6 0.221146 0.117663 0.417117
O O7 0.170388 0.171335 0.164184
O O8 0.937316 0.218092 0.099638
O O9 0.073013 0.791192 0.693894
O O10 0.414076 0.843689 0.154138
O O11 0.234926 0.051873 0.013021
O O12 0.432348 0.344067 0.312567
O O13 0.771774 0.359604 0.553876
O O14 0.007718 0.715745 0.397728
O O15 0.000000 0.500000 0.500000
O O16 0.717196 0.070366 0.408952
O O17 0.049342 0.258207 0.872671
#
# Coordination Sequence:
#
# PCOD8012298 Si02
#       8
#     2   2   2   2   2   2   2   2
#     4  10  21  39  68  98 129 169 214 270 343 408
#     4  12  26  46  68  98 134 182 234 277 326 397
#     4  11  24  43  68 100 134 175 226 281 330 400
#     4  11  25  45  68  98 140 171 223 285 339 396
#     4  10  24  40  65 102 136 170 217 273 347 406
#     4  11  24  42  71 102 132 175 221 279 343 393
#     4  12  27  43  69  98 134 184 235 269 331 398
#     4  11  25  43  68 100 137 172 220 280 338 402
#
# _framework density 22.235496000000001
#
# number of rings (size 3 to 8) (size 9 to 14) (size 15 to 20)
#    0.000    1.000    3.750    2.250    3.500    5.000 
#    0.000    0.000    0.000    0.000    0.000    0.000 
#    0.000    0.000    0.000    0.000    0.000    0.000 
#
# Total GULP energy -198389.629945 kJ/mol
# GULP energy per Si atom -12399.351872 kJ/mol
# Density = 2.218489 g / cm^3
# Si number density = 22.235496 Si / 1000 Ang^3
#
#
#
# Elastic Constant Matrix: (Units=GPa)
#
#
# Indices 1 2 3 4 5 6 
#
# 1 96.4226 23.6242 22.8381 11.7031 -11.9066 13.0340
# 2 23.6242 94.9875 26.1449 6.5909 -12.2992 8.7238
# 3 22.8381 26.1449 74.2660 -0.3203 -15.9620 -0.5324
# 4 11.7031 6.5909 -0.3203 30.6591 13.7623 4.9880
# 5 -11.9066 -12.2992 -15.9620 13.7623 37.0175 2.1613
# 6 13.0340 8.7238 -0.5324 4.9880 2.1613 35.4902
#
#
#
# Elastic Compliance Matrix: (Units=1/GPa)
#
#
# Indices 1 2 3 4 5 6 
#
# 1 0.013284 -0.001036 -0.002587 -0.006702 0.005542 -0.004058
# 2 -0.001036 0.012711 -0.003331 -0.003758 0.003997 -0.002509
# 3 -0.002587 -0.003331 0.016611 -0.000858 0.005437 0.001808
# 4 -0.006702 -0.003758 -0.000858 0.045503 -0.020588 -0.001769
# 5 0.005542 0.003997 0.005437 -0.020588 0.040269 -0.002495
# 6 -0.004058 -0.002509 0.001808 -0.001769 -0.002495 0.030712
#
#
# Mechanical properties :
#
#
# Convention : Reuss Voigt Hill
#
# Bulk Modulus (GPa) = 34.84714 45.65449 40.25082
# Shear Modulus (GPa) = 27.38738 33.50461 30.44599
#
# Velocity S-wave (km/s) = 3.51336 3.88597 3.70435
# Velocity P-wave (km/s) = 5.67134 6.38053 6.03636
#
# Compressibility (1/GPa) = 0.02869676
#
# Stress axis : x y z
#
# Youngs Moduli (GPa) = 75.27823 78.67131 60.19989
#
# Poissons Ratio (x) = 0.08154 0.15575
# Poissons Ratio (y) = 0.07802 0.20054
# Poissons Ratio (z) = 0.19476 0.26207
#
# Static dielectric constant tensor:
#      x y z
#    x 4.249550 0.023840 -0.090590 
#    y 0.023840 3.905740 0.089910 
#    z -0.090590 0.089910 4.097050 
# 
# 
# High freq. dielectric constant tensor:
#      x y z
#    x 1.880870 0.001350 0.003810 
#    y 0.001350 1.878790 0.004580 
#    z 0.003810 0.004580 1.875380 
# 
# From -- ./inp_files/307757.got.cif
#   From: 2010.06.25/outbox.cif.g09.slc.cpg/sg2_154_cif.got.tgz:307757.got - 2010.06.27 13:26:56.
