data_PCOD8012193
_publ_section_title
;
Structure prediction by ZEFSAII (Michael W. Deem and Ramdas Pophale) SiO2 
 PCOD8012193
Probable space group: P -1
;
_chemical_formula_sum "Si O2"
_cell_formula_units_Z 16
_cell_length_a 9.326942
_cell_length_b 13.173970
_cell_length_c 12.471086
_cell_angle_alpha 137.044317
_cell_angle_beta 86.690171
_cell_angle_gamma 121.701441
_cell_volume 733.747800
_symmetry_space_group_name_H-M "P -1"
_symmetry_group_IT_number 2
_symmetry_cell_setting 'triclinic'
loop_
_space_group_symop_operation_xyz
x,y,z
-x,-y,-z
loop_
_atom_site_type_symbol
_atom_site_label
_atom_site_fract_x
_atom_site_fract_y
_atom_site_fract_z
Si Si1 0.357728 0.133232 0.525982
Si Si2 0.705148 0.285200 0.489461
Si Si3 0.026010 0.136123 0.793976
Si Si4 0.724689 0.410208 0.177036
Si Si5 0.129492 0.883825 0.559443
Si Si6 0.054644 0.727450 0.910147
Si Si7 0.470424 0.134232 0.160535
Si Si8 0.360412 0.436401 0.858425
O O1 0.567808 0.208584 0.541959
O O2 0.396482 0.337229 0.691848
O O3 0.272084 0.002489 0.539676
O O4 0.211116 0.013867 0.336788
O O5 0.776372 0.165555 0.398437
O O6 0.582855 0.227609 0.342057
O O7 0.902963 0.542568 0.685594
O O8 0.130425 0.268338 0.782408
O O9 0.099794 0.021243 0.725774
O O10 0.081400 0.285516 0.006385
O O11 0.808182 0.305610 0.071400
O O12 0.585024 0.332083 0.228492
O O13 0.592365 0.367283 0.045749
O O14 0.907002 0.663177 0.366101
O O15 0.223045 0.973075 0.050674
O O16 0.500000 0.000000 0.000000
O O17 0.500000 0.500000 0.000000
#
# Coordination Sequence:
#
# PCOD8012193 Si02
#       8
#     2   2   2   2   2   2   2   2
#     4  11  20  39  65  92 134 165 209 262 324 378
#     4  11  23  42  67  97 125 171 219 262 311 386
#     4  11  20  40  64  92 134 169 201 268 324 377
#     4  10  21  41  64  92 124 173 216 257 326 376
#     4  10  21  39  67  95 129 171 210 257 326 381
#     4  10  23  40  65  96 129 167 217 266 316 372
#     4  10  23  42  66  91 128 168 216 272 315 367
#     4  11  22  38  62  96 132 166 208 260 322 386
#
# _framework density 21.805858000000001
#
# number of rings (size 3 to 8) (size 9 to 14) (size 15 to 20)
#    0.000    1.500    3.750    1.875    0.000    9.000 
#    2.250    2.500    0.000    9.750    0.000    0.000 
#    0.000    0.000    0.000    0.000    0.000    0.000 
#
# Total GULP energy -198248.197299 kJ/mol
# GULP energy per Si atom -12390.512331 kJ/mol
# Density = 2.175623 g / cm^3
# Si number density = 21.805858 Si / 1000 Ang^3
#
#
#
# Elastic Constant Matrix: (Units=GPa)
#
#
# Indices 1 2 3 4 5 6 
#
# 1 92.5558 54.1361 36.5827 1.3314 -2.4921 3.2781
# 2 54.1361 121.2043 38.3941 6.8565 0.6210 -0.5611
# 3 36.5827 38.3941 98.5690 -1.8318 -1.5913 3.3309
# 4 1.3314 6.8565 -1.8318 25.9646 4.4084 1.3873
# 5 -2.4921 0.6210 -1.5913 4.4084 38.7151 -1.4795
# 6 3.2781 -0.5611 3.3309 1.3873 -1.4795 15.5085
#
#
#
# Elastic Compliance Matrix: (Units=1/GPa)
#
#
# Indices 1 2 3 4 5 6 
#
# 1 0.015780 -0.006022 -0.003393 0.000555 0.000803 -0.002798
# 2 -0.006022 0.011941 -0.002563 -0.003120 -0.000233 0.002512
# 3 -0.003393 -0.002563 0.012513 0.001845 0.000042 -0.002224
# 4 0.000555 -0.003120 0.001845 0.040476 -0.004626 -0.004689
# 5 0.000803 -0.000233 0.000042 -0.004626 0.026519 0.002757
# 6 -0.002798 0.002512 -0.002224 -0.004689 0.002757 0.066323
#
#
# Mechanical properties :
#
#
# Convention : Reuss Voigt Hill
#
# Bulk Modulus (GPa) = 61.43104 63.39500 62.41302
# Shear Modulus (GPa) = 24.63840 28.25206 26.44523
#
# Velocity S-wave (km/s) = 3.36504 3.60337 3.48625
# Velocity P-wave (km/s) = 6.58263 6.81528 6.69996
#
# Compressibility (1/GPa) = 0.01627842
#
# Stress axis : x y z
#
# Youngs Moduli (GPa) = 63.36956 83.74184 79.91663
#
# Poissons Ratio (x) = 0.50429 0.27118
# Poissons Ratio (y) = 0.38161 0.20483
# Poissons Ratio (z) = 0.21503 0.21463
#
# Static dielectric constant tensor:
#      x y z
#    x 3.941140 0.273320 0.171780 
#    y 0.273320 4.665110 0.625090 
#    z 0.171780 0.625090 4.079120 
# 
# 
# High freq. dielectric constant tensor:
#      x y z
#    x 1.853010 0.014290 0.007460 
#    y 0.014290 1.847780 0.011620 
#    z 0.007460 0.011620 1.856390 
# 
# From -- ./inp_files/217920.got.cif
#   From: 2010.06.25/outbox.cif.g09.slc.cpg/sg2_109_cif.got.tgz:217920.got - 2010.06.27 13:26:56.
