data_PCOD8012176
_publ_section_title
;
Structure prediction by ZEFSAII (Michael W. Deem and Ramdas Pophale) SiO2 
 PCOD8012176
Probable space group: P -1
;
_chemical_formula_sum "Si O2"
_cell_formula_units_Z 16
_cell_length_a 7.757873
_cell_length_b 7.089001
_cell_length_c 20.123241
_cell_angle_alpha 127.260777
_cell_angle_beta 128.216244
_cell_angle_gamma 57.204498
_cell_volume 666.863829
_symmetry_space_group_name_H-M "P -1"
_symmetry_group_IT_number 2
_symmetry_cell_setting 'triclinic'
loop_
_space_group_symop_operation_xyz
x,y,z
-x,-y,-z
loop_
_atom_site_type_symbol
_atom_site_label
_atom_site_fract_x
_atom_site_fract_y
_atom_site_fract_z
Si Si1 0.725360 0.805023 0.539653
Si Si2 0.936233 0.466483 0.887231
Si Si3 0.707530 0.265330 0.993831
Si Si4 0.879521 0.030088 0.124582
Si Si5 0.841688 0.252663 0.690762
Si Si6 0.501616 0.859455 0.838232
Si Si7 0.072214 0.403386 0.327239
Si Si8 0.340022 0.483918 0.653952
O O1 0.788670 0.571418 0.454902
O O2 0.728998 0.690263 0.589975
O O3 0.500000 0.000000 0.500000
O O4 0.915415 0.962959 0.624763
O O5 0.084992 0.659362 0.974663
O O6 0.002253 0.321764 0.800431
O O7 0.674713 0.617576 0.859501
O O8 0.984627 0.259397 0.912232
O O9 0.788115 0.145110 0.057926
O O10 0.500000 0.500000 0.000000
O O11 0.633131 0.058638 0.887285
O O12 0.666868 0.022792 0.118289
O O13 0.045504 0.175549 0.228075
O O14 0.591062 0.295329 0.674087
O O15 0.837252 0.412371 0.657975
O O16 0.376507 0.761333 0.725850
O O17 0.824859 0.542351 0.329548
#
# Coordination Sequence:
#
# PCOD8012176 Si02
#       8
#     2   2   2   2   2   2   2   2
#     4  10  21  39  67  93 130 170 213 270 331 390
#     4  11  22  43  67  93 132 172 215 274 333 387
#     4  12  24  42  68  97 130 173 219 267 333 399
#     4  11  23  43  67  94 130 175 217 269 335 392
#     4  10  21  41  67  93 129 171 216 271 331 390
#     4  10  23  42  64  94 132 167 220 272 321 390
#     4  11  21  40  67  92 129 173 215 269 332 390
#     4   9  22  40  62  96 128 167 220 268 321 395
#
# _framework density 23.992902999999998
#
# number of rings (size 3 to 8) (size 9 to 14) (size 15 to 20)
#    0.000    1.500    3.750    1.125    0.000    3.000 
#    2.250    2.500    2.750    0.000    0.000    0.000 
#    0.000    0.000    0.000    0.000    0.000    0.000 
#
# Total GULP energy -198214.871303 kJ/mol
# GULP energy per Si atom -12388.429456 kJ/mol
# Density = 2.393829 g / cm^3
# Si number density = 23.992903 Si / 1000 Ang^3
#
#
#
# Elastic Constant Matrix: (Units=GPa)
#
#
# Indices 1 2 3 4 5 6 
#
# 1 62.0021 27.7923 31.0819 -4.2025 1.9814 -3.0626
# 2 27.7923 139.2096 58.8090 -6.1793 -4.0665 12.0372
# 3 31.0819 58.8090 130.6796 17.7998 0.8374 5.0080
# 4 -4.2025 -6.1793 17.7998 50.6549 -1.5091 -0.7567
# 5 1.9814 -4.0665 0.8374 -1.5091 22.6184 -7.7309
# 6 -3.0626 12.0372 5.0080 -0.7567 -7.7309 25.2452
#
#
#
# Elastic Compliance Matrix: (Units=1/GPa)
#
#
# Indices 1 2 3 4 5 6 
#
# 1 0.019722 -0.002448 -0.004142 0.002848 -0.000332 0.004365
# 2 -0.002448 0.009840 -0.004031 0.002386 0.000988 -0.003815
# 3 -0.004142 -0.004031 0.011174 -0.004831 -0.001586 -0.001428
# 4 0.002848 0.002386 -0.004831 0.022060 0.002360 0.001550
# 5 -0.000332 0.000988 -0.001586 0.002360 0.049805 0.015126
# 6 0.004365 -0.003815 -0.001428 0.001550 0.015126 0.046922
#
#
# Mechanical properties :
#
#
# Convention : Reuss Voigt Hill
#
# Bulk Modulus (GPa) = 51.29999 63.02863 57.16431
# Shear Modulus (GPa) = 26.70056 33.98424 30.34240
#
# Velocity S-wave (km/s) = 3.33956 3.76763 3.56004
# Velocity P-wave (km/s) = 6.02478 6.72707 6.38559
#
# Compressibility (1/GPa) = 0.01949318
#
# Stress axis : x y z
#
# Youngs Moduli (GPa) = 50.70571 101.62918 89.49050
#
# Poissons Ratio (x) = 0.24880 0.37068
# Poissons Ratio (y) = 0.12414 0.36073
# Poissons Ratio (z) = 0.21003 0.40966
#
# Static dielectric constant tensor:
#      x y z
#    x 4.066830 -0.129680 0.064290 
#    y -0.129680 4.432610 0.410980 
#    z 0.064290 0.410980 5.419700 
# 
# 
# High freq. dielectric constant tensor:
#      x y z
#    x 1.924900 -0.016080 0.005420 
#    y -0.016080 1.948390 0.016220 
#    z 0.005420 0.016220 1.984260 
# 
# From -- ./inp_files/585885.got.cif
#   From: 2010.06.25/outbox.cif.g09.slc.cpg/sg2_293_cif.got.tgz:585885.got - 2010.06.27 13:26:56.
