data_PCOD8012101
_publ_section_title
;
Structure prediction by ZEFSAII (Michael W. Deem and Ramdas Pophale) SiO2 
 PCOD8012101
Probable space group: P -1
;
_chemical_formula_sum "Si O2"
_cell_formula_units_Z 16
_cell_length_a 14.979376
_cell_length_b 9.112214
_cell_length_c 11.993463
_cell_angle_alpha 68.733537
_cell_angle_beta 149.998765
_cell_angle_gamma 100.135311
_cell_volume 728.526405
_symmetry_space_group_name_H-M "P -1"
_symmetry_group_IT_number 2
_symmetry_cell_setting 'triclinic'
loop_
_space_group_symop_operation_xyz
x,y,z
-x,-y,-z
loop_
_atom_site_type_symbol
_atom_site_label
_atom_site_fract_x
_atom_site_fract_y
_atom_site_fract_z
Si Si1 0.797515 0.155029 0.103858
Si Si2 0.157972 0.242594 0.124841
Si Si3 0.278961 0.086706 0.082525
Si Si4 0.194454 0.916276 0.629715
Si Si5 0.407459 0.483290 0.287384
Si Si6 0.047917 0.642150 0.446768
Si Si7 0.776507 0.340189 0.585993
Si Si8 0.312443 0.961833 0.516367
O O1 0.709908 0.105847 0.138070
O O2 0.733781 0.349000 0.958778
O O3 0.019764 0.082471 0.383379
O O4 0.730013 0.077685 0.943845
O O5 0.211684 0.089876 0.136738
O O6 0.286249 0.358721 0.205498
O O7 0.203928 0.154395 0.319150
O O8 0.936949 0.340595 0.850899
O O9 0.487827 0.094877 0.308623
O O10 0.152029 0.249883 0.842824
O O11 0.133829 0.751045 0.590829
O O12 0.337985 0.936944 0.684436
O O13 0.500000 0.500000 0.500000
O O14 0.572329 0.423177 0.391421
O O15 0.186250 0.567827 0.512028
O O16 0.000000 0.500000 0.500000
O O17 0.806828 0.152242 0.629772
#
# Coordination Sequence:
#
# PCOD8012101 Si02
#       8
#     2   2   2   2   2   2   2   2
#     4  10  23  44  61  94 138 171 218 271 330 391
#     4  11  24  43  70  95 131 176 219 274 326 388
#     4  10  21  39  66  95 123 175 216 266 327 382
#     4   9  22  41  65  92 129 183 211 271 332 382
#     4  12  27  43  66 100 141 172 216 277 335 391
#     4   9  20  39  67  97 129 169 225 273 324 390
#     4  10  24  41  64 102 127 177 222 268 337 383
#     4  11  21  40  69  95 128 168 234 265 319 400
#
# _framework density 21.962142
#
# number of rings (size 3 to 8) (size 9 to 14) (size 15 to 20)
#    0.000    1.750    1.250    2.250    7.000    2.000 
#    2.250    2.500    0.000    0.000    0.000    0.000 
#    0.000    0.000    0.000    0.000    0.000    0.000 
#
# Total GULP energy -198332.647206 kJ/mol
# GULP energy per Si atom -12395.790450 kJ/mol
# Density = 2.191215 g / cm^3
# Si number density = 21.962142 Si / 1000 Ang^3
#
#
#
# Elastic Constant Matrix: (Units=GPa)
#
#
# Indices 1 2 3 4 5 6 
#
# 1 68.3419 46.0405 8.5218 -14.7535 -11.7156 12.7305
# 2 46.0405 93.1121 29.1133 -12.8190 -6.0363 10.1519
# 3 8.5218 29.1133 55.9817 0.4199 -1.2958 6.0843
# 4 -14.7535 -12.8190 0.4199 31.9248 2.1119 -5.1107
# 5 -11.7156 -6.0363 -1.2958 2.1119 34.3687 0.5526
# 6 12.7305 10.1519 6.0843 -5.1107 0.5526 33.6556
#
#
#
# Elastic Compliance Matrix: (Units=1/GPa)
#
#
# Indices 1 2 3 4 5 6 
#
# 1 0.025630 -0.011742 0.002958 0.005710 0.006530 -0.005928
# 2 -0.011742 0.019410 -0.008409 0.002633 -0.001081 0.000524
# 3 0.002958 -0.008409 0.022149 -0.002824 0.000589 -0.003025
# 4 0.005710 0.002633 -0.002824 0.035524 0.000072 0.002950
# 5 0.006530 -0.001081 0.000589 0.000072 0.031195 -0.002752
# 6 -0.005928 0.000524 -0.003025 0.002950 -0.002752 0.032837
#
#
# Mechanical properties :
#
#
# Convention : Reuss Voigt Hill
#
# Bulk Modulus (GPa) = 30.48478 42.75410 36.61944
# Shear Modulus (GPa) = 23.57750 28.90716 26.24233
#
# Velocity S-wave (km/s) = 3.28007 3.63192 3.46047
# Velocity P-wave (km/s) = 5.31562 6.09075 5.71634
#
# Compressibility (1/GPa) = 0.03280326
#
# Stress axis : x y z
#
# Youngs Moduli (GPa) = 39.01622 51.51904 45.14826
#
# Poissons Ratio (x) = 0.60495 -0.13353
# Poissons Ratio (y) = 0.45814 0.37963
# Poissons Ratio (z) = -0.11539 0.43320
#
# Static dielectric constant tensor:
#      x y z
#    x 4.337250 -0.151670 -0.173000 
#    y -0.151670 3.824510 0.066480 
#    z -0.173000 0.066480 3.962090 
# 
# 
# High freq. dielectric constant tensor:
#      x y z
#    x 1.877950 0.000450 -0.006070 
#    y 0.000450 1.847800 0.001680 
#    z -0.006070 0.001680 1.858400 
# 
# From -- ./inp_files/447271.got.cif
#   From: 2010.06.25/outbox.cif.g09.slc.cpg/sg2_224_cif.got.tgz:447271.got - 2010.06.27 13:26:56.
