data_PCOD8012829
_publ_section_title
;
Structure prediction by ZEFSAII (Michael W. Deem and Ramdas Pophale) SiO2 
 PCOD8012829
Probable space group: P -1
;
_chemical_formula_sum "Si O2"
_cell_formula_units_Z 14
_cell_length_a 7.805750
_cell_length_b 11.707282
_cell_length_c 8.678582
_cell_angle_alpha 98.831014
_cell_angle_beta 130.414053
_cell_angle_gamma 77.315639
_cell_volume 589.034651
_symmetry_space_group_name_H-M "P -1"
_symmetry_group_IT_number 2
_symmetry_cell_setting 'triclinic'
loop_
_space_group_symop_operation_xyz
x,y,z
-x,-y,-z
loop_
_atom_site_type_symbol
_atom_site_label
_atom_site_fract_x
_atom_site_fract_y
_atom_site_fract_z
Si Si1 0.216433 0.329904 0.144750
Si Si2 0.537055 0.641705 0.158473
Si Si3 0.160135 0.198970 0.507483
Si Si4 0.855041 0.487046 0.107829
Si Si5 0.181662 0.082744 0.165775
Si Si6 0.384248 0.993060 0.769043
Si Si7 0.331413 0.741258 0.741143
O O1 0.152465 0.199849 0.066905
O O2 0.492539 0.324428 0.298265
O O3 0.097185 0.397052 0.242325
O O4 0.101485 0.403164 0.947543
O O5 0.632615 0.725324 0.355200
O O6 0.743257 0.534744 0.214322
O O7 0.328534 0.585438 0.096072
O O8 0.451652 0.717433 0.972172
O O9 0.156302 0.124594 0.334843
O O10 0.923391 0.291345 0.412329
O O11 0.195828 0.106312 0.650188
O O12 0.431382 0.011461 0.263226
O O13 0.000000 0.000000 0.000000
O O14 0.270578 0.877305 0.688334
O O15 0.500000 0.000000 0.000000
#
# Coordination Sequence:
#
# PCOD8012829 Si02
#       7
#     2   2   2   2   2   2   2
#     4   9  20  41  66  92 137 175 224 272 335 391
#     4  10  21  40  69  97 131 176 230 276 338 392
#     4  12  24  41  68 102 135 181 225 271 343 405
#     4   9  19  41  68  97 129 184 221 282 335 386
#     4  11  25  42  66 102 138 178 220 281 336 404
#     4  11  22  42  65  95 138 177 220 273 336 403
#     4  10  21  40  63  95 135 177 218 278 327 402
#
# _framework density 23.767700999999999
#
# number of rings (size 3 to 8) (size 9 to 14) (size 15 to 20)
#    0.000    1.714    1.429    2.571    2.000    0.000 
#    0.000   18.571    0.000    0.000    0.000    0.000 
#    0.000    0.000    0.000    0.000    0.000    0.000 
#
# Total GULP energy -173448.885161 kJ/mol
# GULP energy per Si atom -12389.206083 kJ/mol
# Density = 2.371360 g / cm^3
# Si number density = 23.767701 Si / 1000 Ang^3
#
#
#
# Elastic Constant Matrix: (Units=GPa)
#
#
# Indices 1 2 3 4 5 6 
#
# 1 122.7894 35.4932 41.4793 -8.4499 12.7027 -13.6635
# 2 35.4932 98.8420 42.2304 6.7466 13.0682 -1.9648
# 3 41.4793 42.2304 101.8736 10.8808 10.2039 -6.4498
# 4 -8.4499 6.7466 10.8808 24.8799 -4.4624 12.3786
# 5 12.7027 13.0682 10.2039 -4.4624 23.1652 -2.1230
# 6 -13.6635 -1.9648 -6.4498 12.3786 -2.1230 47.8593
#
#
#
# Elastic Compliance Matrix: (Units=1/GPa)
#
#
# Indices 1 2 3 4 5 6 
#
# 1 0.010724 -0.002356 -0.003668 0.005006 -0.001871 0.001093
# 2 -0.002356 0.013525 -0.003671 -0.003921 -0.005461 0.000160
# 3 -0.003668 -0.003671 0.014276 -0.008516 -0.003593 0.002769
# 4 0.005006 -0.003921 -0.008516 0.055800 0.012707 -0.013748
# 5 -0.001871 -0.005461 -0.003593 0.012707 0.051098 -0.002263
# 6 0.001093 0.000160 0.002769 -0.013748 -0.002263 0.025042
#
#
# Mechanical properties :
#
#
# Convention : Reuss Voigt Hill
#
# Bulk Modulus (GPa) = 52.26229 62.43454 57.34841
# Shear Modulus (GPa) = 25.47994 32.80099 29.14047
#
# Velocity S-wave (km/s) = 3.27776 3.71895 3.50530
# Velocity P-wave (km/s) = 6.03004 6.69078 6.36898
#
# Compressibility (1/GPa) = 0.01913425
#
# Stress axis : x y z
#
# Youngs Moduli (GPa) = 93.25104 73.93896 70.04805
#
# Poissons Ratio (x) = 0.17423 0.25690
# Poissons Ratio (y) = 0.21973 0.25715
# Poissons Ratio (z) = 0.34200 0.27144
#
# Static dielectric constant tensor:
#      x y z
#    x 4.473130 -0.472330 0.401260 
#    y -0.472330 3.994400 0.088780 
#    z 0.401260 0.088780 3.615170 
# 
# 
# High freq. dielectric constant tensor:
#      x y z
#    x 1.953710 0.002080 0.018600 
#    y 0.002080 1.962340 -0.017520 
#    z 0.018600 -0.017520 1.887090 
# 
# From -- ./inp_files/188955.got.cif
#   From: 2010.06.25/outbox.cif.g09.slc.cpg/sg2_95_cif.got.tgz:188955.got - 2010.06.27 13:26:56.
