data_PCOD8012337
_publ_section_title
;
Structure prediction by ZEFSAII (Michael W. Deem and Ramdas Pophale) SiO2 
 PCOD8012337
Probable space group: P -1
;
_chemical_formula_sum "Si O2"
_cell_formula_units_Z 16
_cell_length_a 8.937493
_cell_length_b 14.804927
_cell_length_c 9.190320
_cell_angle_alpha 84.919822
_cell_angle_beta 105.587851
_cell_angle_gamma 137.633928
_cell_volume 777.900222
_symmetry_space_group_name_H-M "P -1"
_symmetry_group_IT_number 2
_symmetry_cell_setting 'triclinic'
loop_
_space_group_symop_operation_xyz
x,y,z
-x,-y,-z
loop_
_atom_site_type_symbol
_atom_site_label
_atom_site_fract_x
_atom_site_fract_y
_atom_site_fract_z
Si Si1 0.861922 0.015076 0.877188
Si Si2 0.156484 0.856252 0.558134
Si Si3 0.006274 0.394381 0.002527
Si Si4 0.359506 0.319396 0.455400
Si Si5 0.599785 0.123250 0.109202
Si Si6 0.031993 0.275263 0.776928
Si Si7 0.537499 0.489527 0.753283
Si Si8 0.218956 0.068897 0.453407
O O1 0.961666 0.161551 0.882463
O O2 0.610018 0.901953 0.901722
O O3 0.874857 0.986208 0.722734
O O4 0.000000 0.000000 0.000000
O O5 0.300802 0.862746 0.710358
O O6 0.909430 0.775585 0.572334
O O7 0.113326 0.785471 0.403713
O O8 0.315721 0.015211 0.546765
O O9 0.249424 0.458287 0.109438
O O10 0.793707 0.264855 0.058867
O O11 0.978989 0.346945 0.835847
O O12 0.000000 0.500000 0.000000
O O13 0.525846 0.428433 0.609135
O O14 0.423500 0.389050 0.304277
O O15 0.406712 0.231625 0.479040
O O16 0.500000 0.000000 0.000000
O O17 0.306388 0.382185 0.804001
O O18 0.000000 0.000000 0.500000
#
# Coordination Sequence:
#
# PCOD8012337 Si02
#       8
#     2   2   2   2   2   2   2   2
#     4  11  26  42  67 102 130 173 234 272 338 403
#     4   9  20  42  67  94 133 168 225 268 343 393
#     4  12  27  45  64 101 136 179 222 276 343 398
#     4   9  18  37  66  98 123 173 215 269 330 394
#     4  12  26  46  70  94 138 186 218 285 337 395
#     4  10  23  45  67  98 131 178 219 285 328 399
#     4  10  21  39  69  92 132 175 221 266 333 399
#     4   9  20  36  66 100 128 165 215 279 327 393
#
# _framework density 20.568190000000001
#
# number of rings (size 3 to 8) (size 9 to 14) (size 15 to 20)
#    0.000    1.750    2.500    1.125    7.000    4.000 
#    2.250    0.625    0.000    0.000    0.000    0.000 
#    0.000    0.000    0.000    0.000    0.000    0.000 
#
# Total GULP energy -198306.882913 kJ/mol
# GULP energy per Si atom -12394.180182 kJ/mol
# Density = 2.052138 g / cm^3
# Si number density = 20.568190 Si / 1000 Ang^3
#
#
#
# Elastic Constant Matrix: (Units=GPa)
#
#
# Indices 1 2 3 4 5 6 
#
# 1 104.0066 58.0185 67.6030 0.8328 -10.1987 0.6861
# 2 58.0185 133.2068 50.6460 -7.4341 4.8684 -17.4745
# 3 67.6030 50.6460 112.7368 -4.7449 1.3747 -5.8823
# 4 0.8328 -7.4341 -4.7449 27.1644 -0.4477 -4.1064
# 5 -10.1987 4.8684 1.3747 -0.4477 27.1607 8.1479
# 6 0.6861 -17.4745 -5.8823 -4.1064 8.1479 36.3027
#
#
#
# Elastic Compliance Matrix: (Units=1/GPa)
#
#
# Indices 1 2 3 4 5 6 
#
# 1 0.022316 -0.007639 -0.010850 -0.005883 0.013035 -0.009448
# 2 -0.007639 0.012612 -0.000355 0.004768 -0.007550 0.008391
# 3 -0.010850 -0.000355 0.015990 0.003593 -0.006079 0.004396
# 4 -0.005883 0.004768 0.003593 0.040155 -0.005192 0.008696
# 5 0.013035 -0.007550 -0.006079 -0.005192 0.048167 -0.016263
# 6 -0.009448 0.008391 0.004396 0.008696 -0.016263 0.037110
#
#
# Mechanical properties :
#
#
# Convention : Reuss Voigt Hill
#
# Bulk Modulus (GPa) = 75.57438 78.05391 76.81415
# Shear Modulus (GPa) = 22.88902 29.70441 26.29671
#
# Velocity S-wave (km/s) = 3.33954 3.80437 3.57951
# Velocity P-wave (km/s) = 7.18979 7.57159 7.38316
#
# Compressibility (1/GPa) = 0.01323200
#
# Stress axis : x y z
#
# Youngs Moduli (GPa) = 44.81180 79.29070 62.53822
#
# Poissons Ratio (x) = 0.60567 0.67851
# Poissons Ratio (y) = 0.34230 0.02218
# Poissons Ratio (z) = 0.48619 0.02812
#
# Static dielectric constant tensor:
#      x y z
#    x 3.672410 -0.224310 -0.143310 
#    y -0.224310 4.154290 0.033820 
#    z -0.143310 0.033820 3.674040 
# 
# 
# High freq. dielectric constant tensor:
#      x y z
#    x 1.789890 -0.000980 -0.012130 
#    y -0.000980 1.817780 -0.006640 
#    z -0.012130 -0.006640 1.811700 
# 
# From -- ./inp_files/207412.got.cif
#   From: 2010.06.25/outbox.cif.g09.slc.cpg/sg2_104_cif.got.tgz:207412.got - 2010.06.27 13:26:56.
