data_PCOD8013098
_publ_section_title
;
Structure prediction by ZEFSAII (Michael W. Deem and Ramdas Pophale) SiO2 
 PCOD8013098
Probable space group: P -1
;
_chemical_formula_sum "Si O2"
_cell_formula_units_Z 16
_cell_length_a 23.251998
_cell_length_b 14.275923
_cell_length_c 9.207205
_cell_angle_alpha 45.203962
_cell_angle_beta 49.871182
_cell_angle_gamma 21.383280
_cell_volume 789.960679
_symmetry_space_group_name_H-M "P -1"
_symmetry_group_IT_number 2
_symmetry_cell_setting 'triclinic'
loop_
_space_group_symop_operation_xyz
x,y,z
-x,-y,-z
loop_
_atom_site_type_symbol
_atom_site_label
_atom_site_fract_x
_atom_site_fract_y
_atom_site_fract_z
Si Si1 0.836428 0.267249 0.841037
Si Si2 0.393833 0.834042 0.877864
Si Si3 0.315014 0.782483 0.508902
Si Si4 0.410377 0.240468 0.480137
Si Si5 0.308547 0.775615 0.853768
Si Si6 0.806764 0.308153 0.160906
Si Si7 0.663157 0.749730 0.098431
Si Si8 0.183986 0.223101 0.054422
O O1 0.764807 0.471792 0.611809
O O2 0.810049 0.154037 0.976809
O O3 0.746321 0.440019 0.952823
O O4 0.019675 0.011338 0.810950
O O5 0.496510 0.766756 0.678567
O O6 0.278182 0.936863 0.843710
O O7 0.509092 0.555622 0.080012
O O8 0.288368 0.076124 0.899886
O O9 0.500000 0.500000 0.500000
O O10 0.265690 0.891595 0.635591
O O11 0.275957 0.690658 0.633628
O O12 0.223245 0.026433 0.288369
O O13 0.394517 0.222982 0.688929
O O14 0.500000 0.000000 0.500000
O O15 0.788829 0.459997 0.130776
O O16 0.757468 0.743158 0.976827
O O17 0.500000 0.000000 0.000000
O O18 0.000000 0.500000 0.000000
#
# Coordination Sequence:
#
# PCOD8013098 Si02
#       8
#     2   2   2   2   2   2   2   2
#     4   9  21  42  65  95 128 165 222 284 328 386
#     4  10  21  40  65  93 127 169 222 276 330 391
#     4  11  22  41  69  94 130 178 227 271 329 404
#     4  11  22  39  65  90 129 173 222 268 332 398
#     4   9  20  38  68  95 118 169 229 272 318 399
#     4  10  23  41  69  95 128 173 228 278 330 397
#     4  12  27  44  68  99 134 181 228 274 335 408
#     4  12  28  45  64 101 149 173 212 286 351 391
#
# _framework density 20.254173999999999
#
# number of rings (size 3 to 8) (size 9 to 14) (size 15 to 20)
#    0.000    1.500    2.500    1.500    8.750    1.500 
#    0.000    0.625    0.000    0.000    0.000    0.000 
#    0.000    0.000    0.000    0.000    0.000    0.000 
#
# Total GULP energy -198276.162039 kJ/mol
# GULP energy per Si atom -12392.260127 kJ/mol
# Density = 2.020807 g / cm^3
# Si number density = 20.254174 Si / 1000 Ang^3
#
#
#
# Elastic Constant Matrix: (Units=GPa)
#
#
# Indices 1 2 3 4 5 6 
#
# 1 134.4038 35.8178 32.6298 -1.8620 -3.3170 7.6911
# 2 35.8178 84.5370 42.3025 -0.8974 -1.6214 -4.9812
# 3 32.6298 42.3025 121.1186 -10.0955 12.4069 -1.7188
# 4 -1.8620 -0.8974 -10.0955 26.8983 -4.7623 5.5691
# 5 -3.3170 -1.6214 12.4069 -4.7623 29.4115 2.4613
# 6 7.6911 -4.9812 -1.7188 5.5691 2.4613 38.4921
#
#
#
# Elastic Compliance Matrix: (Units=1/GPa)
#
#
# Indices 1 2 3 4 5 6 
#
# 1 0.008815 -0.003119 -0.001435 0.000788 0.001760 -0.002456
# 2 -0.003119 0.015835 -0.005017 -0.001721 0.002145 0.002560
# 3 -0.001435 -0.005017 0.011127 0.003093 -0.004630 -0.000017
# 4 0.000788 -0.001721 0.003093 0.040713 0.005826 -0.006505
# 5 0.001760 0.002145 -0.004630 0.005826 0.037508 -0.003522
# 6 -0.002456 0.002560 -0.000017 -0.006505 -0.003522 0.027967
#
#
# Mechanical properties :
#
#
# Convention : Reuss Voigt Hill
#
# Bulk Modulus (GPa) = 60.11610 62.39550 61.25580
# Shear Modulus (GPa) = 30.00251 34.24766 32.12509
#
# Velocity S-wave (km/s) = 3.85294 4.11651 3.98690
# Velocity P-wave (km/s) = 7.03838 7.31213 7.17656
#
# Compressibility (1/GPa) = 0.01663448
#
# Stress axis : x y z
#
# Youngs Moduli (GPa) = 113.44617 63.15097 89.87102
#
# Poissons Ratio (x) = 0.19699 0.12894
# Poissons Ratio (y) = 0.35388 0.45089
# Poissons Ratio (z) = 0.16277 0.31683
#
# Static dielectric constant tensor:
#      x y z
#    x 3.717260 -0.171110 -0.251300 
#    y -0.171110 3.452270 -0.375080 
#    z -0.251300 -0.375080 2.677990 
# 
# 
# High freq. dielectric constant tensor:
#      x y z
#    x 1.801690 -0.005490 0.002130 
#    y -0.005490 1.778910 0.004380 
#    z 0.002130 0.004380 1.798020 
# 
# From -- ./inp_files/354301.got.cif
#   From: 2010.06.25/outbox.cif.g09.slc.cpg/sg2_178_cif.got.tgz:354301.got - 2010.06.27 13:26:56.
