data_PCOD8013782
_publ_section_title
;
Structure prediction by ZEFSAII (Michael W. Deem and Ramdas Pophale) SiO2 
 PCOD8013782
Probable space group: P -1
;
_chemical_formula_sum "Si O2"
_cell_formula_units_Z 14
_cell_length_a 9.097407
_cell_length_b 9.346481
_cell_length_c 10.619146
_cell_angle_alpha 111.422524
_cell_angle_beta 73.929337
_cell_angle_gamma 72.987002
_cell_volume 725.270765
_symmetry_space_group_name_H-M "P -1"
_symmetry_group_IT_number 2
_symmetry_cell_setting 'triclinic'
loop_
_space_group_symop_operation_xyz
x,y,z
-x,-y,-z
loop_
_atom_site_type_symbol
_atom_site_label
_atom_site_fract_x
_atom_site_fract_y
_atom_site_fract_z
Si Si1 0.256927 0.871999 0.832181
Si Si2 0.877798 0.186003 0.637385
Si Si3 0.792226 0.437886 0.206913
Si Si4 0.545284 0.891257 0.636883
Si Si5 0.078497 0.389249 0.567470
Si Si6 0.926491 0.148500 0.902575
Si Si7 0.469940 0.777066 0.356580
O O1 0.276063 0.680794 0.736512
O O2 0.439025 0.875212 0.776570
O O3 0.185216 0.922637 0.008970
O O4 0.123449 0.009177 0.810832
O O5 0.853875 0.181891 0.791005
O O6 0.694743 0.254391 0.637528
O O7 0.953535 0.316566 0.627197
O O8 0.000000 0.000000 0.500000
O O9 0.903848 0.492656 0.289828
O O10 0.635400 0.600831 0.238094
O O11 0.908649 0.326465 0.026980
O O12 0.742258 0.763684 0.563301
O O13 0.461999 0.845683 0.521458
O O14 0.525198 0.083355 0.696961
O O15 0.000000 0.500000 0.500000
#
# Coordination Sequence:
#
# PCOD8013782 Si02
#       7
#     2   2   2   2   2   2   2
#     4   9  20  40  67  83 126 163 206 251 297 378
#     4  12  24  41  66  89 127 162 204 266 303 369
#     4   9  22  42  61  91 124 165 206 250 307 375
#     4  10  21  41  61  93 121 168 204 249 314 368
#     4  11  26  38  63  99 124 159 211 259 306 355
#     4   9  22  41  65  91 120 169 208 242 324 362
#     4  10  22  37  63  92 125 161 210 250 309 366
#
# _framework density 19.303135999999999
#
# number of rings (size 3 to 8) (size 9 to 14) (size 15 to 20)
#    0.857    1.143    1.429    0.857   10.000    2.286 
#    0.000    0.714    0.000    0.000    0.000    0.000 
#    0.000    0.000    0.000    0.000    0.000    0.000 
#
# Total GULP energy -173577.800841 kJ/mol
# GULP energy per Si atom -12398.414346 kJ/mol
# Density = 1.925920 g / cm^3
# Si number density = 19.303136 Si / 1000 Ang^3
#
#
#
# Elastic Constant Matrix: (Units=GPa)
#
#
# Indices 1 2 3 4 5 6 
#
# 1 138.0818 66.1793 42.0486 -4.8897 -0.8980 2.6133
# 2 66.1793 122.7334 47.5562 12.7104 -2.0799 -5.7962
# 3 42.0486 47.5562 78.3917 5.1510 2.4945 -2.2593
# 4 -4.8897 12.7104 5.1510 37.6697 3.9282 -1.6516
# 5 -0.8980 -2.0799 2.4945 3.9282 20.2395 -9.7694
# 6 2.6133 -5.7962 -2.2593 -1.6516 -9.7694 36.9316
#
#
#
# Elastic Compliance Matrix: (Units=1/GPa)
#
#
# Indices 1 2 3 4 5 6 
#
# 1 0.010751 -0.005166 -0.002882 0.003586 -0.001331 -0.001939
# 2 -0.005166 0.013698 -0.005265 -0.004882 0.004274 0.003105
# 3 -0.002882 -0.005265 0.017625 -0.000724 -0.002862 -0.000333
# 4 0.003586 -0.004882 -0.000724 0.029389 -0.006691 -0.001520
# 5 -0.001331 0.004274 -0.002862 -0.006691 0.059130 0.015932
# 6 -0.001939 0.003105 -0.000333 -0.001520 0.015932 0.031828
#
#
# Mechanical properties :
#
#
# Convention : Reuss Voigt Hill
#
# Bulk Modulus (GPa) = 64.72941 72.30834 68.51887
# Shear Modulus (GPa) = 25.74738 31.19636 28.47187
#
# Velocity S-wave (km/s) = 3.65615 4.02447 3.84472
# Velocity P-wave (km/s) = 7.17141 7.68998 7.43522
#
# Compressibility (1/GPa) = 0.01544893
#
# Stress axis : x y z
#
# Youngs Moduli (GPa) = 93.01879 73.00500 56.73741
#
# Poissons Ratio (x) = 0.37712 0.16351
# Poissons Ratio (y) = 0.48050 0.29870
# Poissons Ratio (z) = 0.26807 0.38434
#
# Static dielectric constant tensor:
#      x y z
#    x 3.430930 -0.007350 -0.067230 
#    y -0.007350 3.595490 0.048680 
#    z -0.067230 0.048680 3.332500 
# 
# 
# High freq. dielectric constant tensor:
#      x y z
#    x 1.745590 -0.000910 -0.007140 
#    y -0.000910 1.762090 0.006920 
#    z -0.007140 0.006920 1.737020 
# 
# From -- ./inp_files/331799.got.cif
#   From: 2010.06.25/outbox.cif.g09.slc.cpg/sg2_166_cif.got.tgz:331799.got - 2010.06.27 13:26:56.
