data_PCOD8013399
_publ_section_title
;
Structure prediction by ZEFSAII (Michael W. Deem and Ramdas Pophale) SiO2 
 PCOD8013399
Probable space group: P -1
;
_chemical_formula_sum "Si O2"
_cell_formula_units_Z 14
_cell_length_a 9.378589
_cell_length_b 24.733672
_cell_length_c 18.664769
_cell_angle_alpha 161.191265
_cell_angle_beta 150.331884
_cell_angle_gamma 39.335853
_cell_volume 657.475118
_symmetry_space_group_name_H-M "P -1"
_symmetry_group_IT_number 2
_symmetry_cell_setting 'triclinic'
loop_
_space_group_symop_operation_xyz
x,y,z
-x,-y,-z
loop_
_atom_site_type_symbol
_atom_site_label
_atom_site_fract_x
_atom_site_fract_y
_atom_site_fract_z
Si Si1 0.035834 0.205625 0.269006
Si Si2 0.785356 0.742571 0.968448
Si Si3 0.561303 0.089514 0.562605
Si Si4 0.582655 0.352969 0.441089
Si Si5 0.305363 0.444761 0.567843
Si Si6 0.435342 0.189133 0.905131
Si Si7 0.206888 0.329481 0.656451
O O1 0.314445 0.326500 0.493703
O O2 0.088046 0.292549 0.478088
O O3 0.743945 0.230684 0.136451
O O4 0.000000 0.000000 0.000000
O O5 0.610544 0.547663 0.672187
O O6 0.589537 0.784942 0.869736
O O7 0.809908 0.865328 0.204732
O O8 0.118977 0.756426 0.102545
O O9 0.290724 0.164987 0.519633
O O10 0.500000 0.000000 0.500000
O O11 0.597638 0.958399 0.352794
O O12 0.360202 0.319688 0.370905
O O13 0.918601 0.342614 0.592935
O O14 0.000000 0.500000 0.500000
O O15 0.573973 0.632879 0.917973
O O16 0.500000 0.500000 0.000000
#
# Coordination Sequence:
#
# PCOD8013399 Si02
#       7
#     2   2   2   2   2   2   2
#     4  11  22  42  67  97 132 176 218 272 335 398
#     4  10  21  40  67  95 133 174 225 272 328 409
#     4  12  27  41  65 100 139 174 224 282 338 391
#     4  10  21  41  69 100 126 178 227 270 336 398
#     4   9  22  38  69  95 130 170 222 271 325 402
#     4  10  21  42  65  95 130 179 223 266 332 398
#     4  12  25  44  68  97 140 175 221 281 339 398
#
# _framework density 21.293579999999999
#
# number of rings (size 3 to 8) (size 9 to 14) (size 15 to 20)
#    0.000    1.429    4.286    0.429    8.000    0.000 
#    2.571    2.143    0.000    0.000    0.000    0.000 
#    0.000    0.000    0.000    0.000    0.000    0.000 
#
# Total GULP energy -173439.593531 kJ/mol
# GULP energy per Si atom -12388.542395 kJ/mol
# Density = 2.124512 g / cm^3
# Si number density = 21.293580 Si / 1000 Ang^3
#
#
#
# Elastic Constant Matrix: (Units=GPa)
#
#
# Indices 1 2 3 4 5 6 
#
# 1 154.4851 55.5598 27.6152 -1.2658 -1.2233 -8.8515
# 2 55.5598 91.5418 20.4671 4.7642 7.2818 2.0686
# 3 27.6152 20.4671 46.3940 -1.6604 -11.4925 1.1135
# 4 -1.2658 4.7642 -1.6604 35.0762 -0.9534 4.5845
# 5 -1.2233 7.2818 -11.4925 -0.9534 34.9068 0.2837
# 6 -8.8515 2.0686 1.1135 4.5845 0.2837 34.3403
#
#
#
# Elastic Compliance Matrix: (Units=1/GPa)
#
#
# Indices 1 2 3 4 5 6 
#
# 1 0.008928 -0.004816 -0.003169 0.000490 0.000266 0.002627
# 2 -0.004816 0.015635 -0.005382 -0.002482 -0.005257 -0.001634
# 3 -0.003169 -0.005382 0.028548 0.002494 0.010494 -0.001838
# 4 0.000490 -0.002482 0.002494 0.029534 0.002193 -0.003766
# 5 0.000266 -0.005257 0.010494 0.002193 0.033273 -0.000523
# 6 0.002627 -0.001634 -0.001838 -0.003766 -0.000523 0.030462
#
#
# Mechanical properties :
#
#
# Convention : Reuss Voigt Hill
#
# Bulk Modulus (GPa) = 37.91392 55.52278 46.71835
# Shear Modulus (GPa) = 27.48632 33.44992 30.46812
#
# Velocity S-wave (km/s) = 3.59670 3.96775 3.78677
# Velocity P-wave (km/s) = 5.92388 6.86456 6.41150
#
# Compressibility (1/GPa) = 0.02637554
#
# Stress axis : x y z
#
# Youngs Moduli (GPa) = 112.00122 63.95955 35.02837
#
# Poissons Ratio (x) = 0.30806 0.11101
# Poissons Ratio (y) = 0.53945 0.18854
# Poissons Ratio (z) = 0.35496 0.34425
#
# Static dielectric constant tensor:
#      x y z
#    x 4.257360 0.142020 0.150950 
#    y 0.142020 3.934300 -0.047690 
#    z 0.150950 -0.047690 3.945570 
# 
# 
# High freq. dielectric constant tensor:
#      x y z
#    x 1.855490 -0.001660 0.000640 
#    y -0.001660 1.814170 0.001320 
#    z 0.000640 0.001320 1.826010 
# 
# From -- ./inp_files/189828.got.cif
#   From: 2010.06.25/outbox.cif.g09.slc.cpg/sg2_95_cif.got.tgz:189828.got - 2010.06.27 13:26:56.
