data_PCOD8013599
_publ_section_title
;
Structure prediction by ZEFSAII (Michael W. Deem and Ramdas Pophale) SiO2 
 PCOD8013599
Probable space group: P -1
;
_chemical_formula_sum "Si O2"
_cell_formula_units_Z 14
_cell_length_a 18.797631
_cell_length_b 8.607866
_cell_length_c 9.212373
_cell_angle_alpha 118.788423
_cell_angle_beta 150.307100
_cell_angle_gamma 70.223214
_cell_volume 636.045625
_symmetry_space_group_name_H-M "P -1"
_symmetry_group_IT_number 2
_symmetry_cell_setting 'triclinic'
loop_
_space_group_symop_operation_xyz
x,y,z
-x,-y,-z
loop_
_atom_site_type_symbol
_atom_site_label
_atom_site_fract_x
_atom_site_fract_y
_atom_site_fract_z
Si Si1 0.331139 0.840064 0.776157
Si Si2 0.111595 0.143632 0.172253
Si Si3 0.351687 0.563941 0.216275
Si Si4 0.212786 0.543550 0.645603
Si Si5 0.052229 0.367030 0.641873
Si Si6 0.064684 0.988816 0.452176
Si Si7 0.645529 0.075561 0.466091
O O1 0.309331 0.645634 0.730605
O O2 0.294535 0.822722 0.531712
O O3 0.231059 0.963231 0.733304
O O4 0.493664 0.943438 0.121821
O O5 0.150433 0.338064 0.401381
O O6 0.253241 0.058102 0.357833
O O7 0.000000 0.000000 0.000000
O O8 0.037084 0.163135 0.892613
O O9 0.500000 0.500000 0.500000
O O10 0.366416 0.775362 0.367900
O O11 0.314319 0.540676 0.967388
O O12 0.217736 0.451632 0.024056
O O13 0.073862 0.650868 0.464607
O O14 0.059147 0.190593 0.477902
O O15 0.000000 0.500000 0.500000
O O16 0.000000 0.000000 0.500000
#
# Coordination Sequence:
#
# PCOD8013599 Si02
#       7
#     2   2   2   2   2   2   2
#     4  11  26  46  69 102 141 181 237 288 351 405
#     4  12  24  45  72 101 137 185 227 280 352 413
#     4  11  24  44  72 101 137 183 232 280 350 414
#     4  11  25  45  69 103 140 177 240 288 334 419
#     4  10  21  40  69  97 133 176 228 281 338 404
#     4  12  24  44  70 102 138 177 229 288 341 409
#     4  11  26  46  72  95 144 186 226 287 357 414
#
# _framework density 22.010999999999999
#
# number of rings (size 3 to 8) (size 9 to 14) (size 15 to 20)
#    0.000    0.857    2.857    5.143    4.000    2.857 
#    2.571    0.000    0.000    0.000    0.000    0.000 
#    0.000    0.000    0.000    0.000    0.000    0.000 
#
# Total GULP energy -173504.470379 kJ/mol
# GULP energy per Si atom -12393.176456 kJ/mol
# Density = 2.196090 g / cm^3
# Si number density = 22.011000 Si / 1000 Ang^3
#
#
#
# Elastic Constant Matrix: (Units=GPa)
#
#
# Indices 1 2 3 4 5 6 
#
# 1 89.1662 25.9983 27.2417 -1.9728 12.4389 13.8204
# 2 25.9983 103.0806 31.6006 8.3936 8.7639 -14.3156
# 3 27.2417 31.6006 92.9650 -10.1926 12.1118 -1.2224
# 4 -1.9728 8.3936 -10.1926 47.4893 -10.3781 5.0448
# 5 12.4389 8.7639 12.1118 -10.3781 36.2296 -1.7489
# 6 13.8204 -14.3156 -1.2224 5.0448 -1.7489 45.4294
#
#
#
# Elastic Compliance Matrix: (Units=1/GPa)
#
#
# Indices 1 2 3 4 5 6 
#
# 1 0.014364 -0.003352 -0.002652 0.000487 -0.003369 -0.005681
# 2 -0.003352 0.012859 -0.003549 -0.004114 -0.001693 0.005368
# 3 -0.002652 -0.003549 0.013304 0.003010 -0.001834 -0.000358
# 4 0.000487 -0.004114 0.003010 0.024297 0.006598 -0.003808
# 5 -0.003369 -0.001693 -0.001834 0.006598 0.031716 0.000930
# 6 -0.005681 0.005368 -0.000358 -0.003808 0.000930 0.025881
#
#
# Mechanical properties :
#
#
# Convention : Reuss Voigt Hill
#
# Bulk Modulus (GPa) = 46.68170 50.54366 48.61268
# Shear Modulus (GPa) = 33.63224 39.18774 36.40999
#
# Velocity S-wave (km/s) = 3.91317 4.22402 4.07156
# Velocity P-wave (km/s) = 6.45536 6.84124 6.65110
#
# Compressibility (1/GPa) = 0.02142167
#
# Stress axis : x y z
#
# Youngs Moduli (GPa) = 69.61898 77.76763 75.16345
#
# Poissons Ratio (x) = 0.26068 0.19934
# Poissons Ratio (y) = 0.23336 0.26673
# Poissons Ratio (z) = 0.18463 0.27597
#
# Static dielectric constant tensor:
#      x y z
#    x 2.882920 -0.639330 -0.905220 
#    y -0.639330 3.770950 -1.078850 
#    z -0.905220 -1.078850 2.877200 
# 
# 
# High freq. dielectric constant tensor:
#      x y z
#    x 1.865760 -0.004490 0.007130 
#    y -0.004490 1.878870 0.000290 
#    z 0.007130 0.000290 1.872630 
# 
# From -- ./inp_files/159278.got.cif
#   From: 2010.06.25/outbox.cif.g09.slc.cpg/sg2_80_cif.got.tgz:159278.got - 2010.06.27 13:26:56.
