data_PCOD8013206
_publ_section_title
;
Structure prediction by ZEFSAII (Michael W. Deem and Ramdas Pophale) SiO2 
 PCOD8013206
Probable space group: P -1
;
_chemical_formula_sum "Si O2"
_cell_formula_units_Z 16
_cell_length_a 9.142073
_cell_length_b 6.812389
_cell_length_c 28.389200
_cell_angle_alpha 134.118227
_cell_angle_beta 140.475115
_cell_angle_gamma 53.646174
_cell_volume 801.751366
_symmetry_space_group_name_H-M "P -1"
_symmetry_group_IT_number 2
_symmetry_cell_setting 'triclinic'
loop_
_space_group_symop_operation_xyz
x,y,z
-x,-y,-z
loop_
_atom_site_type_symbol
_atom_site_label
_atom_site_fract_x
_atom_site_fract_y
_atom_site_fract_z
Si Si1 0.467068 0.293019 0.017864
Si Si2 0.672712 0.821807 0.365121
Si Si3 0.203414 0.254090 0.511151
Si Si4 0.629923 0.655864 0.775047
Si Si5 0.998274 0.265998 0.650988
Si Si6 0.344406 0.222011 0.813896
Si Si7 0.859566 0.517370 0.106524
Si Si8 0.418167 0.381168 0.352971
O O1 0.485673 0.537101 0.101485
O O2 0.676401 0.295859 0.032300
O O3 0.216490 0.331863 0.936397
O O4 0.500000 0.000000 0.000000
O O5 0.759426 0.858209 0.445462
O O6 0.487581 0.606647 0.281603
O O7 0.897492 0.711054 0.371412
O O8 0.556743 0.114069 0.366069
O O9 0.431341 0.363054 0.564805
O O10 0.000000 0.500000 0.500000
O O11 0.132064 0.005222 0.420433
O O12 0.644877 0.682295 0.726881
O O13 0.882022 0.632211 0.857186
O O14 0.489642 0.926768 0.806988
O O15 0.817355 0.534410 0.662150
O O16 0.213295 0.241604 0.735449
O O17 0.160741 0.262761 0.818413
#
# Coordination Sequence:
#
# PCOD8013206 Si02
#       8
#     2   2   2   2   2   2   2   2
#     4   9  20  42  65  94 127 163 202 257 312 375
#     4  11  25  41  62  93 127 168 213 261 308 367
#     4  11  23  44  65  86 134 166 209 268 312 364
#     4  11  22  41  64  94 129 166 209 258 310 369
#     4  12  22  42  66  92 126 168 210 262 314 367
#     4  10  21  40  66  90 126 163 204 254 315 366
#     4   9  21  41  64  90 130 161 203 255 313 374
#     4  11  23  42  62  93 128 167 213 257 313 374
#
# _framework density 19.956310999999999
#
# number of rings (size 3 to 8) (size 9 to 14) (size 15 to 20)
#    0.750    0.750    3.750    1.500    0.000    5.000 
#    4.500    0.625    0.000    0.000    0.000    0.000 
#    0.000    0.000    0.000    0.000    0.000    0.000 
#
# Total GULP energy -198384.661060 kJ/mol
# GULP energy per Si atom -12399.041316 kJ/mol
# Density = 1.991089 g / cm^3
# Si number density = 19.956311 Si / 1000 Ang^3
#
#
#
# Elastic Constant Matrix: (Units=GPa)
#
#
# Indices 1 2 3 4 5 6 
#
# 1 82.7710 50.5680 11.9533 -4.4364 -1.8444 -9.3704
# 2 50.5680 113.7375 40.8400 -17.0589 -9.3190 7.4364
# 3 11.9533 40.8400 83.2378 -3.1566 3.8415 8.0848
# 4 -4.4364 -17.0589 -3.1566 31.9467 -8.4256 2.3968
# 5 -1.8444 -9.3190 3.8415 -8.4256 19.5581 0.1282
# 6 -9.3704 7.4364 8.0848 2.3968 0.1282 37.0347
#
#
#
# Elastic Compliance Matrix: (Units=1/GPa)
#
#
# Indices 1 2 3 4 5 6 
#
# 1 0.018708 -0.010714 0.001994 -0.005000 -0.005931 0.006793
# 2 -0.010714 0.020041 -0.007955 0.013024 0.015751 -0.005896
# 3 0.001994 -0.007955 0.015960 -0.004614 -0.008718 -0.001053
# 4 -0.005000 0.013024 -0.004614 0.044344 0.025782 -0.005832
# 5 -0.005931 0.015751 -0.008718 0.025782 0.070925 -0.004674
# 6 0.006793 -0.005896 -0.001053 -0.005832 -0.004674 0.030528
#
#
# Mechanical properties :
#
#
# Convention : Reuss Voigt Hill
#
# Bulk Modulus (GPa) = 46.81489 54.05210 50.43349
# Shear Modulus (GPa) = 20.74898 29.46691 25.10795
#
# Velocity S-wave (km/s) = 3.22797 3.84679 3.55088
# Velocity P-wave (km/s) = 6.11577 6.84649 6.49142
#
# Compressibility (1/GPa) = 0.02136073
#
# Stress axis : x y z
#
# Youngs Moduli (GPa) = 53.45349 49.89664 62.65623
#
# Poissons Ratio (x) = 0.53458 -0.12496
# Poissons Ratio (y) = 0.57268 0.49843
# Poissons Ratio (z) = -0.10660 0.39693
#
# Static dielectric constant tensor:
#      x y z
#    x 3.553410 0.020330 -0.093510 
#    y 0.020330 3.668890 -0.366520 
#    z -0.093510 -0.366520 4.392100 
# 
# 
# High freq. dielectric constant tensor:
#      x y z
#    x 1.762810 -0.005470 0.003990 
#    y -0.005470 1.782510 -0.008250 
#    z 0.003990 -0.008250 1.785230 
# 
# From -- ./inp_files/605776.got.cif
#   From: 2010.06.25/outbox.cif.g09.slc.cpg/sg2_303_cif.got.tgz:605776.got - 2010.06.27 13:26:56.
