data_PCOD8013284
_publ_section_title
;
Structure prediction by ZEFSAII (Michael W. Deem and Ramdas Pophale) SiO2 
 PCOD8013284
Probable space group: P -1
;
_chemical_formula_sum "Si O2"
_cell_formula_units_Z 16
_cell_length_a 11.865799
_cell_length_b 21.322705
_cell_length_c 8.725494
_cell_angle_alpha 131.052741
_cell_angle_beta 140.492910
_cell_angle_gamma 29.728906
_cell_volume 695.846419
_symmetry_space_group_name_H-M "P -1"
_symmetry_group_IT_number 2
_symmetry_cell_setting 'triclinic'
loop_
_space_group_symop_operation_xyz
x,y,z
-x,-y,-z
loop_
_atom_site_type_symbol
_atom_site_label
_atom_site_fract_x
_atom_site_fract_y
_atom_site_fract_z
Si Si1 0.411753 0.397593 0.322931
Si Si2 0.100550 0.032931 0.993204
Si Si3 0.230185 0.324102 0.638937
Si Si4 0.677269 0.058451 0.603074
Si Si5 0.439502 0.064036 0.877623
Si Si6 0.341274 0.699679 0.880878
Si Si7 0.346922 0.521418 0.727301
Si Si8 0.871568 0.667686 0.108462
O O1 0.652038 0.294823 0.289516
O O2 0.519837 0.400344 0.600132
O O3 0.195101 0.537583 0.238248
O O4 0.266334 0.363649 0.165489
O O5 0.907732 0.165899 0.089605
O O6 0.300329 0.932574 0.175862
O O7 0.267672 0.010688 0.992944
O O8 0.926555 0.017818 0.717643
O O9 0.392020 0.204356 0.502490
O O10 0.229245 0.288834 0.753778
O O11 0.921503 0.434953 0.434225
O O12 0.376277 0.363379 0.854792
O O13 0.680487 0.961601 0.405355
O O14 0.224799 0.216101 0.900797
O O15 0.500000 0.000000 0.000000
O O16 0.277868 0.626997 0.728188
O O17 0.500000 0.500000 0.000000
#
# Coordination Sequence:
#
# PCOD8013284 Si02
#       8
#     2   2   2   2   2   2   2   2
#     4   9  20  41  66  93 127 172 227 273 322 381
#     4  10  22  41  70  98 127 169 235 271 327 398
#     4   9  19  40  67  89 128 167 220 273 323 383
#     4  10  21  40  68  98 122 174 222 279 323 386
#     4  12  25  41  64 101 138 176 215 273 346 401
#     4  10  21  40  66  96 124 171 223 275 323 390
#     4  11  23  39  61  99 132 171 216 270 334 404
#     4   9  19  40  68  93 126 175 223 272 322 391
#
# _framework density 22.993579
#
# number of rings (size 3 to 8) (size 9 to 14) (size 15 to 20)
#    0.000    2.000    1.250    2.250    5.250    1.000 
#    9.000    0.000    0.000    0.000    0.000    0.000 
#    0.000    0.000    0.000    0.000    0.000    0.000 
#
# Total GULP energy -198251.542443 kJ/mol
# GULP energy per Si atom -12390.721403 kJ/mol
# Density = 2.294124 g / cm^3
# Si number density = 22.993579 Si / 1000 Ang^3
#
#
#
# Elastic Constant Matrix: (Units=GPa)
#
#
# Indices 1 2 3 4 5 6 
#
# 1 89.1771 20.6663 19.2547 -5.4823 11.8748 -10.9976
# 2 20.6663 77.3860 22.9341 16.3202 3.7468 -0.2984
# 3 19.2547 22.9341 106.9770 10.9057 4.7226 -5.5933
# 4 -5.4823 16.3202 10.9057 29.7138 3.3712 6.5723
# 5 11.8748 3.7468 4.7226 3.3712 33.3899 -3.8538
# 6 -10.9976 -0.2984 -5.5933 6.5723 -3.8538 28.1545
#
#
#
# Elastic Compliance Matrix: (Units=1/GPa)
#
#
# Indices 1 2 3 4 5 6 
#
# 1 0.013834 -0.004039 -0.001797 0.005221 -0.004372 0.003187
# 2 -0.004039 0.016481 -0.001866 -0.009324 0.000852 0.000519
# 3 -0.001797 -0.001866 0.010563 -0.003675 -0.000017 0.002233
# 4 0.005221 -0.009324 -0.003675 0.043931 -0.005863 -0.009847
# 5 -0.004372 0.000852 -0.000017 -0.005863 0.032477 0.004112
# 6 0.003187 0.000519 0.002233 -0.009847 0.004112 0.040074
#
#
# Mechanical properties :
#
#
# Convention : Reuss Voigt Hill
#
# Bulk Modulus (GPa) = 39.25529 44.36114 41.80822
# Shear Modulus (GPa) = 27.58534 32.29730 29.94132
#
# Velocity S-wave (km/s) = 3.46742 3.75190 3.61246
# Velocity P-wave (km/s) = 5.75674 6.17282 5.96841
#
# Compressibility (1/GPa) = 0.02547427
#
# Stress axis : x y z
#
# Youngs Moduli (GPa) = 72.28699 60.67555 94.66601
#
# Poissons Ratio (x) = 0.24508 0.17009
# Poissons Ratio (y) = 0.29197 0.17667
# Poissons Ratio (z) = 0.12988 0.11323
#
# Static dielectric constant tensor:
#      x y z
#    x 4.187450 -0.112910 0.421500 
#    y -0.112910 4.105580 0.230740 
#    z 0.421500 0.230740 4.216050 
# 
# 
# High freq. dielectric constant tensor:
#      x y z
#    x 1.887570 -0.017290 0.029830 
#    y -0.017290 1.901410 0.024490 
#    z 0.029830 0.024490 1.903810 
# 
# From -- ./inp_files/283287.got.cif
#   From: 2010.06.25/outbox.cif.g09.slc.cpg/sg2_142_cif.got.tgz:283287.got - 2010.06.27 13:26:56.
