data_PCOD8013934
_publ_section_title
;
Structure prediction by ZEFSAII (Michael W. Deem and Ramdas Pophale) SiO2 
 PCOD8013934
Probable space group: P -1
;
_chemical_formula_sum "Si O2"
_cell_formula_units_Z 16
_cell_length_a 13.256769
_cell_length_b 15.617594
_cell_length_c 11.621715
_cell_angle_alpha 54.518104
_cell_angle_beta 35.057414
_cell_angle_gamma 32.890610
_cell_volume 705.051310
_symmetry_space_group_name_H-M "P -1"
_symmetry_group_IT_number 2
_symmetry_cell_setting 'triclinic'
loop_
_space_group_symop_operation_xyz
x,y,z
-x,-y,-z
loop_
_atom_site_type_symbol
_atom_site_label
_atom_site_fract_x
_atom_site_fract_y
_atom_site_fract_z
Si Si1 0.588563 0.789821 0.240531
Si Si2 0.511460 0.795775 0.628121
Si Si3 0.307646 0.447346 0.533934
Si Si4 0.721215 0.043725 0.049279
Si Si5 0.063693 0.275548 0.833493
Si Si6 0.456504 0.597089 0.201996
Si Si7 0.665274 0.726672 0.959743
Si Si8 0.084663 0.057342 0.646853
O O1 0.572754 0.671491 0.374289
O O2 0.842487 0.715327 0.140077
O O3 0.655572 0.782192 0.051873
O O4 0.289792 0.980775 0.405531
O O5 0.553656 0.665292 0.624477
O O6 0.437616 0.810923 0.818604
O O7 0.795186 0.731884 0.400849
O O8 0.266425 0.981867 0.652411
O O9 0.387551 0.533268 0.403859
O O10 0.976205 0.580881 0.733888
O O11 0.506318 0.118196 0.088643
O O12 0.838125 0.889505 0.125787
O O13 0.975000 0.988906 0.799143
O O14 0.730806 0.437610 0.997738
O O15 0.179424 0.739522 0.269177
O O16 0.522848 0.677189 0.139459
#
# Coordination Sequence:
#
# PCOD8013934 Si02
#       8
#     2   2   2   2   2   2   2   2
#     4  10  22  44  66  88 135 170 205 271 315 372
#     4  10  21  43  66  89 132 172 206 266 318 375
#     4  10  22  41  67  94 131 165 210 264 322 371
#     4  11  23  39  67  92 129 172 215 256 321 380
#     4  10  21  41  63  95 127 169 216 256 321 381
#     4  11  22  41  65  98 128 164 214 260 316 382
#     4  11  24  43  63  98 130 165 218 264 310 382
#     4   9  22  41  62  94 128 162 220 259 312 384
#
# _framework density 22.693384999999999
#
# number of rings (size 3 to 8) (size 9 to 14) (size 15 to 20)
#    0.000    2.000    2.500    2.625    3.500    3.500 
#    2.250    3.125    0.000    0.000    0.000    0.000 
#    0.000    0.000    0.000    0.000    0.000    0.000 
#
# Total GULP energy -198278.880912 kJ/mol
# GULP energy per Si atom -12392.430057 kJ/mol
# Density = 2.264173 g / cm^3
# Si number density = 22.693385 Si / 1000 Ang^3
#
#
#
# Elastic Constant Matrix: (Units=GPa)
#
#
# Indices 1 2 3 4 5 6 
#
# 1 44.3788 6.1540 30.7835 9.5382 7.9464 -5.0509
# 2 6.1540 90.3859 39.3773 19.4338 -13.7062 -3.6021
# 3 30.7835 39.3773 92.0762 22.0093 -13.0380 -10.5792
# 4 9.5382 19.4338 22.0093 29.5752 -4.2713 -14.2941
# 5 7.9464 -13.7062 -13.0380 -4.2713 29.9030 -1.1935
# 6 -5.0509 -3.6021 -10.5792 -14.2941 -1.1935 26.5543
#
#
#
# Elastic Compliance Matrix: (Units=1/GPa)
#
#
# Indices 1 2 3 4 5 6 
#
# 1 0.035715 0.002576 -0.014028 -0.006192 -0.015410 -0.002472
# 2 0.002576 0.015318 -0.005508 -0.008363 0.002580 -0.004013
# 3 -0.014028 -0.005508 0.020673 -0.004461 0.009693 0.002855
# 4 -0.006192 -0.008363 -0.004461 0.058855 0.005384 0.027834
# 5 -0.015410 0.002580 0.009693 0.005384 0.043960 0.006155
# 6 -0.002472 -0.004013 0.002855 0.027834 0.006155 0.053041
#
#
# Mechanical properties :
#
#
# Convention : Reuss Voigt Hill
#
# Bulk Modulus (GPa) = 26.46582 42.16339 34.31461
# Shear Modulus (GPa) = 18.24292 27.24157 22.74224
#
# Velocity S-wave (km/s) = 2.83837 3.46846 3.16911
# Velocity P-wave (km/s) = 4.73597 5.88730 5.34274
#
# Compressibility (1/GPa) = 0.03778458
#
# Stress axis : x y z
#
# Youngs Moduli (GPa) = 27.99910 65.28426 48.37164
#
# Poissons Ratio (x) = -0.16816 0.67856
# Poissons Ratio (y) = -0.07212 0.26645
# Poissons Ratio (z) = 0.39278 0.35962
#
# Static dielectric constant tensor:
#      x y z
#    x 3.632190 -0.054260 -0.216630 
#    y -0.054260 4.246560 0.113990 
#    z -0.216630 0.113990 4.179080 
# 
# 
# High freq. dielectric constant tensor:
#      x y z
#    x 1.855390 -0.002900 -0.016650 
#    y -0.002900 1.897470 0.008720 
#    z -0.016650 0.008720 1.904770 
# 
# From -- ./inp_files/456940.got.cif
#   From: 2010.06.25/outbox.cif.g09.slc.cpg/sg2_229_cif.got.tgz:456940.got - 2010.06.27 13:26:56.
