data_PCOD8013306
_publ_section_title
;
Structure prediction by ZEFSAII (Michael W. Deem and Ramdas Pophale) SiO2 
 PCOD8013306
Probable space group: P -1
;
_chemical_formula_sum "Si O2"
_cell_formula_units_Z 12
_cell_length_a 10.009094
_cell_length_b 12.564547
_cell_length_c 8.793564
_cell_angle_alpha 75.256139
_cell_angle_beta 135.508297
_cell_angle_gamma 75.416172
_cell_volume 576.258784
_symmetry_space_group_name_H-M "P -1"
_symmetry_group_IT_number 2
_symmetry_cell_setting 'triclinic'
loop_
_space_group_symop_operation_xyz
x,y,z
-x,-y,-z
loop_
_atom_site_type_symbol
_atom_site_label
_atom_site_fract_x
_atom_site_fract_y
_atom_site_fract_z
Si Si1 0.346902 0.072722 0.541180
Si Si2 0.134139 0.211100 0.930518
Si Si3 0.775794 0.656823 0.815690
Si Si4 0.146603 0.103807 0.671763
Si Si5 0.126377 0.869272 0.831967
Si Si6 0.633287 0.336821 0.637729
O O1 0.243231 0.228342 0.347564
O O2 0.364121 0.062434 0.746125
O O3 0.144845 0.052844 0.337762
O O4 0.622579 0.944268 0.750189
O O5 0.171340 0.323842 0.974290
O O6 0.105476 0.214112 0.724183
O O7 0.896186 0.249221 0.803601
O O8 0.526406 0.678926 0.599558
O O9 0.000000 0.500000 0.000000
O O10 0.895247 0.174876 0.340665
O O11 0.202097 0.969245 0.854044
O O12 0.340326 0.730480 0.152028
O O13 0.500000 0.500000 0.500000
#
# Coordination Sequence:
#
# PCOD8013306 Si02
#       6
#     2   2   2   2   2   2
#     4  10  21  40  66  97 131 161 217 264 313 382
#     4  12  23  40  67 100 125 168 221 260 321 375
#     4  12  25  43  66  92 132 173 215 265 321 380
#     4   9  21  39  66 100 131 163 207 273 318 376
#     4   9  20  40  67  94 133 166 209 260 330 363
#     4  12  25  43  65  89 133 172 214 268 318 376
#
# _framework density 20.823978
#
# number of rings (size 3 to 8) (size 9 to 14) (size 15 to 20)
#    1.000    0.333    3.333    2.000    2.333    1.333 
#    0.000    1.667    3.667    0.000    0.000    0.000 
#    0.000    0.000    0.000    0.000    0.000    0.000 
#
# Total GULP energy -148703.466729 kJ/mol
# GULP energy per Si atom -12391.955561 kJ/mol
# Density = 2.077658 g / cm^3
# Si number density = 20.823978 Si / 1000 Ang^3
#
#
#
# Elastic Constant Matrix: (Units=GPa)
#
#
# Indices 1 2 3 4 5 6 
#
# 1 93.0516 55.3831 40.8998 -10.6518 15.5317 12.0656
# 2 55.3831 156.4818 63.8870 14.4511 4.3513 -5.6816
# 3 40.8998 63.8870 100.3538 2.0785 10.3128 -3.9277
# 4 -10.6518 14.4511 2.0785 44.5629 3.3782 2.9308
# 5 15.5317 4.3513 10.3128 3.3782 30.3157 4.7556
# 6 12.0656 -5.6816 -3.9277 2.9308 4.7556 28.9957
#
#
#
# Elastic Compliance Matrix: (Units=1/GPa)
#
#
# Indices 1 2 3 4 5 6 
#
# 1 0.019455 -0.006236 -0.003755 0.008015 -0.007205 -0.009454
# 2 -0.006236 0.010996 -0.004502 -0.005355 0.003090 0.004174
# 3 -0.003755 -0.004502 0.014791 -0.000113 -0.002948 0.003179
# 4 0.008015 -0.005355 -0.000113 0.026912 -0.005318 -0.006248
# 5 -0.007205 0.003090 -0.002948 -0.005318 0.038226 -0.002528
# 6 -0.009454 0.004174 0.003179 -0.006248 -0.002528 0.040717
#
#
# Mechanical properties :
#
#
# Convention : Reuss Voigt Hill
#
# Bulk Modulus (GPa) = 61.51467 74.46967 67.99217
# Shear Modulus (GPa) = 26.95435 33.42265 30.18850
#
# Velocity S-wave (km/s) = 3.60167 4.01060 3.81162
# Velocity P-wave (km/s) = 6.84839 7.56873 7.21755
#
# Compressibility (1/GPa) = 0.01625628
#
# Stress axis : x y z
#
# Youngs Moduli (GPa) = 51.40188 90.94492 67.61023
#
# Poissons Ratio (x) = 0.56711 0.25386
# Poissons Ratio (y) = 0.32053 0.30437
# Poissons Ratio (z) = 0.19300 0.40942
#
# Static dielectric constant tensor:
#      x y z
#    x 3.739720 -0.002740 0.009820 
#    y -0.002740 3.835390 0.401440 
#    z 0.009820 0.401440 3.988570 
# 
# 
# High freq. dielectric constant tensor:
#      x y z
#    x 1.805500 0.003790 0.005060 
#    y 0.003790 1.802970 0.029410 
#    z 0.005060 0.029410 1.827080 
# 
# From -- ./inp_files/163670.got.cif
#   From: 2010.06.25/outbox.cif.g09.slc.cpg/sg2_82_cif.got.tgz:163670.got - 2010.06.27 13:26:56.
