data_PCOD8013216
_publ_section_title
;
Structure prediction by ZEFSAII (Michael W. Deem and Ramdas Pophale) SiO2 
 PCOD8013216
Probable space group: P -1
;
_chemical_formula_sum "Si O2"
_cell_formula_units_Z 14
_cell_length_a 6.777431
_cell_length_b 21.790771
_cell_length_c 5.004469
_cell_angle_alpha 116.552167
_cell_angle_beta 72.943730
_cell_angle_gamma 95.447396
_cell_volume 631.489529
_symmetry_space_group_name_H-M "P -1"
_symmetry_group_IT_number 2
_symmetry_cell_setting 'triclinic'
loop_
_space_group_symop_operation_xyz
x,y,z
-x,-y,-z
loop_
_atom_site_type_symbol
_atom_site_label
_atom_site_fract_x
_atom_site_fract_y
_atom_site_fract_z
Si Si1 0.393893 0.792029 0.366809
Si Si2 0.649520 0.500824 0.691063
Si Si3 0.016354 0.704797 0.404160
Si Si4 0.854462 0.930349 0.211710
Si Si5 0.876743 0.080346 0.419315
Si Si6 0.354360 0.193318 0.179375
Si Si7 0.986667 0.610618 0.725645
O O1 0.284230 0.855827 0.378035
O O2 0.502377 0.816789 0.639452
O O3 0.243354 0.733200 0.402319
O O4 0.547937 0.762241 0.014550
O O5 0.500000 0.500000 0.500000
O O6 0.807413 0.435485 0.502556
O O7 0.783036 0.568117 0.767641
O O8 0.500000 0.500000 0.000000
O O9 0.857805 0.769840 0.563740
O O10 0.947428 0.660879 0.594272
O O11 0.018740 0.655930 0.057133
O O12 0.932735 0.906606 0.428707
O O13 0.768865 0.009728 0.409145
O O14 0.680263 0.881157 0.081350
O O15 0.049081 0.925472 0.926195
#
# Coordination Sequence:
#
# PCOD8013216 Si02
#       7
#     2   2   2   2   2   2   2
#     4  12  26  41  66  96 129 178 227 274 338 397
#     4  11  24  45  74 104 136 169 218 273 313 381
#     4  12  26  45  65  96 144 174 220 272 318 398
#     4  10  21  40  66  91 125 171 221 283 345 394
#     4  10  21  40  66  91 125 171 221 283 345 394
#     4  12  26  41  66  96 129 178 227 274 338 397
#     4  11  26  44  70 102 133 180 216 260 333 380
#
# _framework density 22.169803999999999
#
# number of rings (size 3 to 8) (size 9 to 14) (size 15 to 20)
#    0.000    0.857    1.429    5.143    2.000   10.286 
#    0.000    0.000    0.000    0.000    0.000    0.000 
#    0.000    0.000    0.000    0.000    0.000    0.000 
#
# Total GULP energy -173633.999180 kJ/mol
# GULP energy per Si atom -12402.428513 kJ/mol
# Density = 2.211934 g / cm^3
# Si number density = 22.169804 Si / 1000 Ang^3
#
#
#
# Elastic Constant Matrix: (Units=GPa)
#
#
# Indices 1 2 3 4 5 6 
#
# 1 122.4438 55.8094 46.8202 1.1881 22.2479 17.7714
# 2 55.8094 109.2407 43.7028 -1.8219 9.3664 8.4531
# 3 46.8202 43.7028 123.4631 -9.7185 17.9742 10.6821
# 4 1.1881 -1.8219 -9.7185 41.9299 3.9941 6.1073
# 5 22.2479 9.3664 17.9742 3.9941 42.4948 -10.3471
# 6 17.7714 8.4531 10.6821 6.1073 -10.3471 31.8422
#
#
#
# Elastic Compliance Matrix: (Units=1/GPa)
#
#
# Indices 1 2 3 4 5 6 
#
# 1 0.013609 -0.005052 -0.001472 0.000994 -0.007527 -0.008397
# 2 -0.005052 0.012698 -0.002858 -0.000216 0.001287 0.000867
# 3 -0.001472 -0.002858 0.010991 0.003530 -0.004624 -0.004287
# 4 0.000994 -0.000216 0.003530 0.026563 -0.006637 -0.008933
# 5 -0.007527 0.001287 -0.004624 -0.006637 0.034094 0.017762
# 6 -0.008397 0.000867 -0.004287 -0.008933 0.017762 0.044784
#
#
# Mechanical properties :
#
#
# Convention : Reuss Voigt Hill
#
# Bulk Modulus (GPa) = 53.95650 71.97916 62.96783
# Shear Modulus (GPa) = 29.81827 37.17438 33.49633
#
# Velocity S-wave (km/s) = 3.67140 4.09932 3.89125
# Velocity P-wave (km/s) = 6.50868 7.41239 6.97519
#
# Compressibility (1/GPa) = 0.01853345
#
# Stress axis : x y z
#
# Youngs Moduli (GPa) = 73.47863 78.75529 90.97964
#
# Poissons Ratio (x) = 0.39789 0.13394
# Poissons Ratio (y) = 0.37123 0.26003
# Poissons Ratio (z) = 0.10817 0.22509
#
# Static dielectric constant tensor:
#      x y z
#    x 3.996670 0.159930 -0.020520 
#    y 0.159930 4.185380 0.031830 
#    z -0.020520 0.031830 4.099970 
# 
# 
# High freq. dielectric constant tensor:
#      x y z
#    x 1.873310 0.003890 0.007750 
#    y 0.003890 1.882320 -0.007540 
#    z 0.007750 -0.007540 1.889200 
# 
# From -- ./inp_files/11602.got.cif
#   From: 2010.06.25/outbox.cif.g09.slc.cpg/sg2_6_cif.got.tgz:11602.got - 2010.06.27 13:26:56.
