data_PCOD8013849
_publ_section_title
;
Structure prediction by ZEFSAII (Michael W. Deem and Ramdas Pophale) SiO2 
 PCOD8013849
Probable space group: P -1
;
_chemical_formula_sum "Si O2"
_cell_formula_units_Z 14
_cell_length_a 12.629974
_cell_length_b 23.539185
_cell_length_c 15.748700
_cell_angle_alpha 18.570004
_cell_angle_beta 152.838259
_cell_angle_gamma 150.548050
_cell_volume 668.506891
_symmetry_space_group_name_H-M "P -1"
_symmetry_group_IT_number 2
_symmetry_cell_setting 'triclinic'
loop_
_space_group_symop_operation_xyz
x,y,z
-x,-y,-z
loop_
_atom_site_type_symbol
_atom_site_label
_atom_site_fract_x
_atom_site_fract_y
_atom_site_fract_z
Si Si1 0.065162 0.683507 0.176761
Si Si2 0.259984 0.357895 0.845947
Si Si3 0.323265 0.063085 0.895625
Si Si4 0.016647 0.018578 0.887466
Si Si5 0.957805 0.291916 0.238329
Si Si6 0.125641 0.829030 0.838943
Si Si7 0.656785 0.190709 0.317803
O O1 0.209201 0.522685 0.519738
O O2 0.818600 0.630152 0.128875
O O3 0.998058 0.700143 0.006288
O O4 0.232509 0.866945 0.067898
O O5 0.538729 0.355953 0.034566
O O6 0.125011 0.167999 0.984862
O O7 0.271065 0.054537 0.972380
O O8 0.185176 0.203422 0.550087
O O9 0.603822 0.116682 0.012886
O O10 0.905220 0.195728 0.534938
O O11 0.000000 0.000000 0.000000
O O12 0.902072 0.276275 0.120601
O O13 0.718762 0.198087 0.250815
O O14 0.000000 0.500000 0.000000
O O15 0.000000 0.000000 0.500000
O O16 0.500000 0.000000 0.500000
#
# Coordination Sequence:
#
# PCOD8013849 Si02
#       7
#     2   2   2   2   2   2   2
#     4  10  21  41  62  94 129 170 218 267 329 385
#     4   9  20  37  65  90 124 169 212 272 322 383
#     4  10  23  42  61  91 132 166 214 270 323 388
#     4   9  19  35  60  91 123 162 210 268 330 383
#     4  11  26  44  64 101 132 167 221 277 331 390
#     4  12  26  40  71  91 128 181 219 255 334 405
#     4   9  20  38  63  88 127 168 211 267 330 378
#
# _framework density 20.942193
#
# number of rings (size 3 to 8) (size 9 to 14) (size 15 to 20)
#    0.000    2.000    1.429    1.286    6.000    2.857 
#    0.000    0.000    0.000    6.000    0.000    0.000 
#    0.000    0.000    0.000    0.000    0.000    0.000 
#
# Total GULP energy -173441.418237 kJ/mol
# GULP energy per Si atom -12388.672731 kJ/mol
# Density = 2.089453 g / cm^3
# Si number density = 20.942193 Si / 1000 Ang^3
#
#
#
# Elastic Constant Matrix: (Units=GPa)
#
#
# Indices 1 2 3 4 5 6 
#
# 1 182.5332 29.5811 68.3756 21.6519 -14.6228 -20.2852
# 2 29.5811 41.6116 25.8051 11.5270 3.1932 -2.0654
# 3 68.3756 25.8051 167.3863 10.1955 9.5417 1.7382
# 4 21.6519 11.5270 10.1955 21.2954 2.2297 -0.2763
# 5 -14.6228 3.1932 9.5417 2.2297 42.9892 7.9216
# 6 -20.2852 -2.0654 1.7382 -0.2763 7.9216 29.1487
#
#
#
# Elastic Compliance Matrix: (Units=1/GPa)
#
#
# Indices 1 2 3 4 5 6 
#
# 1 0.008534 -0.002520 -0.002953 -0.006163 0.003139 0.005025
# 2 -0.002520 0.031396 -0.002924 -0.012801 -0.002077 0.001089
# 3 -0.002953 -0.002924 0.007710 0.001093 -0.002164 -0.002124
# 4 -0.006163 -0.012801 0.001093 0.059983 -0.003826 -0.003653
# 5 0.003139 -0.002077 -0.002164 -0.003826 0.026076 -0.004956
# 6 0.005025 0.001089 -0.002124 -0.003653 -0.004956 0.039320
#
#
# Mechanical properties :
#
#
# Convention : Reuss Voigt Hill
#
# Bulk Modulus (GPa) = 32.41936 71.00609 51.71273
# Shear Modulus (GPa) = 24.98816 36.53795 30.76305
#
# Velocity S-wave (km/s) = 3.45802 4.18150 3.83685
# Velocity P-wave (km/s) = 5.60873 7.56919 6.66147
#
# Compressibility (1/GPa) = 0.03084576
#
# Stress axis : x y z
#
# Youngs Moduli (GPa) = 117.17820 31.85157 129.69741
#
# Poissons Ratio (x) = 0.08025 0.38305
# Poissons Ratio (y) = 0.29524 0.37925
# Poissons Ratio (z) = 0.34607 0.09314
#
# Static dielectric constant tensor:
#      x y z
#    x 5.609630 0.296060 0.722650 
#    y 0.296060 3.417880 0.260810 
#    z 0.722650 0.260810 4.635000 
# 
# 
# High freq. dielectric constant tensor:
#      x y z
#    x 1.851740 0.007610 0.003780 
#    y 0.007610 1.772020 0.000820 
#    z 0.003780 0.000820 1.837280 
# 
# From -- ./inp_files/524023.got.cif
#   From: 2010.06.25/outbox.cif.g09.slc.cpg/sg2_263_cif.got.tgz:524023.got - 2010.06.27 13:26:56.
