data_PCOD8013427
_publ_section_title
;
Structure prediction by ZEFSAII (Michael W. Deem and Ramdas Pophale) SiO2 
 PCOD8013427
Probable space group: P -1
;
_chemical_formula_sum "Si O2"
_cell_formula_units_Z 16
_cell_length_a 8.877772
_cell_length_b 20.062019
_cell_length_c 12.054274
_cell_angle_alpha 148.811244
_cell_angle_beta 143.777783
_cell_angle_gamma 44.652133
_cell_volume 655.403440
_symmetry_space_group_name_H-M "P -1"
_symmetry_group_IT_number 2
_symmetry_cell_setting 'triclinic'
loop_
_space_group_symop_operation_xyz
x,y,z
-x,-y,-z
loop_
_atom_site_type_symbol
_atom_site_label
_atom_site_fract_x
_atom_site_fract_y
_atom_site_fract_z
Si Si1 0.687806 0.955168 0.167294
Si Si2 0.543960 0.368741 0.988975
Si Si3 0.011926 0.175926 0.042147
Si Si4 0.780452 0.355642 0.446137
Si Si5 0.224510 0.381685 0.599972
Si Si6 0.025578 0.167631 0.645898
Si Si7 0.110792 0.911510 0.774065
Si Si8 0.742856 0.587455 0.895396
O O1 0.733734 0.892356 0.226136
O O2 0.761350 0.105589 0.436729
O O3 0.885657 0.877856 0.091590
O O4 0.394854 0.941468 0.937978
O O5 0.700911 0.493625 0.243586
O O6 0.333482 0.397800 0.000559
O O7 0.733601 0.247834 0.964206
O O8 0.407616 0.337525 0.748192
O O9 0.218949 0.267005 0.344745
O O10 0.989518 0.053465 0.940778
O O11 0.873076 0.203789 0.292445
O O12 0.827120 0.437436 0.703569
O O13 0.484785 0.366548 0.256935
O O14 0.937558 0.413826 0.521918
O O15 0.071729 0.132910 0.495224
O O16 0.023621 0.324167 0.873340
#
# Coordination Sequence:
#
# PCOD8013427 Si02
#       8
#     2   2   2   2   2   2   2   2
#     4  10  23  42  65 106 139 181 228 278 346 407
#     4  11  26  46  68 105 135 183 233 274 352 405
#     4  11  24  42  69  97 140 184 218 288 337 409
#     4  11  25  45  72 105 136 183 233 283 346 400
#     4  11  26  46  69 100 141 181 229 281 342 417
#     4  10  21  40  67  98 138 175 229 282 332 405
#     4  11  24  44  69 104 141 180 232 279 344 414
#     4  11  24  45  74 100 138 184 227 296 334 404
#
# _framework density 24.412443
#
# number of rings (size 3 to 8) (size 9 to 14) (size 15 to 20)
#    0.000    1.250    2.500    2.625    3.500    6.500 
#    2.250    3.125    0.000    0.000    0.000    0.000 
#    0.000    0.000    0.000    0.000    0.000    0.000 
#
# Total GULP energy -198277.464562 kJ/mol
# GULP energy per Si atom -12392.341535 kJ/mol
# Density = 2.435688 g / cm^3
# Si number density = 24.412443 Si / 1000 Ang^3
#
#
#
# Elastic Constant Matrix: (Units=GPa)
#
#
# Indices 1 2 3 4 5 6 
#
# 1 71.5310 21.1642 33.5890 10.3846 9.5263 6.4191
# 2 21.1642 137.8344 53.0414 16.7746 0.9966 3.2177
# 3 33.5890 53.0414 149.1987 13.4033 9.8428 1.4399
# 4 10.3846 16.7746 13.4033 34.3392 10.0923 4.5732
# 5 9.5263 0.9966 9.8428 10.0923 33.1307 5.2903
# 6 6.4191 3.2177 1.4399 4.5732 5.2903 25.2943
#
#
#
# Elastic Compliance Matrix: (Units=1/GPa)
#
#
# Indices 1 2 3 4 5 6 
#
# 1 0.016628 -0.001062 -0.002963 -0.002154 -0.002741 -0.002953
# 2 -0.001062 0.008891 -0.002736 -0.003472 0.001987 -0.000494
# 3 -0.002963 -0.002736 0.008503 -0.000781 -0.001526 0.001076
# 4 -0.002154 -0.003472 -0.000781 0.034909 -0.009140 -0.003367
# 5 -0.002741 0.001987 -0.001526 -0.009140 0.034969 -0.005132
# 6 -0.002953 -0.000494 0.001076 -0.003367 -0.005132 0.041968
#
#
# Mechanical properties :
#
#
# Convention : Reuss Voigt Hill
#
# Bulk Modulus (GPa) = 48.78174 63.79481 56.28828
# Shear Modulus (GPa) = 30.08015 35.27080 32.67547
#
# Velocity S-wave (km/s) = 3.51403 3.80516 3.66249
# Velocity P-wave (km/s) = 6.04071 6.74496 6.40253
#
# Compressibility (1/GPa) = 0.02049947
#
# Stress axis : x y z
#
# Youngs Moduli (GPa) = 60.13795 112.47588 117.60995
#
# Poissons Ratio (x) = 0.11946 0.34849
# Poissons Ratio (y) = 0.06387 0.32179
# Poissons Ratio (z) = 0.17820 0.30774
#
# Static dielectric constant tensor:
#      x y z
#    x 3.961400 0.216640 0.033560 
#    y 0.216640 4.449690 0.099400 
#    z 0.033560 0.099400 4.913860 
# 
# 
# High freq. dielectric constant tensor:
#      x y z
#    x 1.935940 0.023400 0.004050 
#    y 0.023400 1.977470 -0.006990 
#    z 0.004050 -0.006990 1.998470 
# 
# From -- ./inp_files/405753.got.cif
#   From: 2010.06.25/outbox.cif.g09.slc.cpg/sg2_203_cif.got.tgz:405753.got - 2010.06.27 13:26:56.
