data_PCOD8013114
_publ_section_title
;
Structure prediction by ZEFSAII (Michael W. Deem and Ramdas Pophale) SiO2 
 PCOD8013114
Probable space group: P -1
;
_chemical_formula_sum "Si O2"
_cell_formula_units_Z 16
_cell_length_a 11.937485
_cell_length_b 14.142229
_cell_length_c 14.019153
_cell_angle_alpha 47.860963
_cell_angle_beta 149.497088
_cell_angle_gamma 143.555423
_cell_volume 711.706784
_symmetry_space_group_name_H-M "P -1"
_symmetry_group_IT_number 2
_symmetry_cell_setting 'triclinic'
loop_
_space_group_symop_operation_xyz
x,y,z
-x,-y,-z
loop_
_atom_site_type_symbol
_atom_site_label
_atom_site_fract_x
_atom_site_fract_y
_atom_site_fract_z
Si Si1 0.501455 0.437369 0.754155
Si Si2 0.077307 0.235496 0.424022
Si Si3 0.055642 0.942474 0.985701
Si Si4 0.036371 0.197638 0.712538
Si Si5 0.015738 0.508338 0.822702
Si Si6 0.193691 0.373214 0.898506
Si Si7 0.564887 0.714708 0.513157
Si Si8 0.365718 0.983609 0.616457
O O1 0.354562 0.324004 0.631722
O O2 0.326693 0.348203 0.781716
O O3 0.526454 0.596932 0.647196
O O4 0.807194 0.486443 0.962901
O O5 0.156081 0.218614 0.386971
O O6 0.934195 0.324167 0.260137
O O7 0.837570 0.065597 0.408507
O O8 0.365535 0.998912 0.167915
O O9 0.840594 0.747227 0.960943
O O10 0.026678 0.038524 0.816528
O O11 0.000000 0.000000 0.000000
O O12 0.998430 0.255621 0.747294
O O13 0.785522 0.146701 0.491873
O O14 0.094237 0.472173 0.802389
O O15 0.688844 0.373062 0.689652
O O16 0.500000 0.500000 0.000000
O O17 0.565193 0.848642 0.478070
#
# Coordination Sequence:
#
# PCOD8013114 Si02
#       8
#     2   2   2   2   2   2   2   2
#     4  10  21  40  65  94 123 167 209 261 308 373
#     4  10  24  42  63  94 126 166 210 263 315 366
#     4  10  23  42  64  90 128 167 203 256 309 371
#     4  10  23  41  64  95 131 164 209 253 310 380
#     4  11  21  41  65  89 130 163 209 260 313 361
#     4  11  22  39  65  96 125 164 205 256 311 372
#     4  11  24  41  64  95 126 163 216 261 312 370
#     4  11  23  42  66  93 128 169 205 256 318 372
#
# _framework density 22.481169000000001
#
# number of rings (size 3 to 8) (size 9 to 14) (size 15 to 20)
#    0.000    1.500    2.500    2.625    3.500    4.000 
#    0.000    6.875    0.000    6.000    0.000    0.000 
#    0.000    0.000    0.000    0.000    0.000    0.000 
#
# Total GULP energy -198291.348692 kJ/mol
# GULP energy per Si atom -12393.209293 kJ/mol
# Density = 2.243000 g / cm^3
# Si number density = 22.481169 Si / 1000 Ang^3
#
#
#
# Elastic Constant Matrix: (Units=GPa)
#
#
# Indices 1 2 3 4 5 6 
#
# 1 67.9717 9.2161 14.6517 -8.3743 10.9964 5.7552
# 2 9.2161 82.2481 32.9239 -6.6681 6.4114 15.0808
# 3 14.6517 32.9239 115.5534 -0.5392 7.3758 4.9637
# 4 -8.3743 -6.6681 -0.5392 29.3712 -0.6609 5.6167
# 5 10.9964 6.4114 7.3758 -0.6609 25.1850 2.6446
# 6 5.7552 15.0808 4.9637 5.6167 2.6446 30.0195
#
#
#
# Elastic Compliance Matrix: (Units=1/GPa)
#
#
# Indices 1 2 3 4 5 6 
#
# 1 0.017059 0.000375 -0.001672 0.005466 -0.006530 -0.003630
# 2 0.000375 0.015798 -0.004048 0.005127 -0.002013 -0.008121
# 3 -0.001672 -0.004048 0.010051 -0.001448 -0.001335 0.001080
# 4 0.005466 0.005127 -0.001448 0.038731 -0.001146 -0.010530
# 5 -0.006530 -0.002013 -0.001335 -0.001146 0.043550 -0.001138
# 6 -0.003630 -0.008121 0.001080 -0.010530 -0.001138 0.039979
#
#
# Mechanical properties :
#
#
# Convention : Reuss Voigt Hill
#
# Bulk Modulus (GPa) = 31.03644 42.15072 36.59358
# Shear Modulus (GPa) = 26.79588 30.84722 28.82155
#
# Velocity S-wave (km/s) = 3.45617 3.70825 3.58443
# Velocity P-wave (km/s) = 5.45549 6.09302 5.78305
#
# Compressibility (1/GPa) = 0.03222019
#
# Stress axis : x y z
#
# Youngs Moduli (GPa) = 58.62169 63.29844 99.48995
#
# Poissons Ratio (x) = -0.02376 0.16632
# Poissons Ratio (y) = -0.02201 0.40270
# Poissons Ratio (z) = 0.09800 0.25621
#
# Static dielectric constant tensor:
#      x y z
#    x 4.138550 -0.000220 0.324680 
#    y -0.000220 4.640930 -0.364140 
#    z 0.324680 -0.364140 4.297040 
# 
# 
# High freq. dielectric constant tensor:
#      x y z
#    x 1.874080 0.008950 0.006930 
#    y 0.008950 1.898740 -0.002270 
#    z 0.006930 -0.002270 1.874050 
# 
# From -- ./inp_files/397145.got.cif
#   From: 2010.06.25/outbox.cif.g09.slc.cpg/sg2_199_cif.got.tgz:397145.got - 2010.06.27 13:26:56.
