data_PCOD8013650
_publ_section_title
;
Structure prediction by ZEFSAII (Michael W. Deem and Ramdas Pophale) SiO2 
 PCOD8013650
Probable space group: P -1
;
_chemical_formula_sum "Si O2"
_cell_formula_units_Z 14
_cell_length_a 5.382585
_cell_length_b 14.979078
_cell_length_c 15.034407
_cell_angle_alpha 33.223777
_cell_angle_beta 111.798888
_cell_angle_gamma 120.616598
_cell_volume 567.713690
_symmetry_space_group_name_H-M "P -1"
_symmetry_group_IT_number 2
_symmetry_cell_setting 'triclinic'
loop_
_space_group_symop_operation_xyz
x,y,z
-x,-y,-z
loop_
_atom_site_type_symbol
_atom_site_label
_atom_site_fract_x
_atom_site_fract_y
_atom_site_fract_z
Si Si1 0.255433 0.327684 0.998851
Si Si2 0.733026 0.853264 0.135274
Si Si3 0.962713 0.781021 0.559623
Si Si4 0.233102 0.631954 0.856425
Si Si5 0.405594 0.833260 0.428322
Si Si6 0.408990 0.476140 0.706511
Si Si7 0.341706 0.956378 0.875587
O O1 0.303104 0.523373 0.876392
O O2 0.324035 0.344321 0.889750
O O3 0.477791 0.262010 0.136293
O O4 0.935641 0.183157 0.095495
O O5 0.714069 0.653008 0.287212
O O6 0.736794 0.893719 0.207479
O O7 0.442426 0.853022 0.049590
O O8 0.000000 0.000000 0.000000
O O9 0.115811 0.771346 0.681499
O O10 0.214370 0.878481 0.439652
O O11 0.747431 0.885246 0.458597
O O12 0.760762 0.580921 0.666389
O O13 0.000000 0.500000 0.000000
O O14 0.262924 0.621090 0.566852
O O15 0.408771 0.944330 0.246911
#
# Coordination Sequence:
#
# PCOD8013650 Si02
#       7
#     2   2   2   2   2   2   2
#     4  11  22  38  67  96 132 169 228 275 328 389
#     4  11  24  41  69  96 131 168 230 277 330 394
#     4  10  21  41  66  95 134 178 217 274 322 402
#     4  11  20  37  65 100 124 173 229 272 321 396
#     4  10  24  42  69  92 146 176 217 265 348 397
#     4  10  21  40  70  96 132 175 219 273 330 391
#     4  11  26  43  64 100 132 177 217 282 335 396
#
# _framework density 24.660321
#
# number of rings (size 3 to 8) (size 9 to 14) (size 15 to 20)
#    0.857    0.571    4.286    0.857    4.000    0.571 
#    0.000    2.857    0.000    0.000    0.000    0.000 
#    0.000    0.000    0.000    0.000    0.000    0.000 
#
# Total GULP energy -173561.515721 kJ/mol
# GULP energy per Si atom -12397.251123 kJ/mol
# Density = 2.460419 g / cm^3
# Si number density = 24.660321 Si / 1000 Ang^3
#
#
#
# Elastic Constant Matrix: (Units=GPa)
#
#
# Indices 1 2 3 4 5 6 
#
# 1 87.9499 0.3105 3.2447 2.2544 -28.3384 4.6619
# 2 0.3105 65.3984 9.1439 -8.0211 -10.5506 12.0100
# 3 3.2447 9.1439 76.4222 12.0778 -23.3818 1.0032
# 4 2.2544 -8.0211 12.0778 28.0959 -3.3998 -9.2334
# 5 -28.3384 -10.5506 -23.3818 -3.3998 44.3888 6.2776
# 6 4.6619 12.0100 1.0032 -9.2334 6.2776 29.5294
#
#
#
# Elastic Compliance Matrix: (Units=1/GPa)
#
#
# Indices 1 2 3 4 5 6 
#
# 1 0.016141 0.002648 0.003788 -0.003006 0.013777 -0.007623
# 2 0.002648 0.018482 -0.000535 0.003414 0.007249 -0.008390
# 3 0.003788 -0.000535 0.018173 -0.008893 0.012081 -0.006347
# 4 -0.003006 0.003414 -0.008893 0.044810 -0.004387 0.014332
# 5 0.013777 0.007249 0.012081 -0.004387 0.041292 -0.015684
# 6 -0.007623 -0.008390 -0.006347 0.014332 -0.015684 0.046512
#
#
# Mechanical properties :
#
#
# Convention : Reuss Voigt Hill
#
# Bulk Modulus (GPa) = 15.48033 28.35208 21.91621
# Shear Modulus (GPa) = 25.62223 34.87424 30.24823
#
# Velocity S-wave (km/s) = 3.22686 3.76464 3.50608
# Velocity P-wave (km/s) = 4.49161 5.51532 5.02958
#
# Compressibility (1/GPa) = 0.06459809
#
# Stress axis : x y z
#
# Youngs Moduli (GPa) = 61.95277 54.10601 55.02583
#
# Poissons Ratio (x) = -0.14325 -0.20845
# Poissons Ratio (y) = -0.16402 0.02945
# Poissons Ratio (z) = -0.23469 0.02896
#
# Static dielectric constant tensor:
#      x y z
#    x 4.457850 0.027690 0.066250 
#    y 0.027690 4.435550 0.108390 
#    z 0.066250 0.108390 4.077540 
# 
# 
# High freq. dielectric constant tensor:
#      x y z
#    x 1.979710 0.003250 -0.007140 
#    y 0.003250 1.965560 0.002340 
#    z -0.007140 0.002340 1.965390 
# 
# From -- ./inp_files/483839.got.cif
#   From: 2010.06.25/outbox.cif.g09.slc.cpg/sg2_242_cif.got.tgz:483839.got - 2010.06.27 13:26:56.
