data_PCOD8013254
_publ_section_title
;
Structure prediction by ZEFSAII (Michael W. Deem and Ramdas Pophale) SiO2 
 PCOD8013254
Probable space group: P -1
;
_chemical_formula_sum "Si O2"
_cell_formula_units_Z 14
_cell_length_a 8.876772
_cell_length_b 22.860072
_cell_length_c 8.379391
_cell_angle_alpha 34.496640
_cell_angle_beta 48.822672
_cell_angle_gamma 37.479642
_cell_volume 585.931994
_symmetry_space_group_name_H-M "P -1"
_symmetry_group_IT_number 2
_symmetry_cell_setting 'triclinic'
loop_
_space_group_symop_operation_xyz
x,y,z
-x,-y,-z
loop_
_atom_site_type_symbol
_atom_site_label
_atom_site_fract_x
_atom_site_fract_y
_atom_site_fract_z
Si Si1 0.199867 0.803312 0.960860
Si Si2 0.680500 0.195613 0.771575
Si Si3 0.161939 0.591882 0.553297
Si Si4 0.146287 0.408165 0.750978
Si Si5 0.281488 0.995320 0.039118
Si Si6 0.610219 0.814264 0.474059
Si Si7 0.717777 0.405527 0.183791
O O1 0.412110 0.802284 0.727953
O O2 0.187195 0.828773 0.099823
O O3 0.226071 0.671606 0.216521
O O4 0.916558 0.927922 0.847321
O O5 0.385218 0.275691 0.820093
O O6 0.801028 0.057256 0.923232
O O7 0.742155 0.275516 0.438995
O O8 0.236798 0.467535 0.681280
O O9 0.323266 0.549552 0.700922
O O10 0.867842 0.673883 0.608622
O O11 0.000000 0.500000 0.500000
O O12 0.977772 0.375232 0.025833
O O13 0.519364 0.866143 0.241654
O O14 0.350253 0.083759 0.706127
O O15 0.500000 0.500000 0.000000
#
# Coordination Sequence:
#
# PCOD8013254 Si02
#       7
#     2   2   2   2   2   2   2
#     4  10  22  40  66  95 121 167 215 257 322 377
#     4  11  24  41  61  93 131 166 212 260 316 381
#     4  10  24  42  65  94 133 168 211 266 316 382
#     4  12  24  41  63  93 130 174 214 255 318 380
#     4  10  22  40  63  93 130 161 209 266 313 381
#     4  10  21  40  66  94 124 167 208 259 326 377
#     4  11  24  43  62  92 129 171 217 263 317 373
#
# _framework density 23.893557999999999
#
# number of rings (size 3 to 8) (size 9 to 14) (size 15 to 20)
#    0.000    1.429    1.429    3.000    0.000    6.286 
#    0.000    0.000    0.000    0.000    0.000    0.000 
#    0.000    0.000    0.000    0.000    0.000    0.000 
#
# Total GULP energy -173494.931345 kJ/mol
# GULP energy per Si atom -12392.495096 kJ/mol
# Density = 2.383918 g / cm^3
# Si number density = 23.893558 Si / 1000 Ang^3
#
#
#
# Elastic Constant Matrix: (Units=GPa)
#
#
# Indices 1 2 3 4 5 6 
#
# 1 82.0126 23.1792 25.1292 5.5360 -13.5474 -7.2524
# 2 23.1792 92.8209 40.9314 9.4952 -28.5816 -15.3109
# 3 25.1292 40.9314 109.3512 29.3312 -33.0562 -6.8735
# 4 5.5360 9.4952 29.3312 22.1576 -16.3572 -7.9529
# 5 -13.5474 -28.5816 -33.0562 -16.3572 59.0023 1.2982
# 6 -7.2524 -15.3109 -6.8735 -7.9529 1.2982 37.1706
#
#
#
# Elastic Compliance Matrix: (Units=1/GPa)
#
#
# Indices 1 2 3 4 5 6 
#
# 1 0.013740 -0.001747 -0.002622 0.002624 0.001523 0.001985
# 2 -0.001747 0.015751 -0.005222 0.007586 0.006261 0.006586
# 3 -0.002622 -0.005222 0.017289 -0.020751 0.000888 -0.003936
# 4 0.002624 0.007586 -0.020751 0.087259 0.016449 0.017895
# 5 0.001523 0.006261 0.000888 0.016449 0.025264 0.005677
# 6 0.001985 0.006586 -0.003936 0.017895 0.005677 0.032905
#
#
# Mechanical properties :
#
#
# Convention : Reuss Voigt Hill
#
# Bulk Modulus (GPa) = 36.23487 51.40714 43.82100
# Shear Modulus (GPa) = 22.66633 36.66244 29.66438
#
# Velocity S-wave (km/s) = 3.08334 3.92140 3.52735
# Velocity P-wave (km/s) = 5.27958 6.48575 5.91350
#
# Compressibility (1/GPa) = 0.02759773
#
# Stress axis : x y z
#
# Youngs Moduli (GPa) = 72.77774 63.48869 57.83920
#
# Poissons Ratio (x) = 0.11091 0.15167
# Poissons Ratio (y) = 0.12714 0.30205
# Poissons Ratio (z) = 0.19084 0.33156
#
# Static dielectric constant tensor:
#      x y z
#    x 4.116110 0.352120 0.323890 
#    y 0.352120 3.489300 -0.654860 
#    z 0.323890 -0.654860 4.205080 
# 
# 
# High freq. dielectric constant tensor:
#      x y z
#    x 1.962750 -0.027150 -0.007560 
#    y -0.027150 1.939130 -0.008890 
#    z -0.007560 -0.008890 1.953230 
# 
# From -- ./inp_files/215471.got.cif
#   From: 2010.06.25/outbox.cif.g09.slc.cpg/sg2_108_cif.got.tgz:215471.got - 2010.06.27 13:26:56.
