data_PCOD8013879
_publ_section_title
;
Structure prediction by ZEFSAII (Michael W. Deem and Ramdas Pophale) SiO2 
 PCOD8013879
Probable space group: P -1
;
_chemical_formula_sum "Si O2"
_cell_formula_units_Z 16
_cell_length_a 9.242866
_cell_length_b 14.737095
_cell_length_c 15.712874
_cell_angle_alpha 38.856091
_cell_angle_beta 139.978889
_cell_angle_gamma 142.117053
_cell_volume 758.367465
_symmetry_space_group_name_H-M "P -1"
_symmetry_group_IT_number 2
_symmetry_cell_setting 'triclinic'
loop_
_space_group_symop_operation_xyz
x,y,z
-x,-y,-z
loop_
_atom_site_type_symbol
_atom_site_label
_atom_site_fract_x
_atom_site_fract_y
_atom_site_fract_z
Si Si1 0.347943 0.267139 0.207119
Si Si2 0.855150 0.337576 0.298058
Si Si3 0.386953 0.909256 0.907822
Si Si4 0.006808 0.427257 0.964938
Si Si5 0.388000 0.708402 0.517529
Si Si6 0.164608 0.051326 0.825427
Si Si7 0.877294 0.625805 0.434823
Si Si8 0.763901 0.035521 0.376549
O O1 0.586678 0.334261 0.200938
O O2 0.429115 0.236751 0.358536
O O3 0.256059 0.403623 0.077923
O O4 0.128819 0.092422 0.200225
O O5 0.999924 0.457559 0.197280
O O6 0.043034 0.404355 0.414120
O O7 0.805440 0.153346 0.389647
O O8 0.314629 0.043481 0.814744
O O9 0.282811 0.872139 0.792032
O O10 0.689512 0.966534 0.011389
O O11 0.242883 0.749974 0.020430
O O12 0.000000 0.500000 0.000000
O O13 0.364951 0.544286 0.581795
O O14 0.509343 0.861353 0.396383
O O15 0.106507 0.677669 0.433731
O O16 0.198061 0.231904 0.705364
O O17 0.000000 0.000000 0.500000
#
# Coordination Sequence:
#
# PCOD8013879 Si02
#       8
#     2   2   2   2   2   2   2   2
#     4  10  22  42  65  92 124 168 208 260 311 373
#     4  11  23  40  66  93 123 165 217 253 313 377
#     4  10  23  39  60  93 125 163 209 253 311 376
#     4  11  22  40  64  91 125 163 206 257 314 372
#     4  10  23  39  63  90 126 159 212 257 312 370
#     4  10  21  41  63  85 129 165 203 258 312 367
#     4  10  22  41  62  92 121 164 205 264 311 366
#     4  12  23  39  64  92 126 166 209 255 308 376
#
# _framework density 21.097951999999999
#
# number of rings (size 3 to 8) (size 9 to 14) (size 15 to 20)
#    0.000    1.500    1.250    4.125    1.750    5.000 
#    0.000    5.625    0.000    0.000    0.000    0.000 
#    0.000    0.000    0.000    0.000    0.000    0.000 
#
# Total GULP energy -198403.625724 kJ/mol
# GULP energy per Si atom -12400.226608 kJ/mol
# Density = 2.104993 g / cm^3
# Si number density = 21.097952 Si / 1000 Ang^3
#
#
#
# Elastic Constant Matrix: (Units=GPa)
#
#
# Indices 1 2 3 4 5 6 
#
# 1 98.4546 49.4470 41.8857 -8.2344 -1.9891 -12.1325
# 2 49.4470 130.6108 49.1477 -7.1869 -1.6429 -5.2880
# 3 41.8857 49.1477 87.2989 -0.5245 -2.6004 6.6900
# 4 -8.2344 -7.1869 -0.5245 42.7681 -3.2816 4.8522
# 5 -1.9891 -1.6429 -2.6004 -3.2816 34.4463 -11.5706
# 6 -12.1325 -5.2880 6.6900 4.8522 -11.5706 28.8812
#
#
#
# Elastic Compliance Matrix: (Units=1/GPa)
#
#
# Indices 1 2 3 4 5 6 
#
# 1 0.015645 -0.003062 -0.006326 0.001708 0.003302 0.008513
# 2 -0.003062 0.010717 -0.004681 0.000995 0.000706 0.001875
# 3 -0.006326 -0.004681 0.017691 -0.001010 -0.002137 -0.008299
# 4 0.001708 0.000995 -0.001010 0.024249 0.001609 -0.002296
# 5 0.003302 0.000706 -0.002137 0.001609 0.034470 0.015551
# 6 0.008513 0.001875 -0.008299 -0.002296 0.015551 0.047082
#
#
# Mechanical properties :
#
#
# Convention : Reuss Voigt Hill
#
# Bulk Modulus (GPa) = 62.83446 66.36945 64.60196
# Shear Modulus (GPa) = 27.27804 32.94474 30.11139
#
# Velocity S-wave (km/s) = 3.59963 3.95589 3.78195
# Velocity P-wave (km/s) = 6.86464 7.23819 7.05389
#
# Compressibility (1/GPa) = 0.01591483
#
# Stress axis : x y z
#
# Youngs Moduli (GPa) = 63.91910 93.31389 56.52434
#
# Poissons Ratio (x) = 0.28575 0.35758
# Poissons Ratio (y) = 0.19574 0.26457
# Poissons Ratio (z) = 0.40436 0.43677
#
# Static dielectric constant tensor:
#      x y z
#    x 3.884680 -0.168070 0.102580 
#    y -0.168070 4.042610 -0.016510 
#    z 0.102580 -0.016510 3.706710 
# 
# 
# High freq. dielectric constant tensor:
#      x y z
#    x 1.823650 -0.010210 0.009030 
#    y -0.010210 1.837350 -0.000880 
#    z 0.009030 -0.000880 1.823650 
# 
# From -- ./inp_files/261470.got.cif
#   From: 2010.06.25/outbox.cif.g09.slc.cpg/sg2_131_cif.got.tgz:261470.got - 2010.06.27 13:26:56.
