data_PCOD8013570
_publ_section_title
;
Structure prediction by ZEFSAII (Michael W. Deem and Ramdas Pophale) SiO2 
 PCOD8013570
Probable space group: P -1
;
_chemical_formula_sum "Si O2"
_cell_formula_units_Z 14
_cell_length_a 9.187371
_cell_length_b 9.443406
_cell_length_c 14.442942
_cell_angle_alpha 68.362610
_cell_angle_beta 101.617848
_cell_angle_gamma 45.099855
_cell_volume 588.268282
_symmetry_space_group_name_H-M "P -1"
_symmetry_group_IT_number 2
_symmetry_cell_setting 'triclinic'
loop_
_space_group_symop_operation_xyz
x,y,z
-x,-y,-z
loop_
_atom_site_type_symbol
_atom_site_label
_atom_site_fract_x
_atom_site_fract_y
_atom_site_fract_z
Si Si1 0.002781 0.958228 0.325570
Si Si2 0.136482 0.141039 0.389240
Si Si3 0.412506 0.622658 0.085305
Si Si4 0.726288 0.858781 0.779472
Si Si5 0.319956 0.309326 0.913839
Si Si6 0.799340 0.100943 0.819137
Si Si7 0.819317 0.811209 0.411935
O O1 0.678109 0.282708 0.173315
O O2 0.214226 0.791676 0.304306
O O3 0.093301 0.995992 0.409484
O O4 0.015864 0.773299 0.405272
O O5 0.347318 0.008858 0.364821
O O6 0.260566 0.076215 0.519972
O O7 0.830499 0.498079 0.246946
O O8 0.460646 0.748254 0.015504
O O9 0.127884 0.796647 0.967514
O O10 0.391926 0.648522 0.188644
O O11 0.061887 0.505928 0.908981
O O12 0.685436 0.028643 0.807965
O O13 0.484391 0.940151 0.743366
O O14 0.500000 0.000000 0.000000
O O15 0.000000 0.500000 0.500000
#
# Coordination Sequence:
#
# PCOD8013570 Si02
#       7
#     2   2   2   2   2   2   2
#     4  10  22  43  67  92 127 177 223 269 326 397
#     4   8  20  44  64  88 133 174 217 267 318 391
#     4  10  21  40  69  90 135 171 218 268 336 396
#     4   9  22  40  65  93 136 166 221 272 328 389
#     4   9  20  39  68  97 130 168 210 271 335 385
#     4  10  21  42  65  99 126 174 222 267 326 410
#     4  12  25  41  65  97 133 175 223 278 331 382
#
# _framework density 23.798666000000001
#
# number of rings (size 3 to 8) (size 9 to 14) (size 15 to 20)
#    0.857    1.429    1.429    1.286    4.000    3.429 
#    5.143    2.857    0.000    0.000    0.000    0.000 
#    0.000    0.000    0.000    0.000    0.000    0.000 
#
# Total GULP energy -173480.398533 kJ/mol
# GULP energy per Si atom -12391.457038 kJ/mol
# Density = 2.374450 g / cm^3
# Si number density = 23.798666 Si / 1000 Ang^3
#
#
#
# Elastic Constant Matrix: (Units=GPa)
#
#
# Indices 1 2 3 4 5 6 
#
# 1 112.9358 43.5791 19.6034 -3.9301 9.3349 25.9798
# 2 43.5791 97.8239 22.5829 10.7378 -11.7295 9.0795
# 3 19.6034 22.5829 26.1878 5.3995 6.2369 18.9047
# 4 -3.9301 10.7378 5.3995 37.5212 9.9055 0.0900
# 5 9.3349 -11.7295 6.2369 9.9055 36.4626 -4.5267
# 6 25.9798 9.0795 18.9047 0.0900 -4.5267 38.5910
#
#
#
# Elastic Compliance Matrix: (Units=1/GPa)
#
#
# Indices 1 2 3 4 5 6 
#
# 1 0.015458 -0.009558 0.007821 0.006366 -0.011761 -0.013383
# 2 -0.009558 0.022208 -0.026445 -0.008459 0.018442 0.016347
# 3 0.007821 -0.026445 0.100751 0.003297 -0.035160 -0.052531
# 4 0.006366 -0.008459 0.003297 0.033139 -0.014625 -0.005703
# 5 -0.011761 0.018442 -0.035160 -0.014625 0.049666 0.026662
# 6 -0.013383 0.016347 -0.052531 -0.005703 0.026662 0.059950
#
#
# Mechanical properties :
#
#
# Convention : Reuss Voigt Hill
#
# Bulk Modulus (GPa) = 12.18736 45.38646 28.78691
# Shear Modulus (GPa) = 13.70286 32.59379 23.14832
#
# Velocity S-wave (km/s) = 2.40215 3.70478 3.12215
# Velocity P-wave (km/s) = 3.58133 6.11661 5.01193
#
# Compressibility (1/GPa) = 0.08205221
#
# Stress axis : x y z
#
# Youngs Moduli (GPa) = 64.69283 45.02898 9.92546
#
# Poissons Ratio (x) = 0.43041 -0.07763
# Poissons Ratio (y) = 0.61836 0.26248
# Poissons Ratio (z) = -0.50597 1.19078
#
# Static dielectric constant tensor:
#      x y z
#    x 4.495970 -0.161480 0.146720 
#    y -0.161480 4.109320 0.217430 
#    z 0.146720 0.217430 3.826440 
# 
# 
# High freq. dielectric constant tensor:
#      x y z
#    x 1.951880 -0.003940 0.015740 
#    y -0.003940 1.939350 0.014040 
#    z 0.015740 0.014040 1.908410 
# 
# From -- ./inp_files/492548.got.cif
#   From: 2010.06.25/outbox.cif.g09.slc.cpg/sg2_247_cif.got.tgz:492548.got - 2010.06.27 13:26:56.
