data_PCOD8013968
_publ_section_title
;
Structure prediction by ZEFSAII (Michael W. Deem and Ramdas Pophale) SiO2 
 PCOD8013968
Probable space group: P -1
;
_chemical_formula_sum "Si O2"
_cell_formula_units_Z 14
_cell_length_a 13.716060
_cell_length_b 19.195374
_cell_length_c 10.990991
_cell_angle_alpha 29.779632
_cell_angle_beta 40.887383
_cell_angle_gamma 22.096650
_cell_volume 522.345941
_symmetry_space_group_name_H-M "P -1"
_symmetry_group_IT_number 2
_symmetry_cell_setting 'triclinic'
loop_
_space_group_symop_operation_xyz
x,y,z
-x,-y,-z
loop_
_atom_site_type_symbol
_atom_site_label
_atom_site_fract_x
_atom_site_fract_y
_atom_site_fract_z
Si Si1 0.841782 0.803776 0.460229
Si Si2 0.373657 0.190824 0.151797
Si Si3 0.323174 0.624132 0.283719
Si Si4 0.879270 0.797869 0.024439
Si Si5 0.477497 0.889770 0.330300
Si Si6 0.680936 0.186821 0.783075
Si Si7 0.515947 0.692394 0.824306
O O1 0.856777 0.656435 0.760052
O O2 0.133222 0.640459 0.408263
O O3 0.675922 0.898909 0.350637
O O4 0.639880 0.068327 0.317390
O O5 0.307108 0.148543 0.161679
O O6 0.403189 0.331306 0.876145
O O7 0.595424 0.362834 0.492319
O O8 0.181674 0.843825 0.181941
O O9 0.398054 0.635236 0.067092
O O10 0.680211 0.028763 0.765596
O O11 0.879153 0.909956 0.966666
O O12 0.770628 0.726209 0.268942
O O13 0.171314 0.549234 0.070460
O O14 0.490656 0.740855 0.629363
#
# Coordination Sequence:
#
# PCOD8013968 Si02
#       7
#     2   2   2   2   2   2   2
#     4  10  21  41  64 100 131 168 221 279 330 388
#     4   9  19  41  65  95 125 168 228 270 324 384
#     4  11  24  42  67  97 138 173 220 277 337 391
#     4  10  22  46  67  99 137 175 225 271 334 397
#     4   9  21  43  70  99 133 176 221 278 329 394
#     4  10  23  44  66  97 130 180 220 277 329 400
#     4  11  22  41  69  99 133 176 217 277 332 401
#
# _framework density 26.802163
#
# number of rings (size 3 to 8) (size 9 to 14) (size 15 to 20)
#    0.000    2.000    1.429    0.857    0.000    5.714 
#   28.286    1.429    0.000    0.000    0.000    0.000 
#    0.000    0.000    0.000    0.000    0.000    0.000 
#
# Total GULP energy -173472.341698 kJ/mol
# GULP energy per Si atom -12390.881550 kJ/mol
# Density = 2.674116 g / cm^3
# Si number density = 26.802163 Si / 1000 Ang^3
#
#
#
# Elastic Constant Matrix: (Units=GPa)
#
#
# Indices 1 2 3 4 5 6 
#
# 1 62.3916 -0.4105 0.4337 12.3811 -2.5874 -7.3933
# 2 -0.4105 94.6773 42.2603 21.5100 16.5413 -20.9313
# 3 0.4337 42.2603 114.6631 50.8915 7.1110 -1.5837
# 4 12.3811 21.5100 50.8915 45.9760 7.8958 -1.4423
# 5 -2.5874 16.5413 7.1110 7.8958 27.0851 3.1777
# 6 -7.3933 -20.9313 -1.5837 -1.4423 3.1777 24.7042
#
#
#
# Elastic Compliance Matrix: (Units=1/GPa)
#
#
# Indices 1 2 3 4 5 6 
#
# 1 0.018913 0.001871 0.003762 -0.010248 0.001884 0.006646
# 2 0.001871 0.019509 -0.006090 -0.000219 -0.012215 0.018257
# 3 0.003762 -0.006090 0.020084 -0.021511 0.005631 -0.004727
# 4 -0.010248 -0.000219 -0.021511 0.050083 -0.009744 -0.000454
# 5 0.001884 -0.012215 0.005631 -0.009744 0.047817 -0.016144
# 6 0.006646 0.018257 -0.004727 -0.000454 -0.016144 0.059684
#
#
# Mechanical properties :
#
#
# Convention : Reuss Voigt Hill
#
# Bulk Modulus (GPa) = 17.36317 39.58879 28.47598
# Shear Modulus (GPa) = 21.16835 34.84963 28.00899
#
# Velocity S-wave (km/s) = 2.81339 3.60982 3.23619
# Velocity P-wave (km/s) = 4.12866 5.67249 4.96100
#
# Compressibility (1/GPa) = 0.05759316
#
# Stress axis : x y z
#
# Youngs Moduli (GPa) = 52.87274 51.25829 49.78990
#
# Poissons Ratio (x) = -0.09591 -0.18733
# Poissons Ratio (y) = -0.09893 0.30324
# Poissons Ratio (z) = -0.19893 0.31218
#
# Static dielectric constant tensor:
#      x y z
#    x 4.708520 0.096970 0.131200 
#    y 0.096970 4.543330 0.645930 
#    z 0.131200 0.645930 5.091650 
# 
# 
# High freq. dielectric constant tensor:
#      x y z
#    x 2.068790 0.004690 0.009620 
#    y 0.004690 2.051140 0.026660 
#    z 0.009620 0.026660 2.081410 
# 
# From -- ./inp_files/457612.got.cif
#   From: 2010.06.25/outbox.cif.g09.slc.cpg/sg2_229_cif.got.tgz:457612.got - 2010.06.27 13:26:56.
