data_PCOD8013780
_publ_section_title
;
Structure prediction by ZEFSAII (Michael W. Deem and Ramdas Pophale) SiO2 
 PCOD8013780
Probable space group: P -1
;
_chemical_formula_sum "Si O2"
_cell_formula_units_Z 14
_cell_length_a 8.918375
_cell_length_b 11.980561
_cell_length_c 8.840472
_cell_angle_alpha 65.209399
_cell_angle_beta 49.942307
_cell_angle_gamma 72.464476
_cell_volume 655.680075
_symmetry_space_group_name_H-M "P -1"
_symmetry_group_IT_number 2
_symmetry_cell_setting 'triclinic'
loop_
_space_group_symop_operation_xyz
x,y,z
-x,-y,-z
loop_
_atom_site_type_symbol
_atom_site_label
_atom_site_fract_x
_atom_site_fract_y
_atom_site_fract_z
Si Si1 0.655088 0.559212 0.554171
Si Si2 0.659229 0.297714 0.791577
Si Si3 0.289944 0.011169 0.554808
Si Si4 0.996274 0.199294 0.128709
Si Si5 0.365201 0.097061 0.123821
Si Si6 0.271180 0.636070 0.611399
Si Si7 0.063759 0.238675 0.719671
O O1 0.615377 0.445236 0.758414
O O2 0.454982 0.638598 0.605654
O O3 0.741999 0.502069 0.370839
O O4 0.809800 0.646975 0.481285
O O5 0.698157 0.270190 0.603081
O O6 0.843852 0.254572 0.795777
O O7 0.474799 0.223488 0.008433
O O8 0.306848 0.040519 0.351858
O O9 0.154055 0.112534 0.668833
O O10 0.500000 0.000000 0.500000
O O11 0.193431 0.881439 0.714189
O O12 0.927780 0.322654 0.195519
O O13 0.167726 0.123295 0.145066
O O14 0.073206 0.237028 0.894823
O O15 0.500000 0.000000 0.000000
#
# Coordination Sequence:
#
# PCOD8013780 Si02
#       7
#     2   2   2   2   2   2   2
#     4   9  21  41  66  87 128 162 203 252 303 362
#     4  10  21  41  61  92 121 161 202 253 302 359
#     4  12  25  42  63  92 125 160 203 258 312 361
#     4  12  24  40  65  94 121 164 207 253 303 366
#     4  12  24  42  66  90 123 163 208 253 305 363
#     4   9  20  41  65  87 125 157 212 245 303 354
#     4  12  23  40  63  92 128 162 202 250 312 365
#
# _framework density 21.351876000000001
#
# number of rings (size 3 to 8) (size 9 to 14) (size 15 to 20)
#    0.857    0.286    0.000    7.286    0.000    0.571 
#    0.000    1.429    0.000    0.000    0.000    0.000 
#    0.000    0.000    0.000    0.000    0.000    0.000 
#
# Total GULP energy -173615.566725 kJ/mol
# GULP energy per Si atom -12401.111909 kJ/mol
# Density = 2.130328 g / cm^3
# Si number density = 21.351876 Si / 1000 Ang^3
#
#
#
# Elastic Constant Matrix: (Units=GPa)
#
#
# Indices 1 2 3 4 5 6 
#
# 1 128.9634 18.3654 3.2307 -0.3640 -11.8543 -20.2618
# 2 18.3654 71.4545 21.3701 2.9064 -1.5801 -10.4600
# 3 3.2307 21.3701 57.9285 5.4953 5.3044 -8.8172
# 4 -0.3640 2.9064 5.4953 46.2423 2.3552 -13.7975
# 5 -11.8543 -1.5801 5.3044 2.3552 30.2020 -8.0128
# 6 -20.2618 -10.4600 -8.8172 -13.7975 -8.0128 30.7989
#
#
#
# Elastic Compliance Matrix: (Units=1/GPa)
#
#
# Indices 1 2 3 4 5 6 
#
# 1 0.009860 -0.001377 0.000529 0.002422 0.005844 0.008776
# 2 -0.001377 0.016683 -0.005745 0.000711 0.002360 0.004048
# 3 0.000529 -0.005745 0.020157 -0.000993 -0.002758 0.003005
# 4 0.002422 0.000711 -0.000993 0.025689 0.002818 0.013792
# 5 0.005844 0.002360 -0.002758 0.002818 0.039905 0.015501
# 6 0.008776 0.004048 0.003005 0.013792 0.015501 0.050689
#
#
# Mechanical properties :
#
#
# Convention : Reuss Voigt Hill
#
# Bulk Modulus (GPa) = 29.83897 38.25318 34.04607
# Shear Modulus (GPa) = 26.68952 35.80733 31.24842
#
# Velocity S-wave (km/s) = 3.53935 4.09957 3.82972
# Velocity P-wave (km/s) = 5.54147 6.35320 5.96117
#
# Compressibility (1/GPa) = 0.03351322
#
# Stress axis : x y z
#
# Youngs Moduli (GPa) = 101.42134 59.94203 49.61136
#
# Poissons Ratio (x) = 0.08254 -0.02624
# Poissons Ratio (y) = 0.13966 0.28502
# Poissons Ratio (z) = -0.05364 0.34437
#
# Static dielectric constant tensor:
#      x y z
#    x 3.852620 -0.068930 0.013770 
#    y -0.068930 3.910310 -0.039630 
#    z 0.013770 -0.039630 3.741230 
# 
# 
# High freq. dielectric constant tensor:
#      x y z
#    x 1.849410 -0.007500 -0.002310 
#    y -0.007500 1.843130 -0.003420 
#    z -0.002310 -0.003420 1.824480 
# 
# From -- ./inp_files/186341.got.cif
#   From: 2010.06.25/outbox.cif.g09.slc.cpg/sg2_94_cif.got.tgz:186341.got - 2010.06.27 13:26:56.
