data_PCOD8013245
_publ_section_title
;
Structure prediction by ZEFSAII (Michael W. Deem and Ramdas Pophale) SiO2 
 PCOD8013245
Probable space group: P -1
;
_chemical_formula_sum "Si O2"
_cell_formula_units_Z 16
_cell_length_a 8.729526
_cell_length_b 12.179115
_cell_length_c 8.561882
_cell_angle_alpha 59.543981
_cell_angle_beta 92.052950
_cell_angle_gamma 107.303285
_cell_volume 741.826006
_symmetry_space_group_name_H-M "P -1"
_symmetry_group_IT_number 2
_symmetry_cell_setting 'triclinic'
loop_
_space_group_symop_operation_xyz
x,y,z
-x,-y,-z
loop_
_atom_site_type_symbol
_atom_site_label
_atom_site_fract_x
_atom_site_fract_y
_atom_site_fract_z
Si Si1 0.296489 0.156926 0.160733
Si Si2 0.996466 0.356783 0.666905
Si Si3 0.348666 0.338193 0.749401
Si Si4 0.133665 0.573606 0.075552
Si Si5 0.857913 0.140683 0.566306
Si Si6 0.182525 0.299064 0.305164
Si Si7 0.369288 0.777956 0.709987
Si Si8 0.493754 0.633012 0.580623
O O1 0.209430 0.259164 0.156732
O O2 0.453594 0.148019 0.266947
O O3 0.170571 0.006561 0.256967
O O4 0.338135 0.210141 0.947886
O O5 0.934314 0.351143 0.846876
O O6 0.869457 0.242505 0.638939
O O7 0.000000 0.500000 0.500000
O O8 0.172994 0.336060 0.678111
O O9 0.430615 0.477189 0.744012
O O10 0.486110 0.342904 0.621148
O O11 0.192488 0.452842 0.227671
O O12 0.274472 0.687474 0.913443
O O13 0.000000 0.500000 0.000000
O O14 0.721515 0.125309 0.437205
O O15 0.023936 0.189947 0.442570
O O16 0.331804 0.279958 0.414257
O O17 0.366142 0.690428 0.617203
#
# Coordination Sequence:
#
# PCOD8013245 Si02
#       8
#     2   2   2   2   2   2   2   2
#     4  11  26  42  64  93 135 179 219 263 326 398
#     4  12  23  41  68 101 133 168 215 278 329 381
#     4  11  22  40  65  97 131 169 215 268 334 393
#     4  12  21  38  68 102 128 160 220 275 328 375
#     4  12  24  44  63  94 134 178 221 264 327 394
#     4  11  21  41  64  96 126 172 215 270 325 386
#     4  11  24  42  65  95 128 175 221 274 324 384
#     4  10  21  40  66  93 128 164 213 275 332 383
#
# _framework density 21.568401000000001
#
# number of rings (size 3 to 8) (size 9 to 14) (size 15 to 20)
#    0.000    0.750    3.750    4.500    0.000    5.500 
#    0.000    3.750    0.000    0.000    0.000    0.000 
#    0.000    0.000    0.000    0.000    0.000    0.000 
#
# Total GULP energy -198267.433776 kJ/mol
# GULP energy per Si atom -12391.714611 kJ/mol
# Density = 2.151931 g / cm^3
# Si number density = 21.568401 Si / 1000 Ang^3
#
#
#
# Elastic Constant Matrix: (Units=GPa)
#
#
# Indices 1 2 3 4 5 6 
#
# 1 70.7081 13.9494 31.4591 8.3034 -5.2036 0.5174
# 2 13.9494 65.8897 30.6378 3.4205 -8.1846 0.3923
# 3 31.4591 30.6378 124.3498 -11.4779 -16.0547 2.8484
# 4 8.3034 3.4205 -11.4779 29.7566 -3.6334 2.5191
# 5 -5.2036 -8.1846 -16.0547 -3.6334 36.1138 15.4977
# 6 0.5174 0.3923 2.8484 2.5191 15.4977 16.7933
#
#
#
# Elastic Compliance Matrix: (Units=1/GPa)
#
#
# Indices 1 2 3 4 5 6 
#
# 1 0.017324 -0.001213 -0.005143 -0.007273 -0.002355 0.003631
# 2 -0.001213 0.017740 -0.003967 -0.002796 0.002474 -0.001568
# 3 -0.005143 -0.003967 0.012850 0.009259 0.010642 -0.013139
# 4 -0.007273 -0.002796 0.009259 0.043562 0.016841 -0.023357
# 5 -0.002355 0.002474 0.010642 0.016841 0.059919 -0.059613
# 6 0.003631 -0.001568 -0.013139 -0.023357 -0.059613 0.120218
#
#
# Mechanical properties :
#
#
# Convention : Reuss Voigt Hill
#
# Bulk Modulus (GPa) = 36.67126 45.89337 41.28232
# Shear Modulus (GPa) = 16.59212 28.85950 22.72581
#
# Velocity S-wave (km/s) = 2.77660 3.66190 3.24954
# Velocity P-wave (km/s) = 5.22671 6.26128 5.76724
#
# Compressibility (1/GPa) = 0.02726931
#
# Stress axis : x y z
#
# Youngs Moduli (GPa) = 57.72277 56.37006 77.82205
#
# Poissons Ratio (x) = 0.06838 0.40020
# Poissons Ratio (y) = 0.07002 0.30870
# Poissons Ratio (z) = 0.29684 0.22361
#
# Static dielectric constant tensor:
#      x y z
#    x 4.099270 -0.119010 -0.203250 
#    y -0.119010 3.869550 0.307270 
#    z -0.203250 0.307270 3.678000 
# 
# 
# High freq. dielectric constant tensor:
#      x y z
#    x 1.857200 0.002530 -0.011440 
#    y 0.002530 1.838120 0.013490 
#    z -0.011440 0.013490 1.843390 
# 
# From -- ./inp_files/184295.got.cif
#   From: 2010.06.25/outbox.cif.g09.slc.cpg/sg2_93_cif.got.tgz:184295.got - 2010.06.27 13:26:56.
