data_PCOD8013350
_publ_section_title
;
Structure prediction by ZEFSAII (Michael W. Deem and Ramdas Pophale) SiO2 
 PCOD8013350
Probable space group: P -1
;
_chemical_formula_sum "Si O2"
_cell_formula_units_Z 14
_cell_length_a 14.169497
_cell_length_b 16.159402
_cell_length_c 10.198917
_cell_angle_alpha 153.371654
_cell_angle_beta 46.373382
_cell_angle_gamma 137.220265
_cell_volume 706.469528
_symmetry_space_group_name_H-M "P -1"
_symmetry_group_IT_number 2
_symmetry_cell_setting 'triclinic'
loop_
_space_group_symop_operation_xyz
x,y,z
-x,-y,-z
loop_
_atom_site_type_symbol
_atom_site_label
_atom_site_fract_x
_atom_site_fract_y
_atom_site_fract_z
Si Si1 0.758280 0.926008 0.257372
Si Si2 0.540626 0.220155 0.719146
Si Si3 0.010387 0.122463 0.866602
Si Si4 0.207958 0.690373 0.075713
Si Si5 0.960362 0.711098 0.201552
Si Si6 0.258794 0.935608 0.810286
Si Si7 0.487791 0.692252 0.845963
O O1 0.595343 0.780982 0.236196
O O2 0.861670 0.827571 0.081945
O O3 0.796200 0.143949 0.585562
O O4 0.781994 0.958062 0.124784
O O5 0.680068 0.241619 0.531420
O O6 0.500000 0.000000 0.500000
O O7 0.561284 0.356041 0.021642
O O8 0.067153 0.267948 0.895352
O O9 0.954861 0.896258 0.551877
O O10 0.880840 0.165778 0.115741
O O11 0.111590 0.688963 0.041360
O O12 0.158383 0.481400 0.901799
O O13 0.366425 0.735902 0.942741
O O14 0.372752 0.115511 0.035177
O O15 0.500000 0.500000 0.500000
#
# Coordination Sequence:
#
# PCOD8013350 Si02
#       7
#     2   2   2   2   2   2   2
#     4   9  16  31  56  75 100 138 174 205 254 308
#     4   8  15  30  49  79 100 132 172 208 251 311
#     4  10  19  33  50  78 107 133 173 217 250 306
#     4  10  16  34  53  71 100 142 171 211 258 305
#     4   9  21  32  50  74 107 137 173 212 258 303
#     4  10  17  31  52  82 101 134 174 208 259 311
#     4  10  17  28  54  79 101 130 176 216 250 300
#
# _framework density 19.816849000000001
#
# number of rings (size 3 to 8) (size 9 to 14) (size 15 to 20)
#    0.000    2.857    4.286    1.286    0.000    0.000 
#    0.000    1.429    3.143    3.429    0.000    0.000 
#    0.000    0.000    0.000    0.000    0.000    0.000 
#
# Total GULP energy -173456.269723 kJ/mol
# GULP energy per Si atom -12389.733552 kJ/mol
# Density = 1.977174 g / cm^3
# Si number density = 19.816849 Si / 1000 Ang^3
#
#
#
# Elastic Constant Matrix: (Units=GPa)
#
#
# Indices 1 2 3 4 5 6 
#
# 1 126.8409 32.1373 22.4083 -12.1149 -6.2800 16.0221
# 2 32.1373 36.3202 18.4591 -12.5741 -12.2171 -2.4276
# 3 22.4083 18.4591 89.4704 -15.2198 -2.2050 6.1609
# 4 -12.1149 -12.5741 -15.2198 27.1050 6.8159 -7.5485
# 5 -6.2800 -12.2171 -2.2050 6.8159 23.4560 -7.8342
# 6 16.0221 -2.4276 6.1609 -7.5485 -7.8342 22.0904
#
#
#
# Elastic Compliance Matrix: (Units=1/GPa)
#
#
# Indices 1 2 3 4 5 6 
#
# 1 0.013802 -0.018788 0.000613 -0.004415 -0.010600 -0.017514
# 2 -0.018788 0.073834 -0.008722 0.023611 0.041420 0.046931
# 3 0.000613 -0.008722 0.013739 0.003800 -0.006246 -0.006152
# 4 -0.004415 0.023611 0.003800 0.053833 0.004034 0.024563
# 5 -0.010600 0.041420 -0.006246 0.004034 0.073438 0.041404
# 6 -0.017514 0.046931 -0.006152 0.024563 0.041404 0.087921
#
#
# Mechanical properties :
#
#
# Convention : Reuss Voigt Hill
#
# Bulk Modulus (GPa) = 21.01702 44.29343 32.65523
# Shear Modulus (GPa) = 12.94595 26.50540 19.72567
#
# Velocity S-wave (km/s) = 2.55871 3.66118 3.15842
# Velocity P-wave (km/s) = 4.39977 6.34604 5.46032
#
# Compressibility (1/GPa) = 0.04758049
#
# Stress axis : x y z
#
# Youngs Moduli (GPa) = 72.45461 13.54396 72.78665
#
# Poissons Ratio (x) = 0.25447 -0.04465
# Poissons Ratio (y) = 1.36131 0.63483
# Poissons Ratio (z) = -0.04445 0.11813
#
# Static dielectric constant tensor:
#      x y z
#    x 4.438500 0.343630 -0.170160 
#    y 0.343630 3.371340 -0.434670 
#    z -0.170160 -0.434670 3.869350 
# 
# 
# High freq. dielectric constant tensor:
#      x y z
#    x 1.791710 0.024720 0.000020 
#    y 0.024720 1.721020 -0.009940 
#    z 0.000020 -0.009940 1.761790 
# 
# From -- ./inp_files/227336.got.cif
#   From: 2010.06.25/outbox.cif.g09.slc.cpg/sg2_114_cif.got.tgz:227336.got - 2010.06.27 13:26:56.
