data_PCOD8013008
_publ_section_title
;
Structure prediction by ZEFSAII (Michael W. Deem and Ramdas Pophale) SiO2 
 PCOD8013008
Probable space group: P -1
;
_chemical_formula_sum "Si O2"
_cell_formula_units_Z 14
_cell_length_a 13.258107
_cell_length_b 10.089202
_cell_length_c 16.577554
_cell_angle_alpha 130.581776
_cell_angle_beta 154.899837
_cell_angle_gamma 44.767503
_cell_volume 662.225961
_symmetry_space_group_name_H-M "P -1"
_symmetry_group_IT_number 2
_symmetry_cell_setting 'triclinic'
loop_
_space_group_symop_operation_xyz
x,y,z
-x,-y,-z
loop_
_atom_site_type_symbol
_atom_site_label
_atom_site_fract_x
_atom_site_fract_y
_atom_site_fract_z
Si Si1 0.116187 0.128964 0.491756
Si Si2 0.814628 0.610493 0.233279
Si Si3 0.764063 0.244426 0.643282
Si Si4 0.826740 0.577974 0.730545
Si Si5 0.988403 0.123214 0.931693
Si Si6 0.673352 0.408827 0.186690
Si Si7 0.592880 0.179622 0.795821
O O1 0.146885 0.201839 0.632190
O O2 0.334159 0.137988 0.591751
O O3 0.837962 0.264927 0.314975
O O4 0.141566 0.912156 0.421970
O O5 0.860714 0.457647 0.278596
O O6 0.004790 0.518530 0.262498
O O7 0.512262 0.684100 0.023834
O O8 0.831138 0.420736 0.735572
O O9 0.460535 0.306253 0.462843
O O10 0.925363 0.156381 0.805252
O O11 0.942618 0.710997 0.912683
O O12 0.741924 0.107822 0.791759
O O13 0.226512 0.926114 0.039348
O O14 0.477125 0.598296 0.160721
#
# Coordination Sequence:
#
# PCOD8013008 Si02
#       7
#     2   2   2   2   2   2   2
#     4  11  24  40  61 100 126 160 208 255 320 379
#     4  10  22  39  67  87 131 162 201 262 311 372
#     4  11  27  41  67  89 128 171 214 256 306 364
#     4  11  24  47  63  91 123 173 217 257 300 370
#     4  11  23  41  66  94 127 163 212 261 313 374
#     4  10  22  38  64  95 129 163 197 258 328 371
#     4  10  21  40  64  99 127 159 203 263 325 370
#
# _framework density 21.140820999999999
#
# number of rings (size 3 to 8) (size 9 to 14) (size 15 to 20)
#    0.000    1.429    2.857    2.143   10.000    1.143 
#    0.000    0.714    0.000    0.000    0.000    0.000 
#    0.000    0.000    0.000    0.000    0.000    0.000 
#
# Total GULP energy -173578.027276 kJ/mol
# GULP energy per Si atom -12398.430520 kJ/mol
# Density = 2.109270 g / cm^3
# Si number density = 21.140821 Si / 1000 Ang^3
#
#
#
# Elastic Constant Matrix: (Units=GPa)
#
#
# Indices 1 2 3 4 5 6 
#
# 1 64.6594 20.7945 11.7520 -4.2064 0.1440 -20.2213
# 2 20.7945 98.0238 36.3953 -7.9428 1.8724 -15.8728
# 3 11.7520 36.3953 59.8373 -6.7096 -1.3999 -7.5551
# 4 -4.2064 -7.9428 -6.7096 37.5894 -3.3085 -4.8558
# 5 0.1440 1.8724 -1.3999 -3.3085 23.8846 -2.3898
# 6 -20.2213 -15.8728 -7.5551 -4.8558 -2.3898 26.4139
#
#
#
# Elastic Compliance Matrix: (Units=1/GPa)
#
#
# Indices 1 2 3 4 5 6 
#
# 1 0.021424 -0.001278 -0.000832 0.004284 0.002154 0.016378
# 2 -0.001278 0.014421 -0.007539 0.002261 -0.000662 0.005887
# 3 -0.000832 -0.007539 0.022057 0.002707 0.002450 0.001861
# 4 0.004284 0.002261 0.002707 0.029978 0.005249 0.011398
# 5 0.002154 -0.000662 0.002450 0.005249 0.043463 0.006849
# 6 0.016378 0.005887 0.001861 0.011398 0.006849 0.057182
#
#
# Mechanical properties :
#
#
# Convention : Reuss Voigt Hill
#
# Bulk Modulus (GPa) = 25.90419 40.04492 32.97455
# Shear Modulus (GPa) = 22.65629 27.81615 25.23622
#
# Velocity S-wave (km/s) = 3.27721 3.63127 3.45877
# Velocity P-wave (km/s) = 5.15751 6.04687 5.61981
#
# Compressibility (1/GPa) = 0.03860380
#
# Stress axis : x y z
#
# Youngs Moduli (GPa) = 46.67763 69.34337 45.33761
#
# Poissons Ratio (x) = 0.08862 0.03770
# Poissons Ratio (y) = 0.05965 0.34181
# Poissons Ratio (z) = 0.03882 0.52279
#
# Static dielectric constant tensor:
#      x y z
#    x 3.571660 -0.124110 0.092520 
#    y -0.124110 3.952240 0.084820 
#    z 0.092520 0.084820 3.884430 
# 
# 
# High freq. dielectric constant tensor:
#      x y z
#    x 1.806070 -0.019960 0.007360 
#    y -0.019960 1.833900 0.001550 
#    z 0.007360 0.001550 1.837410 
# 
# From -- ./inp_files/418174.got.cif
#   From: 2010.06.25/outbox.cif.g09.slc.cpg/sg2_210_cif.got.tgz:418174.got - 2010.06.27 13:26:56.
