data_PCOD8013793
_publ_section_title
;
Structure prediction by ZEFSAII (Michael W. Deem and Ramdas Pophale) SiO2 
 PCOD8013793
Probable space group: P -1
;
_chemical_formula_sum "Si O2"
_cell_formula_units_Z 14
_cell_length_a 15.020506
_cell_length_b 9.439788
_cell_length_c 15.329650
_cell_angle_alpha 91.318542
_cell_angle_beta 151.894193
_cell_angle_gamma 69.481426
_cell_volume 729.946458
_symmetry_space_group_name_H-M "P -1"
_symmetry_group_IT_number 2
_symmetry_cell_setting 'triclinic'
loop_
_space_group_symop_operation_xyz
x,y,z
-x,-y,-z
loop_
_atom_site_type_symbol
_atom_site_label
_atom_site_fract_x
_atom_site_fract_y
_atom_site_fract_z
Si Si1 0.961927 0.173853 0.074131
Si Si2 0.699174 0.886549 0.926653
Si Si3 0.961205 0.000444 0.242162
Si Si4 0.990259 0.534194 0.890449
Si Si5 0.596355 0.135157 0.680035
Si Si6 0.692024 0.267458 0.164786
Si Si7 0.722228 0.055556 0.339798
O O1 0.882597 0.379497 0.018198
O O2 0.017017 0.081956 0.214988
O O3 0.233270 0.025175 0.251643
O O4 0.726965 0.214895 0.822734
O O5 0.835542 0.670624 0.012810
O O6 0.917208 0.867331 0.164235
O O7 0.465076 0.974234 0.793154
O O8 0.578550 0.035409 0.743310
O O9 0.702428 0.186884 0.077211
O O10 0.219372 0.868806 0.526481
O O11 0.692060 0.678474 0.601188
O O12 0.000000 0.500000 0.000000
O O13 0.586317 0.213038 0.145634
O O14 0.500000 0.500000 0.000000
O O15 0.993141 0.158298 0.449021
#
# Coordination Sequence:
#
# PCOD8013793 Si02
#       7
#     2   2   2   2   2   2   2
#     4  10  21  41  62  82 124 164 190 255 294 337
#     4  11  23  40  59  91 119 156 201 241 293 352
#     4   9  21  40  62  85 118 155 193 243 298 344
#     4  12  25  36  60  91 118 163 208 237 292 351
#     4  10  23  42  56  88 126 153 205 246 292 344
#     4   9  20  41  62  87 114 151 194 236 304 359
#     4   9  21  39  63  83 120 150 189 248 297 346
#
# _framework density 19.179489
#
# number of rings (size 3 to 8) (size 9 to 14) (size 15 to 20)
#    0.857    1.143    1.429    1.286    4.000    2.286 
#    2.571    0.714    0.000    0.000    0.000    0.000 
#    0.000    0.000    0.000    0.000    0.000    0.000 
#
# Total GULP energy -173566.237802 kJ/mol
# GULP energy per Si atom -12397.588414 kJ/mol
# Density = 1.913584 g / cm^3
# Si number density = 19.179489 Si / 1000 Ang^3
#
#
#
# Elastic Constant Matrix: (Units=GPa)
#
#
# Indices 1 2 3 4 5 6 
#
# 1 136.1573 28.6351 20.1737 1.4691 -2.9712 22.4450
# 2 28.6351 103.6784 14.9055 -7.1600 8.1351 13.6278
# 3 20.1737 14.9055 70.5347 -9.2835 0.9306 15.0882
# 4 1.4691 -7.1600 -9.2835 25.0144 -1.3828 -0.2502
# 5 -2.9712 8.1351 0.9306 -1.3828 22.9165 5.7391
# 6 22.4450 13.6278 15.0882 -0.2502 5.7391 30.2082
#
#
#
# Elastic Compliance Matrix: (Units=1/GPa)
#
#
# Indices 1 2 3 4 5 6 
#
# 1 0.008964 -0.001892 -0.001130 -0.001366 0.003269 -0.005875
# 2 -0.001892 0.011073 -0.000857 0.002752 -0.003348 -0.002502
# 3 -0.001130 -0.000857 0.017097 0.006186 0.001738 -0.007592
# 4 -0.001366 0.002752 0.006186 0.043220 0.002041 -0.003347
# 5 0.003269 -0.003348 0.001738 0.002041 0.048030 -0.010894
# 6 -0.005875 -0.002502 -0.007592 -0.003347 -0.010894 0.044432
#
#
# Mechanical properties :
#
#
# Convention : Reuss Voigt Hill
#
# Bulk Modulus (GPa) = 34.04176 48.64435 41.34306
# Shear Modulus (GPa) = 26.26517 32.07157 29.16837
#
# Velocity S-wave (km/s) = 3.70461 4.09367 3.90399
# Velocity P-wave (km/s) = 6.00720 6.91100 6.47489
#
# Compressibility (1/GPa) = 0.02937568
#
# Stress axis : x y z
#
# Youngs Moduli (GPa) = 111.55354 90.31216 58.48937
#
# Poissons Ratio (x) = 0.17087 0.06611
# Poissons Ratio (y) = 0.21105 0.05013
# Poissons Ratio (z) = 0.12608 0.07740
#
# Static dielectric constant tensor:
#      x y z
#    x 3.693090 0.010140 -0.106700 
#    y 0.010140 3.397150 0.111050 
#    z -0.106700 0.111050 3.298220 
# 
# 
# High freq. dielectric constant tensor:
#      x y z
#    x 1.764570 0.004810 -0.006460 
#    y 0.004810 1.735530 0.008020 
#    z -0.006460 0.008020 1.730810 
# 
# From -- ./inp_files/348119.got.cif
#   From: 2010.06.25/outbox.cif.g09.slc.cpg/sg2_175_cif.got.tgz:348119.got - 2010.06.27 13:26:56.
