data_PCOD8013145
_publ_section_title
;
Structure prediction by ZEFSAII (Michael W. Deem and Ramdas Pophale) SiO2 
 PCOD8013145
Probable space group: P -1
;
_chemical_formula_sum "Si O2"
_cell_formula_units_Z 16
_cell_length_a 7.645232
_cell_length_b 19.640907
_cell_length_c 8.922240
_cell_angle_alpha 31.392055
_cell_angle_beta 75.224266
_cell_angle_gamma 72.021349
_cell_volume 663.695630
_symmetry_space_group_name_H-M "P -1"
_symmetry_group_IT_number 2
_symmetry_cell_setting 'triclinic'
loop_
_space_group_symop_operation_xyz
x,y,z
-x,-y,-z
loop_
_atom_site_type_symbol
_atom_site_label
_atom_site_fract_x
_atom_site_fract_y
_atom_site_fract_z
Si Si1 0.833652 0.964011 0.356079
Si Si2 0.337705 0.481361 0.238382
Si Si3 0.354213 0.367002 0.135396
Si Si4 0.504275 0.138363 0.326573
Si Si5 0.808887 0.995951 0.708641
Si Si6 0.238689 0.861162 0.233878
Si Si7 0.598890 0.764196 0.150409
Si Si8 0.018904 0.679282 0.779886
O O1 0.616796 0.986249 0.414598
O O2 0.969841 0.028665 0.311991
O O3 0.905493 0.805994 0.653764
O O4 0.858174 0.021809 0.076887
O O5 0.390798 0.379477 0.279900
O O6 0.296854 0.387744 0.560055
O O7 0.515944 0.540565 0.143136
O O8 0.164390 0.595165 0.020196
O O9 0.419667 0.217713 0.343994
O O10 0.132737 0.409178 0.075121
O O11 0.716259 0.082409 0.424945
O O12 0.477450 0.229801 0.014051
O O13 0.742974 0.072980 0.732445
O O14 0.749020 0.854315 0.981005
O O15 0.433194 0.799604 0.237071
O O16 0.124401 0.739421 0.506497
#
# Coordination Sequence:
#
# PCOD8013145 Si02
#       8
#     2   2   2   2   2   2   2   2
#     4  10  23  40  69  97 123 163 212 257 317 377
#     4  11  23  41  63  97 121 164 217 256 311 374
#     4  10  22  42  67  87 125 165 209 263 312 358
#     4  11  24  45  62  91 132 170 208 257 313 379
#     4  11  22  41  66  92 129 167 203 268 314 359
#     4  11  22  41  69 100 124 159 215 261 315 376
#     4  12  26  39  64  96 131 171 209 251 315 379
#     4  10  21  40  65  96 125 155 207 267 313 362
#
# _framework density 24.107437000000001
#
# number of rings (size 3 to 8) (size 9 to 14) (size 15 to 20)
#    0.000    1.250    1.250    6.375    5.250    1.000 
#    0.000    2.500    0.000    0.000    0.000    2.625 
#    0.000    0.000    0.000    0.000    0.000    0.000 
#
# Total GULP energy -198279.982614 kJ/mol
# GULP energy per Si atom -12392.498913 kJ/mol
# Density = 2.405257 g / cm^3
# Si number density = 24.107437 Si / 1000 Ang^3
#
#
#
# Elastic Constant Matrix: (Units=GPa)
#
#
# Indices 1 2 3 4 5 6 
#
# 1 194.8954 47.3723 90.0638 -0.2579 -16.7831 20.4063
# 2 47.3723 65.6936 26.6603 5.3120 4.4398 16.5247
# 3 90.0638 26.6603 177.2844 4.9113 21.2729 24.4010
# 4 -0.2579 5.3120 4.9113 25.0415 3.8687 0.8882
# 5 -16.7831 4.4398 21.2729 3.8687 37.2535 -0.2107
# 6 20.4063 16.5247 24.4010 0.8882 -0.2107 41.6120
#
#
#
# Elastic Compliance Matrix: (Units=1/GPa)
#
#
# Indices 1 2 3 4 5 6 
#
# 1 0.009333 -0.005449 -0.004925 0.001032 0.007562 0.000492
# 2 -0.005449 0.020892 0.001231 -0.003687 -0.005300 -0.006294
# 3 -0.004925 0.001231 0.009397 -0.000843 -0.007664 -0.003605
# 4 0.001032 -0.003687 -0.000843 0.041321 -0.002902 0.000556
# 5 0.007562 -0.005300 -0.007664 -0.002902 0.035577 0.003133
# 6 0.000492 -0.006294 -0.003605 0.000556 0.003133 0.028408
#
#
# Mechanical properties :
#
#
# Convention : Reuss Voigt Hill
#
# Bulk Modulus (GPa) = 46.87335 85.11847 65.99591
# Shear Modulus (GPa) = 29.35568 39.03320 34.19444
#
# Velocity S-wave (km/s) = 3.49334 4.02821 3.77028
# Velocity P-wave (km/s) = 5.97972 7.55116 6.81091
#
# Compressibility (1/GPa) = 0.02133409
#
# Stress axis : x y z
#
# Youngs Moduli (GPa) = 107.15123 47.86596 106.41880
#
# Poissons Ratio (x) = 0.26083 0.52415
# Poissons Ratio (y) = 0.58389 -0.13101
# Poissons Ratio (z) = 0.52776 -0.05893
#
# Static dielectric constant tensor:
#      x y z
#    x 4.890630 0.079200 -0.143950 
#    y 0.079200 4.382460 -0.068150 
#    z -0.143950 -0.068150 4.389240 
# 
# 
# High freq. dielectric constant tensor:
#      x y z
#    x 1.983070 0.001620 -0.001020 
#    y 0.001620 1.957500 -0.002010 
#    z -0.001020 -0.002010 1.945630 
# 
# From -- ./inp_files/222863.got.cif
#   From: 2010.06.25/outbox.cif.g09.slc.cpg/sg2_112_cif.got.tgz:222863.got - 2010.06.27 13:26:56.
