data_PCOD8013789
_publ_section_title
;
Structure prediction by ZEFSAII (Michael W. Deem and Ramdas Pophale) SiO2 
 PCOD8013789
Probable space group: P -1
;
_chemical_formula_sum "Si O2"
_cell_formula_units_Z 16
_cell_length_a 8.394349
_cell_length_b 11.778548
_cell_length_c 25.468158
_cell_angle_alpha 30.583905
_cell_angle_beta 33.820315
_cell_angle_gamma 39.450372
_cell_volume 698.538388
_symmetry_space_group_name_H-M "P -1"
_symmetry_group_IT_number 2
_symmetry_cell_setting 'triclinic'
loop_
_space_group_symop_operation_xyz
x,y,z
-x,-y,-z
loop_
_atom_site_type_symbol
_atom_site_label
_atom_site_fract_x
_atom_site_fract_y
_atom_site_fract_z
Si Si1 0.167156 0.623707 0.778067
Si Si2 0.642994 0.895153 0.074459
Si Si3 0.656579 0.861336 0.562326
Si Si4 0.481799 0.222439 0.074310
Si Si5 0.069022 0.751357 0.637797
Si Si6 0.062626 0.940085 0.165327
Si Si7 0.453273 0.707857 0.854742
Si Si8 0.166553 0.509592 0.598267
O O1 0.181615 0.356237 0.887832
O O2 0.416145 0.719666 0.704991
O O3 0.217226 0.643456 0.694032
O O4 0.861777 0.765955 0.826077
O O5 0.295868 0.906406 0.161273
O O6 0.657913 0.990223 0.091707
O O7 0.755269 0.065889 0.936098
O O8 0.956976 0.670968 0.548962
O O9 0.500000 0.000000 0.500000
O O10 0.769137 0.034971 0.503210
O O11 0.635891 0.227384 0.086023
O O12 0.525364 0.433452 0.940969
O O13 0.108895 0.585107 0.644100
O O14 0.721896 0.818527 0.717420
O O15 0.881428 0.743399 0.293196
O O16 0.834075 0.177521 0.144494
O O17 0.500000 0.500000 0.500000
#
# Coordination Sequence:
#
# PCOD8013789 Si02
#       8
#     2   2   2   2   2   2   2   2
#     4  10  21  44  64  96 130 164 220 261 316 394
#     4  11  23  41  63  95 135 171 208 260 326 378
#     4  10  22  45  67  87 126 172 218 267 320 386
#     4  10  22  38  66  92 128 175 207 260 318 386
#     4  10  23  41  68  91 124 172 211 267 328 379
#     4  11  24  40  62  96 134 164 212 271 313 387
#     4  10  21  41  61  95 127 162 218 257 319 387
#     4  12  25  42  65  98 130 165 219 274 327 384
#
# _framework density 22.904969000000001
#
# number of rings (size 3 to 8) (size 9 to 14) (size 15 to 20)
#    0.000    1.500    2.500    1.875    1.750    3.000 
#    0.000    1.250    0.000    0.000    0.000    0.000 
#    0.000    0.000    0.000    0.000    0.000    0.000 
#
# Total GULP energy -198230.707671 kJ/mol
# GULP energy per Si atom -12389.419229 kJ/mol
# Density = 2.285284 g / cm^3
# Si number density = 22.904969 Si / 1000 Ang^3
#
#
#
# Elastic Constant Matrix: (Units=GPa)
#
#
# Indices 1 2 3 4 5 6 
#
# 1 46.4956 12.8427 20.3975 12.6429 -12.7663 -13.9780
# 2 12.8427 51.6854 19.7482 -3.4142 2.6121 -5.3025
# 3 20.3975 19.7482 110.9620 -5.6283 -20.6860 -1.8090
# 4 12.6429 -3.4142 -5.6283 28.2049 -2.6175 -5.0658
# 5 -12.7663 2.6121 -20.6860 -2.6175 32.3141 7.6699
# 6 -13.9780 -5.3025 -1.8090 -5.0658 7.6699 38.9818
#
#
#
# Elastic Compliance Matrix: (Units=1/GPa)
#
#
# Indices 1 2 3 4 5 6 
#
# 1 0.033894 -0.007582 -0.003916 -0.014780 0.008558 0.007336
# 2 -0.007582 0.023724 -0.003940 0.005228 -0.007606 0.002501
# 3 -0.003916 -0.003940 0.011954 0.003925 0.007290 -0.002310
# 4 -0.014780 0.005228 0.003925 0.043694 -0.000537 0.001377
# 5 0.008558 -0.007606 0.007290 -0.000537 0.040930 -0.005751
# 6 0.007336 0.002501 -0.002310 0.001377 -0.005751 0.029827
#
#
# Mechanical properties :
#
#
# Convention : Reuss Voigt Hill
#
# Bulk Modulus (GPa) = 25.84330 35.01332 30.42831
# Shear Modulus (GPa) = 21.94940 30.31045 26.12993
#
# Velocity S-wave (km/s) = 3.09897 3.64168 3.38123
# Velocity P-wave (km/s) = 4.91041 5.74474 5.34388
#
# Compressibility (1/GPa) = 0.03869475
#
# Stress axis : x y z
#
# Youngs Moduli (GPa) = 29.50395 42.15197 83.65654
#
# Poissons Ratio (x) = 0.31960 0.32758
# Poissons Ratio (y) = 0.22370 0.32964
# Poissons Ratio (z) = 0.11553 0.16610
#
# Static dielectric constant tensor:
#      x y z
#    x 4.274960 -0.087940 -0.209170 
#    y -0.087940 4.100010 -0.037180 
#    z -0.209170 -0.037180 4.493690 
# 
# 
# High freq. dielectric constant tensor:
#      x y z
#    x 1.901960 -0.017540 -0.022770 
#    y -0.017540 1.888960 -0.004590 
#    z -0.022770 -0.004590 1.916310 
# 
# From -- ./inp_files/476413.got.cif
#   From: 2010.06.25/outbox.cif.g09.slc.cpg/sg2_239_cif.got.tgz:476413.got - 2010.06.27 13:26:56.
