data_PCOD8013023
_publ_section_title
;
Structure prediction by ZEFSAII (Michael W. Deem and Ramdas Pophale) SiO2 
 PCOD8013023
Probable space group: P -1
;
_chemical_formula_sum "Si O2"
_cell_formula_units_Z 16
_cell_length_a 12.996874
_cell_length_b 14.144678
_cell_length_c 9.043016
_cell_angle_alpha 39.949511
_cell_angle_beta 134.545213
_cell_angle_gamma 139.763109
_cell_volume 661.892817
_symmetry_space_group_name_H-M "P -1"
_symmetry_group_IT_number 2
_symmetry_cell_setting 'triclinic'
loop_
_space_group_symop_operation_xyz
x,y,z
-x,-y,-z
loop_
_atom_site_type_symbol
_atom_site_label
_atom_site_fract_x
_atom_site_fract_y
_atom_site_fract_z
Si Si1 0.790172 0.687813 0.829722
Si Si2 0.265096 0.788467 0.665224
Si Si3 0.521116 0.163891 0.902078
Si Si4 0.017524 0.544232 0.295130
Si Si5 0.184136 0.080917 0.163498
Si Si6 0.342526 0.567938 0.524373
Si Si7 0.534527 0.349402 0.124571
Si Si8 0.663473 0.670092 0.417057
O O1 0.816348 0.847367 0.760659
O O2 0.797073 0.727497 0.615456
O O3 0.952087 0.673930 0.044915
O O4 0.616529 0.511389 0.900752
O O5 0.084186 0.628810 0.688367
O O6 0.377370 0.763036 0.684375
O O7 0.246820 0.946929 0.408883
O O8 0.329241 0.790572 0.891774
O O9 0.531563 0.289614 0.630476
O O10 0.375361 0.173349 0.839771
O O11 0.500000 0.000000 0.000000
O O12 0.000000 0.500000 0.500000
O O13 0.204954 0.624821 0.335951
O O14 0.334130 0.235945 0.036743
O O15 0.000000 0.000000 0.000000
O O16 0.424965 0.575142 0.758109
O O17 0.270152 0.379616 0.605046
O O18 0.500000 0.500000 0.500000
#
# Coordination Sequence:
#
# PCOD8013023 Si02
#       8
#     2   2   2   2   2   2   2   2
#     4  11  23  42  68  97 139 172 233 283 332 408
#     4  11  24  45  66  96 140 177 224 280 338 413
#     4  11  24  44  65  95 136 178 227 278 337 410
#     4  11  21  42  68  98 138 176 228 287 337 394
#     4  12  26  41  66 105 140 172 222 292 344 390
#     4  11  22  40  75 100 129 180 232 277 340 400
#     4  11  23  43  73  98 127 186 233 271 342 412
#     4  10  21  40  65 102 128 170 231 282 327 400
#
# _framework density 24.173096999999999
#
# number of rings (size 3 to 8) (size 9 to 14) (size 15 to 20)
#    0.000    1.000    2.500    7.500    0.000    3.000 
#    0.000    0.000    0.000    3.000    0.000    0.000 
#    0.000    0.000    0.000    0.000    0.000    0.000 
#
# Total GULP energy -198219.069498 kJ/mol
# GULP energy per Si atom -12388.691844 kJ/mol
# Density = 2.411808 g / cm^3
# Si number density = 24.173097 Si / 1000 Ang^3
#
#
#
# Elastic Constant Matrix: (Units=GPa)
#
#
# Indices 1 2 3 4 5 6 
#
# 1 98.3009 42.3903 25.3470 -0.3963 20.2684 -24.4793
# 2 42.3903 112.2429 43.0969 12.3627 6.1218 -34.3492
# 3 25.3470 43.0969 141.1903 14.4147 0.5654 -27.3257
# 4 -0.3963 12.3627 14.4147 43.9646 -14.0233 12.8593
# 5 20.2684 6.1218 0.5654 -14.0233 41.2872 0.2165
# 6 -24.4793 -34.3492 -27.3257 12.8593 0.2165 52.7439
#
#
#
# Elastic Compliance Matrix: (Units=1/GPa)
#
#
# Indices 1 2 3 4 5 6 
#
# 1 0.014431 -0.002939 -0.000322 -0.002957 -0.007677 0.005370
# 2 -0.002939 0.014257 -0.001328 -0.007245 -0.003161 0.009012
# 3 -0.000322 -0.001328 0.008889 -0.004302 -0.001252 0.004645
# 4 -0.002957 -0.007245 -0.004302 0.035925 0.014877 -0.017139
# 5 -0.007677 -0.003161 -0.001252 0.014877 0.033581 -0.010035
# 6 0.005370 0.009012 0.004645 -0.017139 -0.010035 0.033947
#
#
# Mechanical properties :
#
#
# Convention : Reuss Voigt Hill
#
# Bulk Modulus (GPa) = 35.21065 63.71139 49.46102
# Shear Modulus (GPa) = 31.31373 43.65913 37.48643
#
# Velocity S-wave (km/s) = 3.60307 4.25444 3.94223
# Velocity P-wave (km/s) = 5.64864 7.10966 6.42084
#
# Compressibility (1/GPa) = 0.02840049
#
# Stress axis : x y z
#
# Youngs Moduli (GPa) = 69.29377 70.13918 112.49910
#
# Poissons Ratio (x) = 0.20614 0.03620
# Poissons Ratio (y) = 0.20366 0.14937
# Poissons Ratio (z) = 0.02230 0.09313
#
# Static dielectric constant tensor:
#      x y z
#    x 6.705120 -1.414770 1.332890 
#    y -1.414770 4.919760 -0.396670 
#    z 1.332890 -0.396670 4.983090 
# 
# 
# High freq. dielectric constant tensor:
#      x y z
#    x 1.967460 -0.041670 0.023910 
#    y -0.041670 1.944440 0.015570 
#    z 0.023910 0.015570 1.977060 
# 
# From -- ./inp_files/314501.got.cif
#   From: 2010.06.25/outbox.cif.g09.slc.cpg/sg2_158_cif.got.tgz:314501.got - 2010.06.27 13:26:56.
