data_PCOD8013660
_publ_section_title
;
Structure prediction by ZEFSAII (Michael W. Deem and Ramdas Pophale) SiO2 
 PCOD8013660
Probable space group: P -1
;
_chemical_formula_sum "Si O2"
_cell_formula_units_Z 16
_cell_length_a 18.020038
_cell_length_b 9.904278
_cell_length_c 9.260777
_cell_angle_alpha 44.389898
_cell_angle_beta 80.616082
_cell_angle_gamma 47.988745
_cell_volume 683.071027
_symmetry_space_group_name_H-M "P -1"
_symmetry_group_IT_number 2
_symmetry_cell_setting 'triclinic'
loop_
_space_group_symop_operation_xyz
x,y,z
-x,-y,-z
loop_
_atom_site_type_symbol
_atom_site_label
_atom_site_fract_x
_atom_site_fract_y
_atom_site_fract_z
Si Si1 0.328025 0.487598 0.952859
Si Si2 0.519251 0.182350 0.616798
Si Si3 0.122109 0.857465 0.513901
Si Si4 0.718922 0.425918 0.778737
Si Si5 0.516863 0.318619 0.829574
Si Si6 0.918137 0.796139 0.002897
Si Si7 0.898264 0.379240 0.741944
Si Si8 0.805781 0.667505 0.249490
O O1 0.201047 0.784108 0.676402
O O2 0.447172 0.356075 0.952670
O O3 0.307175 0.608821 0.028375
O O4 0.356876 0.198851 0.160500
O O5 0.405744 0.305378 0.481568
O O6 0.490504 0.253258 0.742158
O O7 0.542203 0.347342 0.420078
O O8 0.204073 0.532509 0.648318
O O9 0.000000 0.000000 0.500000
O O10 0.091227 0.100305 0.233866
O O11 0.765956 0.549986 0.691492
O O12 0.819662 0.088398 0.923419
O O13 0.664847 0.036948 0.030413
O O14 0.885208 0.635621 0.134415
O O15 0.058436 0.551397 0.206337
O O16 0.884563 0.512812 0.490695
O O17 0.000000 0.000000 0.000000
#
# Coordination Sequence:
#
# PCOD8013660 Si02
#       8
#     2   2   2   2   2   2   2   2
#     4  12  26  40  69 101 141 182 219 284 344 388
#     4  11  23  44  67  95 137 179 232 273 333 406
#     4  12  27  46  70 101 139 176 232 283 336 407
#     4  11  22  43  67  99 139 179 222 282 337 402
#     4  11  25  42  70 102 133 180 235 275 332 405
#     4  11  24  46  72  97 136 181 233 276 334 415
#     4  10  21  40  70  98 129 177 227 275 331 405
#     4  12  23  44  76  98 133 184 227 276 346 394
#
# _framework density 23.423625999999999
#
# number of rings (size 3 to 8) (size 9 to 14) (size 15 to 20)
#    0.000    0.750    5.000    3.375    3.500    1.000 
#    2.250    0.000    0.000    0.000    0.000    0.000 
#    0.000    0.000    0.000    0.000    0.000    0.000 
#
# Total GULP energy -198450.527238 kJ/mol
# GULP energy per Si atom -12403.157952 kJ/mol
# Density = 2.337031 g / cm^3
# Si number density = 23.423626 Si / 1000 Ang^3
#
#
#
# Elastic Constant Matrix: (Units=GPa)
#
#
# Indices 1 2 3 4 5 6 
#
# 1 107.3699 10.3138 48.6431 15.3315 21.0871 -23.7343
# 2 10.3138 66.2747 31.0660 27.0459 6.6246 -12.6568
# 3 48.6431 31.0660 147.2431 30.7899 14.3599 -9.3229
# 4 15.3315 27.0459 30.7899 27.5980 0.0633 -5.5377
# 5 21.0871 6.6246 14.3599 0.0633 51.8666 2.3835
# 6 -23.7343 -12.6568 -9.3229 -5.5377 2.3835 27.7227
#
#
#
# Elastic Compliance Matrix: (Units=1/GPa)
#
#
# Indices 1 2 3 4 5 6 
#
# 1 0.015809 0.005636 -0.003197 -0.007905 -0.006898 0.014047
# 2 0.005636 0.029212 -0.000638 -0.028461 -0.006400 0.012812
# 3 -0.003197 -0.000638 0.009880 -0.008893 -0.001280 -0.001372
# 4 -0.007905 -0.028461 -0.008893 0.076763 0.009596 -0.008244
# 5 -0.006898 -0.006400 -0.001280 0.009596 0.023676 -0.009377
# 6 0.014047 0.012812 -0.001372 -0.008244 -0.009377 0.052645
#
#
# Mechanical properties :
#
#
# Convention : Reuss Voigt Hill
#
# Bulk Modulus (GPa) = 17.09307 55.65927 36.37617
# Shear Modulus (GPa) = 22.33300 36.82844 29.58072
#
# Velocity S-wave (km/s) = 3.09113 3.96950 3.55753
# Velocity P-wave (km/s) = 4.47809 6.69498 5.69544
#
# Compressibility (1/GPa) = 0.05850326
#
# Stress axis : x y z
#
# Youngs Moduli (GPa) = 63.25488 34.23260 101.21539
#
# Poissons Ratio (x) = -0.19294 0.32355
# Poissons Ratio (y) = -0.35652 0.06462
# Poissons Ratio (z) = 0.20220 0.02186
#
# Static dielectric constant tensor:
#      x y z
#    x 4.673890 -0.075750 0.084310 
#    y -0.075750 3.918350 0.085900 
#    z 0.084310 0.085900 4.357640 
# 
# 
# High freq. dielectric constant tensor:
#      x y z
#    x 1.935520 -0.008690 0.005220 
#    y -0.008690 1.902120 0.010050 
#    z 0.005220 0.010050 1.940040 
# 
# From -- ./inp_files/345857.got.cif
#   From: 2010.06.25/outbox.cif.g09.slc.cpg/sg2_173_cif.got.tgz:345857.got - 2010.06.27 13:26:56.
