data_PCOD8013378
_publ_section_title
;
Structure prediction by ZEFSAII (Michael W. Deem and Ramdas Pophale) SiO2 
 PCOD8013378
Probable space group: P -1
;
_chemical_formula_sum "Si O2"
_cell_formula_units_Z 12
_cell_length_a 4.862043
_cell_length_b 9.541518
_cell_length_c 13.337123
_cell_angle_alpha 68.673180
_cell_angle_beta 103.395363
_cell_angle_gamma 131.351133
_cell_volume 432.623447
_symmetry_space_group_name_H-M "P -1"
_symmetry_group_IT_number 2
_symmetry_cell_setting 'triclinic'
loop_
_space_group_symop_operation_xyz
x,y,z
-x,-y,-z
loop_
_atom_site_type_symbol
_atom_site_label
_atom_site_fract_x
_atom_site_fract_y
_atom_site_fract_z
Si Si1 0.920093 0.999184 0.724650
Si Si2 0.759316 0.241585 0.402671
Si Si3 0.376704 0.286408 0.527091
Si Si4 0.903437 0.773780 0.123292
Si Si5 0.602931 0.700233 0.919919
Si Si6 0.889599 0.482456 0.815113
O O1 0.591712 0.937604 0.639836
O O2 0.852487 0.803677 0.810434
O O3 0.298384 0.166991 0.655614
O O4 0.887154 0.072473 0.809580
O O5 0.672843 0.296252 0.485627
O O6 0.995088 0.170098 0.462354
O O7 0.007980 0.440806 0.309727
O O8 0.500000 0.500000 0.500000
O O9 0.500700 0.576913 0.175831
O O10 0.148309 0.711801 0.132565
O O11 0.822779 0.845818 0.996074
O O12 0.209930 0.646896 0.876394
O O13 0.500000 0.500000 0.000000
#
# Coordination Sequence:
#
# PCOD8013378 Si02
#       6
#     2   2   2   2   2   2
#     4  11  24  41  67  97 131 170 212 263 321 381
#     4  11  24  43  65  96 132 168 212 263 318 379
#     4  12  25  44  68  96 129 169 214 263 316 380
#     4  11  22  41  64  97 129 167 215 264 316 380
#     4   9  21  43  67  94 129 170 215 266 318 375
#     4  10  21  40  67  94 128 172 214 261 318 375
#
# _framework density 27.737748
#
# number of rings (size 3 to 8) (size 9 to 14) (size 15 to 20)
#    0.000    1.333    0.000    5.500    0.000    2.667 
#    0.000   19.167    0.000    0.000    0.000    0.000 
#    0.000    0.000    0.000    0.000    0.000    0.000 
#
# Total GULP energy -148665.095519 kJ/mol
# GULP energy per Si atom -12388.757960 kJ/mol
# Density = 2.767462 g / cm^3
# Si number density = 27.737748 Si / 1000 Ang^3
#
#
#
# Elastic Constant Matrix: (Units=GPa)
#
#
# Indices 1 2 3 4 5 6 
#
# 1 67.4450 -12.3370 8.0838 -5.1886 0.1780 7.7973
# 2 -12.3370 82.7557 30.2495 -2.8330 6.2628 9.9354
# 3 8.0838 30.2495 152.0711 -29.3794 -10.4858 7.3113
# 4 -5.1886 -2.8330 -29.3794 56.2868 2.5992 -8.0536
# 5 0.1780 6.2628 -10.4858 2.5992 31.7023 -3.8393
# 6 7.7973 9.9354 7.3113 -8.0536 -3.8393 18.3046
#
#
#
# Elastic Compliance Matrix: (Units=1/GPa)
#
#
# Indices 1 2 3 4 5 6 
#
# 1 0.016931 0.004445 -0.001557 -0.000292 -0.002637 -0.009685
# 2 0.004445 0.015735 -0.003602 -0.002003 -0.005496 -0.011029
# 3 -0.001557 -0.003602 0.008315 0.004120 0.003352 0.001813
# 4 -0.000292 -0.002003 0.004120 0.021032 0.001132 0.009057
# 5 -0.002637 -0.005496 0.003352 0.001132 0.034943 0.010595
# 6 -0.009685 -0.011029 0.001813 0.009057 0.010595 0.070226
#
#
# Mechanical properties :
#
#
# Convention : Reuss Voigt Hill
#
# Bulk Modulus (GPa) = 25.28206 39.36271 32.32238
# Shear Modulus (GPa) = 27.50375 39.67710 33.59042
#
# Velocity S-wave (km/s) = 3.15233 3.78621 3.48372
# Velocity P-wave (km/s) = 4.73117 5.77371 5.27825
#
# Compressibility (1/GPa) = 0.03955374
#
# Stress axis : x y z
#
# Youngs Moduli (GPa) = 59.06402 63.55443 120.26431
#
# Poissons Ratio (x) = -0.28252 0.18724
# Poissons Ratio (y) = -0.26256 0.43316
# Poissons Ratio (z) = 0.09196 0.22891
#
# Static dielectric constant tensor:
#      x y z
#    x 4.526180 0.309820 0.221070 
#    y 0.309820 5.377020 0.249130 
#    z 0.221070 0.249130 6.155620 
# 
# 
# High freq. dielectric constant tensor:
#      x y z
#    x 2.076320 0.009620 0.009180 
#    y 0.009620 2.137470 -0.002700 
#    z 0.009180 -0.002700 2.154270 
# 
# From -- ./inp_files/88480.got.cif
#   From: 2010.06.25/outbox.cif.g09.slc.cpg/sg2_45_cif.got.tgz:88480.got - 2010.06.27 13:26:56.
