data_PCOD8013921
_publ_section_title
;
Structure prediction by ZEFSAII (Michael W. Deem and Ramdas Pophale) SiO2 
 PCOD8013921
Probable space group: P -1
;
_chemical_formula_sum "Si O2"
_cell_formula_units_Z 16
_cell_length_a 11.319803
_cell_length_b 9.099418
_cell_length_c 19.112390
_cell_angle_alpha 31.049003
_cell_angle_beta 47.847650
_cell_angle_gamma 58.964359
_cell_volume 743.625201
_symmetry_space_group_name_H-M "P -1"
_symmetry_group_IT_number 2
_symmetry_cell_setting 'triclinic'
loop_
_space_group_symop_operation_xyz
x,y,z
-x,-y,-z
loop_
_atom_site_type_symbol
_atom_site_label
_atom_site_fract_x
_atom_site_fract_y
_atom_site_fract_z
Si Si1 0.895735 0.252525 0.941637
Si Si2 0.419701 0.740799 0.851556
Si Si3 0.176653 0.761738 0.280181
Si Si4 0.590994 0.916898 0.847736
Si Si5 0.485807 0.110228 0.540166
Si Si6 0.173898 0.191460 0.579831
Si Si7 0.811772 0.398991 0.259682
Si Si8 0.287355 0.034075 0.987401
O O1 0.024385 0.543203 0.782671
O O2 0.803143 0.241040 0.909083
O O3 0.760729 0.212122 0.073118
O O4 0.000000 0.000000 0.000000
O O5 0.554873 0.906529 0.783331
O O6 0.462021 0.855937 0.710026
O O7 0.430739 0.405316 0.982092
O O8 0.194540 0.423666 0.413506
O O9 0.992764 0.787827 0.323221
O O10 0.231346 0.912695 0.272211
O O11 0.289446 0.934183 0.106981
O O12 0.469815 0.099913 0.860684
O O13 0.326191 0.266961 0.541762
O O14 0.651883 0.327124 0.401698
O O15 0.500000 0.000000 0.500000
O O16 0.169873 0.866924 0.688348
O O17 0.795793 0.679223 0.104419
#
# Coordination Sequence:
#
# PCOD8013921 Si02
#       8
#     2   2   2   2   2   2   2   2
#     4   9  20  40  61  94 130 160 215 262 311 376
#     4  10  22  41  67  96 127 170 211 265 315 380
#     4  11  23  40  61  92 128 171 210 267 313 375
#     4  10  22  40  65  93 127 165 218 257 318 380
#     4  10  23  39  63  95 128 162 210 266 313 376
#     4  10  24  40  59  90 133 161 215 260 324 374
#     4  10  21  41  63  93 125 166 214 260 321 381
#     4  10  22  37  65  91 124 168 213 266 309 374
#
# _framework density 21.516214999999999
#
# number of rings (size 3 to 8) (size 9 to 14) (size 15 to 20)
#    0.000    2.000    0.000    1.875   10.500    0.500 
#    4.500    6.875    0.000    0.000    0.000    0.000 
#    0.000    0.000    0.000    0.000    0.000    0.000 
#
# Total GULP energy -198273.500725 kJ/mol
# GULP energy per Si atom -12392.093795 kJ/mol
# Density = 2.146724 g / cm^3
# Si number density = 21.516215 Si / 1000 Ang^3
#
#
#
# Elastic Constant Matrix: (Units=GPa)
#
#
# Indices 1 2 3 4 5 6 
#
# 1 99.3526 18.1687 42.8227 16.9995 -8.9231 0.2647
# 2 18.1687 67.6043 33.1923 -2.4403 13.3956 -0.1774
# 3 42.8227 33.1923 101.7930 2.1198 7.2050 7.7013
# 4 16.9995 -2.4403 2.1198 24.0566 -4.1981 1.0386
# 5 -8.9231 13.3956 7.2050 -4.1981 40.5995 -4.6482
# 6 0.2647 -0.1774 7.7013 1.0386 -4.6482 26.6598
#
#
#
# Elastic Compliance Matrix: (Units=1/GPa)
#
#
# Indices 1 2 3 4 5 6 
#
# 1 0.015099 -0.002394 -0.005887 -0.009732 0.004455 0.002691
# 2 -0.002394 0.019065 -0.004915 0.003066 -0.005572 0.000479
# 3 -0.005887 -0.004915 0.014390 0.002152 -0.002537 -0.004657
# 4 -0.009732 0.003066 0.002152 0.048884 0.001272 -0.002187
# 5 0.004455 -0.005572 -0.002537 0.001272 0.028671 0.005601
# 6 0.002691 0.000479 -0.004657 -0.002187 0.005601 0.039893
#
#
# Mechanical properties :
#
#
# Convention : Reuss Voigt Hill
#
# Bulk Modulus (GPa) = 45.12521 50.79082 47.95801
# Shear Modulus (GPa) = 25.02730 29.90094 27.46412
#
# Velocity S-wave (km/s) = 3.41425 3.73190 3.57660
# Velocity P-wave (km/s) = 6.04657 6.49820 6.27644
#
# Compressibility (1/GPa) = 0.02216056
#
# Stress axis : x y z
#
# Youngs Moduli (GPa) = 66.23093 52.45315 69.49116
#
# Poissons Ratio (x) = 0.12558 0.40912
# Poissons Ratio (y) = 0.15857 0.34155
# Poissons Ratio (z) = 0.38992 0.25781
#
# Static dielectric constant tensor:
#      x y z
#    x 4.997760 -0.220620 -0.581230 
#    y -0.220620 3.759010 -0.083770 
#    z -0.581230 -0.083770 3.805220 
# 
# 
# High freq. dielectric constant tensor:
#      x y z
#    x 1.863570 -0.018800 -0.016810 
#    y -0.018800 1.829770 -0.012760 
#    z -0.016810 -0.012760 1.825950 
# 
# From -- ./inp_files/333741.got.cif
#   From: 2010.06.25/outbox.cif.g09.slc.cpg/sg2_167_cif.got.tgz:333741.got - 2010.06.27 13:26:56.
