data_PCOD8013611
_publ_section_title
;
Structure prediction by ZEFSAII (Michael W. Deem and Ramdas Pophale) SiO2 
 PCOD8013611
Probable space group: P -1
;
_chemical_formula_sum "Si O2"
_cell_formula_units_Z 12
_cell_length_a 5.201289
_cell_length_b 12.322861
_cell_length_c 9.838040
_cell_angle_alpha 59.961171
_cell_angle_beta 95.853941
_cell_angle_gamma 106.868491
_cell_volume 521.673102
_symmetry_space_group_name_H-M "P -1"
_symmetry_group_IT_number 2
_symmetry_cell_setting 'triclinic'
loop_
_space_group_symop_operation_xyz
x,y,z
-x,-y,-z
loop_
_atom_site_type_symbol
_atom_site_label
_atom_site_fract_x
_atom_site_fract_y
_atom_site_fract_z
Si Si1 0.560777 0.768352 0.811053
Si Si2 0.186922 0.001517 0.884838
Si Si3 0.982693 0.296537 0.306749
Si Si4 0.592939 0.217948 0.917935
Si Si5 0.861374 0.038637 0.595974
Si Si6 0.762951 0.484466 0.603124
O O1 0.805551 0.732544 0.770810
O O2 0.268698 0.675977 0.806078
O O3 0.587720 0.923933 0.687552
O O4 0.589322 0.751131 0.987193
O O5 0.462852 0.110225 0.864819
O O6 0.204504 0.853222 0.951804
O O7 0.071952 0.056705 0.716087
O O8 0.000000 0.000000 0.000000
O O9 0.149964 0.413721 0.334083
O O10 0.825167 0.180243 0.473013
O O11 0.722502 0.346009 0.759345
O O12 0.000000 0.000000 0.500000
O O13 0.500000 0.500000 0.500000
O O14 0.000000 0.500000 0.500000
#
# Coordination Sequence:
#
# PCOD8013611 Si02
#       6
#     2   2   2   2   2   2
#     4  11  23  43  68 104 136 181 233 287 355 404
#     4  11  23  43  69 105 137 184 232 292 356 407
#     4  11  25  43  69 102 141 182 230 285 347 419
#     4  11  26  42  72  99 142 182 237 292 347 423
#     4  10  21  40  69  99 139 177 230 289 342 409
#     4  12  29  48  71 101 140 189 235 286 351 422
#
# _framework density 23.002912999999999
#
# number of rings (size 3 to 8) (size 9 to 14) (size 15 to 20)
#    0.000    1.000    1.667    4.500    4.667    4.000 
#    0.000    0.000    0.000    0.000    0.000    0.000 
#    0.000    0.000    0.000    0.000    0.000    0.000 
#
# Total GULP energy -148686.475367 kJ/mol
# GULP energy per Si atom -12390.539614 kJ/mol
# Density = 2.295056 g / cm^3
# Si number density = 23.002913 Si / 1000 Ang^3
#
#
#
# Elastic Constant Matrix: (Units=GPa)
#
#
# Indices 1 2 3 4 5 6 
#
# 1 116.2637 33.1649 33.6513 8.6467 -10.7266 9.9237
# 2 33.1649 132.2021 52.9063 -1.8305 -2.8234 16.7773
# 3 33.6513 52.9063 138.0258 3.4815 -24.0705 -2.2840
# 4 8.6467 -1.8305 3.4815 45.7560 8.6162 1.2034
# 5 -10.7266 -2.8234 -24.0705 8.6162 34.8332 9.1024
# 6 9.9237 16.7773 -2.2840 1.2034 9.1024 35.6279
#
#
#
# Elastic Compliance Matrix: (Units=1/GPa)
#
#
# Indices 1 2 3 4 5 6 
#
# 1 0.010191 -0.001652 -0.001218 -0.002490 0.003553 -0.002962
# 2 -0.001652 0.010019 -0.003822 0.001415 -0.001606 -0.004140
# 3 -0.001218 -0.003822 0.010219 -0.001965 0.006553 0.001186
# 4 -0.002490 0.001415 -0.001965 0.024059 -0.008276 0.001203
# 5 0.003553 -0.001606 0.006553 -0.008276 0.038710 -0.009424
# 6 -0.002962 -0.004140 0.001186 0.001203 -0.009424 0.033286
#
#
# Mechanical properties :
#
#
# Convention : Reuss Voigt Hill
#
# Bulk Modulus (GPa) = 58.66767 69.54851 64.10809
# Shear Modulus (GPa) = 34.35316 41.02802 37.69059
#
# Velocity S-wave (km/s) = 3.86868 4.22785 4.05225
# Velocity P-wave (km/s) = 6.74651 7.35753 7.05864
#
# Compressibility (1/GPa) = 0.01704516
#
# Stress axis : x y z
#
# Youngs Moduli (GPa) = 98.12902 99.81329 97.85842
#
# Poissons Ratio (x) = 0.16486 0.11920
# Poissons Ratio (y) = 0.16208 0.37399
# Poissons Ratio (z) = 0.11953 0.38146
#
# Static dielectric constant tensor:
#      x y z
#    x 4.018640 -0.456740 -0.381300 
#    y -0.456740 0.492390 -2.215660 
#    z -0.381300 -2.215660 4.140980 
# 
# 
# High freq. dielectric constant tensor:
#      x y z
#    x 1.903510 0.011030 -0.006060 
#    y 0.011030 1.914050 0.019100 
#    z -0.006060 0.019100 1.921850 
# 
# From -- ./inp_files/23311.got.cif
#   From: 2010.06.25/outbox.cif.g09.slc.cpg/sg2_12_cif.got.tgz:23311.got - 2010.06.27 13:26:56.
