data_PCOD8013971
_publ_section_title
;
Structure prediction by ZEFSAII (Michael W. Deem and Ramdas Pophale) SiO2 
 PCOD8013971
Probable space group: P -1
;
_chemical_formula_sum "Si O2"
_cell_formula_units_Z 16
_cell_length_a 15.052958
_cell_length_b 15.214276
_cell_length_c 13.952423
_cell_angle_alpha 30.540471
_cell_angle_beta 141.310333
_cell_angle_gamma 154.128813
_cell_volume 708.285289
_symmetry_space_group_name_H-M "P -1"
_symmetry_group_IT_number 2
_symmetry_cell_setting 'triclinic'
loop_
_space_group_symop_operation_xyz
x,y,z
-x,-y,-z
loop_
_atom_site_type_symbol
_atom_site_label
_atom_site_fract_x
_atom_site_fract_y
_atom_site_fract_z
Si Si1 0.172919 0.928408 0.934698
Si Si2 0.911869 0.748750 0.201160
Si Si3 0.680154 0.819063 0.528980
Si Si4 0.286531 0.648902 0.289243
Si Si5 0.799297 0.508499 0.136073
Si Si6 0.083569 0.755594 0.522749
Si Si7 0.432805 0.366133 0.877843
Si Si8 0.742300 0.719424 0.486776
O O1 0.299354 0.092951 0.980692
O O2 0.184219 0.087905 0.715641
O O3 0.258782 0.821052 0.065222
O O4 0.941859 0.708280 0.983836
O O5 0.888080 0.599406 0.232515
O O6 0.697909 0.599227 0.213556
O O7 0.076215 0.817259 0.350102
O O8 0.000000 0.000000 0.000000
O O9 0.523887 0.827065 0.348087
O O10 0.545710 0.547275 0.712365
O O11 0.823483 0.865439 0.520440
O O12 0.832875 0.022664 0.546069
O O13 0.198232 0.429119 0.345414
O O14 0.145518 0.504631 0.399916
O O15 0.764903 0.274431 0.311191
O O16 0.586051 0.421449 0.033019
O O17 0.500000 0.500000 0.500000
#
# Coordination Sequence:
#
# PCOD8013971 Si02
#       8
#     2   2   2   2   2   2   2   2
#     4  11  22  44  67  96 140 171 225 275 328 396
#     4  12  23  44  72  95 129 175 220 272 337 397
#     4  11  23  41  67  95 134 175 220 273 328 394
#     4  10  22  42  65  95 134 179 216 278 328 386
#     4  11  26  43  67  99 132 175 218 280 332 395
#     4  11  24  45  63  98 136 169 222 274 333 395
#     4  12  23  43  67  99 133 172 225 270 329 398
#     4  10  21  41  64 101 130 181 221 269 332 393
#
# _framework density 22.589766000000001
#
# number of rings (size 3 to 8) (size 9 to 14) (size 15 to 20)
#    0.000    1.000    5.000    2.250    1.750    2.500 
#    2.250    2.500    0.000    0.000    0.000    0.000 
#    0.000    0.000    0.000    0.000    0.000    0.000 
#
# Total GULP energy -198411.108347 kJ/mol
# GULP energy per Si atom -12400.694272 kJ/mol
# Density = 2.253835 g / cm^3
# Si number density = 22.589766 Si / 1000 Ang^3
#
#
#
# Elastic Constant Matrix: (Units=GPa)
#
#
# Indices 1 2 3 4 5 6 
#
# 1 100.5912 12.0274 40.4532 1.9688 3.6839 -15.5898
# 2 12.0274 64.2244 29.1009 6.7071 -1.8117 -15.9109
# 3 40.4532 29.1009 102.9682 -8.6706 7.7345 -5.1271
# 4 1.9688 6.7071 -8.6706 30.3259 -3.2700 4.6290
# 5 3.6839 -1.8117 7.7345 -3.2700 38.5768 0.6531
# 6 -15.5898 -15.9109 -5.1271 4.6290 0.6531 40.3808
#
#
#
# Elastic Compliance Matrix: (Units=1/GPa)
#
#
# Indices 1 2 3 4 5 6 
#
# 1 0.012904 0.001843 -0.005601 -0.003722 -0.000430 0.005431
# 2 0.001843 0.021677 -0.007190 -0.008229 0.001429 0.009260
# 3 -0.005601 -0.007190 0.014452 0.006451 -0.002088 -0.003866
# 4 -0.003722 -0.008229 0.006451 0.038370 0.002068 -0.008292
# 5 -0.000430 0.001429 -0.002088 0.002068 0.026634 -0.000536
# 6 0.005431 0.009260 -0.003866 -0.008292 -0.000536 0.030978
#
#
# Mechanical properties :
#
#
# Convention : Reuss Voigt Hill
#
# Bulk Modulus (GPa) = 36.84977 47.88296 42.36637
# Shear Modulus (GPa) = 28.41652 34.27017 31.34335
#
# Velocity S-wave (km/s) = 3.55059 3.89918 3.72896
# Velocity P-wave (km/s) = 5.75820 6.44315 6.11028
#
# Compressibility (1/GPa) = 0.02713721
#
# Stress axis : x y z
#
# Youngs Moduli (GPa) = 77.49779 46.13243 69.19575
#
# Poissons Ratio (x) = -0.08504 0.38758
# Poissons Ratio (y) = -0.14286 0.49750
# Poissons Ratio (z) = 0.43408 0.33168
#
# Static dielectric constant tensor:
#      x y z
#    x 4.941630 -0.135410 0.214300 
#    y -0.135410 4.141050 -0.055100 
#    z 0.214300 -0.055100 4.073200 
# 
# 
# High freq. dielectric constant tensor:
#      x y z
#    x 1.900350 0.000350 0.006190 
#    y 0.000350 1.887140 -0.004890 
#    z 0.006190 -0.004890 1.887760 
# 
# From -- ./inp_files/534143.got.cif
#   From: 2010.06.25/outbox.cif.g09.slc.cpg/sg2_268_cif.got.tgz:534143.got - 2010.06.27 13:26:56.
