data_PCOD8013602
_publ_section_title
;
Structure prediction by ZEFSAII (Michael W. Deem and Ramdas Pophale) SiO2 
 PCOD8013602
Probable space group: P -1
;
_chemical_formula_sum "Si O2"
_cell_formula_units_Z 16
_cell_length_a 9.200004
_cell_length_b 11.283289
_cell_length_c 14.338223
_cell_angle_alpha 69.348927
_cell_angle_beta 66.732744
_cell_angle_gamma 123.510862
_cell_volume 760.307862
_symmetry_space_group_name_H-M "P -1"
_symmetry_group_IT_number 2
_symmetry_cell_setting 'triclinic'
loop_
_space_group_symop_operation_xyz
x,y,z
-x,-y,-z
loop_
_atom_site_type_symbol
_atom_site_label
_atom_site_fract_x
_atom_site_fract_y
_atom_site_fract_z
Si Si1 0.707813 0.585646 0.997989
Si Si2 0.345759 0.748373 0.892586
Si Si3 0.958968 0.325013 0.835441
Si Si4 0.261321 0.555844 0.370343
Si Si5 0.194241 0.712641 0.586043
Si Si6 0.225406 0.251276 0.870951
Si Si7 0.749399 0.132704 0.276929
Si Si8 0.790096 0.200597 0.713971
O O1 0.659924 0.405220 0.071776
O O2 0.663797 0.637899 0.087204
O O3 0.500000 0.500000 0.000000
O O4 0.013384 0.809521 0.827895
O O5 0.217032 0.719789 0.837401
O O6 0.651465 0.993034 0.755036
O O7 0.202001 0.712962 0.029737
O O8 0.177107 0.562190 0.674990
O O9 0.109155 0.297739 0.837219
O O10 0.769253 0.166310 0.840354
O O11 0.517753 0.632383 0.281759
O O12 0.360929 0.766048 0.285776
O O13 0.063990 0.412035 0.372084
O O14 0.098704 0.415506 0.544273
O O15 0.214637 0.822737 0.635120
O O16 0.456089 0.884549 0.405727
O O17 0.000000 0.000000 0.000000
#
# Coordination Sequence:
#
# PCOD8013602 Si02
#       8
#     2   2   2   2   2   2   2   2
#     4  12  27  43  67 100 141 177 220 284 341 396
#     4  12  22  44  69  99 131 177 232 273 329 410
#     4  11  23  41  68  99 132 177 223 279 330 403
#     4  10  22  45  65  99 137 169 229 276 335 397
#     4  10  21  40  69  98 127 175 223 275 328 398
#     4  12  27  43  67  99 141 179 222 280 341 401
#     4  11  21  41  69  95 131 175 222 271 334 403
#     4  10  23  40  72  95 126 181 226 278 331 398
#
# _framework density 21.044107
#
# number of rings (size 3 to 8) (size 9 to 14) (size 15 to 20)
#    0.000    1.000    3.750    3.000    3.500    0.500 
#    2.250    0.625    0.000    0.000    0.000    0.000 
#    0.000    0.000    0.000    0.000    0.000    0.000 
#
# Total GULP energy -198365.831899 kJ/mol
# GULP energy per Si atom -12397.864494 kJ/mol
# Density = 2.099621 g / cm^3
# Si number density = 21.044107 Si / 1000 Ang^3
#
#
#
# Elastic Constant Matrix: (Units=GPa)
#
#
# Indices 1 2 3 4 5 6 
#
# 1 98.7808 19.0596 43.0021 -1.0502 -0.8841 -3.9350
# 2 19.0596 88.9773 13.7143 1.6523 4.1268 2.2648
# 3 43.0021 13.7143 91.6061 4.6113 -1.4300 -3.2110
# 4 -1.0502 1.6523 4.6113 37.9885 1.3499 4.0614
# 5 -0.8841 4.1268 -1.4300 1.3499 31.4663 7.7732
# 6 -3.9350 2.2648 -3.2110 4.0614 7.7732 31.2272
#
#
#
# Elastic Compliance Matrix: (Units=1/GPa)
#
#
# Indices 1 2 3 4 5 6 
#
# 1 0.013112 -0.001951 -0.005878 0.001048 0.000055 0.001039
# 2 -0.001951 0.011889 -0.000898 -0.000325 -0.001444 -0.000799
# 3 -0.005878 -0.000898 0.013946 -0.001928 0.000447 0.000898
# 4 0.001048 -0.000325 -0.001928 0.026983 -0.000315 -0.003474
# 5 0.000055 -0.001444 0.000447 -0.000315 0.034050 -0.008277
# 6 0.001039 -0.000799 0.000898 -0.003474 -0.008277 0.034817
#
#
# Mechanical properties :
#
#
# Convention : Reuss Voigt Hill
#
# Bulk Modulus (GPa) = 46.53112 47.87958 47.20535
# Shear Modulus (GPa) = 31.36471 33.70894 32.53682
#
# Velocity S-wave (km/s) = 3.86479 4.00662 3.93635
# Velocity P-wave (km/s) = 6.48650 6.64872 6.56811
#
# Compressibility (1/GPa) = 0.02149099
#
# Stress axis : x y z
#
# Youngs Moduli (GPa) = 76.26622 84.11479 71.70646
#
# Poissons Ratio (x) = 0.16412 0.42152
# Poissons Ratio (y) = 0.14880 0.06440
# Poissons Ratio (z) = 0.44833 0.07554
#
# Static dielectric constant tensor:
#      x y z
#    x 3.698910 0.122350 0.065480 
#    y 0.122350 4.080420 -0.009280 
#    z 0.065480 -0.009280 4.151240 
# 
# 
# High freq. dielectric constant tensor:
#      x y z
#    x 1.804590 0.018670 0.004860 
#    y 0.018670 1.843570 0.000570 
#    z 0.004860 0.000570 1.836400 
# 
# From -- ./inp_files/262589.got.cif
#   From: 2010.06.25/outbox.cif.g09.slc.cpg/sg2_132_cif.got.tgz:262589.got - 2010.06.27 13:26:56.
