data_PCOD8013102
_publ_section_title
;
Structure prediction by ZEFSAII (Michael W. Deem and Ramdas Pophale) SiO2 
 PCOD8013102
Probable space group: P -1
;
_chemical_formula_sum "Si O2"
_cell_formula_units_Z 14
_cell_length_a 8.082762
_cell_length_b 11.614313
_cell_length_c 10.103960
_cell_angle_alpha 110.509061
_cell_angle_beta 81.543073
_cell_angle_gamma 137.999452
_cell_volume 584.665542
_symmetry_space_group_name_H-M "P -1"
_symmetry_group_IT_number 2
_symmetry_cell_setting 'triclinic'
loop_
_space_group_symop_operation_xyz
x,y,z
-x,-y,-z
loop_
_atom_site_type_symbol
_atom_site_label
_atom_site_fract_x
_atom_site_fract_y
_atom_site_fract_z
Si Si1 0.287545 0.296410 0.010771
Si Si2 0.836177 0.582538 0.481372
Si Si3 0.176808 0.003434 0.404679
Si Si4 0.307732 0.694307 0.401736
Si Si5 0.974439 0.278973 0.872114
Si Si6 0.323767 0.275081 0.300055
Si Si7 0.652246 0.315744 0.910522
O O1 0.361034 0.196020 0.919821
O O2 0.024541 0.201114 0.944845
O O3 0.500000 0.500000 0.000000
O O4 0.246917 0.271250 0.161106
O O5 0.759616 0.460606 0.567568
O O6 0.625691 0.452649 0.340661
O O7 0.831403 0.721611 0.581141
O O8 0.111351 0.697274 0.444992
O O9 0.036968 0.797470 0.300821
O O10 0.417239 0.105698 0.509469
O O11 0.256074 0.102036 0.291113
O O12 0.000000 0.000000 0.500000
O O13 0.287357 0.634460 0.230762
O O14 0.708798 0.204818 0.899906
O O15 0.184451 0.502085 0.941644
#
# Coordination Sequence:
#
# PCOD8013102 Si02
#       7
#     2   2   2   2   2   2   2
#     4  10  21  40  65  93 128 172 225 274 322 395
#     4   9  20  38  66  95 127 164 228 281 325 403
#     4  11  25  44  64  97 139 177 218 275 339 408
#     4  10  21  40  66  99 127 168 222 282 338 385
#     4  10  23  40  63  96 131 172 226 266 330 398
#     4  10  22  39  65  95 130 178 217 275 340 383
#     4  10  22  39  69  94 126 178 225 278 325 391
#
# _framework density 23.945315000000001
#
# number of rings (size 3 to 8) (size 9 to 14) (size 15 to 20)
#    0.000    2.000    0.000    2.571    8.000    4.571 
#    5.143    0.714    0.000    0.000    0.000    0.000 
#    0.000    0.000    0.000    0.000    0.000    0.000 
#
# Total GULP energy -173452.325357 kJ/mol
# GULP energy per Si atom -12389.451811 kJ/mol
# Density = 2.389081 g / cm^3
# Si number density = 23.945315 Si / 1000 Ang^3
#
#
#
# Elastic Constant Matrix: (Units=GPa)
#
#
# Indices 1 2 3 4 5 6 
#
# 1 215.1533 16.4679 60.1011 10.7354 -9.9977 -9.5789
# 2 16.4679 48.5120 34.0966 6.9025 0.7787 -0.1435
# 3 60.1011 34.0966 143.2317 15.9696 -3.7935 3.0059
# 4 10.7354 6.9025 15.9696 27.2714 -6.2462 2.1253
# 5 -9.9977 0.7787 -3.7935 -6.2462 36.4088 -5.4438
# 6 -9.5789 -0.1435 3.0059 2.1253 -5.4438 21.8934
#
#
#
# Elastic Compliance Matrix: (Units=1/GPa)
#
#
# Indices 1 2 3 4 5 6 
#
# 1 0.005539 -0.000244 -0.002212 -0.000694 0.001656 0.003204
# 2 -0.000244 0.025118 -0.005552 -0.003449 -0.001663 0.000741
# 3 -0.002212 -0.005552 0.009632 -0.003284 -0.000362 -0.002098
# 4 -0.000694 -0.003449 -0.003284 0.041359 0.006289 -0.002327
# 5 0.001656 -0.001663 -0.000362 0.006289 0.030141 0.007647
# 6 0.003204 0.000741 -0.002098 -0.002327 0.007647 0.049498
#
#
# Mechanical properties :
#
#
# Convention : Reuss Voigt Hill
#
# Bulk Modulus (GPa) = 41.19822 69.80315 55.50069
# Shear Modulus (GPa) = 26.96959 36.86349 31.91654
#
# Velocity S-wave (km/s) = 3.35968 3.92789 3.65484
# Velocity P-wave (km/s) = 5.68264 7.05588 6.40616
#
# Compressibility (1/GPa) = 0.02427289
#
# Stress axis : x y z
#
# Youngs Moduli (GPa) = 180.54943 39.81176 103.81871
#
# Poissons Ratio (x) = 0.00971 0.22965
# Poissons Ratio (y) = 0.04401 0.57642
# Poissons Ratio (z) = 0.39939 0.22104
#
# Static dielectric constant tensor:
#      x y z
#    x 5.421080 -0.249750 0.077420 
#    y -0.249750 3.890630 0.106560 
#    z 0.077420 0.106560 4.237520 
# 
# 
# High freq. dielectric constant tensor:
#      x y z
#    x 1.983990 -0.020440 0.007290 
#    y -0.020440 1.909100 -0.006200 
#    z 0.007290 -0.006200 1.949480 
# 
# From -- ./inp_files/190036.got.cif
#   From: 2010.06.25/outbox.cif.g09.slc.cpg/sg2_96_cif.got.tgz:190036.got - 2010.06.27 13:26:56.
