data_PCOD8013262
_publ_section_title
;
Structure prediction by ZEFSAII (Michael W. Deem and Ramdas Pophale) SiO2 
 PCOD8013262
Probable space group: P -1
;
_chemical_formula_sum "Si O2"
_cell_formula_units_Z 16
_cell_length_a 17.941184
_cell_length_b 10.864890
_cell_length_c 11.455696
_cell_angle_alpha 140.135902
_cell_angle_beta 151.442889
_cell_angle_gamma 48.115257
_cell_volume 684.060883
_symmetry_space_group_name_H-M "P -1"
_symmetry_group_IT_number 2
_symmetry_cell_setting 'triclinic'
loop_
_space_group_symop_operation_xyz
x,y,z
-x,-y,-z
loop_
_atom_site_type_symbol
_atom_site_label
_atom_site_fract_x
_atom_site_fract_y
_atom_site_fract_z
Si Si1 0.575819 0.059958 0.977719
Si Si2 0.253484 0.478303 0.059883
Si Si3 0.581591 0.269695 0.358003
Si Si4 0.796963 0.363284 0.149266
Si Si5 0.963597 0.979142 0.769269
Si Si6 0.503964 0.810541 0.291545
Si Si7 0.162795 0.262486 0.384298
Si Si8 0.122268 0.097390 0.655111
O O1 0.626565 0.234482 0.260059
O O2 0.719190 0.918423 0.066350
O O3 0.545431 0.145883 0.874581
O O4 0.432270 0.934338 0.741016
O O5 0.420863 0.381448 0.208880
O O6 0.273711 0.624433 0.301834
O O7 0.208069 0.583430 0.954739
O O8 0.112129 0.326270 0.783729
O O9 0.891608 0.167692 0.151951
O O10 0.876413 0.533297 0.461042
O O11 0.618200 0.340790 0.930848
O O12 0.834236 0.892805 0.618541
O O13 0.883220 0.010174 0.556177
O O14 0.026785 0.187454 0.054152
O O15 0.676759 0.725462 0.459568
O O16 0.500000 0.000000 0.500000
O O17 0.000000 0.000000 0.500000
#
# Coordination Sequence:
#
# PCOD8013262 Si02
#       8
#     2   2   2   2   2   2   2   2
#     4  10  22  40  66  92 129 167 215 268 330 386
#     4  10  21  40  66  94 128 165 219 263 334 391
#     4   9  20  38  65  97 122 167 212 269 325 394
#     4  12  23  44  70  98 137 175 225 285 327 398
#     4  11  25  45  67  98 137 183 223 265 343 401
#     4  12  24  42  69 104 134 170 228 287 341 380
#     4  11  25  42  68 103 133 179 222 278 333 403
#     4  11  24  44  64  89 134 172 216 266 322 403
#
# _framework density 23.389731000000001
#
# number of rings (size 3 to 8) (size 9 to 14) (size 15 to 20)
#    0.000    1.250    2.500    3.000    3.500    1.000 
#    2.250    0.625    0.000    0.000    0.000    0.000 
#    0.000    0.000    0.000    0.000    0.000    0.000 
#
# Total GULP energy -198323.956369 kJ/mol
# GULP energy per Si atom -12395.247273 kJ/mol
# Density = 2.333649 g / cm^3
# Si number density = 23.389731 Si / 1000 Ang^3
#
#
#
# Elastic Constant Matrix: (Units=GPa)
#
#
# Indices 1 2 3 4 5 6 
#
# 1 110.6915 1.9979 44.9732 16.3670 -4.5495 15.3049
# 2 1.9979 33.3557 16.9193 8.5534 -9.8878 4.1712
# 3 44.9732 16.9193 128.5656 34.6600 -20.3693 10.4274
# 4 16.3670 8.5534 34.6600 34.9485 -13.0475 -2.7216
# 5 -4.5495 -9.8878 -20.3693 -13.0475 46.9931 6.4547
# 6 15.3049 4.1712 10.4274 -2.7216 6.4547 35.1130
#
#
#
# Elastic Compliance Matrix: (Units=1/GPa)
#
#
# Indices 1 2 3 4 5 6 
#
# 1 0.011326 0.002246 -0.003023 -0.003213 -0.000008 -0.004553
# 2 0.002246 0.034963 -0.002545 -0.005383 0.005781 -0.005857
# 3 -0.003023 -0.002545 0.012400 -0.009648 0.002312 -0.003235
# 4 -0.003213 -0.005383 -0.009648 0.043619 0.005485 0.007278
# 5 -0.000008 0.005781 0.002312 0.005485 0.025802 -0.005688
# 6 -0.004553 -0.005857 -0.003235 0.007278 -0.005688 0.033730
#
#
# Mechanical properties :
#
#
# Convention : Reuss Voigt Hill
#
# Bulk Modulus (GPa) = 19.21402 44.48818 31.85110
# Shear Modulus (GPa) = 26.90598 37.32577 32.11588
#
# Velocity S-wave (km/s) = 3.39534 3.99910 3.70952
# Velocity P-wave (km/s) = 4.85836 6.35496 5.65637
#
# Compressibility (1/GPa) = 0.05204534
#
# Stress axis : x y z
#
# Youngs Moduli (GPa) = 88.29006 28.60206 80.64279
#
# Poissons Ratio (x) = -0.06425 0.24381
# Poissons Ratio (y) = -0.19831 0.20522
# Poissons Ratio (z) = 0.26693 0.07279
#
# Static dielectric constant tensor:
#      x y z
#    x 3.454030 -0.055130 -0.967800 
#    y -0.055130 4.034790 0.163400 
#    z -0.967800 0.163400 3.341080 
# 
# 
# High freq. dielectric constant tensor:
#      x y z
#    x 1.919040 -0.006630 -0.010540 
#    y -0.006630 1.913410 0.000240 
#    z -0.010540 0.000240 1.943130 
# 
# From -- ./inp_files/358820.got.cif
#   From: 2010.06.25/outbox.cif.g09.slc.cpg/sg2_180_cif.got.tgz:358820.got - 2010.06.27 13:26:56.
