data_PCOD8013710
_publ_section_title
;
Structure prediction by ZEFSAII (Michael W. Deem and Ramdas Pophale) SiO2 
 PCOD8013710
Probable space group: P -1
;
_chemical_formula_sum "Si O2"
_cell_formula_units_Z 16
_cell_length_a 8.842108
_cell_length_b 23.527762
_cell_length_c 8.644000
_cell_angle_alpha 150.477709
_cell_angle_beta 59.173143
_cell_angle_gamma 127.939139
_cell_volume 697.667005
_symmetry_space_group_name_H-M "P -1"
_symmetry_group_IT_number 2
_symmetry_cell_setting 'triclinic'
loop_
_space_group_symop_operation_xyz
x,y,z
-x,-y,-z
loop_
_atom_site_type_symbol
_atom_site_label
_atom_site_fract_x
_atom_site_fract_y
_atom_site_fract_z
Si Si1 0.773390 0.501636 0.983547
Si Si2 0.849107 0.287323 0.616264
Si Si3 0.206140 0.603083 0.588781
Si Si4 0.537234 0.032581 0.238714
Si Si5 0.544068 0.583529 0.527545
Si Si6 0.835400 0.995622 0.188637
Si Si7 0.090167 0.184391 0.051292
Si Si8 0.165129 0.862239 0.195409
O O1 0.797372 0.388777 0.794388
O O2 0.716674 0.453459 0.726861
O O3 0.597245 0.524573 0.206746
O O4 0.968544 0.630807 0.178210
O O5 0.661277 0.184177 0.557183
O O6 0.908376 0.196059 0.258803
O O7 0.367362 0.625016 0.687911
O O8 0.000000 0.500000 0.500000
O O9 0.195599 0.733560 0.854947
O O10 0.650302 0.956200 0.081691
O O11 0.339540 0.984750 0.324225
O O12 0.500000 0.000000 0.000000
O O13 0.500000 0.500000 0.500000
O O14 0.735290 0.685837 0.736464
O O15 0.866816 0.123333 0.569718
O O16 0.823766 0.903350 0.115881
O O17 0.000000 0.000000 0.000000
O O18 0.023359 0.144082 0.814504
#
# Coordination Sequence:
#
# PCOD8013710 Si02
#       8
#     2   2   2   2   2   2   2   2
#     4  10  23  44  73 102 143 184 240 283 351 416
#     4  10  21  40  75 101 141 186 227 290 355 415
#     4  12  26  46  73 104 143 187 237 290 357 423
#     4  12  23  44  71 104 143 183 236 290 362 420
#     4  11  26  44  71 106 139 184 239 292 350 417
#     4  12  26  44  68 101 141 187 238 289 353 420
#     4  11  22  47  68 100 145 182 235 295 349 422
#     4  12  26  45  71 105 142 188 237 294 357 426
#
# _framework density 22.933577
#
# number of rings (size 3 to 8) (size 9 to 14) (size 15 to 20)
#    0.000    0.750    3.750    2.625    5.250    1.000 
#    0.000    6.250    0.000    0.000    0.000    0.000 
#    0.000    0.000    0.000    0.000    0.000    0.000 
#
# Total GULP energy -198256.481251 kJ/mol
# GULP energy per Si atom -12391.030078 kJ/mol
# Density = 2.288138 g / cm^3
# Si number density = 22.933577 Si / 1000 Ang^3
#
#
#
# Elastic Constant Matrix: (Units=GPa)
#
#
# Indices 1 2 3 4 5 6 
#
# 1 147.8352 35.7224 38.4617 -13.9754 -2.1324 -21.3254
# 2 35.7224 115.0488 56.4435 -0.9680 6.2447 -0.0637
# 3 38.4617 56.4435 94.6229 -1.3101 10.6532 2.5744
# 4 -13.9754 -0.9680 -1.3101 36.4699 -15.3805 -4.4054
# 5 -2.1324 6.2447 10.6532 -15.3805 25.8244 -3.0617
# 6 -21.3254 -0.0637 2.5744 -4.4054 -3.0617 35.3754
#
#
#
# Elastic Compliance Matrix: (Units=1/GPa)
#
#
# Indices 1 2 3 4 5 6 
#
# 1 0.010509 -0.001449 -0.004573 0.008811 0.009369 0.008574
# 2 -0.001449 0.012501 -0.006754 -0.000952 -0.000990 -0.000564
# 3 -0.004573 -0.006754 0.017716 -0.006457 -0.010583 -0.005778
# 4 0.008811 -0.000952 -0.006457 0.046097 0.032778 0.014357
# 5 0.009369 -0.000990 -0.010583 0.032778 0.065541 0.016171
# 6 0.008574 -0.000564 -0.005778 0.014357 0.016171 0.037044
#
#
# Mechanical properties :
#
#
# Convention : Reuss Voigt Hill
#
# Bulk Modulus (GPa) = 65.91041 68.75133 67.33087
# Shear Modulus (GPa) = 22.72537 34.65922 28.69230
#
# Velocity S-wave (km/s) = 3.15131 3.89175 3.54093
# Velocity P-wave (km/s) = 6.48406 7.08786 6.79267
#
# Compressibility (1/GPa) = 0.01517211
#
# Stress axis : x y z
#
# Youngs Moduli (GPa) = 95.15544 79.99351 56.44729
#
# Poissons Ratio (x) = 0.11591 0.25816
# Poissons Ratio (y) = 0.13788 0.38127
# Poissons Ratio (z) = 0.43519 0.54031
#
# Static dielectric constant tensor:
#      x y z
#    x 4.536540 -0.094210 -0.003080 
#    y -0.094210 4.073410 -0.040120 
#    z -0.003080 -0.040120 4.155540 
# 
# 
# High freq. dielectric constant tensor:
#      x y z
#    x 1.919590 -0.004970 0.003550 
#    y -0.004970 1.906740 0.002600 
#    z 0.003550 0.002600 1.904620 
# 
# From -- ./inp_files/226777.got.cif
#   From: 2010.06.25/outbox.cif.g09.slc.cpg/sg2_114_cif.got.tgz:226777.got - 2010.06.27 13:26:56.
