data_PCOD8013813
_publ_section_title
;
Structure prediction by ZEFSAII (Michael W. Deem and Ramdas Pophale) SiO2 
 PCOD8013813
Probable space group: P -1
;
_chemical_formula_sum "Si O2"
_cell_formula_units_Z 16
_cell_length_a 9.127815
_cell_length_b 7.488418
_cell_length_c 16.992155
_cell_angle_alpha 135.943408
_cell_angle_beta 89.848010
_cell_angle_gamma 67.881101
_cell_volume 677.562105
_symmetry_space_group_name_H-M "P -1"
_symmetry_group_IT_number 2
_symmetry_cell_setting 'triclinic'
loop_
_space_group_symop_operation_xyz
x,y,z
-x,-y,-z
loop_
_atom_site_type_symbol
_atom_site_label
_atom_site_fract_x
_atom_site_fract_y
_atom_site_fract_z
Si Si1 0.050811 0.662617 0.406348
Si Si2 0.806655 0.171859 0.859209
Si Si3 0.017273 0.653301 0.970289
Si Si4 0.343428 0.165247 0.990280
Si Si5 0.081283 0.718101 0.595923
Si Si6 0.827295 0.799689 0.312827
Si Si7 0.457295 0.251478 0.441693
Si Si8 0.409164 0.095584 0.226225
O O1 0.940524 0.598666 0.324122
O O2 0.015560 0.619697 0.485557
O O3 0.254736 0.441363 0.314936
O O4 0.000000 0.000000 0.500000
O O5 0.738634 0.470595 0.899875
O O6 0.899085 0.162825 0.938767
O O7 0.644572 0.144626 0.871926
O O8 0.938509 0.864131 0.711409
O O9 0.820721 0.868197 0.001714
O O10 0.000000 0.500000 0.000000
O O11 0.145140 0.417463 0.829442
O O12 0.500000 0.000000 0.000000
O O13 0.419510 0.001954 0.854926
O O14 0.265026 0.425212 0.536868
O O15 0.117789 0.969411 0.643205
O O16 0.626002 0.984143 0.403882
O O17 0.500000 0.500000 0.500000
O O18 0.458318 0.069964 0.308105
#
# Coordination Sequence:
#
# PCOD8013813 Si02
#       8
#     2   2   2   2   2   2   2   2
#     4   9  20  35  58  87 115 160 196 247 298 362
#     4  11  23  40  60  92 125 159 197 252 308 360
#     4  10  19  35  61  85 118 164 203 243 296 367
#     4  11  23  39  63  92 119 162 207 248 295 360
#     4   9  18  34  57  80 120 153 202 234 299 357
#     4  10  16  34  57  85 114 151 208 250 283 343
#     4   9  19  32  57  92 112 157 202 249 289 360
#     4  11  23  39  62  90 124 156 201 253 305 351
#
# _framework density 23.614069000000001
#
# number of rings (size 3 to 8) (size 9 to 14) (size 15 to 20)
#    0.000    2.000    2.500    3.375    3.500    2.000 
#    0.000    3.750    0.000    1.500    0.000    0.000 
#    0.000    0.000    0.000    0.000    0.000    0.000 
#
# Total GULP energy -198269.062307 kJ/mol
# GULP energy per Si atom -12391.816394 kJ/mol
# Density = 2.356032 g / cm^3
# Si number density = 23.614069 Si / 1000 Ang^3
#
#
#
# Elastic Constant Matrix: (Units=GPa)
#
#
# Indices 1 2 3 4 5 6 
#
# 1 70.6100 18.2508 24.8538 2.4445 3.5989 -27.2142
# 2 18.2508 71.5403 28.3768 -1.3329 -6.2547 -27.1244
# 3 24.8538 28.3768 143.8210 -2.1522 -5.1795 -15.8383
# 4 2.4445 -1.3329 -2.1522 28.2545 -13.1225 -3.1189
# 5 3.5989 -6.2547 -5.1795 -13.1225 51.3933 0.4519
# 6 -27.2142 -27.1244 -15.8383 -3.1189 0.4519 38.2528
#
#
#
# Elastic Compliance Matrix: (Units=1/GPa)
#
#
# Indices 1 2 3 4 5 6 
#
# 1 0.020274 0.000820 -0.002213 -0.001261 -0.001988 0.014009
# 2 0.000820 0.020528 -0.002443 0.003699 0.003013 0.014394
# 3 -0.002213 -0.002443 0.007871 0.001114 0.000935 0.000032
# 4 -0.001261 0.003699 0.001114 0.041572 0.011218 0.005444
# 5 -0.001988 0.003013 0.000935 0.011218 0.022907 0.001753
# 6 0.014009 0.014394 0.000032 0.005444 0.001753 0.046751
#
#
# Mechanical properties :
#
#
# Convention : Reuss Voigt Hill
#
# Bulk Modulus (GPa) = 24.38984 47.65935 36.02459
# Shear Modulus (GPa) = 27.58754 37.87946 32.73350
#
# Velocity S-wave (km/s) = 3.42170 4.00947 3.72719
# Velocity P-wave (km/s) = 5.09526 6.45453 5.81475
#
# Compressibility (1/GPa) = 0.04100068
#
# Stress axis : x y z
#
# Youngs Moduli (GPa) = 49.32522 48.71478 127.04205
#
# Poissons Ratio (x) = -0.03994 0.28114
# Poissons Ratio (y) = -0.04045 0.31036
# Poissons Ratio (z) = 0.10916 0.11901
#
# Static dielectric constant tensor:
#      x y z
#    x 4.591150 -0.709100 0.095190 
#    y -0.709100 4.522170 -0.096820 
#    z 0.095190 -0.096820 4.532920 
# 
# 
# High freq. dielectric constant tensor:
#      x y z
#    x 1.936180 -0.030840 0.003960 
#    y -0.030840 1.915370 0.006590 
#    z 0.003960 0.006590 1.951930 
# 
# From -- ./inp_files/328591.got.cif
#   From: 2010.06.25/outbox.cif.g09.slc.cpg/sg2_165_cif.got.tgz:328591.got - 2010.06.27 13:26:56.
