data_PCOD8013829
_publ_section_title
;
Structure prediction by ZEFSAII (Michael W. Deem and Ramdas Pophale) SiO2 
 PCOD8013829
Probable space group: P -1
;
_chemical_formula_sum "Si O2"
_cell_formula_units_Z 14
_cell_length_a 22.144432
_cell_length_b 18.567659
_cell_length_c 9.577132
_cell_angle_alpha 34.488933
_cell_angle_beta 145.921274
_cell_angle_gamma 162.765754
_cell_volume 640.567095
_symmetry_space_group_name_H-M "P -1"
_symmetry_group_IT_number 2
_symmetry_cell_setting 'triclinic'
loop_
_space_group_symop_operation_xyz
x,y,z
-x,-y,-z
loop_
_atom_site_type_symbol
_atom_site_label
_atom_site_fract_x
_atom_site_fract_y
_atom_site_fract_z
Si Si1 0.145391 0.389237 0.997565
Si Si2 0.096616 0.890047 0.537545
Si Si3 0.524137 0.445900 0.492731
Si Si4 0.302668 0.830570 0.083460
Si Si5 0.892385 0.544152 0.466659
Si Si6 0.886174 0.890356 0.312337
Si Si7 0.217890 0.674593 0.866702
O O1 0.228450 0.531772 0.782247
O O2 0.066686 0.418195 0.909156
O O3 0.338740 0.533506 0.227844
O O4 0.964562 0.104853 0.057528
O O5 0.954878 0.727305 0.389331
O O6 0.950632 0.827607 0.456485
O O7 0.302519 0.179892 0.430050
O O8 0.173895 0.833075 0.840293
O O9 0.500000 0.500000 0.500000
O O10 0.637033 0.636219 0.276796
O O11 0.251980 0.701450 0.332652
O O12 0.551592 0.102033 0.116802
O O13 0.226395 0.669819 0.059776
O O14 0.113106 0.704280 0.585515
O O15 0.000000 0.000000 0.500000
#
# Coordination Sequence:
#
# PCOD8013829 Si02
#       7
#     2   2   2   2   2   2   2
#     4  11  23  43  62  93 130 153 205 263 306 358
#     4  11  21  41  64  90 124 160 210 250 295 376
#     4  11  22  41  65  92 114 165 213 247 297 374
#     4  10  23  38  67  92 121 168 209 246 299 367
#     4  11  26  39  61  96 128 164 194 260 315 351
#     4  10  23  37  66  92 116 162 208 253 304 359
#     4  10  21  41  62  91 126 166 209 243 297 375
#
# _framework density 21.855633000000001
#
# number of rings (size 3 to 8) (size 9 to 14) (size 15 to 20)
#    0.000    1.429    4.286    2.143    8.000    1.143 
#    2.571    0.714    0.000    0.000    0.000    0.000 
#    0.000    0.000    0.000    0.000    0.000    0.000 
#
# Total GULP energy -173447.477690 kJ/mol
# GULP energy per Si atom -12389.105549 kJ/mol
# Density = 2.180589 g / cm^3
# Si number density = 21.855633 Si / 1000 Ang^3
#
#
#
# Elastic Constant Matrix: (Units=GPa)
#
#
# Indices 1 2 3 4 5 6 
#
# 1 162.3433 43.5053 34.4776 -22.5044 17.1902 -11.2383
# 2 43.5053 78.1136 14.5267 -21.4131 5.7354 8.2205
# 3 34.4776 14.5267 59.1567 -23.4926 -14.5359 -3.9243
# 4 -22.5044 -21.4131 -23.4926 27.6919 0.2463 -0.4934
# 5 17.1902 5.7354 -14.5359 0.2463 26.1737 -5.1624
# 6 -11.2383 8.2205 -3.9243 -0.4934 -5.1624 39.8728
#
#
#
# Elastic Compliance Matrix: (Units=1/GPa)
#
#
# Indices 1 2 3 4 5 6 
#
# 1 0.009672 -0.003845 -0.007364 -0.001249 -0.009277 0.001578
# 2 -0.003845 0.018748 0.002202 0.013169 -0.001422 -0.004753
# 3 -0.007364 0.002202 0.038902 0.028575 0.026698 0.005109
# 4 -0.001249 0.013169 0.028575 0.069442 0.013618 0.002368
# 5 -0.009277 -0.001422 0.026698 0.013618 0.060960 0.008367
# 6 0.001578 -0.004753 0.005109 0.002368 0.008367 0.028120
#
#
# Mechanical properties :
#
#
# Convention : Reuss Voigt Hill
#
# Bulk Modulus (GPa) = 20.28025 53.84809 37.06417
# Shear Modulus (GPa) = 19.20895 32.55460 25.88177
#
# Velocity S-wave (km/s) = 2.96784 3.86363 3.44498
# Velocity P-wave (km/s) = 4.58731 6.67795 5.72881
#
# Compressibility (1/GPa) = 0.04930906
#
# Stress axis : x y z
#
# Youngs Moduli (GPa) = 103.38631 53.33800 25.70536
#
# Poissons Ratio (x) = 0.20508 0.18930
# Poissons Ratio (y) = 0.39752 -0.05660
# Poissons Ratio (z) = 0.76135 -0.11745
#
# Static dielectric constant tensor:
#      x y z
#    x 4.129790 -0.342180 0.214800 
#    y -0.342180 4.873420 -0.643910 
#    z 0.214800 -0.643910 4.201550 
# 
# 
# High freq. dielectric constant tensor:
#      x y z
#    x 1.879130 -0.005810 0.010790 
#    y -0.005810 1.855640 -0.018530 
#    z 0.010790 -0.018530 1.826010 
# 
# From -- ./inp_files/337876.got.cif
#   From: 2010.06.25/outbox.cif.g09.slc.cpg/sg2_169_cif.got.tgz:337876.got - 2010.06.27 13:26:56.
