data_PCOD8013457
_publ_section_title
;
Structure prediction by ZEFSAII (Michael W. Deem and Ramdas Pophale) SiO2 
 PCOD8013457
Probable space group: P -1
;
_chemical_formula_sum "Si O2"
_cell_formula_units_Z 16
_cell_length_a 11.387309
_cell_length_b 18.152633
_cell_length_c 21.922033
_cell_angle_alpha 20.312319
_cell_angle_beta 151.694428
_cell_angle_gamma 151.176450
_cell_volume 710.034131
_symmetry_space_group_name_H-M "P -1"
_symmetry_group_IT_number 2
_symmetry_cell_setting 'triclinic'
loop_
_space_group_symop_operation_xyz
x,y,z
-x,-y,-z
loop_
_atom_site_type_symbol
_atom_site_label
_atom_site_fract_x
_atom_site_fract_y
_atom_site_fract_z
Si Si1 0.912321 0.175883 0.145213
Si Si2 0.535946 0.605499 0.233141
Si Si3 0.831409 0.360261 0.773491
Si Si4 0.550531 0.862170 0.768187
Si Si5 0.835978 0.885979 0.572189
Si Si6 0.277366 0.298859 0.625226
Si Si7 0.934362 0.948305 0.080228
Si Si8 0.281155 0.400775 0.043224
O O1 0.954629 0.148977 0.257098
O O2 0.170112 0.353475 0.097363
O O3 0.878139 0.955989 0.260913
O O4 0.667764 0.259321 0.959077
O O5 0.385385 0.343898 0.364546
O O6 0.722844 0.654307 0.339457
O O7 0.725776 0.702702 0.186576
O O8 0.571157 0.350487 0.697466
O O9 0.875208 0.549811 0.594819
O O10 0.062718 0.425469 0.876945
O O11 0.805488 0.126193 0.911130
O O12 0.601833 0.793555 0.775807
O O13 0.302041 0.948928 0.588518
O O14 0.502766 0.639069 0.961171
O O15 0.800846 0.044385 0.769213
O O16 0.000000 0.000000 0.500000
O O17 0.000000 0.000000 0.000000
#
# Coordination Sequence:
#
# PCOD8013457 Si02
#       8
#     2   2   2   2   2   2   2   2
#     4  12  24  44  73 100 133 179 234 286 342 400
#     4  12  26  45  70 103 138 180 229 284 340 413
#     4  10  21  40  68 104 130 175 224 288 337 392
#     4  10  24  45  67  97 139 181 223 280 342 405
#     4  12  30  45  69 101 145 179 226 285 346 409
#     4  11  22  38  74 102 135 168 233 290 332 395
#     4  11  26  44  68  94 143 186 223 271 347 417
#     4  10  21  44  72 100 133 176 232 282 342 403
#
# _framework density 22.534127999999999
#
# number of rings (size 3 to 8) (size 9 to 14) (size 15 to 20)
#    0.000    1.000    2.500    3.750    8.750    1.000 
#    2.250    0.000    0.000    0.000    0.000    0.000 
#    0.000    0.000    0.000    0.000    0.000    0.000 
#
# Total GULP energy -198435.235870 kJ/mol
# GULP energy per Si atom -12402.202242 kJ/mol
# Density = 2.248284 g / cm^3
# Si number density = 22.534128 Si / 1000 Ang^3
#
#
#
# Elastic Constant Matrix: (Units=GPa)
#
#
# Indices 1 2 3 4 5 6 
#
# 1 114.5443 27.6631 41.4584 -2.6940 -29.1755 12.6136
# 2 27.6631 87.3090 15.5115 -23.7077 -12.3194 3.2875
# 3 41.4584 15.5115 93.5185 1.9012 -4.5540 -0.5105
# 4 -2.6940 -23.7077 1.9012 30.5144 6.7646 -7.3626
# 5 -29.1755 -12.3194 -4.5540 6.7646 38.3712 -1.0878
# 6 12.6136 3.2875 -0.5105 -7.3626 -1.0878 37.6272
#
#
#
# Elastic Compliance Matrix: (Units=1/GPa)
#
#
# Indices 1 2 3 4 5 6 
#
# 1 0.014429 -0.003209 -0.005321 -0.004341 0.009928 -0.005191
# 2 -0.003209 0.016191 -0.001493 0.012826 0.000381 0.002162
# 3 -0.005321 -0.001493 0.013209 -0.001446 -0.002654 0.001734
# 4 -0.004341 0.012826 -0.001446 0.046260 -0.007250 0.009157
# 5 0.009928 0.000381 -0.002654 -0.007250 0.034587 -0.003816
# 6 -0.005191 0.002162 0.001734 0.009157 -0.003816 0.029833
#
#
# Mechanical properties :
#
#
# Convention : Reuss Voigt Hill
#
# Bulk Modulus (GPa) = 42.04747 51.62641 46.83694
# Shear Modulus (GPa) = 27.39965 35.35182 31.37573
#
# Velocity S-wave (km/s) = 3.49078 3.96512 3.73549
# Velocity P-wave (km/s) = 5.91163 6.62744 6.27974
#
# Compressibility (1/GPa) = 0.02378264
#
# Stress axis : x y z
#
# Youngs Moduli (GPa) = 69.30259 61.76390 75.70365
#
# Poissons Ratio (x) = 0.19820 0.40284
# Poissons Ratio (y) = 0.22239 0.11305
# Poissons Ratio (z) = 0.36877 0.09223
#
# Static dielectric constant tensor:
#      x y z
#    x 4.109290 0.168680 -0.034340 
#    y 0.168680 4.051200 -0.113040 
#    z -0.034340 -0.113040 4.197380 
# 
# 
# High freq. dielectric constant tensor:
#      x y z
#    x 1.890520 0.011640 -0.001630 
#    y 0.011640 1.889410 -0.006740 
#    z -0.001630 -0.006740 1.887930 
# 
# From -- ./inp_files/595977.got.cif
#   From: 2010.06.25/outbox.cif.g09.slc.cpg/sg2_298_cif.got.tgz:595977.got - 2010.06.27 13:26:56.
