data_PCOD8013912
_publ_section_title
;
Structure prediction by ZEFSAII (Michael W. Deem and Ramdas Pophale) SiO2 
 PCOD8013912
Probable space group: P -1
;
_chemical_formula_sum "Si O2"
_cell_formula_units_Z 16
_cell_length_a 13.829736
_cell_length_b 8.171245
_cell_length_c 11.387578
_cell_angle_alpha 118.677294
_cell_angle_beta 71.944280
_cell_angle_gamma 140.034250
_cell_volume 721.368556
_symmetry_space_group_name_H-M "P -1"
_symmetry_group_IT_number 2
_symmetry_cell_setting 'triclinic'
loop_
_space_group_symop_operation_xyz
x,y,z
-x,-y,-z
loop_
_atom_site_type_symbol
_atom_site_label
_atom_site_fract_x
_atom_site_fract_y
_atom_site_fract_z
Si Si1 0.218288 0.869377 0.066274
Si Si2 0.700059 0.424591 0.520897
Si Si3 0.264134 0.325943 0.634511
Si Si4 0.064995 0.413178 0.789326
Si Si5 0.518981 0.858619 0.285566
Si Si6 0.611786 0.214964 0.928171
Si Si7 0.455182 0.518406 0.848274
Si Si8 0.010107 0.692224 0.482155
O O1 0.244149 0.725896 0.095427
O O2 0.082876 0.810210 0.149334
O O3 0.366459 0.196665 0.109730
O O4 0.172493 0.723583 0.906084
O O5 0.665743 0.530003 0.469527
O O6 0.617975 0.369423 0.652003
O O7 0.879401 0.661190 0.557694
O O8 0.650150 0.150779 0.401667
O O9 0.158070 0.347512 0.730444
O O10 0.404863 0.478845 0.719236
O O11 0.170194 0.008329 0.549300
O O12 0.011465 0.398623 0.675434
O O13 0.463121 0.906752 0.213558
O O14 0.579324 0.737545 0.181619
O O15 0.644867 0.479431 0.030406
O O16 0.500000 0.000000 0.000000
O O17 0.000000 0.500000 0.500000
#
# Coordination Sequence:
#
# PCOD8013912 Si02
#       8
#     2   2   2   2   2   2   2   2
#     4  10  22  40  69  96 126 173 218 274 321 388
#     4  10  23  42  64  94 134 177 212 277 322 388
#     4  11  23  45  69  94 133 177 219 262 334 394
#     4  10  22  42  67  96 129 174 221 260 330 391
#     4  11  24  39  65 101 136 164 224 274 325 383
#     4  10  21  41  63  91 128 171 211 267 324 382
#     4  11  23  39  68  97 130 170 220 272 324 387
#     4  11  25  42  68  93 135 174 217 268 328 391
#
# _framework density 22.180063000000001
#
# number of rings (size 3 to 8) (size 9 to 14) (size 15 to 20)
#    0.000    1.500    1.250    4.125   10.500    0.500 
#    2.250    0.000    0.000    3.750    0.000    0.000 
#    0.000    0.000    0.000    0.000    0.000    0.000 
#
# Total GULP energy -198411.910109 kJ/mol
# GULP energy per Si atom -12400.744382 kJ/mol
# Density = 2.212958 g / cm^3
# Si number density = 22.180063 Si / 1000 Ang^3
#
#
#
# Elastic Constant Matrix: (Units=GPa)
#
#
# Indices 1 2 3 4 5 6 
#
# 1 53.2707 13.1237 27.5103 1.4438 4.2065 -8.6126
# 2 13.1237 86.0609 34.0293 6.7898 3.2915 -5.3726
# 3 27.5103 34.0293 103.9648 1.8528 12.8948 -3.6986
# 4 1.4438 6.7898 1.8528 35.2390 -1.8149 1.6965
# 5 4.2065 3.2915 12.8948 -1.8149 38.3565 4.2860
# 6 -8.6126 -5.3726 -3.6986 1.6965 4.2860 32.3108
#
#
#
# Elastic Compliance Matrix: (Units=1/GPa)
#
#
# Indices 1 2 3 4 5 6 
#
# 1 0.022778 -0.000895 -0.005366 -0.000810 -0.001273 0.005520
# 2 -0.000895 0.013694 -0.004143 -0.002465 0.000010 0.001692
# 3 -0.005366 -0.004143 0.012796 0.000185 -0.003324 -0.000223
# 4 -0.000810 -0.002465 0.000185 0.029088 0.001881 -0.002381
# 5 -0.001273 0.000010 -0.003324 0.001881 0.027921 -0.004521
# 6 0.005520 0.001692 -0.000223 -0.002381 -0.004521 0.033401
#
#
# Mechanical properties :
#
#
# Convention : Reuss Voigt Hill
#
# Bulk Modulus (GPa) = 35.13519 43.62477 39.37998
# Shear Modulus (GPa) = 29.41666 32.42348 30.92007
#
# Velocity S-wave (km/s) = 3.64574 3.82754 3.73775
# Velocity P-wave (km/s) = 5.79631 6.26455 6.03497
#
# Compressibility (1/GPa) = 0.02846149
#
# Stress axis : x y z
#
# Youngs Moduli (GPa) = 43.90115 73.02538 78.15238
#
# Poissons Ratio (x) = 0.06533 0.41936
# Poissons Ratio (y) = 0.03927 0.32375
# Poissons Ratio (z) = 0.23557 0.30251
#
# Static dielectric constant tensor:
#      x y z
#    x 4.268750 0.028770 -0.030040 
#    y 0.028770 3.800120 0.049930 
#    z -0.030040 0.049930 4.227350 
# 
# 
# High freq. dielectric constant tensor:
#      x y z
#    x 1.870720 -0.002690 0.004790 
#    y -0.002690 1.855660 0.006520 
#    z 0.004790 0.006520 1.885470 
# 
# From -- ./inp_files/448055.got.cif
#   From: 2010.06.25/outbox.cif.g09.slc.cpg/sg2_225_cif.got.tgz:448055.got - 2010.06.27 13:26:56.
