data_PCOD8013765
_publ_section_title
;
Structure prediction by ZEFSAII (Michael W. Deem and Ramdas Pophale) SiO2 
 PCOD8013765
Probable space group: P -1
;
_chemical_formula_sum "Si O2"
_cell_formula_units_Z 16
_cell_length_a 12.164870
_cell_length_b 19.628782
_cell_length_c 4.808185
_cell_angle_alpha 110.013885
_cell_angle_beta 79.380305
_cell_angle_gamma 143.160426
_cell_volume 638.569999
_symmetry_space_group_name_H-M "P -1"
_symmetry_group_IT_number 2
_symmetry_cell_setting 'triclinic'
loop_
_space_group_symop_operation_xyz
x,y,z
-x,-y,-z
loop_
_atom_site_type_symbol
_atom_site_label
_atom_site_fract_x
_atom_site_fract_y
_atom_site_fract_z
Si Si1 0.519110 0.254140 0.658929
Si Si2 0.254177 0.763096 0.563078
Si Si3 0.656100 0.104568 0.786383
Si Si4 0.870992 0.634189 0.624097
Si Si5 0.870500 0.976312 0.324096
Si Si6 0.477538 0.642405 0.698580
Si Si7 0.132780 0.175282 0.085944
Si Si8 0.973340 0.777224 0.260077
O O1 0.680683 0.286066 0.506470
O O2 0.330012 0.107337 0.566591
O O3 0.491421 0.308578 0.550978
O O4 0.573117 0.317831 0.016012
O O5 0.258704 0.782650 0.260651
O O6 0.040588 0.664701 0.609863
O O7 0.387947 0.886298 0.868209
O O8 0.808936 0.120813 0.757432
O O9 0.500000 0.000000 0.500000
O O10 0.689527 0.500797 0.419727
O O11 0.914703 0.729263 0.543308
O O12 0.849432 0.655844 0.971853
O O13 0.827800 0.891348 0.996980
O O14 0.000000 0.000000 0.500000
O O15 0.967894 0.098774 0.299458
O O16 0.661247 0.688627 0.747745
O O17 0.066505 0.164748 0.791075
#
# Coordination Sequence:
#
# PCOD8013765 Si02
#       8
#     2   2   2   2   2   2   2   2
#     4  11  23  40  64  95 125 171 217 261 327 382
#     4  10  22  41  62  92 133 164 212 266 314 379
#     4  10  21  42  62  91 128 169 212 262 311 379
#     4  10  23  42  63  93 131 165 215 272 312 376
#     4  10  21  41  61  89 129 166 206 275 316 378
#     4  11  23  40  65  95 127 168 219 267 318 381
#     4  10  23  40  63  92 128 167 215 262 323 383
#     4  10  23  41  65  92 126 171 211 260 327 378
#
# _framework density 25.055982
#
# number of rings (size 3 to 8) (size 9 to 14) (size 15 to 20)
#    0.000    1.750    1.250    1.875    1.750    3.000 
#    6.750    0.000    0.000    0.000    0.000    0.000 
#    0.000    0.000    0.000    0.000    0.000    0.000 
#
# Total GULP energy -198257.009032 kJ/mol
# GULP energy per Si atom -12391.063065 kJ/mol
# Density = 2.499895 g / cm^3
# Si number density = 25.055982 Si / 1000 Ang^3
#
#
#
# Elastic Constant Matrix: (Units=GPa)
#
#
# Indices 1 2 3 4 5 6 
#
# 1 110.8095 49.4948 24.7078 8.7649 14.4137 4.1544
# 2 49.4948 110.7734 42.4313 16.5233 7.5168 -7.2680
# 3 24.7078 42.4313 110.2487 -0.1796 14.7891 3.7895
# 4 8.7649 16.5233 -0.1796 48.9183 0.4931 1.1389
# 5 14.4137 7.5168 14.7891 0.4931 35.1781 -3.3572
# 6 4.1544 -7.2680 3.7895 1.1389 -3.3572 29.1865
#
#
#
# Elastic Compliance Matrix: (Units=1/GPa)
#
#
# Indices 1 2 3 4 5 6 
#
# 1 0.012089 -0.005320 0.000016 -0.000245 -0.004155 -0.003516
# 2 -0.005320 0.013976 -0.004596 -0.003922 0.001675 0.005180
# 3 0.000016 -0.004596 0.011510 0.001708 -0.004192 -0.003190
# 4 -0.000245 -0.003922 0.001708 0.021868 -0.000282 -0.002049
# 5 -0.004155 0.001675 -0.004192 -0.000282 0.032039 0.005249
# 6 -0.003516 0.005180 -0.003190 -0.002049 0.005249 0.037151
#
#
# Mechanical properties :
#
#
# Convention : Reuss Voigt Hill
#
# Bulk Modulus (GPa) = 56.25504 62.78882 59.52193
# Shear Modulus (GPa) = 32.39258 37.00310 34.69784
#
# Velocity S-wave (km/s) = 3.59946 3.84711 3.72534
# Velocity P-wave (km/s) = 6.30677 6.69682 6.50472
#
# Compressibility (1/GPa) = 0.01777618
#
# Stress axis : x y z
#
# Youngs Moduli (GPa) = 82.72149 71.55155 86.87839
#
# Poissons Ratio (x) = 0.38063 -0.00139
# Poissons Ratio (y) = 0.44005 0.39928
# Poissons Ratio (z) = -0.00132 0.32884
#
# Static dielectric constant tensor:
#      x y z
#    x 5.376420 -0.525980 -1.193820 
#    y -0.525980 5.116900 0.370190 
#    z -1.193820 0.370190 6.351400 
# 
# 
# High freq. dielectric constant tensor:
#      x y z
#    x 1.999010 -0.003450 -0.001750 
#    y -0.003450 1.984780 -0.006360 
#    z -0.001750 -0.006360 2.029800 
# 
# From -- ./inp_files/82798.got.cif
#   From: 2010.06.25/outbox.cif.g09.slc.cpg/sg2_42_cif.got.tgz:82798.got - 2010.06.27 13:26:56.
