data_PCOD8013110
_publ_section_title
;
Structure prediction by ZEFSAII (Michael W. Deem and Ramdas Pophale) SiO2 
 PCOD8013110
Probable space group: P -1
;
_chemical_formula_sum "Si O2"
_cell_formula_units_Z 16
_cell_length_a 5.338000
_cell_length_b 22.308552
_cell_length_c 7.075292
_cell_angle_alpha 88.923721
_cell_angle_beta 69.436536
_cell_angle_gamma 108.001115
_cell_volume 742.538865
_symmetry_space_group_name_H-M "P -1"
_symmetry_group_IT_number 2
_symmetry_cell_setting 'triclinic'
loop_
_space_group_symop_operation_xyz
x,y,z
-x,-y,-z
loop_
_atom_site_type_symbol
_atom_site_label
_atom_site_fract_x
_atom_site_fract_y
_atom_site_fract_z
Si Si1 0.488461 0.253524 0.861391
Si Si2 0.248956 0.917559 0.033950
Si Si3 0.297277 0.149062 0.651255
Si Si4 0.910617 0.575915 0.869787
Si Si5 0.518705 0.827141 0.807360
Si Si6 0.592249 0.979330 0.280320
Si Si7 0.404013 0.518680 0.725049
Si Si8 0.031417 0.708157 0.000555
O O1 0.331859 0.203375 0.073171
O O2 0.288564 0.294869 0.862050
O O3 0.800418 0.298150 0.849325
O O4 0.532345 0.211666 0.674115
O O5 0.492970 0.892555 0.889438
O O6 0.169151 0.959383 0.885026
O O7 0.337524 0.961261 0.195768
O O8 0.997965 0.853868 0.171836
O O9 0.286137 0.156170 0.430131
O O10 0.316537 0.081456 0.708260
O O11 0.687972 0.559956 0.757487
O O12 0.018187 0.651391 0.865970
O O13 0.187255 0.557306 0.746966
O O14 0.759987 0.543699 0.105474
O O15 0.208316 0.774622 0.846050
O O16 0.500000 0.000000 0.500000
O O17 0.500000 0.500000 0.500000
#
# Coordination Sequence:
#
# PCOD8013110 Si02
#       8
#     2   2   2   2   2   2   2   2
#     4  10  22  42  62  89 128 162 210 258 315 374
#     4  11  23  41  58  88 122 151 208 258 318 382
#     4  12  22  41  63  85 117 169 196 264 321 381
#     4  10  21  40  65  93 135 166 214 263 304 362
#     4  10  23  40  61  88 123 162 206 254 320 373
#     4  11  23  39  62  87 115 154 209 258 319 381
#     4  10  21  40  65  97 130 176 209 256 314 361
#     4  10  21  44  62  93 131 165 208 267 303 367
#
# _framework density 21.547694
#
# number of rings (size 3 to 8) (size 9 to 14) (size 15 to 20)
#    0.750    0.750    3.750    1.500    0.000    2.500 
#    4.500    0.000    0.000    0.000    0.000    0.000 
#    0.000    0.000    0.000    0.000    0.000    0.000 
#
# Total GULP energy -198250.702222 kJ/mol
# GULP energy per Si atom -12390.668889 kJ/mol
# Density = 2.149865 g / cm^3
# Si number density = 21.547694 Si / 1000 Ang^3
#
#
#
# Elastic Constant Matrix: (Units=GPa)
#
#
# Indices 1 2 3 4 5 6 
#
# 1 120.2184 25.7994 38.3700 17.7853 -0.8563 -4.1740
# 2 25.7994 89.6487 35.0657 28.7058 -2.4565 -1.8572
# 3 38.3700 35.0657 149.9151 26.0976 4.0726 3.2116
# 4 17.7853 28.7058 26.0976 29.5852 0.1579 1.5685
# 5 -0.8563 -2.4565 4.0726 0.1579 24.0217 5.7704
# 6 -4.1740 -1.8572 3.2116 1.5685 5.7704 26.4393
#
#
#
# Elastic Compliance Matrix: (Units=1/GPa)
#
#
# Indices 1 2 3 4 5 6 
#
# 1 0.009640 -0.000963 -0.001679 -0.003478 0.000111 0.001840
# 2 -0.000963 0.016660 -0.001180 -0.014643 0.001560 0.001690
# 3 -0.001679 -0.001180 0.008325 -0.005142 -0.001377 -0.000754
# 4 -0.003478 -0.014643 -0.005142 0.054858 -0.000105 -0.004185
# 5 0.000111 0.001560 -0.001377 -0.000105 0.044276 -0.009363
# 6 0.001840 0.001690 -0.000754 -0.004185 -0.009363 0.040615
#
#
# Mechanical properties :
#
#
# Convention : Reuss Voigt Hill
#
# Bulk Modulus (GPa) = 37.06266 62.02804 49.54535
# Shear Modulus (GPa) = 26.17671 33.37903 29.77787
#
# Velocity S-wave (km/s) = 3.48922 3.94010 3.72149
# Velocity P-wave (km/s) = 5.78537 7.03904 6.44277
#
# Compressibility (1/GPa) = 0.02698133
#
# Stress axis : x y z
#
# Youngs Moduli (GPa) = 103.73517 60.02538 120.12220
#
# Poissons Ratio (x) = 0.05778 0.20170
# Poissons Ratio (y) = 0.09985 0.14173
# Poissons Ratio (z) = 0.17418 0.07082
#
# Static dielectric constant tensor:
#      x y z
#    x 3.931170 0.042750 0.033440 
#    y 0.042750 3.784300 0.049280 
#    z 0.033440 0.049280 3.827560 
# 
# 
# High freq. dielectric constant tensor:
#      x y z
#    x 1.837650 -0.002210 0.008420 
#    y -0.002210 1.842110 0.018160 
#    z 0.008420 0.018160 1.837710 
# 
# From -- ./inp_files/13403.got.cif
#   From: 2010.06.25/outbox.cif.g09.slc.cpg/sg2_7_cif.got.tgz:13403.got - 2010.06.27 13:26:56.
