data_PCOD8013605
_publ_section_title
;
Structure prediction by ZEFSAII (Michael W. Deem and Ramdas Pophale) SiO2 
 PCOD8013605
Probable space group: P -1
;
_chemical_formula_sum "Si O2"
_cell_formula_units_Z 16
_cell_length_a 16.635690
_cell_length_b 9.518972
_cell_length_c 8.774484
_cell_angle_alpha 112.332149
_cell_angle_beta 67.191196
_cell_angle_gamma 145.796099
_cell_volume 715.263514
_symmetry_space_group_name_H-M "P -1"
_symmetry_group_IT_number 2
_symmetry_cell_setting 'triclinic'
loop_
_space_group_symop_operation_xyz
x,y,z
-x,-y,-z
loop_
_atom_site_type_symbol
_atom_site_label
_atom_site_fract_x
_atom_site_fract_y
_atom_site_fract_z
Si Si1 0.239517 0.902854 0.373457
Si Si2 0.157336 0.693903 0.894002
Si Si3 0.828915 0.756791 0.015695
Si Si4 0.286642 0.104786 0.747729
Si Si5 0.030496 0.295791 0.608052
Si Si6 0.577787 0.585433 0.640397
Si Si7 0.827693 0.773109 0.678267
Si Si8 0.328279 0.774690 0.054099
O O1 0.278982 0.782393 0.255517
O O2 0.072883 0.717134 0.391222
O O3 0.270850 0.978054 0.558129
O O4 0.339255 0.140747 0.282519
O O5 0.154442 0.554237 0.716488
O O6 0.212096 0.924542 0.872450
O O7 0.273325 0.815679 0.985752
O O8 0.000000 0.500000 0.000000
O O9 0.781691 0.823494 0.194636
O O10 0.772886 0.710632 0.866146
O O11 0.755127 0.499278 0.020340
O O12 0.000000 0.000000 0.000000
O O13 0.456172 0.373443 0.765893
O O14 0.106880 0.304687 0.422853
O O15 0.950705 0.070112 0.687581
O O16 0.500000 0.500000 0.500000
O O17 0.699537 0.622930 0.586415
O O18 0.500000 0.000000 0.000000
#
# Coordination Sequence:
#
# PCOD8013605 Si02
#       8
#     2   2   2   2   2   2   2   2
#     4  10  22  44  72 100 137 182 237 284 350 420
#     4  12  25  44  68 100 140 184 233 289 349 420
#     4  12  26  44  68 102 142 180 239 289 352 417
#     4  11  25  42  73  98 138 186 234 279 354 424
#     4  10  21  40  69  98 137 180 229 285 350 411
#     4   9  21  42  67  99 136 180 229 286 351 422
#     4  10  22  39  68 101 135 178 235 289 342 419
#     4  12  28  46  70 104 150 182 230 301 364 410
#
# _framework density 22.369375999999999
#
# number of rings (size 3 to 8) (size 9 to 14) (size 15 to 20)
#    0.000    1.250    1.250    3.750    5.250    7.000 
#    0.000    1.250    0.000    0.000    0.000    0.000 
#    0.000    0.000    0.000    0.000    0.000    0.000 
#
# Total GULP energy -198323.179823 kJ/mol
# GULP energy per Si atom -12395.198739 kJ/mol
# Density = 2.231846 g / cm^3
# Si number density = 22.369376 Si / 1000 Ang^3
#
#
#
# Elastic Constant Matrix: (Units=GPa)
#
#
# Indices 1 2 3 4 5 6 
#
# 1 121.5662 51.8261 44.8720 2.9487 -13.7511 14.5468
# 2 51.8261 133.0719 31.8272 -9.7896 -9.1965 2.0519
# 3 44.8720 31.8272 92.6844 5.8198 -10.9826 -4.4187
# 4 2.9487 -9.7896 5.8198 33.4950 -3.3606 0.9326
# 5 -13.7511 -9.1965 -10.9826 -3.3606 41.0946 2.4037
# 6 14.5468 2.0519 -4.4187 0.9326 2.4037 42.5497
#
#
#
# Elastic Compliance Matrix: (Units=1/GPa)
#
#
# Indices 1 2 3 4 5 6 
#
# 1 0.012260 -0.003511 -0.004621 -0.000946 0.002274 -0.004610
# 2 -0.003511 0.009591 -0.001699 0.003473 0.000776 0.000442
# 3 -0.004621 -0.001699 0.014085 -0.002477 0.001454 0.003097
# 4 -0.000946 0.003473 -0.002477 0.031655 0.002442 -0.000933
# 5 0.002274 0.000776 0.001454 0.002442 0.025985 -0.002185
# 6 -0.004610 0.000442 0.003097 -0.000933 -0.002185 0.025522
#
#
# Mechanical properties :
#
#
# Convention : Reuss Voigt Hill
#
# Bulk Modulus (GPa) = 61.44376 67.15258 64.29817
# Shear Modulus (GPa) = 34.67789 38.01434 36.34612
#
# Velocity S-wave (km/s) = 3.94158 4.12684 4.03527
# Velocity P-wave (km/s) = 6.94566 7.26587 7.10756
#
# Compressibility (1/GPa) = 0.01627505
#
# Stress axis : x y z
#
# Youngs Moduli (GPa) = 81.56452 104.26769 70.99624
#
# Poissons Ratio (x) = 0.36609 0.32806
# Poissons Ratio (y) = 0.28638 0.12060
# Poissons Ratio (z) = 0.37690 0.17712
#
# Static dielectric constant tensor:
#      x y z
#    x 3.734360 0.088900 0.025980 
#    y 0.088900 4.367980 0.016660 
#    z 0.025980 0.016660 4.009840 
# 
# 
# High freq. dielectric constant tensor:
#      x y z
#    x 1.877450 0.000970 -0.005620 
#    y 0.000970 1.891260 0.004840 
#    z -0.005620 0.004840 1.876360 
# 
# From -- ./inp_files/299144.got.cif
#   From: 2010.06.25/outbox.cif.g09.slc.cpg/sg2_150_cif.got.tgz:299144.got - 2010.06.27 13:26:56.
