data_PCOD8013357
_publ_section_title
;
Structure prediction by ZEFSAII (Michael W. Deem and Ramdas Pophale) SiO2 
 PCOD8013357
Probable space group: P -1
;
_chemical_formula_sum "Si O2"
_cell_formula_units_Z 16
_cell_length_a 10.670473
_cell_length_b 12.664358
_cell_length_c 9.330299
_cell_angle_alpha 127.813831
_cell_angle_beta 51.105347
_cell_angle_gamma 105.856171
_cell_volume 762.341232
_symmetry_space_group_name_H-M "P -1"
_symmetry_group_IT_number 2
_symmetry_cell_setting 'triclinic'
loop_
_space_group_symop_operation_xyz
x,y,z
-x,-y,-z
loop_
_atom_site_type_symbol
_atom_site_label
_atom_site_fract_x
_atom_site_fract_y
_atom_site_fract_z
Si Si1 0.845427 0.353064 0.258259
Si Si2 0.238091 0.384401 0.640116
Si Si3 0.425382 0.088009 0.493884
Si Si4 0.880385 0.410916 0.582542
Si Si5 0.007592 0.199653 0.551942
Si Si6 0.207339 0.365324 0.955889
Si Si7 0.583297 0.193792 0.217440
Si Si8 0.755883 0.050358 0.727397
O O1 0.798685 0.506343 0.365327
O O2 0.790140 0.353033 0.465563
O O3 0.747837 0.256348 0.161452
O O4 0.040072 0.309009 0.060979
O O5 0.106275 0.285473 0.653122
O O6 0.211560 0.446486 0.870200
O O7 0.421015 0.306444 0.415763
O O8 0.348180 0.233017 0.739295
O O9 0.570724 0.102826 0.291416
O O10 0.500000 0.000000 0.500000
O O11 0.294208 0.022418 0.441248
O O12 0.000000 0.500000 0.500000
O O13 0.974299 0.278882 0.490829
O O14 0.760184 0.519163 0.858089
O O15 0.836806 0.178123 0.726115
O O16 0.121655 0.050020 0.338207
O O17 0.598914 0.107245 0.986918
#
# Coordination Sequence:
#
# PCOD8013357 Si02
#       8
#     2   2   2   2   2   2   2   2
#     4  11  23  40  64  99 127 160 215 263 319 379
#     4  11  21  40  65  93 130 161 212 267 315 377
#     4  11  26  45  62  94 134 166 209 261 322 379
#     4  10  22  39  65  97 126 161 209 272 320 363
#     4  11  22  41  68  95 125 162 228 256 307 380
#     4  10  21  40  67  92 121 172 208 259 317 372
#     4  11  25  41  64  93 129 171 212 256 321 377
#     4  11  25  43  67  91 126 176 218 256 307 383
#
# _framework density 20.987976
#
# number of rings (size 3 to 8) (size 9 to 14) (size 15 to 20)
#    0.000    1.250    5.000    1.875    5.250    3.000 
#    0.000    3.750    0.000    0.000    0.000    0.000 
#    0.000    0.000    0.000    0.000    0.000    0.000 
#
# Total GULP energy -198277.412837 kJ/mol
# GULP energy per Si atom -12392.338302 kJ/mol
# Density = 2.094021 g / cm^3
# Si number density = 20.987976 Si / 1000 Ang^3
#
#
#
# Elastic Constant Matrix: (Units=GPa)
#
#
# Indices 1 2 3 4 5 6 
#
# 1 72.3922 39.6756 33.5668 -2.5721 7.9162 -14.0686
# 2 39.6756 116.9577 22.0291 -9.5867 -1.4687 -15.4191
# 3 33.5668 22.0291 118.5162 -14.0854 13.2411 -17.6715
# 4 -2.5721 -9.5867 -14.0854 22.7626 2.3829 2.6106
# 5 7.9162 -1.4687 13.2411 2.3829 21.7414 -7.2335
# 6 -14.0686 -15.4191 -17.6715 2.6106 -7.2335 32.3299
#
#
#
# Elastic Compliance Matrix: (Units=1/GPa)
#
#
# Indices 1 2 3 4 5 6 
#
# 1 0.019748 -0.005824 -0.003935 -0.002592 -0.003905 0.003001
# 2 -0.005824 0.011286 0.000056 0.003360 0.003617 0.003417
# 3 -0.003935 0.000056 0.011364 0.006847 -0.005308 0.002785
# 4 -0.002592 0.003360 0.006847 0.050469 -0.009166 -0.001909
# 5 -0.003905 0.003617 -0.005308 -0.009166 0.055305 0.010239
# 6 0.003001 0.003417 0.002785 -0.001909 0.010239 0.037834
#
#
# Mechanical properties :
#
#
# Convention : Reuss Voigt Hill
#
# Bulk Modulus (GPa) = 43.49095 55.37880 49.43487
# Shear Modulus (GPa) = 23.46573 29.53976 26.50274
#
# Velocity S-wave (km/s) = 3.34736 3.75568 3.55739
# Velocity P-wave (km/s) = 5.97550 6.72682 6.36226
#
# Compressibility (1/GPa) = 0.02299329
#
# Stress axis : x y z
#
# Youngs Moduli (GPa) = 50.63765 88.60167 87.99857
#
# Poissons Ratio (x) = 0.51601 0.34627
# Poissons Ratio (y) = 0.29491 -0.00495
# Poissons Ratio (z) = 0.19926 -0.00499
#
# Static dielectric constant tensor:
#      x y z
#    x 3.857760 -0.064390 0.273810 
#    y -0.064390 3.933500 -0.072350 
#    z 0.273810 -0.072350 3.980240 
# 
# 
# High freq. dielectric constant tensor:
#      x y z
#    x 1.808070 -0.003660 0.009410 
#    y -0.003660 1.828770 -0.004280 
#    z 0.009410 -0.004280 1.825910 
# 
# From -- ./inp_files/263295.got.cif
#   From: 2010.06.25/outbox.cif.g09.slc.cpg/sg2_132_cif.got.tgz:263295.got - 2010.06.27 13:26:56.
