data_PCOD8013242
_publ_section_title
;
Structure prediction by ZEFSAII (Michael W. Deem and Ramdas Pophale) SiO2 
 PCOD8013242
Probable space group: P -1
;
_chemical_formula_sum "Si O2"
_cell_formula_units_Z 14
_cell_length_a 6.526965
_cell_length_b 10.431575
_cell_length_c 11.852603
_cell_angle_alpha 69.271233
_cell_angle_beta 129.651810
_cell_angle_gamma 95.175179
_cell_volume 570.713923
_symmetry_space_group_name_H-M "P -1"
_symmetry_group_IT_number 2
_symmetry_cell_setting 'triclinic'
loop_
_space_group_symop_operation_xyz
x,y,z
-x,-y,-z
loop_
_atom_site_type_symbol
_atom_site_label
_atom_site_fract_x
_atom_site_fract_y
_atom_site_fract_z
Si Si1 0.136891 0.476412 0.375532
Si Si2 0.733371 0.815575 0.588306
Si Si3 0.693960 0.106252 0.003773
Si Si4 0.311097 0.019728 0.258738
Si Si5 0.422385 0.633937 0.265748
Si Si6 0.548950 0.467444 0.157154
Si Si7 0.314521 0.828425 0.776187
O O1 0.199056 0.350998 0.344898
O O2 0.220198 0.612207 0.303597
O O3 0.281207 0.429436 0.560014
O O4 0.822106 0.517358 0.276400
O O5 0.666538 0.862547 0.677510
O O6 0.994867 0.879854 0.616706
O O7 0.463760 0.868646 0.402543
O O8 0.683916 0.208314 0.077604
O O9 0.999942 0.019868 0.116656
O O10 0.608379 0.202277 0.832255
O O11 0.500000 0.000000 0.000000
O O12 0.492892 0.057258 0.206444
O O13 0.345428 0.548427 0.154564
O O14 0.567587 0.301720 0.222478
O O15 0.500000 0.500000 0.000000
#
# Coordination Sequence:
#
# PCOD8013242 Si02
#       7
#     2   2   2   2   2   2   2
#     4  10  24  43  67  97 128 170 213 269 330 378
#     4   9  20  41  63  98 128 159 221 267 318 388
#     4  11  26  43  60  95 132 171 217 263 316 388
#     4  10  21  40  66  93 125 175 214 264 321 378
#     4  11  24  45  65  93 134 170 216 266 320 389
#     4  11  22  41  67 100 127 168 213 270 326 383
#     4  10  21  40  66  95 125 166 216 266 327 376
#
# _framework density 24.530681000000001
#
# number of rings (size 3 to 8) (size 9 to 14) (size 15 to 20)
#    0.000    1.714    1.429    1.714    4.000    1.143 
#   12.857    0.000    0.000    0.000    0.000    0.000 
#    0.000    0.000    0.000    0.000    0.000    0.000 
#
# Total GULP energy -173467.824428 kJ/mol
# GULP energy per Si atom -12390.558888 kJ/mol
# Density = 2.447485 g / cm^3
# Si number density = 24.530681 Si / 1000 Ang^3
#
#
#
# Elastic Constant Matrix: (Units=GPa)
#
#
# Indices 1 2 3 4 5 6 
#
# 1 83.5252 22.1061 49.3258 -13.1673 6.2307 32.1237
# 2 22.1061 52.2842 25.1850 -12.6912 -2.9923 24.7463
# 3 49.3258 25.1850 133.9155 -8.8629 -7.7547 24.9187
# 4 -13.1673 -12.6912 -8.8629 33.2870 3.5486 -3.3456
# 5 6.2307 -2.9923 -7.7547 3.5486 33.1062 5.7875
# 6 32.1237 24.7463 24.9187 -3.3456 5.7875 41.5132
#
#
#
# Elastic Compliance Matrix: (Units=1/GPa)
#
#
# Indices 1 2 3 4 5 6 
#
# 1 0.020999 0.001024 -0.005364 0.006383 -0.003593 -0.012625
# 2 0.001024 0.030469 -0.001975 0.009281 0.004181 -0.017605
# 3 -0.005364 -0.001975 0.010228 -0.000665 0.003535 -0.001358
# 4 0.006383 0.009281 -0.000665 0.035584 -0.003150 -0.006766
# 5 -0.003593 0.004181 0.003535 -0.003150 0.033610 -0.006774
# 6 -0.012625 -0.017605 -0.001358 -0.006766 -0.006774 0.045567
#
#
# Mechanical properties :
#
#
# Convention : Reuss Voigt Hill
#
# Bulk Modulus (GPa) = 20.38045 51.43987 35.91016
# Shear Modulus (GPa) = 24.33798 33.12183 28.72990
#
# Velocity S-wave (km/s) = 3.15325 3.67852 3.42597
# Velocity P-wave (km/s) = 4.64580 6.24957 5.50639
#
# Compressibility (1/GPa) = 0.04906664
#
# Stress axis : x y z
#
# Youngs Moduli (GPa) = 47.62236 32.82011 97.77216
#
# Poissons Ratio (x) = -0.03362 0.52441
# Poissons Ratio (y) = -0.04879 0.19313
# Poissons Ratio (z) = 0.25543 0.06483
#
# Static dielectric constant tensor:
#      x y z
#    x 4.351850 -0.145180 0.056590 
#    y -0.145180 4.397940 0.254250 
#    z 0.056590 0.254250 4.366410 
# 
# 
# High freq. dielectric constant tensor:
#      x y z
#    x 1.975180 -0.007820 -0.008550 
#    y -0.007820 1.968160 0.015300 
#    z -0.008550 0.015300 1.972350 
# 
# From -- ./inp_files/109684.got.cif
#   From: 2010.06.25/outbox.cif.g09.slc.cpg/sg2_55_cif.got.tgz:109684.got - 2010.06.27 13:26:56.
