data_PCOD8013085
_publ_section_title
;
Structure prediction by ZEFSAII (Michael W. Deem and Ramdas Pophale) SiO2 
 PCOD8013085
Probable space group: P -1
;
_chemical_formula_sum "Si O2"
_cell_formula_units_Z 16
_cell_length_a 9.110960
_cell_length_b 16.684288
_cell_length_c 11.797260
_cell_angle_alpha 133.346403
_cell_angle_beta 40.901365
_cell_angle_gamma 109.491996
_cell_volume 786.693975
_symmetry_space_group_name_H-M "P -1"
_symmetry_group_IT_number 2
_symmetry_cell_setting 'triclinic'
loop_
_space_group_symop_operation_xyz
x,y,z
-x,-y,-z
loop_
_atom_site_type_symbol
_atom_site_label
_atom_site_fract_x
_atom_site_fract_y
_atom_site_fract_z
Si Si1 0.044082 0.423891 0.210260
Si Si2 0.326938 0.078304 0.079535
Si Si3 0.372975 0.327415 0.305228
Si Si4 0.761077 0.190860 0.520146
Si Si5 0.647241 0.315890 0.364408
Si Si6 0.457453 0.417518 0.803903
Si Si7 0.725061 0.079195 0.219014
Si Si8 0.488626 0.346942 0.017083
O O1 0.887709 0.564919 0.439546
O O2 0.881015 0.345432 0.227499
O O3 0.201870 0.387016 0.197639
O O4 0.227380 0.393752 0.965840
O O5 0.351565 0.202629 0.175854
O O6 0.042371 0.107480 0.296124
O O7 0.500000 0.000000 0.000000
O O8 0.407041 0.000723 0.840236
O O9 0.498916 0.335061 0.354758
O O10 0.536052 0.337484 0.114220
O O11 0.709179 0.318774 0.612735
O O12 0.628194 0.128652 0.450315
O O13 0.636707 0.220127 0.745052
O O14 0.471949 0.405955 0.647620
O O15 0.718209 0.181493 0.234151
O O16 0.430192 0.550746 0.982558
O O17 0.000000 0.000000 0.000000
#
# Coordination Sequence:
#
# PCOD8013085 Si02
#       8
#     2   2   2   2   2   2   2   2
#     4  11  23  39  66  95 125 170 205 254 319 372
#     4  11  21  40  65  89 118 168 213 252 319 367
#     4  12  24  38  61  95 129 164 209 255 317 376
#     4   9  20  39  63  90 118 158 210 259 305 364
#     4  11  23  41  60  97 130 160 208 260 314 377
#     4  10  21  40  65  92 131 162 209 254 312 376
#     4   9  20  39  68  83 119 165 211 260 300 365
#     4  11  22  39  62  94 127 165 205 260 310 375
#
# _framework density 20.338277000000001
#
# number of rings (size 3 to 8) (size 9 to 14) (size 15 to 20)
#    0.000    1.500    2.500    3.750    5.250    0.500 
#    2.250    1.250    8.250    0.000    0.000    0.000 
#    0.000    0.000    0.000    0.000    0.000    0.000 
#
# Total GULP energy -198232.455380 kJ/mol
# GULP energy per Si atom -12389.528461 kJ/mol
# Density = 2.029199 g / cm^3
# Si number density = 20.338277 Si / 1000 Ang^3
#
#
#
# Elastic Constant Matrix: (Units=GPa)
#
#
# Indices 1 2 3 4 5 6 
#
# 1 122.0499 25.5890 58.0042 -2.6927 16.5932 -9.6263
# 2 25.5890 51.7238 28.6236 3.4765 -7.9133 6.2856
# 3 58.0042 28.6236 112.3913 2.6059 9.5787 -9.7664
# 4 -2.6927 3.4765 2.6059 37.8548 -0.5813 4.2402
# 5 16.5932 -7.9133 9.5787 -0.5813 25.6532 2.3706
# 6 -9.6263 6.2856 -9.7664 4.2402 2.3706 37.4420
#
#
#
# Elastic Compliance Matrix: (Units=1/GPa)
#
#
# Indices 1 2 3 4 5 6 
#
# 1 0.012951 -0.006072 -0.004071 0.001203 -0.009047 0.003724
# 2 -0.006072 0.029688 -0.006582 -0.001431 0.016355 -0.009135
# 3 -0.004071 -0.006582 0.013459 -0.001134 -0.004818 0.004002
# 4 0.001203 -0.001431 -0.001134 0.027028 0.000076 -0.002812
# 5 -0.009047 0.016355 -0.004818 0.000076 0.052573 -0.009666
# 6 0.003724 -0.009135 0.004002 -0.002812 -0.009666 0.031173
#
#
# Mechanical properties :
#
#
# Convention : Reuss Voigt Hill
#
# Bulk Modulus (GPa) = 44.15089 56.73319 50.44204
# Shear Modulus (GPa) = 24.05325 31.78654 27.91990
#
# Velocity S-wave (km/s) = 3.44271 3.95763 3.70912
# Velocity P-wave (km/s) = 6.12849 6.98850 6.57258
#
# Compressibility (1/GPa) = 0.02264960
#
# Stress axis : x y z
#
# Youngs Moduli (GPa) = 77.21165 33.68347 74.29743
#
# Poissons Ratio (x) = 0.20453 0.30246
# Poissons Ratio (y) = 0.46883 0.48900
# Poissons Ratio (z) = 0.31432 0.22169
#
# Static dielectric constant tensor:
#      x y z
#    x 3.968250 -0.075090 0.420800 
#    y -0.075090 3.567690 0.321710 
#    z 0.420800 0.321710 4.074590 
# 
# 
# High freq. dielectric constant tensor:
#      x y z
#    x 1.802450 -0.008700 0.021810 
#    y -0.008700 1.777060 0.021850 
#    z 0.021810 0.021850 1.797520 
# 
# From -- ./inp_files/278741.got.cif
#   From: 2010.06.25/outbox.cif.g09.slc.cpg/sg2_140_cif.got.tgz:278741.got - 2010.06.27 13:26:56.
