data_PCOD8013467
_publ_section_title
;
Structure prediction by ZEFSAII (Michael W. Deem and Ramdas Pophale) SiO2 
 PCOD8013467
Probable space group: P -1
;
_chemical_formula_sum "Si O2"
_cell_formula_units_Z 16
_cell_length_a 17.809861
_cell_length_b 6.549542
_cell_length_c 19.028274
_cell_angle_alpha 46.456835
_cell_angle_beta 29.131703
_cell_angle_gamma 44.795989
_cell_volume 745.743051
_symmetry_space_group_name_H-M "P -1"
_symmetry_group_IT_number 2
_symmetry_cell_setting 'triclinic'
loop_
_space_group_symop_operation_xyz
x,y,z
-x,-y,-z
loop_
_atom_site_type_symbol
_atom_site_label
_atom_site_fract_x
_atom_site_fract_y
_atom_site_fract_z
Si Si1 0.117764 0.144099 0.410580
Si Si2 0.799089 0.793710 0.135613
Si Si3 0.097344 0.799253 0.301637
Si Si4 0.995521 0.181096 0.166864
Si Si5 0.466737 0.469995 0.638064
Si Si6 0.521056 0.342192 0.267505
Si Si7 0.320801 0.941075 0.544005
Si Si8 0.383539 0.825259 0.166420
O O1 0.101547 0.492708 0.332024
O O2 0.072744 0.100755 0.539079
O O3 0.295832 0.975831 0.274716
O O4 0.000000 0.000000 0.500000
O O5 0.913718 0.540230 0.153221
O O6 0.682228 0.651722 0.223947
O O7 0.690729 0.078884 0.198902
O O8 0.900401 0.902990 0.968724
O O9 0.256115 0.771687 0.226564
O O10 0.096621 0.053430 0.184806
O O11 0.868727 0.996541 0.305994
O O12 0.495262 0.446244 0.702932
O O13 0.419742 0.801683 0.566694
O O14 0.627522 0.281599 0.511437
O O15 0.509046 0.513572 0.163019
O O16 0.360577 0.239436 0.424377
O O17 0.500000 0.000000 0.000000
#
# Coordination Sequence:
#
# PCOD8013467 Si02
#       8
#     2   2   2   2   2   2   2   2
#     4   9  22  44  65  96 124 161 221 261 314 385
#     4   9  22  43  60  96 126 164 209 259 314 394
#     4  10  23  43  70  89 129 174 206 271 325 361
#     4  10  21  40  68  89 129 164 208 259 324 378
#     4   9  19  39  62  89 126 161 206 255 314 373
#     4  11  23  39  65  88 132 163 210 261 316 370
#     4   9  20  37  62  94 119 160 210 255 311 385
#     4  11  27  43  61  99 128 168 224 261 312 392
#
# _framework density 21.455113000000001
#
# number of rings (size 3 to 8) (size 9 to 14) (size 15 to 20)
#    0.000    2.250    0.000    1.125   10.500    1.500 
#    0.000    8.125    0.000    0.000    0.000    0.000 
#    0.000    0.000    0.000    0.000    0.000    0.000 
#
# Total GULP energy -198233.661697 kJ/mol
# GULP energy per Si atom -12389.603856 kJ/mol
# Density = 2.140628 g / cm^3
# Si number density = 21.455113 Si / 1000 Ang^3
#
#
#
# Elastic Constant Matrix: (Units=GPa)
#
#
# Indices 1 2 3 4 5 6 
#
# 1 102.4304 47.8017 31.7281 -9.2645 20.8969 -11.6219
# 2 47.8017 80.6818 37.4379 -6.7520 6.4181 -1.8965
# 3 31.7281 37.4379 124.6785 -7.5347 -0.2832 0.1888
# 4 -9.2645 -6.7520 -7.5347 33.7858 -6.9914 6.7540
# 5 20.8969 6.4181 -0.2832 -6.9914 20.6130 -3.0804
# 6 -11.6219 -1.8965 0.1888 6.7540 -3.0804 23.6126
#
#
#
# Elastic Compliance Matrix: (Units=1/GPa)
#
#
# Indices 1 2 3 4 5 6 
#
# 1 0.018162 -0.008493 -0.002222 -0.001748 -0.015380 0.006768
# 2 -0.008493 0.018851 -0.003377 0.001843 0.002903 -0.002788
# 3 -0.002222 -0.003377 0.009732 0.001992 0.003889 -0.001505
# 4 -0.001748 0.001843 0.001992 0.034097 0.011447 -0.008988
# 5 -0.015380 0.002903 0.003889 0.011447 0.066850 -0.001921
# 6 0.006768 -0.002788 -0.001505 -0.008988 -0.001921 0.047790
#
#
# Mechanical properties :
#
#
# Convention : Reuss Voigt Hill
#
# Bulk Modulus (GPa) = 53.87971 60.19177 57.03574
# Shear Modulus (GPa) = 21.75301 28.32383 25.03842
#
# Velocity S-wave (km/s) = 3.18761 3.63732 3.41986
# Velocity P-wave (km/s) = 6.22214 6.76430 6.49888
#
# Compressibility (1/GPa) = 0.01855986
#
# Stress axis : x y z
#
# Youngs Moduli (GPa) = 55.05973 53.04744 102.75691
#
# Poissons Ratio (x) = 0.45053 0.22837
# Poissons Ratio (y) = 0.46762 0.34701
# Poissons Ratio (z) = 0.12237 0.17914
#
# Static dielectric constant tensor:
#      x y z
#    x 3.691280 -0.135040 0.049020 
#    y -0.135040 4.000680 0.139880 
#    z 0.049020 0.139880 4.199630 
# 
# 
# High freq. dielectric constant tensor:
#      x y z
#    x 1.823560 -0.005260 0.005050 
#    y -0.005260 1.830590 -0.003530 
#    z 0.005050 -0.003530 1.857730 
# 
# From -- ./inp_files/574874.got.cif
#   From: 2010.06.25/outbox.cif.g09.slc.cpg/sg2_288_cif.got.tgz:574874.got - 2010.06.27 13:26:56.
