data_PCOD8013890
_publ_section_title
;
Structure prediction by ZEFSAII (Michael W. Deem and Ramdas Pophale) SiO2 
 PCOD8013890
Probable space group: P -1
;
_chemical_formula_sum "Si O2"
_cell_formula_units_Z 14
_cell_length_a 18.835731
_cell_length_b 9.346288
_cell_length_c 5.885111
_cell_angle_alpha 132.798247
_cell_angle_beta 104.700672
_cell_angle_gamma 57.823825
_cell_volume 633.629426
_symmetry_space_group_name_H-M "P -1"
_symmetry_group_IT_number 2
_symmetry_cell_setting 'triclinic'
loop_
_space_group_symop_operation_xyz
x,y,z
-x,-y,-z
loop_
_atom_site_type_symbol
_atom_site_label
_atom_site_fract_x
_atom_site_fract_y
_atom_site_fract_z
Si Si1 0.892935 0.354419 0.265943
Si Si2 0.684561 0.056985 0.808513
Si Si3 0.157773 0.258075 0.685098
Si Si4 0.736852 0.672852 0.766128
Si Si5 0.549248 0.317602 0.653545
Si Si6 0.962862 0.915464 0.576005
Si Si7 0.616139 0.491967 0.512873
O O1 0.902164 0.508772 0.247712
O O2 0.798473 0.486374 0.433962
O O3 0.961590 0.295981 0.457476
O O4 0.907343 0.122219 0.922714
O O5 0.616506 0.085768 0.586957
O O6 0.779053 0.931444 0.646065
O O7 0.678257 0.911135 0.850387
O O8 0.662226 0.300182 0.150026
O O9 0.098995 0.171669 0.661876
O O10 0.209046 0.301887 0.965466
O O11 0.674092 0.597305 0.738160
O O12 0.605563 0.385971 0.620063
O O13 0.477317 0.306864 0.431408
O O14 0.500000 0.500000 0.000000
O O15 0.000000 0.000000 0.500000
#
# Coordination Sequence:
#
# PCOD8013890 Si02
#       7
#     2   2   2   2   2   2   2
#     4  10  24  42  62  89 120 159 200 247 301 356
#     4  10  22  40  62  89 122 160 201 249 299 352
#     4  11  24  41  61  91 125 156 198 250 301 357
#     4  11  24  39  63  93 121 157 201 249 300 356
#     4   9  20  39  63  88 121 161 201 247 295 352
#     4  11  24  42  65  89 119 160 202 246 299 358
#     4  10  21  41  63  88 122 160 202 247 298 354
#
# _framework density 22.094933999999999
#
# number of rings (size 3 to 8) (size 9 to 14) (size 15 to 20)
#    0.000    1.714    0.000    3.000    0.000   16.571 
#    0.000   10.000    0.000    0.000    0.000    0.000 
#    0.000    0.000    0.000    0.000    0.000    0.000 
#
# Total GULP energy -173598.720140 kJ/mol
# GULP energy per Si atom -12399.908581 kJ/mol
# Density = 2.204465 g / cm^3
# Si number density = 22.094934 Si / 1000 Ang^3
#
#
#
# Elastic Constant Matrix: (Units=GPa)
#
#
# Indices 1 2 3 4 5 6 
#
# 1 162.3933 66.4143 46.6685 -6.6634 30.1831 12.9978
# 2 66.4143 180.5132 34.9951 -12.7673 14.6405 -9.1450
# 3 46.6685 34.9951 51.9461 -11.3126 15.4573 2.1449
# 4 -6.6634 -12.7673 -11.3126 33.3401 -2.5052 -5.9139
# 5 30.1831 14.6405 15.4573 -2.5052 31.1072 -5.1469
# 6 12.9978 -9.1450 2.1449 -5.9139 -5.1469 27.9443
#
#
#
# Elastic Compliance Matrix: (Units=1/GPa)
#
#
# Indices 1 2 3 4 5 6 
#
# 1 0.010974 -0.002842 -0.005908 -0.002845 -0.007867 -0.007632
# 2 -0.002842 0.007358 -0.002543 0.002335 0.001524 0.004700
# 3 -0.005908 -0.002543 0.030131 0.007474 -0.007472 -0.000191
# 4 -0.002845 0.002335 0.007474 0.034671 0.002273 0.009270
# 5 -0.007867 0.001524 -0.007472 0.002273 0.045199 0.013537
# 6 -0.007632 0.004700 -0.000191 0.009270 0.013537 0.045343
#
#
# Mechanical properties :
#
#
# Convention : Reuss Voigt Hill
#
# Bulk Modulus (GPa) = 38.64401 76.77872 57.71136
# Shear Modulus (GPa) = 24.40362 34.92996 29.66679
#
# Velocity S-wave (km/s) = 3.32699 3.98037 3.66826
# Velocity P-wave (km/s) = 5.68212 7.47993 6.64213
#
# Compressibility (1/GPa) = 0.02587723
#
# Stress axis : x y z
#
# Youngs Moduli (GPa) = 91.12054 135.90614 33.18885
#
# Poissons Ratio (x) = 0.38626 0.19609
# Poissons Ratio (y) = 0.25898 0.08438
# Poissons Ratio (z) = 0.53836 0.34555
#
# Static dielectric constant tensor:
#      x y z
#    x 3.899910 -0.289400 -0.222560 
#    y -0.289400 4.437630 -0.014960 
#    z -0.222560 -0.014960 3.914480 
# 
# 
# High freq. dielectric constant tensor:
#      x y z
#    x 1.862160 -0.011070 -0.018160 
#    y -0.011070 1.883130 -0.003830 
#    z -0.018160 -0.003830 1.864850 
# 
# From -- ./inp_files/8051.got.cif
#   From: 2010.06.25/outbox.cif.g09.slc.cpg/sg2_5_cif.got.tgz:8051.got - 2010.06.27 13:26:56.
