data_PCOD8013013
_publ_section_title
;
Structure prediction by ZEFSAII (Michael W. Deem and Ramdas Pophale) SiO2 
 PCOD8013013
Probable space group: P -1
;
_chemical_formula_sum "Si O2"
_cell_formula_units_Z 16
_cell_length_a 9.080693
_cell_length_b 9.134860
_cell_length_c 15.920383
_cell_angle_alpha 114.852753
_cell_angle_beta 39.607888
_cell_angle_gamma 112.454460
_cell_volume 760.088733
_symmetry_space_group_name_H-M "P -1"
_symmetry_group_IT_number 2
_symmetry_cell_setting 'triclinic'
loop_
_space_group_symop_operation_xyz
x,y,z
-x,-y,-z
loop_
_atom_site_type_symbol
_atom_site_label
_atom_site_fract_x
_atom_site_fract_y
_atom_site_fract_z
Si Si1 0.430410 0.617872 0.677440
Si Si2 0.222811 0.322021 0.604273
Si Si3 0.915422 0.166933 0.046890
Si Si4 0.146786 0.355454 0.375717
Si Si5 0.540899 0.986974 0.076016
Si Si6 0.047899 0.007319 0.381469
Si Si7 0.197479 0.503972 0.220139
Si Si8 0.658002 0.678395 0.041345
O O1 0.309427 0.431827 0.673436
O O2 0.558860 0.685308 0.553558
O O3 0.230655 0.739008 0.799109
O O4 0.604484 0.627821 0.682519
O O5 0.033729 0.406247 0.652895
O O6 0.112131 0.138165 0.630958
O O7 0.743957 0.135005 0.035911
O O8 0.156835 0.280222 0.954269
O O9 0.000000 0.000000 0.000000
O O10 0.991148 0.185570 0.420535
O O11 0.186430 0.360178 0.258643
O O12 0.000000 0.500000 0.500000
O O13 0.642267 0.822245 0.016436
O O14 0.317518 0.001542 0.236538
O O15 0.500000 0.000000 0.000000
O O16 0.000000 0.000000 0.500000
O O17 0.415761 0.629931 0.182086
O O18 0.247172 0.459881 0.091464
#
# Coordination Sequence:
#
# PCOD8013013 Si02
#       8
#     2   2   2   2   2   2   2   2
#     4  11  22  42  67  99 135 174 224 283 340 395
#     4  11  22  41  71  96 132 178 227 276 338 410
#     4  10  21  40  64  99 134 179 221 275 336 404
#     4  12  24  41  67  97 133 169 221 286 338 390
#     4  11  22  39  64  99 135 171 224 283 335 392
#     4  12  22  42  69  99 127 178 229 273 337 413
#     4  11  21  41  64  96 129 175 218 272 333 402
#     4  10  22  38  64  92 131 175 222 263 330 414
#
# _framework density 21.050174999999999
#
# number of rings (size 3 to 8) (size 9 to 14) (size 15 to 20)
#    0.000    1.000    6.250    0.750    0.000    0.000 
#    2.250    1.250    0.000    0.000    0.000    0.000 
#    0.000    0.000    0.000    0.000    0.000    0.000 
#
# Total GULP energy -198211.456373 kJ/mol
# GULP energy per Si atom -12388.216023 kJ/mol
# Density = 2.100226 g / cm^3
# Si number density = 21.050175 Si / 1000 Ang^3
#
#
#
# Elastic Constant Matrix: (Units=GPa)
#
#
# Indices 1 2 3 4 5 6 
#
# 1 98.1400 55.0082 36.4423 -12.7322 -7.3470 24.4176
# 2 55.0082 144.6163 25.2045 -3.1683 -6.1663 18.9282
# 3 36.4423 25.2045 78.8696 3.1256 -9.5947 0.0422
# 4 -12.7322 -3.1683 3.1256 38.6566 -4.6746 -6.2547
# 5 -7.3470 -6.1663 -9.5947 -4.6746 33.7528 -3.6457
# 6 24.4176 18.9282 0.0422 -6.2547 -3.6457 38.2555
#
#
#
# Elastic Compliance Matrix: (Units=1/GPa)
#
#
# Indices 1 2 3 4 5 6 
#
# 1 0.018071 -0.004396 -0.007026 0.004899 0.000897 -0.008465
# 2 -0.004396 0.008936 -0.000770 -0.000920 0.000140 -0.001752
# 3 -0.007026 -0.000770 0.016663 -0.002569 0.003222 0.004734
# 4 0.004899 -0.000920 -0.002569 0.028535 0.004381 0.002414
# 5 0.000897 0.000140 0.003222 0.004381 0.031705 0.003092
# 6 -0.008465 -0.001752 0.004734 0.002414 0.003092 0.033094
#
#
# Mechanical properties :
#
#
# Convention : Reuss Voigt Hill
#
# Bulk Modulus (GPa) = 51.84837 61.65954 56.75395
# Shear Modulus (GPa) = 29.79455 35.79771 32.79613
#
# Velocity S-wave (km/s) = 3.76627 4.12829 3.95143
# Velocity P-wave (km/s) = 6.60283 7.21658 6.91652
#
# Compressibility (1/GPa) = 0.01928701
#
# Stress axis : x y z
#
# Youngs Moduli (GPa) = 55.33720 111.90373 60.01404
#
# Poissons Ratio (x) = 0.49190 0.42163
# Poissons Ratio (y) = 0.24325 0.04623
# Poissons Ratio (z) = 0.38877 0.08619
#
# Static dielectric constant tensor:
#      x y z
#    x 3.960820 0.475500 -0.306100 
#    y 0.475500 4.285730 0.043150 
#    z -0.306100 0.043150 3.859350 
# 
# 
# High freq. dielectric constant tensor:
#      x y z
#    x 1.811920 0.025970 -0.021280 
#    y 0.025970 1.829270 0.016400 
#    z -0.021280 0.016400 1.827310 
# 
# From -- ./inp_files/405585.got.cif
#   From: 2010.06.25/outbox.cif.g09.slc.cpg/sg2_203_cif.got.tgz:405585.got - 2010.06.27 13:26:56.
