data_PCOD8013301
_publ_section_title
;
Structure prediction by ZEFSAII (Michael W. Deem and Ramdas Pophale) SiO2 
 PCOD8013301
Probable space group: P -1
;
_chemical_formula_sum "Si O2"
_cell_formula_units_Z 14
_cell_length_a 12.096109
_cell_length_b 6.717662
_cell_length_c 16.777834
_cell_angle_alpha 49.719509
_cell_angle_beta 143.770808
_cell_angle_gamma 123.347546
_cell_volume 613.493956
_symmetry_space_group_name_H-M "P -1"
_symmetry_group_IT_number 2
_symmetry_cell_setting 'triclinic'
loop_
_space_group_symop_operation_xyz
x,y,z
-x,-y,-z
loop_
_atom_site_type_symbol
_atom_site_label
_atom_site_fract_x
_atom_site_fract_y
_atom_site_fract_z
Si Si1 0.290872 0.398436 0.426881
Si Si2 0.239421 0.273237 0.888773
Si Si3 0.765760 0.312919 0.958116
Si Si4 0.923946 0.284032 0.896717
Si Si5 0.918747 0.582267 0.545896
Si Si6 0.789205 0.161824 0.454176
Si Si7 0.470422 0.436341 0.124079
O O1 0.500000 0.500000 0.500000
O O2 0.151252 0.605564 0.258257
O O3 0.249057 0.349915 0.509633
O O4 0.241808 0.103431 0.442666
O O5 0.425388 0.352916 0.927174
O O6 0.069459 0.439966 0.722288
O O7 0.286208 0.314383 0.000271
O O8 0.183464 0.974543 0.909905
O O9 0.753699 0.292260 0.860031
O O10 0.576071 0.404644 0.863785
O O11 0.917801 0.527606 0.021587
O O12 0.000000 0.000000 0.000000
O O13 0.818397 0.401735 0.468352
O O14 0.028076 0.831527 0.500459
O O15 0.600590 0.202434 0.283362
#
# Coordination Sequence:
#
# PCOD8013301 Si02
#       7
#     2   2   2   2   2   2   2
#     4  12  27  41  66  99 132 175 217 270 329 394
#     4  10  21  40  66  97 128 167 220 268 330 378
#     4  11  22  39  68  89 127 172 218 264 323 390
#     4  11  26  44  63  92 131 177 217 265 325 392
#     4  10  22  45  68  92 130 176 218 272 323 403
#     4  10  24  43  67  96 131 171 219 270 337 384
#     4  10  22  38  66  99 129 163 214 283 318 387
#
# _framework density 22.820112000000002
#
# number of rings (size 3 to 8) (size 9 to 14) (size 15 to 20)
#    0.000    1.429    0.000    4.286    6.000    1.714 
#    0.000    8.571    0.000    0.000    0.000    0.000 
#    0.000    0.000    0.000    0.000    0.000    0.000 
#
# Total GULP energy -173502.073770 kJ/mol
# GULP energy per Si atom -12393.005269 kJ/mol
# Density = 2.276817 g / cm^3
# Si number density = 22.820112 Si / 1000 Ang^3
#
#
#
# Elastic Constant Matrix: (Units=GPa)
#
#
# Indices 1 2 3 4 5 6 
#
# 1 144.7771 32.0182 7.1472 -8.2761 1.0683 -4.4309
# 2 32.0182 109.1266 31.2451 -17.1629 -5.5176 15.1861
# 3 7.1472 31.2451 81.7521 -3.6428 -14.0715 7.7632
# 4 -8.2761 -17.1629 -3.6428 35.2915 -0.6620 -6.9131
# 5 1.0683 -5.5176 -14.0715 -0.6620 23.9805 -5.5456
# 6 -4.4309 15.1861 7.7632 -6.9131 -5.5456 38.0349
#
#
#
# Elastic Compliance Matrix: (Units=1/GPa)
#
#
# Indices 1 2 3 4 5 6 
#
# 1 0.007546 -0.002356 0.000036 0.001000 -0.000381 0.001939
# 2 -0.002356 0.012136 -0.003924 0.004244 -0.000112 -0.003564
# 3 0.000036 -0.003924 0.015109 -0.000275 0.007857 -0.000417
# 4 0.001000 0.004244 -0.000275 0.031559 0.002708 0.004609
# 5 -0.000381 -0.000112 0.007857 0.002708 0.047729 0.005848
# 6 0.001939 -0.003564 -0.000417 0.004609 0.005848 0.029716
#
#
# Mechanical properties :
#
#
# Convention : Reuss Voigt Hill
#
# Bulk Modulus (GPa) = 44.84022 52.94189 48.89105
# Shear Modulus (GPa) = 30.54031 37.14439 33.84235
#
# Velocity S-wave (km/s) = 3.66226 4.03886 3.85516
# Velocity P-wave (km/s) = 6.12984 6.70819 6.42553
#
# Compressibility (1/GPa) = 0.02230141
#
# Stress axis : x y z
#
# Youngs Moduli (GPa) = 132.52492 82.39743 66.18766
#
# Poissons Ratio (x) = 0.19412 -0.00235
# Poissons Ratio (y) = 0.31222 0.25974
# Poissons Ratio (z) = -0.00471 0.32335
#
# Static dielectric constant tensor:
#      x y z
#    x 4.841710 -0.006300 -0.090990 
#    y -0.006300 4.104050 -0.047120 
#    z -0.090990 -0.047120 3.771150 
# 
# 
# High freq. dielectric constant tensor:
#      x y z
#    x 1.922710 0.005810 -0.001850 
#    y 0.005810 1.905070 -0.005010 
#    z -0.001850 -0.005010 1.880120 
# 
# From -- ./inp_files/564381.got.cif
#   From: 2010.06.25/outbox.cif.g09.slc.cpg/sg2_283_cif.got.tgz:564381.got - 2010.06.27 13:26:56.
