data_PCOD8013302
_publ_section_title
;
Structure prediction by ZEFSAII (Michael W. Deem and Ramdas Pophale) SiO2 
 PCOD8013302
Probable space group: P -1
;
_chemical_formula_sum "Si O2"
_cell_formula_units_Z 14
_cell_length_a 10.918600
_cell_length_b 9.019628
_cell_length_c 10.520828
_cell_angle_alpha 104.692680
_cell_angle_beta 37.890448
_cell_angle_gamma 92.846172
_cell_volume 595.440070
_symmetry_space_group_name_H-M "P -1"
_symmetry_group_IT_number 2
_symmetry_cell_setting 'triclinic'
loop_
_space_group_symop_operation_xyz
x,y,z
-x,-y,-z
loop_
_atom_site_type_symbol
_atom_site_label
_atom_site_fract_x
_atom_site_fract_y
_atom_site_fract_z
Si Si1 0.707949 0.695665 0.071704
Si Si2 0.149679 0.197631 0.552111
Si Si3 0.760195 0.140758 0.485612
Si Si4 0.914802 0.232796 0.148433
Si Si5 0.914524 0.683807 0.639165
Si Si6 0.761522 0.353578 0.029234
Si Si7 0.359182 0.450835 0.494353
O O1 0.469409 0.748990 0.310446
O O2 0.807244 0.524685 0.017047
O O3 0.742929 0.700387 0.892829
O O4 0.837028 0.805967 0.058895
O O5 0.200842 0.228500 0.371888
O O6 0.250798 0.309199 0.585554
O O7 0.247740 0.017249 0.468406
O O8 0.898649 0.241851 0.785828
O O9 0.841676 0.099295 0.262672
O O10 0.905916 0.230791 0.458686
O O11 0.830746 0.258106 0.082261
O O12 0.822607 0.391311 0.348668
O O13 0.000000 0.500000 0.500000
O O14 0.511788 0.385986 0.234234
O O15 0.500000 0.500000 0.500000
#
# Coordination Sequence:
#
# PCOD8013302 Si02
#       7
#     2   2   2   2   2   2   2
#     4  11  22  40  70  94 127 174 218 265 322 378
#     4  12  25  44  64  99 136 166 212 277 327 371
#     4  11  26  42  65  98 136 169 208 274 332 374
#     4  10  21  40  66  97 128 167 228 258 311 399
#     4  11  24  45  68  96 124 170 231 263 305 402
#     4  11  22  38  71  93 126 178 216 265 320 379
#     4  10  22  39  67  98 123 169 227 259 306 399
#
# _framework density 23.51202
#
# number of rings (size 3 to 8) (size 9 to 14) (size 15 to 20)
#    0.000    1.143    4.286    1.714    2.000    5.143 
#    0.000    5.000    0.000    0.000    0.000    0.000 
#    0.000    0.000    0.000    0.000    0.000    0.000 
#
# Total GULP energy -173452.755979 kJ/mol
# GULP energy per Si atom -12389.482570 kJ/mol
# Density = 2.345851 g / cm^3
# Si number density = 23.512020 Si / 1000 Ang^3
#
#
#
# Elastic Constant Matrix: (Units=GPa)
#
#
# Indices 1 2 3 4 5 6 
#
# 1 74.9672 40.5969 2.8074 -16.2220 -0.7093 -9.2954
# 2 40.5969 117.0020 -14.8853 -18.8914 6.0102 -16.8387
# 3 2.8074 -14.8853 56.5928 -26.7018 -14.1040 2.5249
# 4 -16.2220 -18.8914 -26.7018 33.0625 -8.0956 5.1302
# 5 -0.7093 6.0102 -14.1040 -8.0956 31.3371 -12.8006
# 6 -9.2954 -16.8387 2.5249 5.1302 -12.8006 41.1187
#
#
#
# Elastic Compliance Matrix: (Units=1/GPa)
#
#
# Indices 1 2 3 4 5 6 
#
# 1 0.018669 -0.002604 0.008937 0.016959 0.010913 0.003887
# 2 -0.002604 0.017605 0.023799 0.031388 0.018208 0.006912
# 3 0.008937 0.023799 0.089548 0.104933 0.069042 0.014669
# 4 0.016959 0.031388 0.104933 0.160573 0.090596 0.018413
# 5 0.010913 0.018208 0.069042 0.090596 0.092628 0.023216
# 6 0.003887 0.006912 0.014669 0.018413 0.023216 0.032058
#
#
# Mechanical properties :
#
#
# Convention : Reuss Voigt Hill
#
# Bulk Modulus (GPa) = 5.37381 33.95556 19.66469
# Shear Modulus (GPa) = 12.11100 35.77320 23.94210
#
# Velocity S-wave (km/s) = 2.27204 3.90485 3.19453
# Velocity P-wave (km/s) = 3.02876 5.89946 4.68919
#
# Compressibility (1/GPa) = 0.18608775
#
# Stress axis : x y z
#
# Youngs Moduli (GPa) = 53.56345 56.80046 11.16713
#
# Poissons Ratio (x) = 0.14790 -0.09980
# Poissons Ratio (y) = 0.13947 -0.26577
# Poissons Ratio (z) = -0.47870 -1.35179
#
# Static dielectric constant tensor:
#      x y z
#    x 4.057690 -0.181020 -0.042020 
#    y -0.181020 4.226860 -0.264450 
#    z -0.042020 -0.264450 4.764320 
# 
# 
# High freq. dielectric constant tensor:
#      x y z
#    x 1.907640 -0.016840 -0.009150 
#    y -0.016840 1.932230 -0.022970 
#    z -0.009150 -0.022970 1.942560 
# 
# From -- ./inp_files/400045.got.cif
#   From: 2010.06.25/outbox.cif.g09.slc.cpg/sg2_201_cif.got.tgz:400045.got - 2010.06.27 13:26:56.
