data_PCOD8013757
_publ_section_title
;
Structure prediction by ZEFSAII (Michael W. Deem and Ramdas Pophale) SiO2 
 PCOD8013757
Probable space group: P -1
;
_chemical_formula_sum "Si O2"
_cell_formula_units_Z 16
_cell_length_a 14.937631
_cell_length_b 6.928674
_cell_length_c 11.083136
_cell_angle_alpha 49.720824
_cell_angle_beta 64.519347
_cell_angle_gamma 86.820247
_cell_volume 747.562079
_symmetry_space_group_name_H-M "P -1"
_symmetry_group_IT_number 2
_symmetry_cell_setting 'triclinic'
loop_
_space_group_symop_operation_xyz
x,y,z
-x,-y,-z
loop_
_atom_site_type_symbol
_atom_site_label
_atom_site_fract_x
_atom_site_fract_y
_atom_site_fract_z
Si Si1 0.164557 0.698650 0.274118
Si Si2 0.514385 0.087509 0.138236
Si Si3 0.003052 0.852051 0.436367
Si Si4 0.983993 0.203895 0.085565
Si Si5 0.604570 0.656699 0.302184
Si Si6 0.628164 0.373481 0.730972
Si Si7 0.170440 0.081476 0.904281
Si Si8 0.496756 0.272172 0.333596
O O1 0.072492 0.447017 0.380310
O O2 0.253960 0.589611 0.317223
O O3 0.120042 0.841121 0.349169
O O4 0.201042 0.903871 0.060551
O O5 0.501020 0.255933 0.193326
O O6 0.605743 0.959610 0.161467
O O7 0.406974 0.843872 0.268861
O O8 0.547421 0.281100 0.926988
O O9 0.966998 0.999016 0.288285
O O10 0.000000 0.000000 0.500000
O O11 0.878072 0.099634 0.109994
O O12 0.000000 0.500000 0.000000
O O13 0.086468 0.217687 0.942959
O O14 0.500000 0.500000 0.500000
O O15 0.718189 0.685602 0.285307
O O16 0.595990 0.507752 0.237173
O O17 0.608880 0.655384 0.595170
O O18 0.500000 0.000000 0.500000
#
# Coordination Sequence:
#
# PCOD8013757 Si02
#       8
#     2   2   2   2   2   2   2   2
#     4  10  21  42  65  90 123 169 211 263 319 379
#     4  10  21  41  61  87 124 162 212 264 304 378
#     4  10  22  41  65  93 131 162 205 267 324 382
#     4  10  22  42  66  98 124 165 216 266 326 387
#     4  11  22  40  64  91 131 176 210 267 332 380
#     4  10  22  39  64  89 121 167 213 257 317 375
#     4  10  22  42  67  90 128 168 216 269 321 383
#     4  11  23  40  60  90 129 165 213 265 317 378
#
# _framework density 21.402903999999999
#
# number of rings (size 3 to 8) (size 9 to 14) (size 15 to 20)
#    0.000    1.750    2.500    1.125    0.000    5.000 
#    6.750    0.000    0.000    0.000    0.000    0.000 
#    0.000    0.000    0.000    0.000    0.000    0.000 
#
# Total GULP energy -198304.327502 kJ/mol
# GULP energy per Si atom -12394.020469 kJ/mol
# Density = 2.135419 g / cm^3
# Si number density = 21.402904 Si / 1000 Ang^3
#
#
#
# Elastic Constant Matrix: (Units=GPa)
#
#
# Indices 1 2 3 4 5 6 
#
# 1 150.1925 55.5320 31.1404 1.3065 -19.6249 -0.7043
# 2 55.5320 160.1779 30.1088 6.3784 -9.5657 12.6275
# 3 31.1404 30.1088 62.9724 2.1442 -17.7325 -0.2512
# 4 1.3065 6.3784 2.1442 26.2321 -1.2299 13.7544
# 5 -19.6249 -9.5657 -17.7325 -1.2299 27.3852 -9.2041
# 6 -0.7043 12.6275 -0.2512 13.7544 -9.2041 37.0570
#
#
#
# Elastic Compliance Matrix: (Units=1/GPa)
#
#
# Indices 1 2 3 4 5 6 
#
# 1 0.008614 -0.002561 -0.001561 -0.000797 0.005102 0.002589
# 2 -0.002561 0.007845 -0.003134 0.000126 -0.002243 -0.003347
# 3 -0.001561 -0.003134 0.022244 -0.003441 0.014036 0.005953
# 4 -0.000797 0.000126 -0.003441 0.048498 -0.007261 -0.019886
# 5 0.005102 -0.002243 0.014036 -0.007261 0.053876 0.017033
# 6 0.002589 -0.003347 0.005953 -0.019886 0.017033 0.039827
#
#
# Mechanical properties :
#
#
# Convention : Reuss Voigt Hill
#
# Bulk Modulus (GPa) = 41.33766 67.43391 54.38579
# Shear Modulus (GPa) = 24.57250 35.23897 29.90574
#
# Velocity S-wave (km/s) = 3.39203 4.06206 3.74207
# Velocity P-wave (km/s) = 5.89042 7.31954 6.64352
#
# Compressibility (1/GPa) = 0.02419102
#
# Stress axis : x y z
#
# Youngs Moduli (GPa) = 116.08518 127.47348 44.95640
#
# Poissons Ratio (x) = 0.32642 0.07019
# Poissons Ratio (y) = 0.29726 0.14089
# Poissons Ratio (z) = 0.18125 0.39949
#
# Static dielectric constant tensor:
#      x y z
#    x 3.958280 -0.122140 0.174160 
#    y -0.122140 3.770720 0.015130 
#    z 0.174160 0.015130 3.774400 
# 
# 
# High freq. dielectric constant tensor:
#      x y z
#    x 1.845070 -0.000090 0.014380 
#    y -0.000090 1.845640 -0.001220 
#    z 0.014380 -0.001220 1.829260 
# 
# From -- ./inp_files/441621.got.cif
#   From: 2010.06.25/outbox.cif.g09.slc.cpg/sg2_221_cif.got.tgz:441621.got - 2010.06.27 13:26:56.
