data_PCOD8013694
_publ_section_title
;
Structure prediction by ZEFSAII (Michael W. Deem and Ramdas Pophale) SiO2 
 PCOD8013694
Probable space group: P -1
;
_chemical_formula_sum "Si O2"
_cell_formula_units_Z 14
_cell_length_a 12.382917
_cell_length_b 9.086536
_cell_length_c 9.033561
_cell_angle_alpha 73.283405
_cell_angle_beta 65.403308
_cell_angle_gamma 118.071297
_cell_volume 650.762578
_symmetry_space_group_name_H-M "P -1"
_symmetry_group_IT_number 2
_symmetry_cell_setting 'triclinic'
loop_
_space_group_symop_operation_xyz
x,y,z
-x,-y,-z
loop_
_atom_site_type_symbol
_atom_site_label
_atom_site_fract_x
_atom_site_fract_y
_atom_site_fract_z
Si Si1 0.769268 0.457705 0.973409
Si Si2 0.381925 0.970703 0.694133
Si Si3 0.378069 0.419549 0.807778
Si Si4 0.908535 0.579602 0.536775
Si Si5 0.939948 0.161918 0.121088
Si Si6 0.376103 0.574894 0.457731
Si Si7 0.926439 0.041671 0.844944
O O1 0.826717 0.537024 0.752371
O O2 0.920524 0.610041 0.954102
O O3 0.694050 0.223050 0.097793
O O4 0.629487 0.459506 0.093294
O O5 0.235166 0.927080 0.705375
O O6 0.500000 0.000000 0.500000
O O7 0.479230 0.177655 0.675984
O O8 0.319394 0.451511 0.680700
O O9 0.556149 0.504019 0.662574
O O10 0.256758 0.175852 0.987393
O O11 0.772453 0.469026 0.519636
O O12 0.000000 0.500000 0.500000
O O13 0.039029 0.828288 0.359260
O O14 0.957487 0.179450 0.928107
O O15 0.951517 0.995952 0.216765
#
# Coordination Sequence:
#
# PCOD8013694 Si02
#       7
#     2   2   2   2   2   2   2
#     4  11  25  42  64  99 136 170 214 263 325 395
#     4  12  24  39  68 103 129 165 217 279 322 370
#     4  10  22  45  73 100 119 167 233 275 315 370
#     4  12  28  43  62  94 141 180 209 256 335 402
#     4  10  21  40  72  95 125 166 227 273 309 378
#     4  11  24  44  71  95 132 170 217 273 327 380
#     4  10  21  42  69  94 123 174 223 265 319 379
#
# _framework density 21.513223
#
# number of rings (size 3 to 8) (size 9 to 14) (size 15 to 20)
#    0.000    1.143    2.857    3.857    4.000    3.429 
#    0.000    0.000    0.000    0.000    0.000    0.000 
#    0.000    0.000    0.000    0.000    0.000    0.000 
#
# Total GULP energy -173609.561912 kJ/mol
# GULP energy per Si atom -12400.682994 kJ/mol
# Density = 2.146426 g / cm^3
# Si number density = 21.513223 Si / 1000 Ang^3
#
#
#
# Elastic Constant Matrix: (Units=GPa)
#
#
# Indices 1 2 3 4 5 6 
#
# 1 114.2721 12.8461 42.5330 5.3723 -14.4249 -21.6676
# 2 12.8461 60.6529 32.0217 -9.0619 -0.6187 -14.6978
# 3 42.5330 32.0217 145.3352 -2.8334 13.6425 -24.3084
# 4 5.3723 -9.0619 -2.8334 46.0570 -10.2813 -9.4250
# 5 -14.4249 -0.6187 13.6425 -10.2813 39.2813 1.0903
# 6 -21.6676 -14.6978 -24.3084 -9.4250 1.0903 28.8166
#
#
#
# Elastic Compliance Matrix: (Units=1/GPa)
#
#
# Indices 1 2 3 4 5 6 
#
# 1 0.011708 0.001054 -0.002967 0.001333 0.005499 0.007066
# 2 0.001054 0.021888 -0.003441 0.007041 0.003458 0.011226
# 3 -0.002967 -0.003441 0.009676 0.000139 -0.004590 0.004395
# 4 0.001333 0.007041 0.000139 0.027324 0.007332 0.013370
# 5 0.005499 0.003458 -0.004590 0.007332 0.030954 0.003254
# 6 0.007066 0.011226 0.004395 0.013370 0.003254 0.053699
#
#
# Mechanical properties :
#
#
# Convention : Reuss Voigt Hill
#
# Bulk Modulus (GPa) = 30.70783 55.00688 42.85736
# Shear Modulus (GPa) = 28.27871 38.35494 33.31683
#
# Velocity S-wave (km/s) = 3.62951 4.22697 3.93958
# Velocity P-wave (km/s) = 5.64530 7.03188 6.37639
#
# Compressibility (1/GPa) = 0.03256499
#
# Stress axis : x y z
#
# Youngs Moduli (GPa) = 85.40934 45.68654 103.35058
#
# Poissons Ratio (x) = -0.04817 0.30666
# Poissons Ratio (y) = -0.09005 0.35561
# Poissons Ratio (z) = 0.25342 0.15720
#
# Static dielectric constant tensor:
#      x y z
#    x 3.853220 -0.306780 -0.162550 
#    y -0.306780 3.958030 -0.018190 
#    z -0.162550 -0.018190 4.028460 
# 
# 
# High freq. dielectric constant tensor:
#      x y z
#    x 1.835590 -0.027390 -0.018870 
#    y -0.027390 1.835420 -0.008820 
#    z -0.018870 -0.008820 1.856570 
# 
# From -- ./inp_files/153872.got.cif
#   From: 2010.06.25/outbox.cif.g09.slc.cpg/sg2_77_cif.got.tgz:153872.got - 2010.06.27 13:26:56.
