data_PCOD8013497
_publ_section_title
;
Structure prediction by ZEFSAII (Michael W. Deem and Ramdas Pophale) SiO2 
 PCOD8013497
Probable space group: P -1
;
_chemical_formula_sum "Si O2"
_cell_formula_units_Z 14
_cell_length_a 9.127053
_cell_length_b 19.582202
_cell_length_c 8.652928
_cell_angle_alpha 136.763239
_cell_angle_beta 46.138719
_cell_angle_gamma 142.028607
_cell_volume 625.467881
_symmetry_space_group_name_H-M "P -1"
_symmetry_group_IT_number 2
_symmetry_cell_setting 'triclinic'
loop_
_space_group_symop_operation_xyz
x,y,z
-x,-y,-z
loop_
_atom_site_type_symbol
_atom_site_label
_atom_site_fract_x
_atom_site_fract_y
_atom_site_fract_z
Si Si1 0.491636 0.530468 0.817626
Si Si2 0.650574 0.415378 0.307068
Si Si3 0.189757 0.202696 0.958037
Si Si4 0.984126 0.322844 0.907592
Si Si5 0.305671 0.021034 0.596873
Si Si6 0.900345 0.785337 0.624009
Si Si7 0.752170 0.080377 0.854347
O O1 0.688564 0.502862 0.567443
O O2 0.349701 0.526924 0.759938
O O3 0.627843 0.660678 0.019413
O O4 0.275733 0.421630 0.904638
O O5 0.390399 0.285715 0.314560
O O6 0.870974 0.399972 0.115832
O O7 0.059319 0.218133 0.227582
O O8 0.355985 0.153079 0.806693
O O9 0.983025 0.107051 0.831777
O O10 0.972318 0.267772 0.655791
O O11 0.830563 0.213774 0.963268
O O12 0.500000 0.000000 0.500000
O O13 0.294732 0.004094 0.394209
O O14 0.033091 0.924904 0.707740
O O15 0.500000 0.000000 0.000000
#
# Coordination Sequence:
#
# PCOD8013497 Si02
#       7
#     2   2   2   2   2   2   2
#     4   9  20  37  62  98 128 167 219 259 332 371
#     4   9  18  37  64  99 130 166 210 280 308 378
#     4  11  23  42  64  96 139 166 205 284 321 389
#     4  10  21  40  68  95 130 173 218 265 312 392
#     4  11  24  42  69  96 121 177 226 265 325 385
#     4   9  21  36  67  96 126 164 221 260 324 370
#     4  11  26  44  63  94 135 171 218 263 335 386
#
# _framework density 22.383244000000001
#
# number of rings (size 3 to 8) (size 9 to 14) (size 15 to 20)
#    0.000    2.000    0.000    3.000   10.000    0.571 
#    5.143    0.714    0.000    0.000    0.000    0.000 
#    0.000    0.000    0.000    0.000    0.000    0.000 
#
# Total GULP energy -173482.049758 kJ/mol
# GULP energy per Si atom -12391.574983 kJ/mol
# Density = 2.233230 g / cm^3
# Si number density = 22.383244 Si / 1000 Ang^3
#
#
#
# Elastic Constant Matrix: (Units=GPa)
#
#
# Indices 1 2 3 4 5 6 
#
# 1 74.1980 19.1397 47.9675 1.1671 -1.6429 4.2816
# 2 19.1397 150.2007 50.5089 -1.0346 9.5529 -3.2417
# 3 47.9675 50.5089 114.5368 10.0824 -15.3254 -1.6091
# 4 1.1671 -1.0346 10.0824 37.2672 -3.5226 4.7561
# 5 -1.6429 9.5529 -15.3254 -3.5226 30.2566 3.1369
# 6 4.2816 -3.2417 -1.6091 4.7561 3.1369 28.7931
#
#
#
# Elastic Compliance Matrix: (Units=1/GPa)
#
#
# Indices 1 2 3 4 5 6 
#
# 1 0.019198 0.000728 -0.009006 0.001970 -0.003182 -0.003255
# 2 0.000728 0.008536 -0.004817 0.000910 -0.005092 0.000988
# 3 -0.009006 -0.004817 0.016115 -0.003567 0.008640 0.001345
# 4 0.001970 0.000910 -0.003567 0.028621 0.001897 -0.005324
# 5 -0.003182 -0.005092 0.008640 0.001897 0.039522 -0.004236
# 6 -0.003255 0.000988 0.001345 -0.005324 -0.004236 0.036742
#
#
# Mechanical properties :
#
#
# Convention : Reuss Voigt Hill
#
# Bulk Modulus (GPa) = 56.62446 63.79639 60.21043
# Shear Modulus (GPa) = 27.65321 34.01800 30.83561
#
# Velocity S-wave (km/s) = 3.51870 3.90269 3.71566
# Velocity P-wave (km/s) = 6.47000 6.99083 6.73545
#
# Compressibility (1/GPa) = 0.01766021
#
# Stress axis : x y z
#
# Youngs Moduli (GPa) = 52.08783 117.14847 62.05212
#
# Poissons Ratio (x) = -0.08527 0.55885
# Poissons Ratio (y) = -0.03791 0.29888
# Poissons Ratio (z) = 0.46911 0.56426
#
# Static dielectric constant tensor:
#      x y z
#    x 3.599410 -0.070200 0.122320 
#    y -0.070200 4.440160 0.047780 
#    z 0.122320 0.047780 4.062150 
# 
# 
# High freq. dielectric constant tensor:
#      x y z
#    x 1.840670 -0.005100 0.007250 
#    y -0.005100 1.904250 0.004900 
#    z 0.007250 0.004900 1.881990 
# 
# From -- ./inp_files/224173.got.cif
#   From: 2010.06.25/outbox.cif.g09.slc.cpg/sg2_113_cif.got.tgz:224173.got - 2010.06.27 13:26:56.
