data_PCOD8013064
_publ_section_title
;
Structure prediction by ZEFSAII (Michael W. Deem and Ramdas Pophale) SiO2 
 PCOD8013064
Probable space group: P -1
;
_chemical_formula_sum "Si O2"
_cell_formula_units_Z 16
_cell_length_a 8.510806
_cell_length_b 9.317357
_cell_length_c 27.218654
_cell_angle_alpha 134.670027
_cell_angle_beta 140.906791
_cell_angle_gamma 73.480911
_cell_volume 786.650746
_symmetry_space_group_name_H-M "P -1"
_symmetry_group_IT_number 2
_symmetry_cell_setting 'triclinic'
loop_
_space_group_symop_operation_xyz
x,y,z
-x,-y,-z
loop_
_atom_site_type_symbol
_atom_site_label
_atom_site_fract_x
_atom_site_fract_y
_atom_site_fract_z
Si Si1 0.783465 0.631941 0.156183
Si Si2 0.509670 0.926075 0.135004
Si Si3 0.832242 0.683450 0.769796
Si Si4 0.885345 0.559373 0.857627
Si Si5 0.164462 0.280704 0.621841
Si Si6 0.776335 0.406541 0.377219
Si Si7 0.363883 0.064238 0.937981
Si Si8 0.842628 0.235267 0.632695
O O1 0.629881 0.752622 0.123204
O O2 0.030755 0.635313 0.181358
O O3 0.957969 0.791626 0.285326
O O4 0.516152 0.353426 0.040164
O O5 0.610484 0.047646 0.134247
O O6 0.654004 0.131016 0.262224
O O7 0.133938 0.752839 0.005402
O O8 0.953410 0.727106 0.865967
O O9 0.485986 0.584814 0.660716
O O10 0.862468 0.480311 0.704652
O O11 0.012592 0.926149 0.837040
O O12 0.530793 0.419071 0.753808
O O13 0.091521 0.410239 0.593157
O O14 0.989962 0.269490 0.624437
O O15 0.000000 0.000000 0.500000
O O16 0.000000 0.500000 0.500000
O O17 0.500000 0.000000 0.000000
O O18 0.500000 0.000000 0.500000
#
# Coordination Sequence:
#
# PCOD8013064 Si02
#       8
#     2   2   2   2   2   2   2   2
#     4  10  22  38  65  95 136 165 208 271 325 390
#     4  11  23  41  65  96 137 176 209 270 338 383
#     4  10  21  40  65  91 126 168 214 276 311 389
#     4   9  19  40  66  98 127 164 215 266 329 383
#     4  11  24  43  70  94 128 172 226 271 321 393
#     4  11  27  46  61  93 141 170 217 276 329 384
#     4  11  18  39  67  98 126 158 226 265 320 391
#     4  11  22  40  68  93 121 175 228 262 321 388
#
# _framework density 20.339396000000001
#
# number of rings (size 3 to 8) (size 9 to 14) (size 15 to 20)
#    0.000    1.500    3.750    4.500    3.500    3.000 
#    6.750    2.500    0.000    0.000    0.000    0.000 
#    0.000    0.000    0.000    0.000    0.000    0.000 
#
# Total GULP energy -198249.080176 kJ/mol
# GULP energy per Si atom -12390.567511 kJ/mol
# Density = 2.029310 g / cm^3
# Si number density = 20.339396 Si / 1000 Ang^3
#
#
#
# Elastic Constant Matrix: (Units=GPa)
#
#
# Indices 1 2 3 4 5 6 
#
# 1 120.6689 43.3416 61.9528 -7.7100 14.2234 16.5401
# 2 43.3416 97.0886 52.6517 -11.7043 3.9710 -1.7463
# 3 61.9528 52.6517 145.6312 -13.4410 -4.0208 13.0854
# 4 -7.7100 -11.7043 -13.4410 37.3998 4.6844 1.9803
# 5 14.2234 3.9710 -4.0208 4.6844 33.6177 2.6060
# 6 16.5401 -1.7463 13.0854 1.9803 2.6060 27.4183
#
#
#
# Elastic Compliance Matrix: (Units=1/GPa)
#
#
# Indices 1 2 3 4 5 6 
#
# 1 0.012968 -0.003496 -0.003763 0.001192 -0.005238 -0.005838
# 2 -0.003496 0.014455 -0.004009 0.002278 -0.001406 0.004912
# 3 -0.003763 -0.004009 0.010453 0.001484 0.003373 -0.003401
# 4 0.001192 0.002278 0.001484 0.028938 -0.004399 -0.002954
# 5 -0.005238 -0.001406 0.003373 -0.004399 0.033252 -0.001382
# 6 -0.005838 0.004912 -0.003401 -0.002954 -0.001382 0.042275
#
#
# Mechanical properties :
#
#
# Convention : Reuss Voigt Hill
#
# Bulk Modulus (GPa) = 65.18539 75.47565 70.33052
# Shear Modulus (GPa) = 29.41365 33.38334 31.39849
#
# Velocity S-wave (km/s) = 3.80694 4.05571 3.93329
# Velocity P-wave (km/s) = 7.17232 7.68898 7.43514
#
# Compressibility (1/GPa) = 0.01534086
#
# Stress axis : x y z
#
# Youngs Moduli (GPa) = 77.11002 69.18066 95.67017
#
# Poissons Ratio (x) = 0.24183 0.36001
# Poissons Ratio (y) = 0.26955 0.38353
# Poissons Ratio (z) = 0.29017 0.27734
#
# Static dielectric constant tensor:
#      x y z
#    x 3.943360 0.348850 0.387970 
#    y 0.348850 4.059460 0.018550 
#    z 0.387970 0.018550 4.168010 
# 
# 
# High freq. dielectric constant tensor:
#      x y z
#    x 1.794490 0.001300 0.002760 
#    y 0.001300 1.785990 -0.004930 
#    z 0.002760 -0.004930 1.805960 
# 
# From -- ./inp_files/616694.got.cif
#   From: 2010.06.25/outbox.cif.g09.slc.cpg/sg2_309_cif.got.tgz:616694.got - 2010.06.27 13:26:56.
