data_PCOD8013649
_publ_section_title
;
Structure prediction by ZEFSAII (Michael W. Deem and Ramdas Pophale) SiO2 
 PCOD8013649
Probable space group: P -1
;
_chemical_formula_sum "Si O2"
_cell_formula_units_Z 16
_cell_length_a 13.825876
_cell_length_b 6.507701
_cell_length_c 9.148478
_cell_angle_alpha 97.375624
_cell_angle_beta 107.164032
_cell_angle_gamma 104.177409
_cell_volume 744.415362
_symmetry_space_group_name_H-M "P -1"
_symmetry_group_IT_number 2
_symmetry_cell_setting 'triclinic'
loop_
_space_group_symop_operation_xyz
x,y,z
-x,-y,-z
loop_
_atom_site_type_symbol
_atom_site_label
_atom_site_fract_x
_atom_site_fract_y
_atom_site_fract_z
Si Si1 0.598753 0.107846 0.453510
Si Si2 0.883711 0.348218 0.405842
Si Si3 0.951364 0.149647 0.890673
Si Si4 0.545130 0.852016 0.109938
Si Si5 0.204501 0.001099 0.442545
Si Si6 0.303872 0.484477 0.608238
Si Si7 0.136000 0.555769 0.920272
Si Si8 0.650777 0.527729 0.042014
O O1 0.606856 0.358230 0.443375
O O2 0.500000 0.000000 0.500000
O O3 0.596346 0.980199 0.288467
O O4 0.709161 0.115481 0.583191
O O5 0.806737 0.465313 0.457498
O O6 0.861971 0.322426 0.221435
O O7 0.000000 0.500000 0.500000
O O8 0.861573 0.113328 0.453262
O O9 0.042441 0.330778 0.863785
O O10 0.877414 0.995445 0.722777
O O11 0.878736 0.270922 0.954004
O O12 0.000000 0.000000 0.000000
O O13 0.633926 0.768295 0.054275
O O14 0.449033 0.642119 0.096864
O O15 0.500000 0.000000 0.000000
O O16 0.281109 0.237545 0.534448
O O17 0.347513 0.539430 0.795145
O O18 0.242613 0.487061 0.991397
#
# Coordination Sequence:
#
# PCOD8013649 Si02
#       8
#     2   2   2   2   2   2   2   2
#     4  11  25  44  67  96 135 180 221 281 347 404
#     4  10  21  40  70  96 124 176 221 276 328 391
#     4  11  26  44  65 101 142 181 221 278 346 411
#     4  11  22  42  70  96 134 169 227 281 332 402
#     4  11  24  44  67  97 137 175 226 282 336 405
#     4  10  22  41  65  97 131 167 225 276 323 403
#     4  10  24  45  67  97 136 175 234 274 337 415
#     4  10  22  42  68  99 127 176 224 281 334 393
#
# _framework density 21.493379000000001
#
# number of rings (size 3 to 8) (size 9 to 14) (size 15 to 20)
#    0.000    1.500    3.750    0.000    3.500    5.000 
#    0.000    0.000    0.000    0.000    0.000    0.000 
#    0.000    0.000    0.000    0.000    0.000    0.000 
#
# Total GULP energy -198323.464230 kJ/mol
# GULP energy per Si atom -12395.216514 kJ/mol
# Density = 2.144446 g / cm^3
# Si number density = 21.493379 Si / 1000 Ang^3
#
#
#
# Elastic Constant Matrix: (Units=GPa)
#
#
# Indices 1 2 3 4 5 6 
#
# 1 124.2887 47.7490 24.9917 -10.9444 -0.7442 -1.5690
# 2 47.7490 136.8748 37.4420 -9.3455 -4.6827 8.5566
# 3 24.9917 37.4420 69.7264 -10.6771 10.8058 1.5750
# 4 -10.9444 -9.3455 -10.6771 34.2086 0.3895 3.6040
# 5 -0.7442 -4.6827 10.8058 0.3895 30.7249 -3.2336
# 6 -1.5690 8.5566 1.5750 3.6040 -3.2336 43.1217
#
#
#
# Elastic Compliance Matrix: (Units=1/GPa)
#
#
# Indices 1 2 3 4 5 6 
#
# 1 0.009642 -0.002795 -0.001799 0.001662 0.000511 0.000871
# 2 -0.002795 0.009768 -0.004570 0.000495 0.002843 -0.001701
# 3 -0.001799 -0.004570 0.019319 0.004378 -0.007675 -0.000806
# 4 0.001662 0.000495 0.004378 0.031606 -0.002140 -0.003000
# 5 0.000511 0.002843 -0.007675 -0.002140 0.035994 0.002613
# 6 0.000871 -0.001701 -0.000806 -0.003000 0.002613 0.024035
#
#
# Mechanical properties :
#
#
# Convention : Reuss Voigt Hill
#
# Bulk Modulus (GPa) = 49.01913 61.25061 55.13487
# Shear Modulus (GPa) = 32.15572 36.32485 34.24029
#
# Velocity S-wave (km/s) = 3.87211 4.11548 3.99565
# Velocity P-wave (km/s) = 6.54577 7.15138 6.85526
#
# Compressibility (1/GPa) = 0.02040020
#
# Stress axis : x y z
#
# Youngs Moduli (GPa) = 103.71615 102.36995 51.76299
#
# Poissons Ratio (x) = 0.28610 0.09315
# Poissons Ratio (y) = 0.28986 0.23657
# Poissons Ratio (z) = 0.18663 0.46785
#
# Static dielectric constant tensor:
#      x y z
#    x 4.001590 -0.039380 0.176850 
#    y -0.039380 4.100660 -0.129650 
#    z 0.176850 -0.129650 3.847930 
# 
# 
# High freq. dielectric constant tensor:
#      x y z
#    x 1.845440 -0.000790 0.021950 
#    y -0.000790 1.851710 -0.002070 
#    z 0.021950 -0.002070 1.832340 
# 
# From -- ./inp_files/81403.got.cif
#   From: 2010.06.25/outbox.cif.g09.slc.cpg/sg2_41_cif.got.tgz:81403.got - 2010.06.27 13:26:56.
