data_PCOD8013396
_publ_section_title
;
Structure prediction by ZEFSAII (Michael W. Deem and Ramdas Pophale) SiO2 
 PCOD8013396
Probable space group: P -1
;
_chemical_formula_sum "Si O2"
_cell_formula_units_Z 16
_cell_length_a 11.008625
_cell_length_b 24.395416
_cell_length_c 11.137988
_cell_angle_alpha 147.846698
_cell_angle_beta 126.449429
_cell_angle_gamma 32.399458
_cell_volume 772.752646
_symmetry_space_group_name_H-M "P -1"
_symmetry_group_IT_number 2
_symmetry_cell_setting 'triclinic'
loop_
_space_group_symop_operation_xyz
x,y,z
-x,-y,-z
loop_
_atom_site_type_symbol
_atom_site_label
_atom_site_fract_x
_atom_site_fract_y
_atom_site_fract_z
Si Si1 0.303952 0.839864 0.643448
Si Si2 0.146093 0.474552 0.644235
Si Si3 0.218495 0.157698 0.822158
Si Si4 0.069372 0.372467 0.643697
Si Si5 0.396416 0.292819 0.887763
Si Si6 0.853504 0.933547 0.599250
Si Si7 0.735460 0.095589 0.522760
Si Si8 0.251905 0.055355 0.185970
O O1 0.581341 0.648376 0.481357
O O2 0.370303 0.848974 0.568999
O O3 0.090987 0.868426 0.566851
O O4 0.215160 0.980943 0.936667
O O5 0.131118 0.415854 0.650577
O O6 0.000000 0.500000 0.500000
O O7 0.026353 0.651111 0.922072
O O8 0.175724 0.160838 0.660425
O O9 0.248621 0.029793 0.658954
O O10 0.461051 0.092048 0.876605
O O11 0.229690 0.303558 0.731707
O O12 0.138491 0.218786 0.358527
O O13 0.777946 0.538594 0.821239
O O14 0.563351 0.256134 0.812493
O O15 0.589122 0.136074 0.803377
O O16 0.911721 0.881308 0.675241
O O17 0.000000 0.000000 0.500000
#
# Coordination Sequence:
#
# PCOD8013396 Si02
#       8
#     2   2   2   2   2   2   2   2
#     4  12  25  43  67  94 140 175 211 277 340 393
#     4  12  26  43  64 100 138 167 217 279 332 386
#     4  11  23  41  71  93 126 177 223 270 321 392
#     4  11  24  40  67 100 125 169 222 279 316 380
#     4  10  21  40  67  95 129 162 219 271 319 373
#     4  11  24  44  66  97 132 175 219 271 330 391
#     4  11  21  45  69  98 130 170 217 274 334 387
#     4  12  24  42  68  97 132 178 224 265 330 396
#
# _framework density 20.705200999999999
#
# number of rings (size 3 to 8) (size 9 to 14) (size 15 to 20)
#    0.000    0.750    7.500    1.500    5.250    1.500 
#    2.250    0.625    0.000    0.000    0.000    0.000 
#    0.000    0.000    0.000    0.000    0.000    0.000 
#
# Total GULP energy -198240.121536 kJ/mol
# GULP energy per Si atom -12390.007596 kJ/mol
# Density = 2.065807 g / cm^3
# Si number density = 20.705201 Si / 1000 Ang^3
#
#
#
# Elastic Constant Matrix: (Units=GPa)
#
#
# Indices 1 2 3 4 5 6 
#
# 1 74.5961 17.4266 5.5648 8.1584 -13.8555 -4.3085
# 2 17.4266 76.2932 21.9829 9.3626 -4.1092 -15.5149
# 3 5.5648 21.9829 95.1064 16.4263 -10.8244 -17.9854
# 4 8.1584 9.3626 16.4263 36.8875 -4.8324 -8.6848
# 5 -13.8555 -4.1092 -10.8244 -4.8324 25.5657 1.9521
# 6 -4.3085 -15.5149 -17.9854 -8.6848 1.9521 32.6991
#
#
#
# Elastic Compliance Matrix: (Units=1/GPa)
#
#
# Indices 1 2 3 4 5 6 
#
# 1 0.015819 -0.003216 0.001130 -0.002088 0.008129 0.000140
# 2 -0.003216 0.015718 -0.002309 -0.001054 -0.000816 0.005532
# 3 0.001130 -0.002309 0.013103 -0.003706 0.004707 0.004995
# 4 -0.002088 -0.001054 -0.003706 0.031074 0.002600 0.005284
# 5 0.008129 -0.000816 0.004707 0.002600 0.045780 0.001230
# 6 0.000140 0.005532 0.004995 0.005284 0.001230 0.037303
#
#
# Mechanical properties :
#
#
# Convention : Reuss Voigt Hill
#
# Bulk Modulus (GPa) = 27.89558 37.32713 32.61135
# Shear Modulus (GPa) = 27.84949 32.43188 30.14069
#
# Velocity S-wave (km/s) = 3.67147 3.96203 3.81951
# Velocity P-wave (km/s) = 5.61025 6.24478 5.93600
#
# Compressibility (1/GPa) = 0.03584798
#
# Stress axis : x y z
#
# Youngs Moduli (GPa) = 63.21515 63.62173 76.32111
#
# Poissons Ratio (x) = 0.20463 -0.08626
# Poissons Ratio (y) = 0.20333 0.17626
# Poissons Ratio (z) = -0.07144 0.14693
#
# Static dielectric constant tensor:
#      x y z
#    x 3.227230 -0.164290 -0.286670 
#    y -0.164290 3.737450 0.199330 
#    z -0.286670 0.199330 3.877720 
# 
# 
# High freq. dielectric constant tensor:
#      x y z
#    x 1.805830 0.000890 -0.024990 
#    y 0.000890 1.818470 0.006760 
#    z -0.024990 0.006760 1.805430 
# 
# From -- ./inp_files/353569.got.cif
#   From: 2010.06.25/outbox.cif.g09.slc.cpg/sg2_177_cif.got.tgz:353569.got - 2010.06.27 13:26:56.
