data_PCOD8013159
_publ_section_title
;
Structure prediction by ZEFSAII (Michael W. Deem and Ramdas Pophale) SiO2 
 PCOD8013159
Probable space group: P -1
;
_chemical_formula_sum "Si O2"
_cell_formula_units_Z 16
_cell_length_a 8.923036
_cell_length_b 23.344449
_cell_length_c 9.588924
_cell_angle_alpha 131.007890
_cell_angle_beta 89.813865
_cell_angle_gamma 48.757638
_cell_volume 725.760164
_symmetry_space_group_name_H-M "P -1"
_symmetry_group_IT_number 2
_symmetry_cell_setting 'triclinic'
loop_
_space_group_symop_operation_xyz
x,y,z
-x,-y,-z
loop_
_atom_site_type_symbol
_atom_site_label
_atom_site_fract_x
_atom_site_fract_y
_atom_site_fract_z
Si Si1 0.970227 0.688655 0.259131
Si Si2 0.655184 0.679558 0.232895
Si Si3 0.201493 0.100374 0.584409
Si Si4 0.318305 0.346240 0.329810
Si Si5 0.475795 0.107694 0.005555
Si Si6 0.249763 0.823107 0.198826
Si Si7 0.916408 0.820464 0.728255
Si Si8 0.482930 0.361506 0.611693
O O1 0.674232 0.762688 0.360649
O O2 0.970900 0.750903 0.239275
O O3 0.954092 0.735004 0.482357
O O4 0.294057 0.501376 0.937275
O O5 0.528422 0.705139 0.124867
O O6 0.415983 0.753506 0.469887
O O7 0.000000 0.500000 0.000000
O O8 0.941894 0.170883 0.786546
O O9 0.500000 0.000000 0.500000
O O10 0.321205 0.989546 0.288896
O O11 0.350228 0.248529 0.240477
O O12 0.286369 0.418144 0.573301
O O13 0.000000 0.500000 0.500000
O O14 0.603170 0.237570 0.052258
O O15 0.190749 0.172677 0.115784
O O16 0.677109 0.992649 0.956037
O O17 0.000000 0.000000 0.500000
O O18 0.236110 0.720480 0.592587
#
# Coordination Sequence:
#
# PCOD8013159 Si02
#       8
#     2   2   2   2   2   2   2   2
#     4  10  21  40  65  97 131 176 222 286 343 405
#     4  10  21  41  69  98 137 184 233 279 340 418
#     4  11  24  41  69  94 138 185 230 285 344 419
#     4  12  27  45  68 103 148 181 228 294 352 417
#     4  10  23  44  64  94 136 178 223 289 347 402
#     4  12  25  46  71 104 140 186 237 283 353 426
#     4  10  22  42  67  98 132 172 231 291 342 400
#     4  11  24  40  69 100 133 179 236 276 341 417
#
# _framework density 22.045849
#
# number of rings (size 3 to 8) (size 9 to 14) (size 15 to 20)
#    0.000    1.250    1.250    4.875    3.500    3.500 
#    2.250    1.250    0.000    0.000    0.000    0.000 
#    0.000    0.000    0.000    0.000    0.000    0.000 
#
# Total GULP energy -198273.578427 kJ/mol
# GULP energy per Si atom -12392.098652 kJ/mol
# Density = 2.199567 g / cm^3
# Si number density = 22.045849 Si / 1000 Ang^3
#
#
#
# Elastic Constant Matrix: (Units=GPa)
#
#
# Indices 1 2 3 4 5 6 
#
# 1 140.1914 36.5400 25.6139 12.2717 -13.3168 17.2652
# 2 36.5400 78.4824 20.7439 2.3742 5.9958 2.4993
# 3 25.6139 20.7439 77.8591 9.0266 -4.5769 20.0017
# 4 12.2717 2.3742 9.0266 29.0222 5.8770 -6.0994
# 5 -13.3168 5.9958 -4.5769 5.8770 39.6633 -3.7147
# 6 17.2652 2.4993 20.0017 -6.0994 -3.7147 35.6193
#
#
#
# Elastic Compliance Matrix: (Units=1/GPa)
#
#
# Indices 1 2 3 4 5 6 
#
# 1 0.009866 -0.004659 0.000253 -0.005846 0.004431 -0.005137
# 2 -0.004659 0.016222 -0.004482 0.003794 -0.004741 0.003792
# 3 0.000253 -0.004482 0.017899 -0.008221 0.003020 -0.010952
# 4 -0.005846 0.003794 -0.008221 0.043831 -0.008689 0.013783
# 5 0.004431 -0.004741 0.003020 -0.008689 0.028866 -0.001989
# 6 -0.005137 0.003792 -0.010952 0.013783 -0.001989 0.038601
#
#
# Mechanical properties :
#
#
# Convention : Reuss Voigt Hill
#
# Bulk Modulus (GPa) = 38.15028 51.36985 44.76006
# Shear Modulus (GPa) = 27.50307 35.10329 31.30318
#
# Velocity S-wave (km/s) = 3.53588 3.99467 3.77226
# Velocity P-wave (km/s) = 5.83202 6.68046 6.27061
#
# Compressibility (1/GPa) = 0.02621213
#
# Stress axis : x y z
#
# Youngs Moduli (GPa) = 101.35425 61.64463 55.87032
#
# Poissons Ratio (x) = 0.28718 -0.01415
# Poissons Ratio (y) = 0.47217 0.25041
# Poissons Ratio (z) = -0.02567 0.27629
#
# Static dielectric constant tensor:
#      x y z
#    x 4.566030 0.410260 -0.328820 
#    y 0.410260 4.092290 -0.249020 
#    z -0.328820 -0.249020 4.073610 
# 
# 
# High freq. dielectric constant tensor:
#      x y z
#    x 1.887020 0.018890 -0.013760 
#    y 0.018890 1.858670 -0.006960 
#    z -0.013760 -0.006960 1.860470 
# 
# From -- ./inp_files/223812.got.cif
#   From: 2010.06.25/outbox.cif.g09.slc.cpg/sg2_112_cif.got.tgz:223812.got - 2010.06.27 13:26:56.
