data_PCOD8013193
_publ_section_title
;
Structure prediction by ZEFSAII (Michael W. Deem and Ramdas Pophale) SiO2 
 PCOD8013193
Probable space group: P -1
;
_chemical_formula_sum "Si O2"
_cell_formula_units_Z 12
_cell_length_a 9.491218
_cell_length_b 13.239192
_cell_length_c 8.840076
_cell_angle_alpha 142.140063
_cell_angle_beta 67.689526
_cell_angle_gamma 92.124249
_cell_volume 559.166826
_symmetry_space_group_name_H-M "P -1"
_symmetry_group_IT_number 2
_symmetry_cell_setting 'triclinic'
loop_
_space_group_symop_operation_xyz
x,y,z
-x,-y,-z
loop_
_atom_site_type_symbol
_atom_site_label
_atom_site_fract_x
_atom_site_fract_y
_atom_site_fract_z
Si Si1 0.679606 0.079237 0.571481
Si Si2 0.644527 0.719989 0.229750
Si Si3 0.678334 0.241364 0.069388
Si Si4 0.645324 0.634921 0.480757
Si Si5 0.000244 0.592676 0.271696
Si Si6 0.000741 0.023021 0.204028
O O1 0.517378 0.261715 0.782328
O O2 0.834457 0.008077 0.307434
O O3 0.637717 0.916034 0.440177
O O4 0.743659 0.127448 0.755676
O O5 0.618230 0.692269 0.383995
O O6 0.822053 0.553769 0.894640
O O7 0.637094 0.445945 0.281974
O O8 0.515196 0.222308 0.183564
O O9 0.831978 0.158199 0.026539
O O10 0.823833 0.621375 0.457940
O O11 0.999202 0.791150 0.508461
O O12 0.000000 0.500000 0.000000
O O13 0.000000 0.000000 0.000000
#
# Coordination Sequence:
#
# PCOD8013193 Si02
#       6
#     2   2   2   2   2   2
#     4  11  23  40  64  92 126 167 212 259 313 376
#     4  10  22  40  63  92 125 164 210 260 312 370
#     4  11  23  40  64  92 126 167 212 259 313 376
#     4  10  22  40  63  92 125 164 210 260 312 370
#     4  10  21  40  66  89 122 167 207 253 309 370
#     4  12  26  42  65  95 129 165 209 265 316 372
#
# _framework density 21.4605
#
# number of rings (size 3 to 8) (size 9 to 14) (size 15 to 20)
#    0.000    1.333    0.000    6.500    0.000   10.667 
#    0.000    2.500    0.000    0.000    0.000    0.000 
#    0.000    0.000    0.000    0.000    0.000    0.000 
#
# Total GULP energy -148721.589086 kJ/mol
# GULP energy per Si atom -12393.465757 kJ/mol
# Density = 2.141166 g / cm^3
# Si number density = 21.460500 Si / 1000 Ang^3
#
#
#
# Elastic Constant Matrix: (Units=GPa)
#
#
# Indices 1 2 3 4 5 6 
#
# 1 97.9539 61.0153 44.7138 -17.2501 -38.3583 4.4485
# 2 61.0153 140.1402 47.3616 -8.2492 -19.2422 -5.5082
# 3 44.7138 47.3616 66.9135 -1.7574 -13.7337 -13.7765
# 4 -17.2501 -8.2492 -1.7574 27.7354 0.0731 9.9707
# 5 -38.3583 -19.2422 -13.7337 0.0731 55.1551 0.7853
# 6 4.4485 -5.5082 -13.7765 9.9707 0.7853 21.3181
#
#
#
# Elastic Compliance Matrix: (Units=1/GPa)
#
#
# Indices 1 2 3 4 5 6 
#
# 1 0.052808 -0.006475 -0.036537 0.050407 0.026169 -0.060844
# 2 -0.006475 0.010750 -0.002979 -0.002197 -0.001538 0.003288
# 3 -0.036537 -0.002979 0.049415 -0.041571 -0.014927 0.058781
# 4 0.050407 -0.002197 -0.041571 0.093797 0.024992 -0.082741
# 5 0.026169 -0.001538 -0.014927 0.024992 0.032448 -0.028389
# 6 -0.060844 0.003288 0.058781 -0.082741 -0.028389 0.138186
#
#
# Mechanical properties :
#
#
# Convention : Reuss Voigt Hill
#
# Bulk Modulus (GPa) = 47.63763 67.90991 57.77377
# Shear Modulus (GPa) = 10.49576 30.96952 20.73264
#
# Velocity S-wave (km/s) = 2.21390 3.80293 3.11156
# Velocity P-wave (km/s) = 5.36481 7.14114 6.31573
#
# Compressibility (1/GPa) = 0.02099181
#
# Stress axis : x y z
#
# Youngs Moduli (GPa) = 18.93645 93.02060 20.23686
#
# Poissons Ratio (x) = 0.60233 0.73939
# Poissons Ratio (y) = 0.12262 0.06028
# Poissons Ratio (z) = 0.69188 0.27707
#
# Static dielectric constant tensor:
#      x y z
#    x 4.342380 -0.078400 -0.349890 
#    y -0.078400 4.197810 -0.161620 
#    z -0.349890 -0.161620 4.096680 
# 
# 
# High freq. dielectric constant tensor:
#      x y z
#    x 1.854760 0.006320 -0.021620 
#    y 0.006320 1.846230 0.006030 
#    z -0.021620 0.006030 1.841340 
# 
# From -- ./inp_files/191046.got.cif
#   From: 2010.06.25/outbox.cif.g09.slc.cpg/sg2_96_cif.got.tgz:191046.got - 2010.06.27 13:26:56.
