data_PCOD8013246
_publ_section_title
;
Structure prediction by ZEFSAII (Michael W. Deem and Ramdas Pophale) SiO2 
 PCOD8013246
Probable space group: P -1
;
_chemical_formula_sum "Si O2"
_cell_formula_units_Z 16
_cell_length_a 9.076864
_cell_length_b 14.734305
_cell_length_c 11.849408
_cell_angle_alpha 71.044291
_cell_angle_beta 127.781922
_cell_angle_gamma 139.934848
_cell_volume 773.196955
_symmetry_space_group_name_H-M "P -1"
_symmetry_group_IT_number 2
_symmetry_cell_setting 'triclinic'
loop_
_space_group_symop_operation_xyz
x,y,z
-x,-y,-z
loop_
_atom_site_type_symbol
_atom_site_label
_atom_site_fract_x
_atom_site_fract_y
_atom_site_fract_z
Si Si1 0.682276 0.703639 0.071133
Si Si2 0.279618 0.400756 0.092942
Si Si3 0.223938 0.114013 0.302358
Si Si4 0.958939 0.686216 0.601450
Si Si5 0.455343 0.374047 0.408215
Si Si6 0.221538 0.909350 0.976947
Si Si7 0.565662 0.857670 0.857728
Si Si8 0.160754 0.882825 0.402335
O O1 0.393608 0.552171 0.059547
O O2 0.969547 0.785103 0.240664
O O3 0.664304 0.651518 0.960587
O O4 0.668837 0.813491 0.008359
O O5 0.457935 0.435423 0.269636
O O6 0.938033 0.255935 0.013737
O O7 0.464542 0.263299 0.429373
O O8 0.349980 0.129505 0.235781
O O9 0.115168 0.977651 0.372542
O O10 0.978951 0.097999 0.185165
O O11 0.742333 0.513762 0.551299
O O12 0.822516 0.709695 0.612968
O O13 0.229608 0.740793 0.762637
O O14 0.047280 0.773817 0.493435
O O15 0.281917 0.984168 0.095324
O O16 0.500000 0.000000 0.000000
O O17 0.500000 0.000000 0.500000
#
# Coordination Sequence:
#
# PCOD8013246 Si02
#       8
#     2   2   2   2   2   2   2   2
#     4  11  22  41  67  98 130 162 224 277 321 377
#     4  10  21  40  66  93 129 172 210 275 322 379
#     4  11  22  40  66  94 128 169 219 274 316 389
#     4  11  25  42  68  91 136 180 211 268 337 398
#     4  10  22  46  63  92 135 178 217 258 338 400
#     4  11  22  39  64  97 131 171 213 265 331 392
#     4  12  21  40  67 100 126 172 225 268 326 388
#     4  12  24  42  66 101 133 169 216 277 331 383
#
# _framework density 20.693304000000001
#
# number of rings (size 3 to 8) (size 9 to 14) (size 15 to 20)
#    0.000    1.000    6.250    2.625    0.000    1.000 
#    4.500    5.000    0.000    0.000    0.000    0.000 
#    0.000    0.000    0.000    0.000    0.000    0.000 
#
# Total GULP energy -198308.370460 kJ/mol
# GULP energy per Si atom -12394.273154 kJ/mol
# Density = 2.064620 g / cm^3
# Si number density = 20.693304 Si / 1000 Ang^3
#
#
#
# Elastic Constant Matrix: (Units=GPa)
#
#
# Indices 1 2 3 4 5 6 
#
# 1 62.7954 34.5818 22.3563 8.2284 -1.7536 1.9208
# 2 34.5818 91.8661 16.5598 16.1692 7.9776 6.0351
# 3 22.3563 16.5598 87.7722 13.2274 3.4668 7.0892
# 4 8.2284 16.1692 13.2274 35.2549 0.6266 -3.7049
# 5 -1.7536 7.9776 3.4668 0.6266 29.7004 11.3043
# 6 1.9208 6.0351 7.0892 -3.7049 11.3043 32.5793
#
#
#
# Elastic Compliance Matrix: (Units=1/GPa)
#
#
# Indices 1 2 3 4 5 6 
#
# 1 0.021838 -0.007777 -0.004219 -0.000052 0.003994 -0.000321
# 2 -0.007777 0.015152 0.000210 -0.005322 -0.003802 -0.001680
# 3 -0.004219 0.000210 0.013361 -0.004426 -0.000638 -0.002980
# 4 -0.000052 -0.005322 -0.004426 0.033138 -0.001075 0.006094
# 5 0.003994 -0.003802 -0.000638 -0.001075 0.040140 -0.013442
# 6 -0.000321 -0.001680 -0.002980 0.006094 -0.013442 0.037030
#
#
# Mechanical properties :
#
#
# Convention : Reuss Voigt Hill
#
# Bulk Modulus (GPa) = 37.34207 43.26994 40.30601
# Shear Modulus (GPa) = 25.88574 30.76932 28.32753
#
# Velocity S-wave (km/s) = 3.54068 3.86025 3.70391
# Velocity P-wave (km/s) = 5.89914 6.38938 6.14915
#
# Compressibility (1/GPa) = 0.02677945
#
# Stress axis : x y z
#
# Youngs Moduli (GPa) = 45.79271 65.99691 74.84450
#
# Poissons Ratio (x) = 0.51323 0.31577
# Poissons Ratio (y) = 0.35611 -0.01571
# Poissons Ratio (z) = 0.19320 -0.01385
#
# Static dielectric constant tensor:
#      x y z
#    x 3.639680 -0.069210 -0.111770 
#    y -0.069210 4.372070 0.194010 
#    z -0.111770 0.194010 3.908100 
# 
# 
# High freq. dielectric constant tensor:
#      x y z
#    x 1.791130 0.001360 -0.017400 
#    y 0.001360 1.829340 0.019550 
#    z -0.017400 0.019550 1.805570 
# 
# From -- ./inp_files/282913.got.cif
#   From: 2010.06.25/outbox.cif.g09.slc.cpg/sg2_142_cif.got.tgz:282913.got - 2010.06.27 13:26:56.
