data_PCOD8013416
_publ_section_title
;
Structure prediction by ZEFSAII (Michael W. Deem and Ramdas Pophale) SiO2 
 PCOD8013416
Probable space group: P -1
;
_chemical_formula_sum "Si O2"
_cell_formula_units_Z 12
_cell_length_a 15.617874
_cell_length_b 12.633755
_cell_length_c 9.335605
_cell_angle_alpha 128.250613
_cell_angle_beta 144.715051
_cell_angle_gamma 27.486316
_cell_volume 451.365082
_symmetry_space_group_name_H-M "P -1"
_symmetry_group_IT_number 2
_symmetry_cell_setting 'triclinic'
loop_
_space_group_symop_operation_xyz
x,y,z
-x,-y,-z
loop_
_atom_site_type_symbol
_atom_site_label
_atom_site_fract_x
_atom_site_fract_y
_atom_site_fract_z
Si Si1 0.741967 0.994852 0.406535
Si Si2 0.407963 0.388698 0.509728
Si Si3 0.929060 0.667739 0.928343
Si Si4 0.787831 0.221057 0.284596
Si Si5 0.241643 0.332461 0.815804
Si Si6 0.450331 0.233501 0.729921
O O1 0.725401 0.851701 0.299951
O O2 0.044903 0.805219 0.612738
O O3 0.671905 0.136510 0.571115
O O4 0.516797 0.191564 0.138139
O O5 0.156130 0.603167 0.234141
O O6 0.445929 0.507456 0.731015
O O7 0.340781 0.326782 0.493413
O O8 0.979347 0.580403 0.759707
O O9 0.000000 0.500000 0.000000
O O10 0.629485 0.962149 0.774722
O O11 0.640125 0.220006 0.990991
O O12 0.000000 0.000000 0.500000
O O13 0.211663 0.413281 0.678538
#
# Coordination Sequence:
#
# PCOD8013416 Si02
#       6
#     2   2   2   2   2   2
#     4  10  22  41  67  95 130 172 215 265 324 385
#     4  11  25  42  67  97 133 169 218 270 321 385
#     4  11  23  42  67  96 133 173 214 264 323 384
#     4  12  23  43  68  94 130 174 218 267 324 383
#     4  10  21  40  67  97 129 170 216 263 324 386
#     4  12  25  43  67 100 131 171 217 268 324 383
#
# _framework density 26.586016999999998
#
# number of rings (size 3 to 8) (size 9 to 14) (size 15 to 20)
#    0.000    1.000    3.333    4.500    0.000    6.667 
#    0.000    2.500    0.000    0.000    0.000    0.000 
#    0.000    0.000    0.000    0.000    0.000    0.000 
#
# Total GULP energy -148808.336401 kJ/mol
# GULP energy per Si atom -12400.694700 kJ/mol
# Density = 2.652551 g / cm^3
# Si number density = 26.586017 Si / 1000 Ang^3
#
#
#
# Elastic Constant Matrix: (Units=GPa)
#
#
# Indices 1 2 3 4 5 6 
#
# 1 118.3965 23.5038 66.1084 24.4587 -21.0949 -14.2030
# 2 23.5038 138.1357 38.7827 31.0494 -16.7340 -18.1885
# 3 66.1084 38.7827 103.6365 13.2381 -28.4221 -6.3930
# 4 24.4587 31.0494 13.2381 34.4377 6.6083 -8.1119
# 5 -21.0949 -16.7340 -28.4221 6.6083 48.7009 -2.3906
# 6 -14.2030 -18.1885 -6.3930 -8.1119 -2.3906 45.7017
#
#
#
# Elastic Compliance Matrix: (Units=1/GPa)
#
#
# Indices 1 2 3 4 5 6 
#
# 1 0.016153 0.003188 -0.008548 -0.011189 0.004787 0.003358
# 2 0.003188 0.011176 -0.003181 -0.011324 0.005061 0.003248
# 3 -0.008548 -0.003181 0.017555 0.000938 0.005272 -0.001025
# 4 -0.011189 -0.011324 0.000938 0.049745 -0.014930 0.000196
# 5 0.004787 0.005061 0.005272 -0.014930 0.029602 0.003137
# 6 0.003358 0.003248 -0.001025 0.000196 0.003137 0.024273
#
#
# Mechanical properties :
#
#
# Convention : Reuss Voigt Hill
#
# Bulk Modulus (GPa) = 35.96818 68.55093 52.25956
# Shear Modulus (GPa) = 28.59530 41.21966 34.90748
#
# Velocity S-wave (km/s) = 3.28316 3.94182 3.62747
# Velocity P-wave (km/s) = 5.28493 6.82333 6.10280
#
# Compressibility (1/GPa) = 0.02780235
#
# Stress axis : x y z
#
# Youngs Moduli (GPa) = 61.90714 89.47701 56.96361
#
# Poissons Ratio (x) = -0.28529 0.48692
# Poissons Ratio (y) = -0.19739 0.18123
# Poissons Ratio (z) = 0.52918 0.28466
#
# Static dielectric constant tensor:
#      x y z
#    x 4.782540 -0.094670 -0.164530 
#    y -0.094670 4.827260 -0.114920 
#    z -0.164530 -0.114920 6.117520 
# 
# 
# High freq. dielectric constant tensor:
#      x y z
#    x 2.059840 -0.000990 -0.012780 
#    y -0.000990 2.070390 0.002300 
#    z -0.012780 0.002300 2.103590 
# 
# From -- ./inp_files/245798.got.cif
#   From: 2010.06.25/outbox.cif.g09.slc.cpg/sg2_123_cif.got.tgz:245798.got - 2010.06.27 13:26:56.
