data_PCOD8013344
_publ_section_title
;
Structure prediction by ZEFSAII (Michael W. Deem and Ramdas Pophale) SiO2 
 PCOD8013344
Probable space group: P -1
;
_chemical_formula_sum "Si O2"
_cell_formula_units_Z 16
_cell_length_a 13.708993
_cell_length_b 9.604168
_cell_length_c 20.306146
_cell_angle_alpha 54.015245
_cell_angle_beta 157.105880
_cell_angle_gamma 113.808655
_cell_volume 756.958547
_symmetry_space_group_name_H-M "P -1"
_symmetry_group_IT_number 2
_symmetry_cell_setting 'triclinic'
loop_
_space_group_symop_operation_xyz
x,y,z
-x,-y,-z
loop_
_atom_site_type_symbol
_atom_site_label
_atom_site_fract_x
_atom_site_fract_y
_atom_site_fract_z
Si Si1 0.927597 0.117254 0.855094
Si Si2 0.371742 0.207784 0.532193
Si Si3 0.763673 0.114074 0.515514
Si Si4 0.148121 0.419155 0.918772
Si Si5 0.320960 0.114774 0.669974
Si Si6 0.773292 0.522097 0.905802
Si Si7 0.827369 0.103444 0.057117
Si Si8 0.238962 0.771014 0.663761
O O1 0.597861 0.259176 0.620741
O O2 0.104083 0.237050 0.916840
O O3 0.972484 0.979812 0.858687
O O4 0.000000 0.000000 0.000000
O O5 0.455702 0.147234 0.677280
O O6 0.074850 0.386650 0.304435
O O7 0.363560 0.036925 0.531935
O O8 0.531019 0.309987 0.348724
O O9 0.857641 0.154351 0.491381
O O10 0.027155 0.023894 0.753109
O O11 0.115488 0.416968 0.977116
O O12 0.453567 0.406873 0.095367
O O13 0.005176 0.279084 0.444570
O O14 0.278508 0.924019 0.692524
O O15 0.531339 0.098038 0.864131
O O16 0.758916 0.323351 0.964325
O O17 0.000000 0.500000 0.000000
#
# Coordination Sequence:
#
# PCOD8013344 Si02
#       8
#     2   2   2   2   2   2   2   2
#     4  12  22  39  61  93 132 163 211 262 309 379
#     4  11  22  39  64  93 128 170 207 260 318 378
#     4  10  23  42  62  90 133 168 207 261 323 372
#     4  11  22  40  62  94 126 170 209 259 319 377
#     4  10  21  40  67  90 123 166 216 261 317 369
#     4  11  24  39  61  91 134 172 207 251 323 385
#     4  12  23  40  65  98 125 168 213 260 317 379
#     4   9  20  44  65  88 124 170 208 266 316 374
#
# _framework density 21.137222999999999
#
# number of rings (size 3 to 8) (size 9 to 14) (size 15 to 20)
#    0.000    1.250    3.750    3.375    1.750    3.000 
#    0.000    2.500    0.000    0.000    0.000    0.000 
#    0.000    0.000    0.000    0.000    0.000    0.000 
#
# Total GULP energy -198339.531226 kJ/mol
# GULP energy per Si atom -12396.220702 kJ/mol
# Density = 2.108911 g / cm^3
# Si number density = 21.137223 Si / 1000 Ang^3
#
#
#
# Elastic Constant Matrix: (Units=GPa)
#
#
# Indices 1 2 3 4 5 6 
#
# 1 47.8206 20.8807 24.3286 12.4892 22.8755 -3.5118
# 2 20.8807 73.1580 48.8480 -9.7478 1.6563 -9.2031
# 3 24.3286 48.8480 138.1437 4.4261 3.6546 -1.5113
# 4 12.4892 -9.7478 4.4261 37.2474 2.1798 0.9000
# 5 22.8755 1.6563 3.6546 2.1798 36.8306 4.5700
# 6 -3.5118 -9.2031 -1.5113 0.9000 4.5700 23.2135
#
#
#
# Elastic Compliance Matrix: (Units=1/GPa)
#
#
# Indices 1 2 3 4 5 6 
#
# 1 0.045427 -0.011926 -0.002436 -0.016651 -0.027448 0.008035
# 2 -0.011926 0.023452 -0.006618 0.010455 0.005704 0.005534
# 3 -0.002436 -0.006618 0.010015 -0.002118 0.001253 -0.002505
# 4 -0.016651 0.010455 -0.002118 0.034975 0.008196 -0.001481
# 5 -0.027448 0.005704 0.001253 0.008196 0.044689 -0.010925
# 6 0.008035 0.005534 -0.002505 -0.001481 -0.010925 0.048533
#
#
# Mechanical properties :
#
#
# Convention : Reuss Voigt Hill
#
# Bulk Modulus (GPa) = 27.07429 49.69300 38.38365
# Shear Modulus (GPa) = 19.13064 30.46263 24.79664
#
# Velocity S-wave (km/s) = 3.01170 3.80041 3.42881
# Velocity P-wave (km/s) = 4.99304 6.54357 5.82017
#
# Compressibility (1/GPa) = 0.03693541
#
# Stress axis : x y z
#
# Youngs Moduli (GPa) = 22.01339 42.64081 99.84910
#
# Poissons Ratio (x) = 0.50853 0.24319
# Poissons Ratio (y) = 0.26253 0.66077
# Poissons Ratio (z) = 0.05362 0.28218
#
# Static dielectric constant tensor:
#      x y z
#    x 3.888470 -0.226000 0.313890 
#    y -0.226000 3.779220 -0.008510 
#    z 0.313890 -0.008510 4.175090 
# 
# 
# High freq. dielectric constant tensor:
#      x y z
#    x 1.818310 -0.019440 0.014830 
#    y -0.019440 1.810670 0.000570 
#    z 0.014830 0.000570 1.843620 
# 
# From -- ./inp_files/187957.got.cif
#   From: 2010.06.25/outbox.cif.g09.slc.cpg/sg2_94_cif.got.tgz:187957.got - 2010.06.27 13:26:56.
