data_PCOD8013019
_publ_section_title
;
Structure prediction by ZEFSAII (Michael W. Deem and Ramdas Pophale) SiO2 
 PCOD8013019
Probable space group: P -1
;
_chemical_formula_sum "Si O2"
_cell_formula_units_Z 16
_cell_length_a 13.610770
_cell_length_b 8.989817
_cell_length_c 8.778695
_cell_angle_alpha 107.264577
_cell_angle_beta 135.392414
_cell_angle_gamma 72.473870
_cell_volume 713.835584
_symmetry_space_group_name_H-M "P -1"
_symmetry_group_IT_number 2
_symmetry_cell_setting 'triclinic'
loop_
_space_group_symop_operation_xyz
x,y,z
-x,-y,-z
loop_
_atom_site_type_symbol
_atom_site_label
_atom_site_fract_x
_atom_site_fract_y
_atom_site_fract_z
Si Si1 0.096331 0.461871 0.946778
Si Si2 0.660093 0.218207 0.420370
Si Si3 0.089019 0.752850 0.464436
Si Si4 0.309642 0.129533 0.692236
Si Si5 0.791302 0.220727 0.889826
Si Si6 0.551817 0.085416 0.730067
Si Si7 0.994458 0.927650 0.704365
Si Si8 0.352862 0.228510 0.099524
O O1 0.152804 0.612562 0.983077
O O2 0.235102 0.338012 0.100103
O O3 0.000000 0.500000 0.000000
O O4 0.003347 0.388874 0.694277
O O5 0.749560 0.310844 0.429438
O O6 0.754497 0.182475 0.664960
O O7 0.501735 0.301524 0.305553
O O8 0.638978 0.053423 0.267137
O O9 0.088983 0.817042 0.653935
O O10 0.026877 0.893336 0.322953
O O11 0.418068 0.179444 0.700345
O O12 0.151579 0.144106 0.455657
O O13 0.310232 0.233736 0.876060
O O14 0.651263 0.215189 0.834965
O O15 0.916317 0.087319 0.045064
O O16 0.500000 0.000000 0.500000
O O17 0.639487 0.949253 0.886743
#
# Coordination Sequence:
#
# PCOD8013019 Si02
#       8
#     2   2   2   2   2   2   2   2
#     4  12  26  46  64  93 136 181 217 261 332 401
#     4  10  21  40  65 101 127 166 218 273 322 387
#     4  10  21  44  67  98 125 174 222 263 332 390
#     4  10  21  40  69 101 126 169 220 268 329 380
#     4  12  25  41  62 101 135 168 218 271 324 384
#     4  11  22  42  66 103 131 159 219 280 322 376
#     4  10  23  40  73  97 127 167 225 277 320 378
#     4  11  23  44  71  92 132 176 220 264 326 395
#
# _framework density 22.414126
#
# number of rings (size 3 to 8) (size 9 to 14) (size 15 to 20)
#    0.000    1.250    5.000    2.250    5.250    4.000 
#    0.000    0.625    0.000    0.000    0.000    0.000 
#    0.000    0.000    0.000    0.000    0.000    0.000 
#
# Total GULP energy -198338.780990 kJ/mol
# GULP energy per Si atom -12396.173812 kJ/mol
# Density = 2.236311 g / cm^3
# Si number density = 22.414126 Si / 1000 Ang^3
#
#
#
# Elastic Constant Matrix: (Units=GPa)
#
#
# Indices 1 2 3 4 5 6 
#
# 1 181.6542 44.4707 40.7846 5.5986 28.0274 -3.2511
# 2 44.4707 56.3691 23.4881 17.1160 8.9647 6.5827
# 3 40.7846 23.4881 99.7612 7.0014 12.6837 -5.1941
# 4 5.5986 17.1160 7.0014 27.0240 2.0538 12.5094
# 5 28.0274 8.9647 12.6837 2.0538 39.1403 9.5483
# 6 -3.2511 6.5827 -5.1941 12.5094 9.5483 39.8883
#
#
#
# Elastic Compliance Matrix: (Units=1/GPa)
#
#
# Indices 1 2 3 4 5 6 
#
# 1 0.007869 -0.005709 -0.001331 0.001781 -0.004457 0.001918
# 2 -0.005709 0.028511 -0.003248 -0.015745 -0.000428 -0.000553
# 3 -0.001331 -0.003248 0.012025 -0.002113 -0.002907 0.003352
# 4 0.001781 -0.015745 -0.002113 0.053987 0.003941 -0.015406
# 5 -0.004457 -0.000428 -0.002907 0.003941 0.031902 -0.009544
# 6 0.001918 -0.000553 0.003352 -0.015406 -0.009544 0.032870
#
#
# Mechanical properties :
#
#
# Convention : Reuss Voigt Hill
#
# Bulk Modulus (GPa) = 35.93450 61.69682 48.81566
# Shear Modulus (GPa) = 25.37853 36.47991 30.92922
#
# Velocity S-wave (km/s) = 3.36855 4.03866 3.71873
# Velocity P-wave (km/s) = 5.58537 7.02377 6.34546
#
# Compressibility (1/GPa) = 0.02782841
#
# Stress axis : x y z
#
# Youngs Moduli (GPa) = 127.08773 35.07384 83.15845
#
# Poissons Ratio (x) = 0.20024 0.11070
# Poissons Ratio (y) = 0.72556 0.27010
# Poissons Ratio (z) = 0.16917 0.11392
#
# Static dielectric constant tensor:
#      x y z
#    x 4.601960 -0.037260 0.307060 
#    y -0.037260 3.593650 0.087540 
#    z 0.307060 0.087540 4.043270 
# 
# 
# High freq. dielectric constant tensor:
#      x y z
#    x 1.909720 -0.006460 0.017560 
#    y -0.006460 1.825410 0.013140 
#    z 0.017560 0.013140 1.886970 
# 
# From -- ./inp_files/299381.got.cif
#   From: 2010.06.25/outbox.cif.g09.slc.cpg/sg2_150_cif.got.tgz:299381.got - 2010.06.27 13:26:56.
