data_PCOD8013852
_publ_section_title
;
Structure prediction by ZEFSAII (Michael W. Deem and Ramdas Pophale) SiO2 
 PCOD8013852
Probable space group: P -1
;
_chemical_formula_sum "Si O2"
_cell_formula_units_Z 12
_cell_length_a 15.313671
_cell_length_b 6.521789
_cell_length_c 8.697182
_cell_angle_alpha 82.487980
_cell_angle_beta 122.489550
_cell_angle_gamma 64.377990
_cell_volume 580.509259
_symmetry_space_group_name_H-M "P -1"
_symmetry_group_IT_number 2
_symmetry_cell_setting 'triclinic'
loop_
_space_group_symop_operation_xyz
x,y,z
-x,-y,-z
loop_
_atom_site_type_symbol
_atom_site_label
_atom_site_fract_x
_atom_site_fract_y
_atom_site_fract_z
Si Si1 0.150649 0.882161 0.502880
Si Si2 0.372316 0.703567 0.952361
Si Si3 0.078055 0.587910 0.645489
Si Si4 0.427084 0.345075 0.293380
Si Si5 0.694140 0.899465 0.912863
Si Si6 0.311866 0.773976 0.376733
O O1 0.250528 0.878658 0.709345
O O2 0.140675 0.653221 0.563569
O O3 0.198001 0.842467 0.376241
O O4 0.013162 0.160087 0.359250
O O5 0.500000 0.500000 0.000000
O O6 0.345134 0.547019 0.057791
O O7 0.386918 0.897847 0.044922
O O8 0.000000 0.500000 0.500000
O O9 0.184396 0.370330 0.882097
O O10 0.406044 0.124468 0.275712
O O11 0.373970 0.489666 0.393000
O O12 0.576836 0.232229 0.426823
O O13 0.746351 0.012432 0.834467
#
# Coordination Sequence:
#
# PCOD8013852 Si02
#       6
#     2   2   2   2   2   2
#     4  11  23  42  65  91 125 166 209 260 310 364
#     4  11  21  39  65  94 126 162 209 258 317 368
#     4  11  24  43  65  90 123 166 216 262 301 364
#     4  10  21  41  62  94 134 165 197 254 319 376
#     4  11  23  41  65  93 129 165 209 254 310 374
#     4  10  23  40  63  94 132 163 201 256 318 373
#
# _framework density 20.671506000000001
#
# number of rings (size 3 to 8) (size 9 to 14) (size 15 to 20)
#    0.000    1.333    5.000    0.500    0.000    2.667 
#    3.000    1.667    0.000    0.000    0.000    0.000 
#    0.000    0.000    0.000    0.000    0.000    0.000 
#
# Total GULP energy -148822.601496 kJ/mol
# GULP energy per Si atom -12401.883458 kJ/mol
# Density = 2.062446 g / cm^3
# Si number density = 20.671506 Si / 1000 Ang^3
#
#
#
# Elastic Constant Matrix: (Units=GPa)
#
#
# Indices 1 2 3 4 5 6 
#
# 1 137.4333 65.6736 41.4958 5.1022 -14.7485 -8.9679
# 2 65.6736 117.2230 40.8926 8.8376 -2.1459 7.1646
# 3 41.4958 40.8926 83.6244 -2.9750 -3.1465 -5.0034
# 4 5.1022 8.8376 -2.9750 37.6930 3.3742 7.6568
# 5 -14.7485 -2.1459 -3.1465 3.3742 29.7577 3.1895
# 6 -8.9679 7.1646 -5.0034 7.6568 3.1895 34.6371
#
#
#
# Elastic Compliance Matrix: (Units=1/GPa)
#
#
# Indices 1 2 3 4 5 6 
#
# 1 0.011559 -0.005553 -0.002677 -0.001653 0.004839 0.003675
# 2 -0.005553 0.013476 -0.004212 -0.001725 -0.001569 -0.004308
# 3 -0.002677 -0.004212 0.015526 0.002215 -0.000451 0.001973
# 4 -0.001653 -0.001725 0.002215 0.028814 -0.003354 -0.005812
# 5 0.004839 -0.001569 -0.000451 -0.003354 0.036340 -0.001093
# 6 0.003675 -0.004308 0.001973 -0.005812 -0.001093 0.032384
#
#
# Mechanical properties :
#
#
# Convention : Reuss Voigt Hill
#
# Bulk Modulus (GPa) = 63.79213 70.48942 67.14078
# Shear Modulus (GPa) = 29.72506 33.09881 31.41193
#
# Velocity S-wave (km/s) = 3.79617 4.00582 3.90240
# Velocity P-wave (km/s) = 7.08107 7.45448 7.27017
#
# Compressibility (1/GPa) = 0.01567591
#
# Stress axis : x y z
#
# Youngs Moduli (GPa) = 86.51601 74.20625 64.40681
#
# Poissons Ratio (x) = 0.41208 0.17241
# Poissons Ratio (y) = 0.48043 0.27131
# Poissons Ratio (z) = 0.23160 0.31258
#
# Static dielectric constant tensor:
#      x y z
#    x 3.632840 0.101480 -0.046160 
#    y 0.101480 3.815930 -0.027720 
#    z -0.046160 -0.027720 3.865240 
# 
# 
# High freq. dielectric constant tensor:
#      x y z
#    x 1.791690 0.005940 -0.007160 
#    y 0.005940 1.814220 -0.003730 
#    z -0.007160 -0.003730 1.818110 
# 
# From -- ./inp_files/20108.got.cif
#   From: 2010.06.25/outbox.cif.g09.slc.cpg/sg2_11_cif.got.tgz:20108.got - 2010.06.27 13:26:56.
