data_PCOD8013790
_publ_section_title
;
Structure prediction by ZEFSAII (Michael W. Deem and Ramdas Pophale) SiO2 
 PCOD8013790
Probable space group: P -1
;
_chemical_formula_sum "Si O2"
_cell_formula_units_Z 16
_cell_length_a 14.585090
_cell_length_b 9.036892
_cell_length_c 11.373067
_cell_angle_alpha 44.581050
_cell_angle_beta 114.517059
_cell_angle_gamma 132.607067
_cell_volume 767.840432
_symmetry_space_group_name_H-M "P -1"
_symmetry_group_IT_number 2
_symmetry_cell_setting 'triclinic'
loop_
_space_group_symop_operation_xyz
x,y,z
-x,-y,-z
loop_
_atom_site_type_symbol
_atom_site_label
_atom_site_fract_x
_atom_site_fract_y
_atom_site_fract_z
Si Si1 0.029964 0.118707 0.076980
Si Si2 0.432713 0.782388 0.988255
Si Si3 0.807530 0.281127 0.191565
Si Si4 0.329319 0.007934 0.132765
Si Si5 0.350990 0.933188 0.553962
Si Si6 0.790194 0.929989 0.189284
Si Si7 0.720939 0.791276 0.797431
Si Si8 0.634665 0.331458 0.496717
O O1 0.136663 0.108979 0.199441
O O2 0.907326 0.948929 0.188209
O O3 0.073869 0.415945 0.922507
O O4 0.000000 0.000000 0.000000
O O5 0.320168 0.776905 0.885638
O O6 0.523132 0.838502 0.896936
O O7 0.373105 0.485820 0.163221
O O8 0.500000 0.000000 0.000000
O O9 0.769542 0.185538 0.359066
O O10 0.839685 0.118978 0.222304
O O11 0.292079 0.741143 0.333288
O O12 0.303729 0.193393 0.085415
O O13 0.263465 0.967277 0.993248
O O14 0.358884 0.719933 0.610195
O O15 0.309597 0.024376 0.373852
O O16 0.487028 0.160769 0.553247
O O17 0.691520 0.638239 0.355021
#
# Coordination Sequence:
#
# PCOD8013790 Si02
#       8
#     2   2   2   2   2   2   2   2
#     4  11  23  45  66  89 119 171 229 260 298 374
#     4  11  21  36  60  96 129 159 204 257 322 392
#     4  11  24  40  64  93 132 165 205 262 323 377
#     4  11  21  40  64  96 124 166 207 259 317 376
#     4  10  21  41  61  96 130 158 208 267 321 376
#     4  12  24  42  65  92 131 173 210 259 319 368
#     4  10  23  39  65  91 121 169 214 261 315 366
#     4  10  23  39  65  97 130 162 211 263 312 386
#
# _framework density 20.837662999999999
#
# number of rings (size 3 to 8) (size 9 to 14) (size 15 to 20)
#    0.000    1.250    3.750    2.250    1.750    1.500 
#    2.250    2.500    0.000    0.000    0.000    0.000 
#    0.000    0.000    0.000    0.000    0.000    0.000 
#
# Total GULP energy -198211.318648 kJ/mol
# GULP energy per Si atom -12388.207415 kJ/mol
# Density = 2.079024 g / cm^3
# Si number density = 20.837663 Si / 1000 Ang^3
#
#
#
# Elastic Constant Matrix: (Units=GPa)
#
#
# Indices 1 2 3 4 5 6 
#
# 1 94.7857 -18.9965 -34.3490 6.9205 21.3489 26.2399
# 2 -18.9965 100.2592 77.0696 -27.8790 -14.0959 -34.7087
# 3 -34.3490 77.0696 192.9627 -30.6983 -49.3055 -64.9784
# 4 6.9205 -27.8790 -30.6983 33.8357 11.5201 14.5308
# 5 21.3489 -14.0959 -49.3055 11.5201 53.6841 30.4654
# 6 26.2399 -34.7087 -64.9784 14.5308 30.4654 69.1325
#
#
#
# Elastic Compliance Matrix: (Units=1/GPa)
#
#
# Indices 1 2 3 4 5 6 
#
# 1 0.012210 0.000972 0.000191 0.000695 -0.002987 -0.002797
# 2 0.000972 0.017400 -0.005307 0.009430 -0.004678 0.003458
# 3 0.000191 -0.005307 0.010381 0.001313 0.005275 0.004420
# 4 0.000695 0.009430 0.001313 0.040302 -0.004898 -0.000608
# 5 -0.002987 -0.004678 0.005275 -0.004898 0.029036 -0.008023
# 6 -0.002797 0.003458 0.004420 -0.000608 -0.008023 0.025080
#
#
# Mechanical properties :
#
#
# Convention : Reuss Voigt Hill
#
# Bulk Modulus (GPa) = 31.54375 48.38397 39.96386
# Shear Modulus (GPa) = 32.62311 55.61602 44.11956
#
# Velocity S-wave (km/s) = 3.96104 5.17185 4.60640
# Velocity P-wave (km/s) = 6.00754 7.67685 6.89291
#
# Compressibility (1/GPa) = 0.03170200
#
# Stress axis : x y z
#
# Youngs Moduli (GPa) = 81.89734 57.47280 96.33030
#
# Poissons Ratio (x) = -0.05585 -0.01838
# Poissons Ratio (y) = -0.07958 0.51123
# Poissons Ratio (z) = -0.01563 0.30501
#
# Static dielectric constant tensor:
#      x y z
#    x 3.768660 0.034030 0.150600 
#    y 0.034030 3.402970 -0.021070 
#    z 0.150600 -0.021070 3.441110 
# 
# 
# High freq. dielectric constant tensor:
#      x y z
#    x 1.824760 -0.008440 0.002120 
#    y -0.008440 1.806730 -0.000230 
#    z 0.002120 -0.000230 1.805680 
# 
# From -- ./inp_files/175023.got.cif
#   From: 2010.06.25/outbox.cif.g09.slc.cpg/sg2_88_cif.got.tgz:175023.got - 2010.06.27 13:26:56.
