data_PCOD8013042
_publ_section_title
;
Structure prediction by ZEFSAII (Michael W. Deem and Ramdas Pophale) SiO2 
 PCOD8013042
Probable space group: P -1
;
_chemical_formula_sum "Si O2"
_cell_formula_units_Z 16
_cell_length_a 9.035544
_cell_length_b 14.774594
_cell_length_c 15.739546
_cell_angle_alpha 37.020776
_cell_angle_beta 125.195204
_cell_angle_gamma 98.363237
_cell_volume 794.687836
_symmetry_space_group_name_H-M "P -1"
_symmetry_group_IT_number 2
_symmetry_cell_setting 'triclinic'
loop_
_space_group_symop_operation_xyz
x,y,z
-x,-y,-z
loop_
_atom_site_type_symbol
_atom_site_label
_atom_site_fract_x
_atom_site_fract_y
_atom_site_fract_z
Si Si1 0.079300 0.770349 0.112725
Si Si2 0.169222 0.664640 0.029010
Si Si3 0.676487 0.051879 0.327540
Si Si4 0.909196 0.055507 0.562045
Si Si5 0.838473 0.594157 0.171420
Si Si6 0.311292 0.599334 0.637143
Si Si7 0.206731 0.340744 0.352130
Si Si8 0.682878 0.223965 0.657966
O O1 0.988508 0.658324 0.201370
O O2 0.186975 0.704417 0.103815
O O3 0.283246 0.723591 0.276903
O O4 0.855479 0.995668 0.869914
O O5 0.410336 0.573684 0.128077
O O6 0.128678 0.504827 0.131743
O O7 0.960104 0.865420 0.763409
O O8 0.740965 0.123123 0.374744
O O9 0.708246 0.860624 0.509355
O O10 0.409471 0.222644 0.086157
O O11 0.845116 0.998117 0.343796
O O12 0.774691 0.229707 0.453648
O O13 0.811239 0.496158 0.315268
O O14 0.981751 0.427347 0.271790
O O15 0.256573 0.680819 0.462816
O O16 0.417094 0.305741 0.502334
#
# Coordination Sequence:
#
# PCOD8013042 Si02
#       8
#     2   2   2   2   2   2   2   2
#     4  10  21  40  65  89 120 161 197 242 306 360
#     4  10  22  39  62  90 122 160 196 249 300 354
#     4  11  23  40  62  89 124 160 200 249 303 352
#     4  11  23  40  62  89 124 160 200 249 303 352
#     4  11  22  38  63  90 123 158 203 247 291 357
#     4  11  22  38  63  90 123 158 203 247 291 357
#     4  10  22  39  62  90 122 160 196 249 300 354
#     4  10  21  40  65  89 120 161 197 242 306 360
#
# _framework density 20.133690999999999
#
# number of rings (size 3 to 8) (size 9 to 14) (size 15 to 20)
#    0.000    1.500    5.000    0.000    0.000    7.000 
#    0.000    8.750    0.000    4.500    0.000    0.000 
#    0.000    0.000    0.000    0.000    0.000    0.000 
#
# Total GULP energy -198382.562831 kJ/mol
# GULP energy per Si atom -12398.910177 kJ/mol
# Density = 2.008787 g / cm^3
# Si number density = 20.133691 Si / 1000 Ang^3
#
#
#
# Elastic Constant Matrix: (Units=GPa)
#
#
# Indices 1 2 3 4 5 6 
#
# 1 105.0337 21.0533 26.9528 -9.3607 -3.7785 -3.7702
# 2 21.0533 52.6738 50.5530 -5.7797 9.2158 -2.2512
# 3 26.9528 50.5530 66.6418 -22.4415 -7.3080 -5.1174
# 4 -9.3607 -5.7797 -22.4415 25.0979 3.0920 -0.9728
# 5 -3.7785 9.2158 -7.3080 3.0920 37.0560 -8.8419
# 6 -3.7702 -2.2512 -5.1174 -0.9728 -8.8419 26.1644
#
#
#
# Elastic Compliance Matrix: (Units=1/GPa)
#
#
# Indices 1 2 3 4 5 6 
#
# 1 0.010210 0.023894 -0.029250 -0.015752 -0.010897 -0.006462
# 2 0.023894 -1.311983 1.381806 0.881108 0.624243 0.404536
# 3 -0.029250 1.381806 -1.431018 -0.908047 -0.653236 -0.419724
# 4 -0.015752 0.881108 -0.908047 -0.533777 -0.418597 -0.265365
# 5 -0.010897 0.624243 -0.653236 -0.418597 -0.266522 -0.181255
# 6 -0.006462 0.404536 -0.419724 -0.265365 -0.181255 -0.081116
#
#
# Mechanical properties :
#
#
# Convention : Reuss Voigt Hill
#
# Bulk Modulus (GPa) = 49.72984 46.82972 48.27978
# Shear Modulus (GPa) = -0.78611 26.04966 12.63177
#
# Velocity S-wave (km/s) = -0.62554 3.60089 2.50750
# Velocity P-wave (km/s) = 4.92257 6.37169 5.69342
#
# Compressibility (1/GPa) = 0.02010865
#
# Stress axis : x y z
#
# Youngs Moduli (GPa) = 97.94794 -0.76221 -0.69880
#
# Poissons Ratio (x) = 0.01821 -0.02044
# Poissons Ratio (y) = -2.34032 0.96561
# Poissons Ratio (z) = 2.86496 1.05322
#
# Static dielectric constant tensor:
#      x y z
#    x 3.821280 0.047510 -0.157890 
#    y 0.047510 3.482920 -0.325720 
#    z -0.157890 -0.325720 3.857150 
# 
# 
# High freq. dielectric constant tensor:
#      x y z
#    x 1.790920 -0.001200 -0.002210 
#    y -0.001200 1.769920 -0.027110 
#    z -0.002210 -0.027110 1.800100 
# 
# From -- ./inp_files/202712.got.cif
#   From: 2010.06.25/outbox.cif.g09.slc.cpg/sg2_102_cif.got.tgz:202712.got - 2010.06.27 13:26:56.
