data_PCOD8013502
_publ_section_title
;
Structure prediction by ZEFSAII (Michael W. Deem and Ramdas Pophale) SiO2 
 PCOD8013502
Probable space group: P -1
;
_chemical_formula_sum "Si O2"
_cell_formula_units_Z 14
_cell_length_a 27.105497
_cell_length_b 8.912572
_cell_length_c 6.107814
_cell_angle_alpha 69.153404
_cell_angle_beta 121.858705
_cell_angle_gamma 148.221996
_cell_volume 645.621341
_symmetry_space_group_name_H-M "P -1"
_symmetry_group_IT_number 2
_symmetry_cell_setting 'triclinic'
loop_
_space_group_symop_operation_xyz
x,y,z
-x,-y,-z
loop_
_atom_site_type_symbol
_atom_site_label
_atom_site_fract_x
_atom_site_fract_y
_atom_site_fract_z
Si Si1 0.630095 0.778183 0.430757
Si Si2 0.544000 0.422463 0.017426
Si Si3 0.873783 0.859412 0.352355
Si Si4 0.594496 0.104508 0.730763
Si Si5 0.246935 0.668075 0.349993
Si Si6 0.684970 0.595369 0.937677
Si Si7 0.068152 0.233958 0.850281
O O1 0.629477 0.720768 0.204487
O O2 0.651828 0.670434 0.678480
O O3 0.722672 0.117170 0.527065
O O4 0.514042 0.594140 0.287254
O O5 0.449610 0.139688 0.095619
O O6 0.606852 0.421924 0.052714
O O7 0.807806 0.596847 0.501617
O O8 0.888952 0.806151 0.185433
O O9 0.808015 0.873984 0.155421
O O10 0.989416 0.169691 0.562129
O O11 0.648006 0.155896 0.612645
O O12 0.675797 0.402028 0.899705
O O13 0.500000 0.000000 0.500000
O O14 0.167519 0.551038 0.034257
O O15 0.000000 0.000000 0.000000
#
# Coordination Sequence:
#
# PCOD8013502 Si02
#       7
#     2   2   2   2   2   2   2
#     4  11  26  39  59  88 131 173 205 246 310 370
#     4  11  25  41  58  86 133 176 207 246 305 365
#     4  10  21  40  68  96 118 158 205 262 313 363
#     4  12  22  38  62  91 123 163 215 256 294 356
#     4  11  23  40  63  93 126 163 205 251 314 375
#     4  12  23  40  63  92 123 164 214 261 300 355
#     4   9  20  40  68  94 122 152 206 257 317 373
#
# _framework density 21.684535
#
# number of rings (size 3 to 8) (size 9 to 14) (size 15 to 20)
#    0.000    1.143    2.857    3.429    4.000    0.000 
#    0.000    0.714    0.000    8.571    0.000    0.000 
#    0.000    0.000    0.000    0.000    0.000    0.000 
#
# Total GULP energy -173467.295125 kJ/mol
# GULP energy per Si atom -12390.521080 kJ/mol
# Density = 2.163518 g / cm^3
# Si number density = 21.684535 Si / 1000 Ang^3
#
#
#
# Elastic Constant Matrix: (Units=GPa)
#
#
# Indices 1 2 3 4 5 6 
#
# 1 86.8281 38.1884 53.1810 -5.6529 16.1413 15.2143
# 2 38.1884 64.2085 48.8637 11.8601 3.3532 -0.1642
# 3 53.1810 48.8637 149.7175 27.0570 22.6199 3.2630
# 4 -5.6529 11.8601 27.0570 39.1814 6.1845 -7.0949
# 5 16.1413 3.3532 22.6199 6.1845 37.5227 4.3166
# 6 15.2143 -0.1642 3.2630 -7.0949 4.3166 38.9487
#
#
#
# Elastic Compliance Matrix: (Units=1/GPa)
#
#
# Indices 1 2 3 4 5 6 
#
# 1 0.022304 -0.010950 -0.005038 0.009999 -0.006561 -0.005788
# 2 -0.010950 0.026442 -0.004432 -0.006928 0.005833 0.002852
# 3 -0.005038 -0.004432 0.011665 -0.006898 -0.003342 0.000086
# 4 0.009999 -0.006928 -0.006898 0.035416 -0.005791 0.003736
# 5 -0.006561 0.005833 -0.003342 -0.005791 0.032122 -0.001748
# 6 -0.005788 0.002852 0.000086 0.003736 -0.001748 0.028815
#
#
# Mechanical properties :
#
#
# Convention : Reuss Voigt Hill
#
# Bulk Modulus (GPa) = 51.09874 64.58002 57.83938
# Shear Modulus (GPa) = 24.49459 33.83197 29.16328
#
# Velocity S-wave (km/s) = 3.36458 3.95421 3.67125
# Velocity P-wave (km/s) = 6.22171 7.11997 6.68594
#
# Compressibility (1/GPa) = 0.01956996
#
# Stress axis : x y z
#
# Youngs Moduli (GPa) = 44.83524 37.81879 85.72767
#
# Poissons Ratio (x) = 0.41412 0.43193
# Poissons Ratio (y) = 0.49096 0.37992
# Poissons Ratio (z) = 0.22590 0.16760
#
# Static dielectric constant tensor:
#      x y z
#    x 4.014660 0.073190 -0.023330 
#    y 0.073190 4.173680 0.538470 
#    z -0.023330 0.538470 4.659660 
# 
# 
# High freq. dielectric constant tensor:
#      x y z
#    x 1.850600 0.014370 -0.004050 
#    y 0.014370 1.815300 0.017060 
#    z -0.004050 0.017060 1.881400 
# 
# From -- ./inp_files/35734.got.cif
#   From: 2010.06.25/outbox.cif.g09.slc.cpg/sg2_18_cif.got.tgz:35734.got - 2010.06.27 13:26:56.
