data_PCOD8013372
_publ_section_title
;
Structure prediction by ZEFSAII (Michael W. Deem and Ramdas Pophale) SiO2 
 PCOD8013372
Probable space group: P -1
;
_chemical_formula_sum "Si O2"
_cell_formula_units_Z 16
_cell_length_a 21.621075
_cell_length_b 8.458505
_cell_length_c 8.899357
_cell_angle_alpha 115.828572
_cell_angle_beta 126.566788
_cell_angle_gamma 34.180713
_cell_volume 728.457322
_symmetry_space_group_name_H-M "P -1"
_symmetry_group_IT_number 2
_symmetry_cell_setting 'triclinic'
loop_
_space_group_symop_operation_xyz
x,y,z
-x,-y,-z
loop_
_atom_site_type_symbol
_atom_site_label
_atom_site_fract_x
_atom_site_fract_y
_atom_site_fract_z
Si Si1 0.006493 0.194368 0.117135
Si Si2 0.184847 0.166399 0.395752
Si Si3 0.342581 0.745728 0.995296
Si Si4 0.034994 0.706283 0.566774
Si Si5 0.796257 0.301922 0.335560
Si Si6 0.207753 0.303254 0.168573
Si Si7 0.398273 0.661108 0.689665
Si Si8 0.369187 0.323670 0.478565
O O1 0.940777 0.349129 0.244717
O O2 0.143964 0.037642 0.248071
O O3 0.934501 0.422916 0.973703
O O4 0.000000 0.000000 0.000000
O O5 0.067161 0.462697 0.435212
O O6 0.217255 0.217231 0.315818
O O7 0.306548 0.956248 0.591348
O O8 0.254237 0.734111 0.886875
O O9 0.370285 0.691214 0.836410
O O10 0.460476 0.518903 0.184765
O O11 0.275914 0.048007 0.051890
O O12 0.131814 0.669355 0.623317
O O13 0.891666 0.018763 0.461114
O O14 0.680093 0.584780 0.381718
O O15 0.267901 0.389134 0.269894
O O16 0.384322 0.497551 0.518681
O O17 0.500000 0.000000 0.500000
#
# Coordination Sequence:
#
# PCOD8013372 Si02
#       8
#     2   2   2   2   2   2   2   2
#     4  12  26  41  65  98 132 172 219 278 329 392
#     4  12  25  43  67  98 134 176 219 269 336 401
#     4  10  21  40  67  93 131 170 223 274 320 384
#     4  11  23  43  69  94 138 174 220 266 337 403
#     4  10  22  41  69 100 129 177 217 274 333 392
#     4  12  24  41  65  99 132 170 224 273 332 387
#     4  10  22  42  67  94 130 178 222 263 331 396
#     4  11  21  44  67  96 133 175 216 268 332 394
#
# _framework density 21.964223
#
# number of rings (size 3 to 8) (size 9 to 14) (size 15 to 20)
#    0.000    1.000    2.500    5.250    3.500    0.500 
#    0.000    0.625    0.000    0.000    0.000    0.000 
#    0.000    0.000    0.000    0.000    0.000    0.000 
#
# Total GULP energy -198320.671170 kJ/mol
# GULP energy per Si atom -12395.041948 kJ/mol
# Density = 2.191423 g / cm^3
# Si number density = 21.964223 Si / 1000 Ang^3
#
#
#
# Elastic Constant Matrix: (Units=GPa)
#
#
# Indices 1 2 3 4 5 6 
#
# 1 58.1501 34.9992 45.5596 -7.1704 13.2419 0.5583
# 2 34.9992 113.9653 54.5822 -2.8211 4.1694 -0.6364
# 3 45.5596 54.5822 123.3348 -7.8963 27.9914 8.6881
# 4 -7.1704 -2.8211 -7.8963 50.7539 9.6473 2.1690
# 5 13.2419 4.1694 27.9914 9.6473 37.6037 -1.4773
# 6 0.5583 -0.6364 8.6881 2.1690 -1.4773 27.1751
#
#
#
# Elastic Compliance Matrix: (Units=1/GPa)
#
#
# Indices 1 2 3 4 5 6 
#
# 1 0.026687 -0.004839 -0.006449 0.003392 -0.004897 0.000863
# 2 -0.004839 0.012493 -0.005078 -0.001766 0.004647 0.002409
# 3 -0.006449 -0.005078 0.015598 0.003355 -0.009865 -0.005777
# 4 0.003392 -0.001766 0.003355 0.022546 -0.009418 -0.003495
# 5 -0.004897 0.004647 -0.009865 -0.009418 0.037804 0.006170
# 6 0.000863 0.002409 -0.005777 -0.003495 0.006170 0.039299
#
#
# Mechanical properties :
#
#
# Convention : Reuss Voigt Hill
#
# Bulk Modulus (GPa) = 45.36114 62.85913 54.11014
# Shear Modulus (GPa) = 25.70590 33.79383 29.74987
#
# Velocity S-wave (km/s) = 3.42475 3.92674 3.68430
# Velocity P-wave (km/s) = 6.02791 7.01712 6.54124
#
# Compressibility (1/GPa) = 0.02204530
#
# Stress axis : x y z
#
# Youngs Moduli (GPa) = 37.47123 80.04645 64.10922
#
# Poissons Ratio (x) = 0.38736 0.41343
# Poissons Ratio (y) = 0.18133 0.32558
# Poissons Ratio (z) = 0.24164 0.40651
#
# Static dielectric constant tensor:
#      x y z
#    x 3.935400 0.002940 0.427410 
#    y 0.002940 4.080940 0.138580 
#    z 0.427410 0.138580 4.368890 
# 
# 
# High freq. dielectric constant tensor:
#      x y z
#    x 1.856200 -0.001080 0.023610 
#    y -0.001080 1.865010 0.012640 
#    z 0.023610 0.012640 1.871900 
# 
# From -- ./inp_files/178221.got.cif
#   From: 2010.06.25/outbox.cif.g09.slc.cpg/sg2_90_cif.got.tgz:178221.got - 2010.06.27 13:26:56.
