data_PCOD8013434
_publ_section_title
;
Structure prediction by ZEFSAII (Michael W. Deem and Ramdas Pophale) SiO2 
 PCOD8013434
Probable space group: P -1
;
_chemical_formula_sum "Si O2"
_cell_formula_units_Z 16
_cell_length_a 13.663611
_cell_length_b 10.781868
_cell_length_c 13.476541
_cell_angle_alpha 42.168807
_cell_angle_beta 32.348755
_cell_angle_gamma 60.214759
_cell_volume 665.266624
_symmetry_space_group_name_H-M "P -1"
_symmetry_group_IT_number 2
_symmetry_cell_setting 'triclinic'
loop_
_space_group_symop_operation_xyz
x,y,z
-x,-y,-z
loop_
_atom_site_type_symbol
_atom_site_label
_atom_site_fract_x
_atom_site_fract_y
_atom_site_fract_z
Si Si1 0.326355 0.966028 0.384002
Si Si2 0.255772 0.260361 0.995097
Si Si3 0.151586 0.835203 0.399696
Si Si4 0.434424 0.690845 0.135179
Si Si5 0.099548 0.921268 0.801655
Si Si6 0.154116 0.540001 0.043572
Si Si7 0.674789 0.828977 0.223171
Si Si8 0.402093 0.291092 0.423300
O O1 0.248054 0.848515 0.418459
O O2 0.153147 0.916740 0.642261
O O3 0.514281 0.928876 0.289684
O O4 0.412342 0.200896 0.146999
O O5 0.110516 0.034342 0.285525
O O6 0.451623 0.307233 0.861971
O O7 0.156857 0.420805 0.010112
O O8 0.316515 0.297113 0.806644
O O9 0.293672 0.812677 0.204302
O O10 0.961849 0.633191 0.676495
O O11 0.327265 0.457608 0.339744
O O12 0.052305 0.700495 0.017350
O O13 0.279441 0.076214 0.614114
O O14 0.904821 0.976956 0.949480
O O15 0.371087 0.657063 0.831106
O O16 0.615928 0.696411 0.450012
#
# Coordination Sequence:
#
# PCOD8013434 Si02
#       8
#     2   2   2   2   2   2   2   2
#     4  11  23  44  71  98 140 167 215 274 335 392
#     4  10  21  40  67  99 134 168 213 272 338 399
#     4  11  20  41  68 102 137 164 213 274 338 404
#     4  10  21  43  69  98 132 176 209 274 336 389
#     4  12  27  46  65  95 135 179 226 277 312 387
#     4  11  24  39  66  97 131 181 215 264 340 385
#     4  12  23  43  72  96 131 177 216 274 334 387
#     4  11  26  46  66  92 136 177 231 271 318 381
#
# _framework density 24.050505999999999
#
# number of rings (size 3 to 8) (size 9 to 14) (size 15 to 20)
#    0.000    1.000    3.750    3.375    0.000    7.500 
#    0.000    0.625    0.000    0.000    0.000    0.000 
#    0.000    0.000    0.000    0.000    0.000    0.000 
#
# Total GULP energy -198282.509398 kJ/mol
# GULP energy per Si atom -12392.656837 kJ/mol
# Density = 2.399577 g / cm^3
# Si number density = 24.050506 Si / 1000 Ang^3
#
#
#
# Elastic Constant Matrix: (Units=GPa)
#
#
# Indices 1 2 3 4 5 6 
#
# 1 41.0906 11.0210 14.7310 -5.5371 -7.5738 -13.8668
# 2 11.0210 61.3306 24.1788 -21.4214 -2.0036 -8.3880
# 3 14.7310 24.1788 127.9565 -6.8604 -5.8806 -11.4594
# 4 -5.5371 -21.4214 -6.8604 44.8095 -2.0136 0.0553
# 5 -7.5738 -2.0036 -5.8806 -2.0136 25.8966 7.7698
# 6 -13.8668 -8.3880 -11.4594 0.0553 7.7698 20.0530
#
#
#
# Elastic Compliance Matrix: (Units=1/GPa)
#
#
# Indices 1 2 3 4 5 6 
#
# 1 0.033101 -0.001346 -0.001411 0.003362 0.003467 0.020168
# 2 -0.001346 0.022066 -0.002898 0.009902 -0.000633 0.006861
# 3 -0.001411 -0.002898 0.008774 -0.000195 0.000557 0.002611
# 4 0.003362 0.009902 -0.000195 0.027529 0.002220 0.005419
# 5 0.003467 -0.000633 0.000557 0.002220 0.044295 -0.014718
# 6 0.020168 0.006861 0.002611 0.005419 -0.014718 0.073863
#
#
# Mechanical properties :
#
#
# Convention : Reuss Voigt Hill
#
# Bulk Modulus (GPa) = 19.00044 36.69325 27.84685
# Shear Modulus (GPa) = 20.96589 30.18163 25.57376
#
# Velocity S-wave (km/s) = 2.95573 3.54634 3.26442
# Velocity P-wave (km/s) = 4.42333 5.66203 5.08057
#
# Compressibility (1/GPa) = 0.05263036
#
# Stress axis : x y z
#
# Youngs Moduli (GPa) = 30.21029 45.31926 113.97021
#
# Poissons Ratio (x) = 0.06102 0.16077
# Poissons Ratio (y) = 0.04068 0.33033
# Poissons Ratio (z) = 0.04262 0.13135
#
# Static dielectric constant tensor:
#      x y z
#    x 4.119380 -0.146950 0.017300 
#    y -0.146950 4.376630 0.024710 
#    z 0.017300 0.024710 4.701870 
# 
# 
# High freq. dielectric constant tensor:
#      x y z
#    x 1.929210 -0.015810 0.005210 
#    y -0.015810 1.940430 0.004770 
#    z 0.005210 0.004770 1.974820 
# 
# From -- ./inp_files/532325.got.cif
#   From: 2010.06.25/outbox.cif.g09.slc.cpg/sg2_267_cif.got.tgz:532325.got - 2010.06.27 13:26:56.
