data_PCOD8013614
_publ_section_title
;
Structure prediction by ZEFSAII (Michael W. Deem and Ramdas Pophale) SiO2 
 PCOD8013614
Probable space group: P -1
;
_chemical_formula_sum "Si O2"
_cell_formula_units_Z 10
_cell_length_a 7.955366
_cell_length_b 9.723331
_cell_length_c 11.246091
_cell_angle_alpha 87.926478
_cell_angle_beta 143.156695
_cell_angle_gamma 107.161305
_cell_volume 467.064758
_symmetry_space_group_name_H-M "P -1"
_symmetry_group_IT_number 2
_symmetry_cell_setting 'triclinic'
loop_
_space_group_symop_operation_xyz
x,y,z
-x,-y,-z
loop_
_atom_site_type_symbol
_atom_site_label
_atom_site_fract_x
_atom_site_fract_y
_atom_site_fract_z
Si Si1 0.665833 0.570303 0.215167
Si Si2 0.385487 0.680383 0.642440
Si Si3 0.657476 0.860780 0.311956
Si Si4 0.247817 0.025973 0.034873
Si Si5 0.328637 0.107713 0.417825
O O1 0.527912 0.450277 0.250818
O O2 0.623554 0.720488 0.215542
O O3 0.027462 0.611790 0.404149
O O4 0.500000 0.500000 0.000000
O O5 0.465121 0.805690 0.790117
O O6 0.583831 0.758574 0.634849
O O7 0.584447 0.808617 0.409495
O O8 0.389745 0.905219 0.114959
O O9 0.000000 0.000000 0.500000
O O10 0.000000 0.000000 0.000000
O O11 0.048461 0.003307 0.801166
O O12 0.500000 0.000000 0.500000
#
# Coordination Sequence:
#
# PCOD8013614 Si02
#       5
#     2   2   2   2   2
#     4  11  26  44  67  97 146 179 216 287 340 396
#     4  10  23  43  66  99 137 181 224 268 349 402
#     4  12  24  43  69 106 131 180 234 273 337 405
#     4  10  21  40  70 100 130 175 227 273 333 403
#     4  11  22  41  72  98 136 175 226 286 328 397
#
# _framework density 21.410305999999999
#
# number of rings (size 3 to 8) (size 9 to 14) (size 15 to 20)
#    0.000    1.200    6.000    0.000    5.600    4.800 
#    0.000    7.000    0.000    0.000    0.000    0.000 
#    0.000    0.000    0.000    0.000    0.000    0.000 
#
# Total GULP energy -123962.651500 kJ/mol
# GULP energy per Si atom -12396.265150 kJ/mol
# Density = 2.136157 g / cm^3
# Si number density = 21.410306 Si / 1000 Ang^3
#
#
#
# Elastic Constant Matrix: (Units=GPa)
#
#
# Indices 1 2 3 4 5 6 
#
# 1 68.5240 47.9226 35.2351 -1.2833 -6.9117 -11.7289
# 2 47.9226 147.2527 62.5114 -1.9106 -2.5265 -14.9996
# 3 35.2351 62.5114 178.2972 -1.6769 -4.2561 -15.4634
# 4 -1.2833 -1.9106 -1.6769 37.5642 -10.6588 0.4598
# 5 -6.9117 -2.5265 -4.2561 -10.6588 27.6085 4.6510
# 6 -11.7289 -14.9996 -15.4634 0.4598 4.6510 39.9942
#
#
#
# Elastic Compliance Matrix: (Units=1/GPa)
#
#
# Indices 1 2 3 4 5 6 
#
# 1 0.020258 -0.005491 -0.001725 0.001568 0.004457 0.002678
# 2 -0.005491 0.009624 -0.002206 -0.000123 -0.001096 0.001275
# 3 -0.001725 -0.002206 0.006842 0.000199 0.000283 0.001277
# 4 0.001568 -0.000123 0.000199 0.030177 0.012279 -0.001284
# 5 0.004457 -0.001096 0.000283 0.012279 0.042711 -0.004103
# 6 0.002678 0.001275 0.001277 -0.001284 -0.004103 0.027253
#
#
# Mechanical properties :
#
#
# Convention : Reuss Voigt Hill
#
# Bulk Modulus (GPa) = 55.92562 76.15691 66.04126
# Shear Modulus (GPa) = 30.92746 37.59371 34.26058
#
# Velocity S-wave (km/s) = 3.80480 4.19486 4.00458
# Velocity P-wave (km/s) = 6.74385 7.68829 7.23151
#
# Compressibility (1/GPa) = 0.01788089
#
# Stress axis : x y z
#
# Youngs Moduli (GPa) = 49.36375 103.90780 146.15163
#
# Poissons Ratio (x) = 0.57055 0.25208
# Poissons Ratio (y) = 0.27105 0.32238
# Poissons Ratio (z) = 0.08514 0.22920
#
# Static dielectric constant tensor:
#      x y z
#    x 3.875180 0.137430 -0.153640 
#    y 0.137430 4.044720 0.164930 
#    z -0.153640 0.164930 4.649740 
# 
# 
# High freq. dielectric constant tensor:
#      x y z
#    x 1.822270 0.005320 -0.004520 
#    y 0.005320 1.833990 -0.003750 
#    z -0.004520 -0.003750 1.867270 
# 
# From -- ./inp_files/18026.got.cif
#   From: 2010.06.25/outbox.cif.g09.slc.cpg/sg2_10_cif.got.tgz:18026.got - 2010.06.27 13:26:56.
