data_PCOD8013439
_publ_section_title
;
Structure prediction by ZEFSAII (Michael W. Deem and Ramdas Pophale) SiO2 
 PCOD8013439
Probable space group: P -1
;
_chemical_formula_sum "Si O2"
_cell_formula_units_Z 16
_cell_length_a 8.635100
_cell_length_b 8.937861
_cell_length_c 18.262672
_cell_angle_alpha 129.647127
_cell_angle_beta 55.783087
_cell_angle_gamma 134.877679
_cell_volume 752.648055
_symmetry_space_group_name_H-M "P -1"
_symmetry_group_IT_number 2
_symmetry_cell_setting 'triclinic'
loop_
_space_group_symop_operation_xyz
x,y,z
-x,-y,-z
loop_
_atom_site_type_symbol
_atom_site_label
_atom_site_fract_x
_atom_site_fract_y
_atom_site_fract_z
Si Si1 0.044843 0.525093 0.891051
Si Si2 0.750610 0.099597 0.940759
Si Si3 0.463299 0.372952 0.218674
Si Si4 0.252081 0.430574 0.544473
Si Si5 0.941910 0.309788 0.709610
Si Si6 0.780800 0.221488 0.434051
Si Si7 0.349242 0.739167 0.365607
Si Si8 0.145945 0.141985 0.350191
O O1 0.283027 0.545784 0.838747
O O2 0.972396 0.508789 0.819805
O O3 0.846590 0.299692 0.915678
O O4 0.087083 0.764123 0.989607
O O5 0.732133 0.866521 0.845134
O O6 0.500000 0.000000 0.000000
O O7 0.438827 0.581884 0.266807
O O8 0.393126 0.320889 0.306900
O O9 0.500000 0.500000 0.500000
O O10 0.176025 0.383719 0.633990
O O11 0.202870 0.617838 0.586158
O O12 0.118731 0.200718 0.458797
O O13 0.769887 0.243744 0.669180
O O14 0.884158 0.105623 0.717880
O O15 0.806335 0.351648 0.546991
O O16 0.960807 0.151075 0.354040
O O17 0.540302 0.991878 0.417478
#
# Coordination Sequence:
#
# PCOD8013439 Si02
#       8
#     2   2   2   2   2   2   2   2
#     4  10  21  40  68 100 122 158 213 265 319 387
#     4   9  20  41  71  95 123 158 209 263 324 389
#     4  11  21  40  67  95 123 170 212 258 317 381
#     4  12  24  37  57  88 128 173 216 263 315 364
#     4  12  24  39  59  95 128 166 214 269 314 368
#     4  11  24  41  57  85 130 183 222 253 303 372
#     4  11  24  39  60  87 130 173 217 260 308 371
#     4  12  22  38  62  88 129 175 216 259 306 374
#
# _framework density 21.258277
#
# number of rings (size 3 to 8) (size 9 to 14) (size 15 to 20)
#    0.000    1.000    3.750    3.750    3.500    0.000 
#    0.000    0.625    0.000    6.750    0.000    0.000 
#    0.000    0.000    0.000    0.000    0.000    0.000 
#
# Total GULP energy -198213.701226 kJ/mol
# GULP energy per Si atom -12388.356327 kJ/mol
# Density = 2.120989 g / cm^3
# Si number density = 21.258277 Si / 1000 Ang^3
#
#
#
# Elastic Constant Matrix: (Units=GPa)
#
#
# Indices 1 2 3 4 5 6 
#
# 1 90.9618 26.5192 20.5094 -0.7015 5.5910 0.7548
# 2 26.5192 78.2837 26.5697 -6.0616 5.5712 7.4918
# 3 20.5094 26.5697 107.6783 5.3894 26.0483 5.2645
# 4 -0.7015 -6.0616 5.3894 43.8509 5.4812 -6.5777
# 5 5.5910 5.5712 26.0483 5.4812 30.1943 1.8920
# 6 0.7548 7.4918 5.2645 -6.5777 1.8920 26.7856
#
#
#
# Elastic Compliance Matrix: (Units=1/GPa)
#
#
# Indices 1 2 3 4 5 6 
#
# 1 0.012433 -0.003809 -0.001360 0.000057 -0.000501 0.001032
# 2 -0.003809 0.015561 -0.003153 0.001952 0.000399 -0.003174
# 3 -0.001360 -0.003153 0.012848 -0.000956 -0.010005 -0.001133
# 4 0.000057 0.001952 -0.000956 0.024643 -0.004395 0.006002
# 5 -0.000501 0.000399 -0.010005 -0.004395 0.042707 -0.002227
# 6 0.001032 -0.003174 -0.001133 0.006002 -0.002227 0.040046
#
#
# Mechanical properties :
#
#
# Convention : Reuss Voigt Hill
#
# Bulk Modulus (GPa) = 41.32731 47.12450 44.22590
# Shear Modulus (GPa) = 28.91028 33.72119 31.31574
#
# Velocity S-wave (km/s) = 3.69176 3.98711 3.84227
# Velocity P-wave (km/s) = 6.13636 6.58876 6.36658
#
# Compressibility (1/GPa) = 0.02419707
#
# Stress axis : x y z
#
# Youngs Moduli (GPa) = 80.42798 64.26305 77.83476
#
# Poissons Ratio (x) = 0.24477 0.10589
# Poissons Ratio (y) = 0.30634 0.24543
# Poissons Ratio (z) = 0.10942 0.20264
#
# Static dielectric constant tensor:
#      x y z
#    x 3.700700 0.162340 0.225350 
#    y 0.162340 4.119060 0.039830 
#    z 0.225350 0.039830 4.423660 
# 
# 
# High freq. dielectric constant tensor:
#      x y z
#    x 1.803360 0.023380 0.008790 
#    y 0.023380 1.845010 0.000210 
#    z 0.008790 0.000210 1.847230 
# 
# From -- ./inp_files/216966.got.cif
#   From: 2010.06.25/outbox.cif.g09.slc.cpg/sg2_109_cif.got.tgz:216966.got - 2010.06.27 13:26:56.
