data_PCOD8013712
_publ_section_title
;
Structure prediction by ZEFSAII (Michael W. Deem and Ramdas Pophale) SiO2 
 PCOD8013712
Probable space group: P -1
;
_chemical_formula_sum "Si O2"
_cell_formula_units_Z 14
_cell_length_a 12.845267
_cell_length_b 16.084851
_cell_length_c 8.750907
_cell_angle_alpha 121.935879
_cell_angle_beta 46.831162
_cell_angle_gamma 151.479322
_cell_volume 615.980220
_symmetry_space_group_name_H-M "P -1"
_symmetry_group_IT_number 2
_symmetry_cell_setting 'triclinic'
loop_
_space_group_symop_operation_xyz
x,y,z
-x,-y,-z
loop_
_atom_site_type_symbol
_atom_site_label
_atom_site_fract_x
_atom_site_fract_y
_atom_site_fract_z
Si Si1 0.936134 0.028980 0.735602
Si Si2 0.437301 0.791266 0.551437
Si Si3 0.150356 0.425956 0.517678
Si Si4 0.970186 0.639788 0.760641
Si Si5 0.677791 0.668368 0.140841
Si Si6 0.447628 0.252558 0.897797
Si Si7 0.741661 0.079764 0.775572
O O1 0.860805 0.092405 0.812339
O O2 0.700973 0.852731 0.900304
O O3 0.000000 0.000000 0.500000
O O4 0.188255 0.175079 0.731586
O O5 0.279750 0.606687 0.594597
O O6 0.583110 0.848564 0.300748
O O7 0.233999 0.763357 0.701989
O O8 0.656136 0.954368 0.607325
O O9 0.978488 0.328281 0.441372
O O10 0.387665 0.483640 0.317620
O O11 0.961271 0.283129 0.702164
O O12 0.751299 0.432089 0.811130
O O13 0.863008 0.681485 0.968950
O O14 0.643456 0.695042 0.031635
O O15 0.500000 0.000000 0.000000
#
# Coordination Sequence:
#
# PCOD8013712 Si02
#       7
#     2   2   2   2   2   2   2
#     4  12  27  43  65 101 139 176 219 273 341 402
#     4  10  23  47  71  97 130 183 225 275 331 387
#     4  10  23  44  69  96 140 170 227 277 327 399
#     4  10  21  40  75  99 126 171 231 282 326 380
#     4  10  22  44  69  99 125 178 225 279 332 380
#     4  10  22  43  71  97 132 170 229 277 328 394
#     4  12  29  45  65 103 142 177 220 272 337 406
#
# _framework density 22.728002
#
# number of rings (size 3 to 8) (size 9 to 14) (size 15 to 20)
#    0.000    1.714    0.000    6.429   10.000    1.714 
#    5.143    0.000    0.000    0.000    0.000    0.000 
#    0.000    0.000    0.000    0.000    0.000    0.000 
#
# Total GULP energy -173577.415344 kJ/mol
# GULP energy per Si atom -12398.386810 kJ/mol
# Density = 2.267627 g / cm^3
# Si number density = 22.728002 Si / 1000 Ang^3
#
#
#
# Elastic Constant Matrix: (Units=GPa)
#
#
# Indices 1 2 3 4 5 6 
#
# 1 66.8716 8.5748 27.6773 -30.8994 -8.0788 -7.8168
# 2 8.5748 58.1576 23.8551 -13.8110 16.3687 -8.6645
# 3 27.6773 23.8551 116.6209 -19.8522 7.7453 -30.6609
# 4 -30.8994 -13.8110 -19.8522 45.9173 -9.8028 10.6554
# 5 -8.0788 16.3687 7.7453 -9.8028 42.4431 0.1160
# 6 -7.8168 -8.6645 -30.6609 10.6554 0.1160 36.9022
#
#
#
# Elastic Compliance Matrix: (Units=1/GPa)
#
#
# Indices 1 2 3 4 5 6 
#
# 1 0.026446 -0.001163 -0.004600 0.018636 0.010637 -0.003907
# 2 -0.001163 0.021430 -0.002708 0.002480 -0.007424 0.001843
# 3 -0.004600 -0.002708 0.012609 -0.001107 -0.002413 0.009194
# 4 0.018636 0.002480 -0.001107 0.038880 0.011794 -0.007654
# 5 0.010637 -0.007424 -0.002413 0.011794 0.031627 -0.005000
# 6 -0.003907 0.001843 0.009194 -0.007654 -0.005000 0.036568
#
#
# Mechanical properties :
#
#
# Convention : Reuss Voigt Hill
#
# Bulk Modulus (GPa) = 22.96516 40.20715 31.58616
# Shear Modulus (GPa) = 25.12357 37.15539 31.13948
#
# Velocity S-wave (km/s) = 3.32837 4.04763 3.70549
# Velocity P-wave (km/s) = 4.98969 6.29074 5.67761
#
# Compressibility (1/GPa) = 0.04354422
#
# Stress axis : x y z
#
# Youngs Moduli (GPa) = 37.81249 46.66393 79.30614
#
# Poissons Ratio (x) = 0.05426 0.36481
# Poissons Ratio (y) = 0.04397 0.21475
# Poissons Ratio (z) = 0.17394 0.12636
#
# Static dielectric constant tensor:
#      x y z
#    x 3.787680 0.079020 -0.090980 
#    y 0.079020 4.063630 0.077410 
#    z -0.090980 0.077410 3.970270 
# 
# 
# High freq. dielectric constant tensor:
#      x y z
#    x 1.897450 0.011070 -0.014800 
#    y 0.011070 1.893830 0.005050 
#    z -0.014800 0.005050 1.896240 
# 
# From -- ./inp_files/274006.got.cif
#   From: 2010.06.25/outbox.cif.g09.slc.cpg/sg2_138_cif.got.tgz:274006.got - 2010.06.27 13:26:56.
