data_PCOD8013700
_publ_section_title
;
Structure prediction by ZEFSAII (Michael W. Deem and Ramdas Pophale) SiO2 
 PCOD8013700
Probable space group: P -1
;
_chemical_formula_sum "Si O2"
_cell_formula_units_Z 14
_cell_length_a 21.051885
_cell_length_b 7.714797
_cell_length_c 16.768842
_cell_angle_alpha 40.287092
_cell_angle_beta 160.735574
_cell_angle_gamma 141.611348
_cell_volume 554.495379
_symmetry_space_group_name_H-M "P -1"
_symmetry_group_IT_number 2
_symmetry_cell_setting 'triclinic'
loop_
_space_group_symop_operation_xyz
x,y,z
-x,-y,-z
loop_
_atom_site_type_symbol
_atom_site_label
_atom_site_fract_x
_atom_site_fract_y
_atom_site_fract_z
Si Si1 0.009024 0.108606 0.118315
Si Si2 0.448930 0.390498 0.819039
Si Si3 0.802260 0.984363 0.221397
Si Si4 0.344177 0.936465 0.529557
Si Si5 0.504956 0.747486 0.243721
Si Si6 0.663956 0.319979 0.657751
Si Si7 0.886797 0.713162 0.258286
O O1 0.117737 0.958091 0.235207
O O2 0.160368 0.423639 0.188753
O O3 0.009723 0.948725 0.259769
O O4 0.782532 0.121409 0.823351
O O5 0.393920 0.216008 0.896032
O O6 0.386983 0.188231 0.738507
O O7 0.329023 0.620445 0.600565
O O8 0.686307 0.529438 0.041809
O O9 0.819711 0.876314 0.192830
O O10 0.000000 0.000000 0.500000
O O11 0.734869 0.269464 0.036313
O O12 0.383605 0.016324 0.642478
O O13 0.526338 0.152008 0.623846
O O14 0.520391 0.434510 0.390075
O O15 0.000000 0.500000 0.500000
#
# Coordination Sequence:
#
# PCOD8013700 Si02
#       7
#     2   2   2   2   2   2   2
#     4  10  21  40  73 101 138 189 235 281 358 422
#     4  12  26  46  70 105 140 185 237 295 355 418
#     4  12  27  45  69 106 142 185 240 290 358 427
#     4  11  23  46  72 104 141 188 232 289 358 416
#     4  11  24  43  72  96 144 181 232 288 355 409
#     4  10  22  43  70 105 140 187 236 287 353 421
#     4  12  25  43  73 103 144 185 240 293 355 424
#
# _framework density 25.248182
#
# number of rings (size 3 to 8) (size 9 to 14) (size 15 to 20)
#    0.000    0.857    2.857    4.286    8.000    1.714 
#    0.000    0.714    0.000    0.000    0.000    0.000 
#    0.000    0.000    0.000    0.000    0.000    0.000 
#
# Total GULP energy -173442.351576 kJ/mol
# GULP energy per Si atom -12388.739398 kJ/mol
# Density = 2.519072 g / cm^3
# Si number density = 25.248182 Si / 1000 Ang^3
#
#
#
# Elastic Constant Matrix: (Units=GPa)
#
#
# Indices 1 2 3 4 5 6 
#
# 1 88.6561 30.8967 40.4358 1.1000 42.2501 3.3141
# 2 30.8967 57.0692 30.6271 -11.8489 18.3426 8.4091
# 3 40.4358 30.6271 213.8705 -52.4319 45.2363 -6.6376
# 4 1.1000 -11.8489 -52.4319 40.8709 -6.0442 7.4280
# 5 42.2501 18.3426 45.2363 -6.0442 45.2461 -3.4601
# 6 3.3141 8.4091 -6.6376 7.4280 -3.4601 40.0038
#
#
#
# Elastic Compliance Matrix: (Units=1/GPa)
#
#
# Indices 1 2 3 4 5 6 
#
# 1 0.023379 -0.007305 -0.001091 -0.006747 -0.018753 -0.000951
# 2 -0.007305 0.024995 0.000350 0.008621 -0.003004 -0.006451
# 3 -0.001091 0.000350 0.008799 0.010640 -0.006580 -0.001068
# 4 -0.006747 0.008621 0.010640 0.041739 -0.002828 -0.007483
# 5 -0.018753 -0.003004 -0.006580 -0.002828 0.047469 0.005724
# 6 -0.000951 -0.006451 -0.001068 -0.007483 0.005724 0.028140
#
#
# Mechanical properties :
#
#
# Convention : Reuss Voigt Hill
#
# Bulk Modulus (GPa) = 24.34208 62.61278 43.47743
# Shear Modulus (GPa) = 24.47289 42.39990 33.43640
#
# Velocity S-wave (km/s) = 3.11673 4.10240 3.64305
# Velocity P-wave (km/s) = 4.75542 6.87694 5.91212
#
# Compressibility (1/GPa) = 0.04108112
#
# Stress axis : x y z
#
# Youngs Moduli (GPa) = 42.77305 40.00750 113.64864
#
# Poissons Ratio (x) = 0.29225 0.12404
# Poissons Ratio (y) = 0.31246 -0.03980
# Poissons Ratio (z) = 0.04668 -0.01401
#
# Static dielectric constant tensor:
#      x y z
#    x 4.786070 -0.103490 0.120870 
#    y -0.103490 4.601560 -0.212090 
#    z 0.120870 -0.212090 5.988900 
# 
# 
# High freq. dielectric constant tensor:
#      x y z
#    x 2.005740 0.009160 0.028940 
#    y 0.009160 1.988940 -0.027780 
#    z 0.028940 -0.027780 2.033260 
# 
# From -- ./inp_files/577214.got.cif
#   From: 2010.06.25/outbox.cif.g09.slc.cpg/sg2_289_cif.got.tgz:577214.got - 2010.06.27 13:26:56.
