data_PCOD8013878
_publ_section_title
;
Structure prediction by ZEFSAII (Michael W. Deem and Ramdas Pophale) SiO2 
 PCOD8013878
Probable space group: P -1
;
_chemical_formula_sum "Si O2"
_cell_formula_units_Z 12
_cell_length_a 13.473473
_cell_length_b 9.503738
_cell_length_c 11.265261
_cell_angle_alpha 34.765905
_cell_angle_beta 51.001674
_cell_angle_gamma 43.005768
_cell_volume 559.522976
_symmetry_space_group_name_H-M "P -1"
_symmetry_group_IT_number 2
_symmetry_cell_setting 'triclinic'
loop_
_space_group_symop_operation_xyz
x,y,z
-x,-y,-z
loop_
_atom_site_type_symbol
_atom_site_label
_atom_site_fract_x
_atom_site_fract_y
_atom_site_fract_z
Si Si1 0.274847 0.132400 0.826648
Si Si2 0.549898 0.415291 0.807060
Si Si3 0.267562 0.329042 0.437423
Si Si4 0.751552 0.126235 0.373023
Si Si5 0.336021 0.619433 0.500787
Si Si6 0.960804 0.040997 0.864147
O O1 0.264582 0.163196 0.671620
O O2 0.281067 0.389054 0.708367
O O3 0.136360 0.105447 0.994832
O O4 0.423183 0.845237 0.948559
O O5 0.589171 0.630569 0.699650
O O6 0.383288 0.580975 0.775532
O O7 0.667060 0.285806 0.698810
O O8 0.273621 0.137629 0.454491
O O9 0.121922 0.627852 0.332167
O O10 0.763605 0.134326 0.502122
O O11 0.895551 0.104852 0.222464
O O12 0.500000 0.500000 0.500000
O O13 0.000000 0.000000 0.000000
#
# Coordination Sequence:
#
# PCOD8013878 Si02
#       6
#     2   2   2   2   2   2
#     4  10  21  42  62  85 129 158 192 250 295 354
#     4   9  21  41  62  90 120 156 202 245 298 351
#     4  10  21  41  63  85 124 156 200 254 293 347
#     4  11  21  38  63  92 119 158 200 246 299 350
#     4   9  21  41  60  89 123 156 198 248 296 349
#     4  11  23  41  60  90 122 159 199 246 301 352
#
# _framework density 21.446840999999999
#
# number of rings (size 3 to 8) (size 9 to 14) (size 15 to 20)
#    0.000    2.000    1.667    1.000    0.000    4.000 
#   12.000    7.500    0.000    0.000    0.000    0.000 
#    0.000    0.000    0.000    0.000    0.000    0.000 
#
# Total GULP energy -148774.172031 kJ/mol
# GULP energy per Si atom -12397.847669 kJ/mol
# Density = 2.139803 g / cm^3
# Si number density = 21.446841 Si / 1000 Ang^3
#
#
#
# Elastic Constant Matrix: (Units=GPa)
#
#
# Indices 1 2 3 4 5 6 
#
# 1 88.8252 38.8099 43.3287 -11.5508 -10.1129 6.8273
# 2 38.8099 117.8309 44.5653 -4.5078 -5.5830 10.5133
# 3 43.3287 44.5653 113.8495 -9.9973 13.4706 11.3328
# 4 -11.5508 -4.5078 -9.9973 16.6844 -0.3138 -6.0279
# 5 -10.1129 -5.5830 13.4706 -0.3138 39.2111 -14.2637
# 6 6.8273 10.5133 11.3328 -6.0279 -14.2637 42.1262
#
#
#
# Elastic Compliance Matrix: (Units=1/GPa)
#
#
# Indices 1 2 3 4 5 6 
#
# 1 0.017111 -0.003091 -0.005691 0.008904 0.007175 0.003233
# 2 -0.003091 0.010849 -0.003275 -0.001520 0.001482 -0.001041
# 3 -0.005691 -0.003275 0.013815 0.001649 -0.008326 -0.004560
# 4 0.008904 -0.001520 0.001649 0.070622 0.005938 0.010609
# 5 0.007175 0.001482 -0.008326 0.005938 0.035399 0.013542
# 6 0.003233 -0.001041 -0.004560 0.010609 0.013542 0.030804
#
#
# Mechanical properties :
#
#
# Convention : Reuss Voigt Hill
#
# Bulk Modulus (GPa) = 56.62535 63.76816 60.19675
# Shear Modulus (GPa) = 23.96911 32.52447 28.24679
#
# Velocity S-wave (km/s) = 3.34669 3.89847 3.63307
# Velocity P-wave (km/s) = 6.43380 7.07543 6.76223
#
# Compressibility (1/GPa) = 0.01765994
#
# Stress axis : x y z
#
# Youngs Moduli (GPa) = 58.44163 92.17769 72.38360
#
# Poissons Ratio (x) = 0.28495 0.41193
# Poissons Ratio (y) = 0.18066 0.23707
# Poissons Ratio (z) = 0.33259 0.30190
#
# Static dielectric constant tensor:
#      x y z
#    x 4.234800 0.307690 0.087790 
#    y 0.307690 4.083710 0.194340 
#    z 0.087790 0.194340 3.915530 
# 
# 
# High freq. dielectric constant tensor:
#      x y z
#    x 1.856590 0.006010 -0.004210 
#    y 0.006010 1.823300 0.005610 
#    z -0.004210 0.005610 1.837740 
# 
# From -- ./inp_files/26075.got.cif
#   From: 2010.06.25/outbox.cif.g09.slc.cpg/sg2_14_cif.got.tgz:26075.got - 2010.06.27 13:26:56.
