data_PCOD8013473
_publ_section_title
;
Structure prediction by ZEFSAII (Michael W. Deem and Ramdas Pophale) SiO2 
 PCOD8013473
Probable space group: P -1
;
_chemical_formula_sum "Si O2"
_cell_formula_units_Z 16
_cell_length_a 28.871301
_cell_length_b 23.220925
_cell_length_c 11.854433
_cell_angle_alpha 30.195272
_cell_angle_beta 149.225586
_cell_angle_gamma 169.035508
_cell_volume 755.533854
_symmetry_space_group_name_H-M "P -1"
_symmetry_group_IT_number 2
_symmetry_cell_setting 'triclinic'
loop_
_space_group_symop_operation_xyz
x,y,z
-x,-y,-z
loop_
_atom_site_type_symbol
_atom_site_label
_atom_site_fract_x
_atom_site_fract_y
_atom_site_fract_z
Si Si1 0.730524 0.126352 0.748648
Si Si2 0.733788 0.569250 0.512260
Si Si3 0.859634 0.629952 0.441453
Si Si4 0.411045 0.306821 0.442633
Si Si5 0.322089 0.460176 0.000926
Si Si6 0.137672 0.230031 0.248094
Si Si7 0.567716 0.071515 0.705035
Si Si8 0.173756 0.495550 0.002338
O O1 0.734630 0.187953 0.776860
O O2 0.997982 0.398511 0.809981
O O3 0.553078 0.809946 0.917403
O O4 0.644349 0.117732 0.491653
O O5 0.716964 0.531296 0.407849
O O6 0.476883 0.316682 0.448600
O O7 0.786626 0.508993 0.782475
O O8 0.938771 0.900742 0.421646
O O9 0.840924 0.681029 0.201923
O O10 0.746187 0.371425 0.629771
O O11 0.143246 0.952509 0.523504
O O12 0.597749 0.494927 0.615077
O O13 0.421320 0.452635 0.189251
O O14 0.147854 0.249295 0.101897
O O15 0.059079 0.261711 0.078095
O O16 0.435014 0.841417 0.912922
#
# Coordination Sequence:
#
# PCOD8013473 Si02
#       8
#     2   2   2   2   2   2   2   2
#     4  10  21  40  68  92 121 162 211 262 305 358
#     4  11  25  41  62  95 129 158 209 258 306 379
#     4  11  26  42  59  93 133 163 205 255 311 376
#     4  11  23  41  66  92 127 167 202 254 317 366
#     4  11  21  41  68  93 124 164 206 259 315 363
#     4  11  22  41  68  95 124 158 215 258 302 376
#     4  10  23  42  60  93 127 162 213 254 301 375
#     4  11  22  40  67  93 121 164 211 258 309 357
#
# _framework density 21.17708
#
# number of rings (size 3 to 8) (size 9 to 14) (size 15 to 20)
#    0.000    1.250    2.500    4.125    1.750    2.000 
#    4.500    4.375    0.000    0.000    0.000    0.000 
#    0.000    0.000    0.000    0.000    0.000    0.000 
#
# Total GULP energy -198477.925098 kJ/mol
# GULP energy per Si atom -12404.870319 kJ/mol
# Density = 2.112888 g / cm^3
# Si number density = 21.177080 Si / 1000 Ang^3
#
#
#
# Elastic Constant Matrix: (Units=GPa)
#
#
# Indices 1 2 3 4 5 6 
#
# 1 137.7843 38.7390 41.6796 1.8058 13.1093 5.3974
# 2 38.7390 39.5812 34.8044 -11.3714 4.3177 -2.6756
# 3 41.6796 34.8044 90.8720 -13.3683 3.1258 0.8621
# 4 1.8058 -11.3714 -13.3683 30.9653 5.4270 4.3533
# 5 13.1093 4.3177 3.1258 5.4270 36.1486 -2.0798
# 6 5.3974 -2.6756 0.8621 4.3533 -2.0798 32.3886
#
#
#
# Elastic Compliance Matrix: (Units=1/GPa)
#
#
# Indices 1 2 3 4 5 6 
#
# 1 0.011085 -0.010721 -0.001562 -0.004590 -0.002042 -0.002206
# 2 -0.010721 0.051583 -0.012716 0.014003 -0.003028 0.004310
# 3 -0.001562 -0.012716 0.017046 0.003000 0.000067 -0.001643
# 4 -0.004590 0.014003 0.003000 0.040729 -0.006616 -0.004057
# 5 -0.002042 -0.003028 0.000067 -0.006616 0.029920 0.002899
# 6 -0.002206 0.004310 -0.001643 -0.004057 0.002899 0.032374
#
#
# Mechanical properties :
#
#
# Convention : Reuss Voigt Hill
#
# Bulk Modulus (GPa) = 33.65167 55.40927 44.53047
# Shear Modulus (GPa) = 20.60652 30.10148 25.35400
#
# Velocity S-wave (km/s) = 3.12277 3.77426 3.46387
# Velocity P-wave (km/s) = 5.37842 6.72420 6.08861
#
# Compressibility (1/GPa) = 0.02971621
#
# Stress axis : x y z
#
# Youngs Moduli (GPa) = 90.20887 19.38616 58.66447
#
# Poissons Ratio (x) = 0.20783 0.09166
# Poissons Ratio (y) = 0.96709 0.74599
# Poissons Ratio (z) = 0.14095 0.24652
#
# Static dielectric constant tensor:
#      x y z
#    x 3.982220 0.058570 0.104510 
#    y 0.058570 3.574200 -0.148360 
#    z 0.104510 -0.148360 3.818820 
# 
# 
# High freq. dielectric constant tensor:
#      x y z
#    x 1.844490 0.007340 0.003860 
#    y 0.007340 1.812960 -0.016860 
#    z 0.003860 -0.016860 1.834630 
# 
# From -- ./inp_files/255814.got.cif
#   From: 2010.06.25/outbox.cif.g09.slc.cpg/sg2_128_cif.got.tgz:255814.got - 2010.06.27 13:26:56.
