data_PCOD8013495
_publ_section_title
;
Structure prediction by ZEFSAII (Michael W. Deem and Ramdas Pophale) SiO2 
 PCOD8013495
Probable space group: P -1
;
_chemical_formula_sum "Si O2"
_cell_formula_units_Z 16
_cell_length_a 6.730598
_cell_length_b 18.174255
_cell_length_c 20.811459
_cell_angle_alpha 161.910324
_cell_angle_beta 64.124685
_cell_angle_gamma 116.828834
_cell_volume 705.125400
_symmetry_space_group_name_H-M "P -1"
_symmetry_group_IT_number 2
_symmetry_cell_setting 'triclinic'
loop_
_space_group_symop_operation_xyz
x,y,z
-x,-y,-z
loop_
_atom_site_type_symbol
_atom_site_label
_atom_site_fract_x
_atom_site_fract_y
_atom_site_fract_z
Si Si1 0.669157 0.110222 0.359883
Si Si2 0.727381 0.637375 0.611289
Si Si3 0.396563 0.779405 0.290670
Si Si4 0.985954 0.483428 0.155725
Si Si5 0.841507 0.847745 0.232075
Si Si6 0.992874 0.874987 0.035505
Si Si7 0.121936 0.393860 0.299221
Si Si8 0.212899 0.063264 0.441447
O O1 0.735821 0.391724 0.579776
O O2 0.401601 0.051309 0.350672
O O3 0.768508 0.048148 0.362308
O O4 0.764703 0.962838 0.166428
O O5 0.500000 0.500000 0.500000
O O6 0.720713 0.669721 0.716700
O O7 0.900829 0.463601 0.420705
O O8 0.803835 0.909707 0.801994
O O9 0.247663 0.594204 0.203616
O O10 0.616662 0.675042 0.142820
O O11 0.500000 0.000000 0.500000
O O12 0.242843 0.886809 0.348794
O O13 0.800860 0.655790 0.308339
O O14 0.967691 0.286245 0.938507
O O15 0.950277 0.357999 0.126753
O O16 0.961943 0.985391 0.388927
O O17 0.949521 0.817555 0.918171
#
# Coordination Sequence:
#
# PCOD8013495 Si02
#       8
#     2   2   2   2   2   2   2   2
#     4   9  22  40  62  94 130 170 206 266 315 371
#     4  10  23  43  67  96 132 164 204 261 319 378
#     4  11  23  42  63  86 128 172 213 263 319 368
#     4  11  23  40  65  93 124 168 214 265 315 372
#     4  10  22  41  61  89 130 164 217 265 314 369
#     4  10  22  42  68  95 130 169 213 260 321 381
#     4  10  21  40  68  95 127 169 211 252 316 384
#     4  11  23  41  62  91 127 170 214 262 317 370
#
# _framework density 22.690999999999999
#
# number of rings (size 3 to 8) (size 9 to 14) (size 15 to 20)
#    0.000    1.750    1.250    1.875    1.750    6.000 
#    4.500    3.750    0.000    0.000    0.000    0.000 
#    0.000    0.000    0.000    0.000    0.000    0.000 
#
# Total GULP energy -198254.320528 kJ/mol
# GULP energy per Si atom -12390.895033 kJ/mol
# Density = 2.263935 g / cm^3
# Si number density = 22.691000 Si / 1000 Ang^3
#
#
#
# Elastic Constant Matrix: (Units=GPa)
#
#
# Indices 1 2 3 4 5 6 
#
# 1 117.9393 56.4875 36.6853 6.1796 8.1929 0.1100
# 2 56.4875 115.8071 37.5958 5.9633 12.1624 4.4528
# 3 36.6853 37.5958 66.6197 2.7223 2.8521 0.8544
# 4 6.1796 5.9633 2.7223 37.2289 1.8961 9.1816
# 5 8.1929 12.1624 2.8521 1.8961 37.7944 -2.0967
# 6 0.1100 4.4528 0.8544 9.1816 -2.0967 25.0775
#
#
#
# Elastic Compliance Matrix: (Units=1/GPa)
#
#
# Indices 1 2 3 4 5 6 
#
# 1 0.011972 -0.004443 -0.004019 -0.001259 -0.000729 0.001273
# 2 -0.004443 0.012680 -0.004547 -0.000267 -0.002884 -0.002221
# 3 -0.004019 -0.004547 0.019756 -0.000163 0.000868 0.000284
# 4 -0.001259 -0.000267 -0.000163 0.029938 -0.001744 -0.011049
# 5 -0.000729 -0.002884 0.000868 -0.001744 0.027758 0.003445
# 6 0.001273 -0.002221 0.000284 -0.011049 0.003445 0.044589
#
#
# Mechanical properties :
#
#
# Convention : Reuss Voigt Hill
#
# Bulk Modulus (GPa) = 54.37457 62.43372 58.40415
# Shear Modulus (GPa) = 27.95792 31.32666 29.64229
#
# Velocity S-wave (km/s) = 3.51396 3.71964 3.61826
# Velocity P-wave (km/s) = 6.36231 6.78396 6.57651
#
# Compressibility (1/GPa) = 0.01839095
#
# Stress axis : x y z
#
# Youngs Moduli (GPa) = 83.52596 78.86424 50.61857
#
# Poissons Ratio (x) = 0.35036 0.20346
# Poissons Ratio (y) = 0.37107 0.23014
# Poissons Ratio (z) = 0.33572 0.35856
#
# Static dielectric constant tensor:
#      x y z
#    x 3.860300 0.231130 0.059560 
#    y 0.231130 4.373520 -0.227200 
#    z 0.059560 -0.227200 3.866350 
# 
# 
# High freq. dielectric constant tensor:
#      x y z
#    x 1.875170 0.008900 0.002290 
#    y 0.008900 1.906350 -0.002320 
#    z 0.002290 -0.002320 1.903420 
# 
# From -- ./inp_files/584074.got.cif
#   From: 2010.06.25/outbox.cif.g09.slc.cpg/sg2_293_cif.got.tgz:584074.got - 2010.06.27 13:26:56.
