data_PCOD8013770
_publ_section_title
;
Structure prediction by ZEFSAII (Michael W. Deem and Ramdas Pophale) SiO2 
 PCOD8013770
Probable space group: P -1
;
_chemical_formula_sum "Si O2"
_cell_formula_units_Z 16
_cell_length_a 15.524295
_cell_length_b 9.134341
_cell_length_c 11.955662
_cell_angle_alpha 88.573021
_cell_angle_beta 150.652789
_cell_angle_gamma 102.541043
_cell_volume 761.699816
_symmetry_space_group_name_H-M "P -1"
_symmetry_group_IT_number 2
_symmetry_cell_setting 'triclinic'
loop_
_space_group_symop_operation_xyz
x,y,z
-x,-y,-z
loop_
_atom_site_type_symbol
_atom_site_label
_atom_site_fract_x
_atom_site_fract_y
_atom_site_fract_z
Si Si1 0.250378 0.284607 0.447298
Si Si2 0.521837 0.098932 0.355369
Si Si3 0.458648 0.569209 0.839271
Si Si4 0.838752 0.311719 0.563425
Si Si5 0.518951 0.794196 0.467934
Si Si6 0.067330 0.590209 0.958338
Si Si7 0.854849 0.998709 0.495139
Si Si8 0.732292 0.907960 0.122337
O O1 0.396163 0.437262 0.674943
O O2 0.354017 0.288747 0.445316
O O3 0.221336 0.124723 0.486647
O O4 0.047695 0.295993 0.195022
O O5 0.717477 0.244379 0.540304
O O6 0.421364 0.169018 0.334530
O O7 0.577049 0.962200 0.469748
O O8 0.393348 0.028934 0.100913
O O9 0.289704 0.632478 0.667510
O O10 0.500000 0.500000 0.000000
O O11 0.653798 0.716325 0.020034
O O12 0.025244 0.463188 0.811279
O O13 0.892265 0.177676 0.568827
O O14 0.292101 0.694032 0.205451
O O15 0.000000 0.500000 0.000000
O O16 0.708479 0.945229 0.225089
O O17 0.052510 0.997632 0.675809
#
# Coordination Sequence:
#
# PCOD8013770 Si02
#       8
#     2   2   2   2   2   2   2   2
#     4  11  24  41  67  96 126 171 212 260 323 376
#     4  10  21  42  62  95 123 165 215 263 308 379
#     4  10  21  41  61  90 128 165 209 260 314 380
#     4  10  22  40  63  91 127 163 211 260 317 373
#     4  11  23  41  67  93 131 168 214 261 318 373
#     4  11  24  43  61  94 135 167 209 263 311 383
#     4  11  22  42  64  95 123 166 214 264 320 372
#     4  10  23  39  65  90 131 163 212 264 317 380
#
# _framework density 21.005651
#
# number of rings (size 3 to 8) (size 9 to 14) (size 15 to 20)
#    0.000    1.500    3.750    0.750    1.750    4.500 
#    0.000    3.125    0.000    0.000    0.000    0.000 
#    0.000    0.000    0.000    0.000    0.000    0.000 
#
# Total GULP energy -198351.060700 kJ/mol
# GULP energy per Si atom -12396.941294 kJ/mol
# Density = 2.095784 g / cm^3
# Si number density = 21.005651 Si / 1000 Ang^3
#
#
#
# Elastic Constant Matrix: (Units=GPa)
#
#
# Indices 1 2 3 4 5 6 
#
# 1 83.6666 18.9723 18.9394 -6.7690 -6.0404 -8.8537
# 2 18.9723 74.9272 17.6974 -3.9757 -9.3495 -9.8360
# 3 18.9394 17.6974 76.4045 3.6226 -10.9538 1.0642
# 4 -6.7690 -3.9757 3.6226 27.4885 4.2732 -5.3471
# 5 -6.0404 -9.3495 -10.9538 4.2732 28.8682 -1.0809
# 6 -8.8537 -9.8360 1.0642 -5.3471 -1.0809 38.3177
#
#
#
# Elastic Compliance Matrix: (Units=1/GPa)
#
#
# Indices 1 2 3 4 5 6 
#
# 1 0.013847 -0.002042 -0.003118 0.004088 0.000573 0.003349
# 2 -0.002042 0.015600 -0.002794 0.002384 0.003363 0.004038
# 3 -0.003118 -0.002794 0.015449 -0.004422 0.004871 -0.002346
# 4 0.004088 0.002384 -0.004422 0.040611 -0.005793 0.007183
# 5 0.000573 0.003363 0.004871 -0.005793 0.038598 0.001141
# 6 0.003349 0.004038 -0.002346 0.007183 0.001141 0.029008
#
#
# Mechanical properties :
#
#
# Convention : Reuss Voigt Hill
#
# Bulk Modulus (GPa) = 34.49703 38.46850 36.48276
# Shear Modulus (GPa) = 27.98254 30.89415 29.43834
#
# Velocity S-wave (km/s) = 3.65381 3.83920 3.74765
# Velocity P-wave (km/s) = 5.85311 6.16488 6.01102
#
# Compressibility (1/GPa) = 0.02898801
#
# Stress axis : x y z
#
# Youngs Moduli (GPa) = 72.21540 64.10457 64.72898
#
# Poissons Ratio (x) = 0.13089 0.20181
# Poissons Ratio (y) = 0.14745 0.18087
# Poissons Ratio (z) = 0.22516 0.17913
#
# Static dielectric constant tensor:
#      x y z
#    x 3.879680 0.060660 -0.222160 
#    y 0.060660 3.933900 0.071210 
#    z -0.222160 0.071210 3.926280 
# 
# 
# High freq. dielectric constant tensor:
#      x y z
#    x 1.815870 0.007760 -0.015790 
#    y 0.007760 1.828380 0.009630 
#    z -0.015790 0.009630 1.825570 
# 
# From -- ./inp_files/186450.got.cif
#   From: 2010.06.25/outbox.cif.g09.slc.cpg/sg2_94_cif.got.tgz:186450.got - 2010.06.27 13:26:56.
