data_PCOD8013818
_publ_section_title
;
Structure prediction by ZEFSAII (Michael W. Deem and Ramdas Pophale) SiO2 
 PCOD8013818
Probable space group: P -1
;
_chemical_formula_sum "Si O2"
_cell_formula_units_Z 14
_cell_length_a 17.439061
_cell_length_b 7.112515
_cell_length_c 10.703154
_cell_angle_alpha 114.588861
_cell_angle_beta 26.319321
_cell_angle_gamma 108.335040
_cell_volume 529.588951
_symmetry_space_group_name_H-M "P -1"
_symmetry_group_IT_number 2
_symmetry_cell_setting 'triclinic'
loop_
_space_group_symop_operation_xyz
x,y,z
-x,-y,-z
loop_
_atom_site_type_symbol
_atom_site_label
_atom_site_fract_x
_atom_site_fract_y
_atom_site_fract_z
Si Si1 0.352487 0.693228 0.561100
Si Si2 0.412991 0.315985 0.209557
Si Si3 0.443046 0.118076 0.856281
Si Si4 0.814732 0.927019 0.212639
Si Si5 0.088869 0.111836 0.669720
Si Si6 0.833553 0.455679 0.003019
Si Si7 0.764165 0.186575 0.812520
O O1 0.313157 0.539462 0.463109
O O2 0.541234 0.769733 0.273072
O O3 0.196945 0.896556 0.834527
O O4 0.348718 0.582451 0.670829
O O5 0.294069 0.140018 0.370171
O O6 0.438186 0.302149 0.018670
O O7 0.596438 0.277648 0.003189
O O8 0.621095 0.953667 0.563492
O O9 0.281325 0.989090 0.069154
O O10 0.940163 0.957122 0.160546
O O11 0.861135 0.695321 0.024977
O O12 0.980989 0.329923 0.841651
O O13 0.077693 0.918512 0.537441
O O14 0.836042 0.370176 0.835204
#
# Coordination Sequence:
#
# PCOD8013818 Si02
#       7
#     2   2   2   2   2   2   2
#     4  10  22  38  63  93 119 158 201 248 301 353
#     4  11  18  39  67  87 118 160 204 249 293 350
#     4   9  19  37  62  91 116 152 208 245 287 352
#     4  10  21  41  62  90 120 154 205 249 286 361
#     4  11  21  42  64  89 117 164 207 241 292 367
#     4  12  25  39  61  92 127 159 192 248 313 350
#     4  11  21  40  65  88 122 160 199 250 299 355
#
# _framework density 26.435597999999999
#
# number of rings (size 3 to 8) (size 9 to 14) (size 15 to 20)
#    0.857    0.571    4.286    2.143    0.000    3.429 
#    2.571    0.000    0.000    1.714    0.000    0.000 
#    0.000    0.000    0.000    0.000    0.000    0.000 
#
# Total GULP energy -173444.924907 kJ/mol
# GULP energy per Si atom -12388.923208 kJ/mol
# Density = 2.637543 g / cm^3
# Si number density = 26.435598 Si / 1000 Ang^3
#
#
#
# Elastic Constant Matrix: (Units=GPa)
#
#
# Indices 1 2 3 4 5 6 
#
# 1 56.4453 38.9868 23.1925 15.4918 8.0083 7.4416
# 2 38.9868 116.9016 38.2653 42.8686 19.5977 6.4920
# 3 23.1925 38.2653 76.1426 29.6131 16.0766 0.0730
# 4 15.4918 42.8686 29.6131 55.1912 2.5668 13.6630
# 5 8.0083 19.5977 16.0766 2.5668 35.5188 6.4817
# 6 7.4416 6.4920 0.0730 13.6630 6.4817 33.6434
#
#
#
# Elastic Compliance Matrix: (Units=1/GPa)
#
#
# Indices 1 2 3 4 5 6 
#
# 1 0.024829 -0.007704 -0.005313 0.003175 0.001857 -0.005641
# 2 -0.007704 0.016176 0.000125 -0.011258 -0.007262 0.004554
# 3 -0.005313 0.000125 0.020933 -0.011253 -0.008881 0.007387
# 4 0.003175 -0.011258 -0.011253 0.035191 0.010760 -0.014870
# 5 0.001857 -0.007262 -0.008881 0.010760 0.036894 -0.010468
# 6 -0.005641 0.004554 0.007387 -0.014870 -0.010468 0.038132
#
#
# Mechanical properties :
#
#
# Convention : Reuss Voigt Hill
#
# Bulk Modulus (GPa) = 27.65921 50.04207 38.85064
# Shear Modulus (GPa) = 23.81063 34.80699 29.30881
#
# Velocity S-wave (km/s) = 3.00443 3.63253 3.33331
# Velocity P-wave (km/s) = 4.74563 6.04687 5.43533
#
# Compressibility (1/GPa) = 0.03615432
#
# Stress axis : x y z
#
# Youngs Moduli (GPa) = 40.27537 61.82162 47.77101
#
# Poissons Ratio (x) = 0.47627 0.25380
# Poissons Ratio (y) = 0.31028 -0.00597
# Poissons Ratio (z) = 0.21397 -0.00773
#
# Static dielectric constant tensor:
#      x y z
#    x 4.330510 -0.079660 0.380990 
#    y -0.079660 4.672820 0.053650 
#    z 0.380990 0.053650 5.243710 
# 
# 
# High freq. dielectric constant tensor:
#      x y z
#    x 2.036170 -0.010810 0.016610 
#    y -0.010810 2.056920 0.000050 
#    z 0.016610 0.000050 2.083520 
# 
# From -- ./inp_files/462387.got.cif
#   From: 2010.06.25/outbox.cif.g09.slc.cpg/sg2_232_cif.got.tgz:462387.got - 2010.06.27 13:26:56.
