data_PCOD8013510
_publ_section_title
;
Structure prediction by ZEFSAII (Michael W. Deem and Ramdas Pophale) SiO2 
 PCOD8013510
Probable space group: P -1
;
_chemical_formula_sum "Si O2"
_cell_formula_units_Z 16
_cell_length_a 11.305296
_cell_length_b 9.036559
_cell_length_c 25.295073
_cell_angle_alpha 131.161215
_cell_angle_beta 22.407528
_cell_angle_gamma 131.715280
_cell_volume 726.869936
_symmetry_space_group_name_H-M "P -1"
_symmetry_group_IT_number 2
_symmetry_cell_setting 'triclinic'
loop_
_space_group_symop_operation_xyz
x,y,z
-x,-y,-z
loop_
_atom_site_type_symbol
_atom_site_label
_atom_site_fract_x
_atom_site_fract_y
_atom_site_fract_z
Si Si1 0.860178 0.395999 0.272001
Si Si2 0.721171 0.456504 0.962226
Si Si3 0.820631 0.564444 0.435639
Si Si4 0.083063 0.357742 0.886092
Si Si5 0.819974 0.362037 0.586717
Si Si6 0.210346 0.079452 0.062201
Si Si7 0.046791 0.981847 0.415142
Si Si8 0.655207 0.898836 0.101004
O O1 0.879575 0.403750 0.330332
O O2 0.535880 0.453640 0.398949
O O3 0.146223 0.528819 0.149918
O O4 0.895609 0.164283 0.194134
O O5 0.006013 0.443310 0.881554
O O6 0.441621 0.261282 0.040553
O O7 0.590248 0.657144 0.078690
O O8 0.050343 0.569972 0.392162
O O9 0.875692 0.757654 0.418676
O O10 0.451893 0.359478 0.737548
O O11 0.885329 0.128837 0.916357
O O12 0.000000 0.500000 0.000000
O O13 0.000000 0.500000 0.500000
O O14 0.885288 0.145281 0.491683
O O15 0.395644 0.038562 0.923494
O O16 0.418359 0.006197 0.256742
O O17 0.000000 0.000000 0.500000
O O18 0.000000 0.000000 0.000000
#
# Coordination Sequence:
#
# PCOD8013510 Si02
#       8
#     2   2   2   2   2   2   2   2
#     4  10  21  40  70  99 127 180 218 283 331 409
#     4  11  24  44  68  97 142 174 233 273 342 400
#     4  10  21  40  68  96 136 167 229 271 342 398
#     4  12  28  44  68  97 138 183 228 276 340 409
#     4  11  26  43  65  97 139 177 218 283 339 402
#     4  11  24  42  67  98 135 179 228 276 344 399
#     4  10  23  38  65  92 132 172 219 278 334 383
#     4  11  24  39  72 103 133 174 231 285 333 397
#
# _framework density 22.012193
#
# number of rings (size 3 to 8) (size 9 to 14) (size 15 to 20)
#    0.000    1.250    0.000    5.625   19.250    0.000 
#    0.000    0.000    0.000    5.250    0.000    0.000 
#    0.000    0.000    0.000    0.000    0.000    0.000 
#
# Total GULP energy -198243.150666 kJ/mol
# GULP energy per Si atom -12390.196917 kJ/mol
# Density = 2.196209 g / cm^3
# Si number density = 22.012193 Si / 1000 Ang^3
#
#
#
# Elastic Constant Matrix: (Units=GPa)
#
#
# Indices 1 2 3 4 5 6 
#
# 1 103.7160 23.6359 38.8015 8.2102 -3.7653 -7.7879
# 2 23.6359 107.5981 43.4310 -1.3682 0.5945 -12.6256
# 3 38.8015 43.4310 176.2137 9.8724 -1.5417 -2.2260
# 4 8.2102 -1.3682 9.8724 28.0610 0.6631 -3.4656
# 5 -3.7653 0.5945 -1.5417 0.6631 33.6155 -3.1188
# 6 -7.7879 -12.6256 -2.2260 -3.4656 -3.1188 35.0862
#
#
#
# Elastic Compliance Matrix: (Units=1/GPa)
#
#
# Indices 1 2 3 4 5 6 
#
# 1 0.011065 -0.001510 -0.001893 -0.002471 0.001383 0.001672
# 2 -0.001510 0.011095 -0.002487 0.002320 -0.000181 0.003713
# 3 -0.001893 -0.002487 0.006809 -0.002099 0.000085 -0.001083
# 4 -0.002471 0.002320 -0.002099 0.037700 -0.000805 0.003806
# 5 0.001383 -0.000181 0.000085 -0.000805 0.030191 0.002852
# 6 0.001672 0.003713 -0.001083 0.003806 0.002852 0.030769
#
#
# Mechanical properties :
#
#
# Convention : Reuss Voigt Hill
#
# Bulk Modulus (GPa) = 58.16871 66.58496 62.37683
# Shear Modulus (GPa) = 34.44971 38.12983 36.28977
#
# Velocity S-wave (km/s) = 3.96034 4.16650 4.06473
# Velocity P-wave (km/s) = 6.88443 7.31171 7.10129
#
# Compressibility (1/GPa) = 0.01719137
#
# Stress axis : x y z
#
# Youngs Moduli (GPa) = 90.37333 90.12681 146.85766
#
# Poissons Ratio (x) = 0.13606 0.27797
# Poissons Ratio (y) = 0.13643 0.36523
# Poissons Ratio (z) = 0.17106 0.22414
#
# Static dielectric constant tensor:
#      x y z
#    x 3.764970 -0.533060 -0.095310 
#    y -0.533060 2.097630 -0.570380 
#    z -0.095310 -0.570380 3.910770 
# 
# 
# High freq. dielectric constant tensor:
#      x y z
#    x 1.855990 0.007380 0.003480 
#    y 0.007380 1.863540 0.002290 
#    z 0.003480 0.002290 1.885000 
# 
# From -- ./inp_files/278659.got.cif
#   From: 2010.06.25/outbox.cif.g09.slc.cpg/sg2_140_cif.got.tgz:278659.got - 2010.06.27 13:26:56.
