data_PCOD8013451
_publ_section_title
;
Structure prediction by ZEFSAII (Michael W. Deem and Ramdas Pophale) SiO2 
 PCOD8013451
Probable space group: P -1
;
_chemical_formula_sum "Si O2"
_cell_formula_units_Z 14
_cell_length_a 6.043160
_cell_length_b 20.034689
_cell_length_c 16.204368
_cell_angle_alpha 24.496085
_cell_angle_beta 131.216030
_cell_angle_gamma 120.049698
_cell_volume 580.376590
_symmetry_space_group_name_H-M "P -1"
_symmetry_group_IT_number 2
_symmetry_cell_setting 'triclinic'
loop_
_space_group_symop_operation_xyz
x,y,z
-x,-y,-z
loop_
_atom_site_type_symbol
_atom_site_label
_atom_site_fract_x
_atom_site_fract_y
_atom_site_fract_z
Si Si1 0.701511 0.624948 0.894647
Si Si2 0.383027 0.830763 0.727348
Si Si3 0.413155 0.851237 0.975901
Si Si4 0.819582 0.034062 0.045024
Si Si5 0.082868 0.746831 0.318708
Si Si6 0.675784 0.904076 0.458023
Si Si7 0.629271 0.416530 0.862212
O O1 0.595489 0.784742 0.750627
O O2 0.658926 0.715601 0.690414
O O3 0.500000 0.500000 0.000000
O O4 0.063889 0.524804 0.115922
O O5 0.025675 0.902940 0.532417
O O6 0.482270 0.967489 0.651400
O O7 0.439594 0.655846 0.987076
O O8 0.140499 0.924023 0.895933
O O9 0.482834 0.007749 0.766150
O O10 0.298222 0.729337 0.025483
O O11 0.733293 0.743470 0.220829
O O12 0.797389 0.192793 0.803351
O O13 0.086087 0.866957 0.263872
O O14 0.500000 0.000000 0.000000
O O15 0.319666 0.564067 0.598787
#
# Coordination Sequence:
#
# PCOD8013451 Si02
#       7
#     2   2   2   2   2   2   2
#     4  11  24  43  64  96 132 173 216 269 335 384
#     4   9  20  42  64  91 128 166 218 270 325 380
#     4  10  21  40  68 102 124 173 224 265 319 392
#     4   9  21  41  60  92 139 170 219 252 328 394
#     4  10  21  42  63  97 138 170 209 272 324 394
#     4   9  20  40  67  93 125 167 219 272 317 391
#     4  10  23  41  67  94 133 170 221 270 324 384
#
# _framework density 24.122267000000001
#
# number of rings (size 3 to 8) (size 9 to 14) (size 15 to 20)
#    0.000    2.286    0.000    1.714    0.000    8.571 
#   20.571    0.000    0.000    0.000    0.000    0.000 
#    0.000    0.000    0.000    0.000    0.000    0.000 
#
# Total GULP energy -173480.889103 kJ/mol
# GULP energy per Si atom -12391.492079 kJ/mol
# Density = 2.406736 g / cm^3
# Si number density = 24.122267 Si / 1000 Ang^3
#
#
#
# Elastic Constant Matrix: (Units=GPa)
#
#
# Indices 1 2 3 4 5 6 
#
# 1 101.9842 41.6879 39.6668 -0.4277 -12.3408 -15.4331
# 2 41.6879 56.4132 41.4954 4.6594 -5.0314 1.5437
# 3 39.6668 41.4954 140.4202 10.8844 -3.1217 0.1482
# 4 -0.4277 4.6594 10.8844 28.1862 6.1082 0.4478
# 5 -12.3408 -5.0314 -3.1217 6.1082 23.6861 -3.7338
# 6 -15.4331 1.5437 0.1482 0.4478 -3.7338 49.9328
#
#
#
# Elastic Compliance Matrix: (Units=1/GPa)
#
#
# Indices 1 2 3 4 5 6 
#
# 1 0.016485 -0.010791 -0.001401 0.001010 0.006786 0.005931
# 2 -0.010791 0.030227 -0.005648 -0.002945 0.000149 -0.004216
# 3 -0.001401 -0.005648 0.009395 -0.002704 -0.000036 -0.000265
# 4 0.001010 -0.002945 -0.002704 0.039360 -0.010723 -0.000743
# 5 0.006786 0.000149 -0.000036 -0.010723 0.049475 0.005889
# 6 0.005931 -0.004216 -0.000265 -0.000743 0.005889 0.022438
#
#
# Mechanical properties :
#
#
# Convention : Reuss Voigt Hill
#
# Bulk Modulus (GPa) = 48.95796 60.50197 54.72996
# Shear Modulus (GPa) = 23.82418 32.09221 27.95819
#
# Velocity S-wave (km/s) = 3.14609 3.65142 3.40813
# Velocity P-wave (km/s) = 5.79111 6.55080 6.18263
#
# Compressibility (1/GPa) = 0.02042569
#
# Stress axis : x y z
#
# Youngs Moduli (GPa) = 60.66222 33.08278 106.43461
#
# Poissons Ratio (x) = 0.35701 0.14916
# Poissons Ratio (y) = 0.65463 0.60114
# Poissons Ratio (z) = 0.08502 0.18685
#
# Static dielectric constant tensor:
#      x y z
#    x 9.978300 -3.487980 0.410840 
#    y -3.487980 6.123830 -0.165970 
#    z 0.410840 -0.165970 4.234060 
# 
# 
# High freq. dielectric constant tensor:
#      x y z
#    x 1.969140 -0.006280 0.000470 
#    y -0.006280 1.949290 0.005580 
#    z 0.000470 0.005580 1.951170 
# 
# From -- ./inp_files/551247.got.cif
#   From: 2010.06.25/outbox.cif.g09.slc.cpg/sg2_276_cif.got.tgz:551247.got - 2010.06.27 13:26:56.
