data_PCOD8013323
_publ_section_title
;
Structure prediction by ZEFSAII (Michael W. Deem and Ramdas Pophale) SiO2 
 PCOD8013323
Probable space group: P -1
;
_chemical_formula_sum "Si O2"
_cell_formula_units_Z 16
_cell_length_a 12.991773
_cell_length_b 8.730845
_cell_length_c 9.494319
_cell_angle_alpha 92.123025
_cell_angle_beta 104.728935
_cell_angle_gamma 49.583329
_cell_volume 780.945271
_symmetry_space_group_name_H-M "P -1"
_symmetry_group_IT_number 2
_symmetry_cell_setting 'triclinic'
loop_
_space_group_symop_operation_xyz
x,y,z
-x,-y,-z
loop_
_atom_site_type_symbol
_atom_site_label
_atom_site_fract_x
_atom_site_fract_y
_atom_site_fract_z
Si Si1 0.765753 0.093127 0.155471
Si Si2 0.786458 0.048344 0.487053
Si Si3 0.972226 0.190773 0.935042
Si Si4 0.772306 0.395563 0.614581
Si Si5 0.510152 0.831465 0.919898
Si Si6 0.504619 0.148566 0.415635
Si Si7 0.057294 0.610900 0.562222
Si Si8 0.205389 0.572514 0.876429
O O1 0.802853 0.020217 0.325301
O O2 0.612735 0.167671 0.070578
O O3 0.773181 0.268052 0.142428
O O4 0.883045 0.892421 0.093599
O O5 0.760187 0.245126 0.530315
O O6 0.655943 0.076820 0.503139
O O7 0.933800 0.838935 0.588893
O O8 0.837828 0.312834 0.788402
O O9 0.924890 0.338235 0.057494
O O10 0.000000 0.000000 0.000000
O O11 0.617716 0.617866 0.573396
O O12 0.877151 0.398685 0.561156
O O13 0.505968 0.872981 0.754530
O O14 0.654442 0.614867 0.004962
O O15 0.500000 0.000000 0.000000
O O16 0.500000 0.000000 0.500000
O O17 0.177008 0.500876 0.722528
O O18 0.000000 0.500000 0.500000
#
# Coordination Sequence:
#
# PCOD8013323 Si02
#       8
#     2   2   2   2   2   2   2   2
#     4  10  21  42  70  97 128 174 220 273 325 399
#     4  11  22  42  70  98 128 176 231 272 327 396
#     4  10  21  40  67 100 133 161 218 281 327 384
#     4  12  22  44  69  99 131 176 230 274 326 404
#     4  11  26  44  66  94 136 178 218 268 340 403
#     4  11  26  46  64  97 139 175 224 279 334 394
#     4  12  26  42  70 100 136 177 219 275 343 402
#     4  11  23  45  66  99 132 172 223 274 331 395
#
# _framework density 20.487991000000001
#
# number of rings (size 3 to 8) (size 9 to 14) (size 15 to 20)
#    0.000    1.000    3.750    3.375    5.250    0.000 
#    9.000    1.250    0.000    0.000    0.000    0.000 
#    0.000    0.000    0.000    0.000    0.000    0.000 
#
# Total GULP energy -198379.712088 kJ/mol
# GULP energy per Si atom -12398.732005 kJ/mol
# Density = 2.044136 g / cm^3
# Si number density = 20.487991 Si / 1000 Ang^3
#
#
#
# Elastic Constant Matrix: (Units=GPa)
#
#
# Indices 1 2 3 4 5 6 
#
# 1 126.2169 37.8438 51.1227 14.1939 -15.4545 -1.7367
# 2 37.8438 80.3235 17.2589 12.4412 -12.2382 -24.1320
# 3 51.1227 17.2589 79.6463 -1.9885 -0.5683 -6.6698
# 4 14.1939 12.4412 -1.9885 34.6932 3.8814 7.8142
# 5 -15.4545 -12.2382 -0.5683 3.8814 27.0054 3.2970
# 6 -1.7367 -24.1320 -6.6698 7.8142 3.2970 32.2070
#
#
#
# Elastic Compliance Matrix: (Units=1/GPa)
#
#
# Indices 1 2 3 4 5 6 
#
# 1 0.013869 -0.003994 -0.008402 -0.004711 0.007062 -0.003565
# 2 -0.003994 0.023360 -0.001137 -0.011984 0.007658 0.019176
# 3 -0.008402 -0.001137 0.018438 0.005141 -0.005903 0.001870
# 4 -0.004711 -0.011984 0.005141 0.040440 -0.011783 -0.016774
# 5 0.007062 0.007658 -0.005903 -0.011783 0.045735 0.003073
# 6 -0.003565 0.019176 0.001870 -0.016774 0.003073 0.049368
#
#
# Mechanical properties :
#
#
# Convention : Reuss Voigt Hill
#
# Bulk Modulus (GPa) = 34.96531 55.40416 45.18473
# Shear Modulus (GPa) = 21.94806 30.77856 26.36331
#
# Velocity S-wave (km/s) = 3.27657 3.88012 3.59105
# Velocity P-wave (km/s) = 5.60516 6.86839 6.26868
#
# Compressibility (1/GPa) = 0.02859978
#
# Stress axis : x y z
#
# Youngs Moduli (GPa) = 72.10174 42.80849 54.23573
#
# Poissons Ratio (x) = 0.17100 0.45572
# Poissons Ratio (y) = 0.28801 0.06165
# Poissons Ratio (z) = 0.60583 0.04866
#
# Static dielectric constant tensor:
#      x y z
#    x 2.992160 -1.102080 -0.273930 
#    y -1.102080 3.336060 -0.074930 
#    z -0.273930 -0.074930 3.997950 
# 
# 
# High freq. dielectric constant tensor:
#      x y z
#    x 1.803110 -0.014320 -0.008180 
#    y -0.014320 1.812780 -0.003380 
#    z -0.008180 -0.003380 1.811080 
# 
# From -- ./inp_files/184069.got.cif
#   From: 2010.06.25/outbox.cif.g09.slc.cpg/sg2_93_cif.got.tgz:184069.got - 2010.06.27 13:26:56.
