data_PCOD8013697
_publ_section_title
;
Structure prediction by ZEFSAII (Michael W. Deem and Ramdas Pophale) SiO2 
 PCOD8013697
Probable space group: P -1
;
_chemical_formula_sum "Si O2"
_cell_formula_units_Z 14
_cell_length_a 8.738246
_cell_length_b 9.588630
_cell_length_c 12.955784
_cell_angle_alpha 34.466943
_cell_angle_beta 93.475566
_cell_angle_gamma 89.860006
_cell_volume 610.562229
_symmetry_space_group_name_H-M "P -1"
_symmetry_group_IT_number 2
_symmetry_cell_setting 'triclinic'
loop_
_space_group_symop_operation_xyz
x,y,z
-x,-y,-z
loop_
_atom_site_type_symbol
_atom_site_label
_atom_site_fract_x
_atom_site_fract_y
_atom_site_fract_z
Si Si1 0.037586 0.297157 0.383689
Si Si2 0.053485 0.001630 0.776405
Si Si3 0.816718 0.670503 0.248032
Si Si4 0.370974 0.101964 0.510801
Si Si5 0.193502 0.678745 0.826289
Si Si6 0.416732 0.679530 0.466481
Si Si7 0.741924 0.857159 0.922084
O O1 0.025622 0.130359 0.586309
O O2 0.212824 0.261055 0.368449
O O3 0.978046 0.573814 0.255272
O O4 0.923773 0.230791 0.327423
O O5 0.162693 0.152555 0.761385
O O6 0.122297 0.723864 0.912224
O O7 0.901213 0.980840 0.846997
O O8 0.736122 0.428686 0.429170
O O9 0.709551 0.813961 0.068669
O O10 0.452880 0.302462 0.455232
O O11 0.500000 0.000000 0.500000
O O12 0.330747 0.857310 0.719366
O O13 0.256234 0.394141 0.990987
O O14 0.500000 0.500000 0.500000
O O15 0.385992 0.949554 0.249528
#
# Coordination Sequence:
#
# PCOD8013697 Si02
#       7
#     2   2   2   2   2   2   2
#     4  10  21  40  72  98 131 176 230 280 331 396
#     4  11  20  39  72 102 132 171 224 288 336 381
#     4  11  24  46  71 101 134 174 237 283 322 406
#     4  11  23  40  68 101 137 181 220 273 345 401
#     4  10  23  43  68 103 133 174 233 283 328 402
#     4  12  27  46  70  97 141 184 218 275 348 403
#     4  11  25  42  70  98 139 177 228 277 338 394
#
# _framework density 22.929686
#
# number of rings (size 3 to 8) (size 9 to 14) (size 15 to 20)
#    0.000    1.143    1.429    6.429    4.000    1.143 
#    0.000    0.000    0.000    0.000    0.000    0.000 
#    0.000    0.000    0.000    0.000    0.000    0.000 
#
# Total GULP energy -173459.278122 kJ/mol
# GULP energy per Si atom -12389.948437 kJ/mol
# Density = 2.287750 g / cm^3
# Si number density = 22.929686 Si / 1000 Ang^3
#
#
#
# Elastic Constant Matrix: (Units=GPa)
#
#
# Indices 1 2 3 4 5 6 
#
# 1 106.1945 50.0220 17.7850 -8.0693 5.6313 -14.6401
# 2 50.0220 184.4912 20.9001 -2.8273 7.0280 5.8619
# 3 17.7850 20.9001 64.3222 -4.0288 12.4986 -2.6139
# 4 -8.0693 -2.8273 -4.0288 28.3649 -4.8579 -10.2424
# 5 5.6313 7.0280 12.4986 -4.8579 19.3103 -5.5645
# 6 -14.6401 5.8619 -2.6139 -10.2424 -5.5645 34.1398
#
#
#
# Elastic Compliance Matrix: (Units=1/GPa)
#
#
# Indices 1 2 3 4 5 6 
#
# 1 0.012977 -0.003546 -0.002277 0.006607 0.003087 0.008485
# 2 -0.003546 0.006676 -0.001018 -0.002281 -0.002412 -0.003823
# 3 -0.002277 -0.001018 0.018668 -0.000611 -0.011620 -0.001450
# 4 0.006607 -0.002281 -0.000611 0.046935 0.016873 0.020010
# 5 0.003087 -0.002412 -0.011620 0.016873 0.068447 0.017067
# 6 0.008485 -0.003823 -0.001450 0.020010 0.017067 0.042260
#
#
# Mechanical properties :
#
#
# Convention : Reuss Voigt Hill
#
# Bulk Modulus (GPa) = 40.58930 59.15801 49.87365
# Shear Modulus (GPa) = 22.95080 34.11639 28.53359
#
# Velocity S-wave (km/s) = 3.16717 3.86148 3.53143
# Velocity P-wave (km/s) = 5.57805 6.76292 6.19886
#
# Compressibility (1/GPa) = 0.02463704
#
# Stress axis : x y z
#
# Youngs Moduli (GPa) = 77.06190 149.79984 53.56828
#
# Poissons Ratio (x) = 0.53125 0.12197
# Poissons Ratio (y) = 0.27329 0.05454
# Poissons Ratio (z) = 0.17547 0.15251
#
# Static dielectric constant tensor:
#      x y z
#    x 2.970590 -1.030880 3.518360 
#    y -1.030880 3.888360 1.966720 
#    z 3.518360 1.966720 -5.874200 
# 
# 
# High freq. dielectric constant tensor:
#      x y z
#    x 1.894050 -0.009830 -0.002960 
#    y -0.009830 1.927840 -0.008160 
#    z -0.002960 -0.008160 1.894030 
# 
# From -- ./inp_files/380887.got.cif
#   From: 2010.06.25/outbox.cif.g09.slc.cpg/sg2_191_cif.got.tgz:380887.got - 2010.06.27 13:26:56.
