data_PCOD8013522
_publ_section_title
;
Structure prediction by ZEFSAII (Michael W. Deem and Ramdas Pophale) SiO2 
 PCOD8013522
Probable space group: P -1
;
_chemical_formula_sum "Si O2"
_cell_formula_units_Z 14
_cell_length_a 11.414702
_cell_length_b 8.288068
_cell_length_c 7.741856
_cell_angle_alpha 115.697131
_cell_angle_beta 124.636491
_cell_angle_gamma 81.973306
_cell_volume 537.354967
_symmetry_space_group_name_H-M "P -1"
_symmetry_group_IT_number 2
_symmetry_cell_setting 'triclinic'
loop_
_space_group_symop_operation_xyz
x,y,z
-x,-y,-z
loop_
_atom_site_type_symbol
_atom_site_label
_atom_site_fract_x
_atom_site_fract_y
_atom_site_fract_z
Si Si1 0.652199 0.444255 0.293940
Si Si2 0.919303 0.699821 0.729044
Si Si3 0.337684 0.922158 0.366564
Si Si4 0.209351 0.883676 0.592078
Si Si5 0.649645 0.465636 0.903120
Si Si6 0.133348 0.018716 0.937057
Si Si7 0.953576 0.607454 0.171983
O O1 0.756524 0.634204 0.499197
O O2 0.708298 0.282473 0.366036
O O3 0.495634 0.464448 0.248866
O O4 0.636832 0.398662 0.058489
O O5 0.008947 0.531549 0.709497
O O6 0.913919 0.783909 0.963127
O O7 0.994740 0.861769 0.745906
O O8 0.289362 0.989450 0.545262
O O9 0.319866 0.705367 0.263383
O O10 0.237575 0.983873 0.163762
O O11 0.500000 0.000000 0.500000
O O12 0.043969 0.806935 0.366001
O O13 0.211218 0.021500 0.818535
O O14 0.784147 0.622334 0.053387
O O15 0.000000 0.500000 0.000000
#
# Coordination Sequence:
#
# PCOD8013522 Si02
#       7
#     2   2   2   2   2   2   2
#     4  10  22  40  68 103 127 176 222 277 334 394
#     4  10  21  40  68  97 138 177 217 272 336 389
#     4  12  25  43  65  94 139 175 217 283 338 394
#     4  11  23  43  73  97 128 183 229 267 339 396
#     4  11  21  41  66  99 139 167 220 281 332 387
#     4  11  22  43  66  99 137 179 222 269 331 410
#     4  11  20  41  69 100 130 170 223 278 323 393
#
# _framework density 26.053540999999999
#
# number of rings (size 3 to 8) (size 9 to 14) (size 15 to 20)
#    0.000    1.143    4.286    1.714    0.000    3.429 
#    2.571    9.286    0.000    0.000    0.000    0.000 
#    0.000    0.000    0.000    0.000    0.000    0.000 
#
# Total GULP energy -173648.125464 kJ/mol
# GULP energy per Si atom -12403.437533 kJ/mol
# Density = 2.599424 g / cm^3
# Si number density = 26.053541 Si / 1000 Ang^3
#
#
#
# Elastic Constant Matrix: (Units=GPa)
#
#
# Indices 1 2 3 4 5 6 
#
# 1 172.2886 32.4905 67.9077 -9.2292 9.4247 10.2202
# 2 32.4905 70.2647 28.1369 10.5920 10.6339 -3.8679
# 3 67.9077 28.1369 106.3438 -10.5938 9.4840 3.7840
# 4 -9.2292 10.5920 -10.5938 29.1758 -1.8594 1.4258
# 5 9.4247 10.6339 9.4840 -1.8594 73.1486 -5.5756
# 6 10.2202 -3.8679 3.7840 1.4258 -5.5756 31.9861
#
#
#
# Elastic Compliance Matrix: (Units=1/GPa)
#
#
# Indices 1 2 3 4 5 6 
#
# 1 0.008242 -0.002510 -0.004275 0.002074 -0.000286 -0.002574
# 2 -0.002510 0.019074 -0.004369 -0.009605 -0.001843 0.003732
# 3 -0.004275 -0.004369 0.013909 0.005304 -0.000570 -0.001144
# 4 0.002074 -0.009605 0.005304 0.040616 0.001165 -0.004059
# 5 -0.000286 -0.001843 -0.000570 0.001165 0.014260 0.002370
# 6 -0.002574 0.003732 -0.001144 -0.004059 0.002370 0.033266
#
#
# Mechanical properties :
#
#
# Convention : Reuss Voigt Hill
#
# Bulk Modulus (GPa) = 52.86347 67.32967 60.09657
# Shear Modulus (GPa) = 31.64889 41.55290 36.60089
#
# Velocity S-wave (km/s) = 3.48913 3.99796 3.75218
# Velocity P-wave (km/s) = 6.04701 6.87099 6.47213
#
# Compressibility (1/GPa) = 0.01891665
#
# Stress axis : x y z
#
# Youngs Moduli (GPa) = 121.32825 52.42616 71.89358
#
# Poissons Ratio (x) = 0.13159 0.30737
# Poissons Ratio (y) = 0.30454 0.31412
# Poissons Ratio (z) = 0.51872 0.22906
#
# Static dielectric constant tensor:
#      x y z
#    x 4.932760 -0.356860 0.071660 
#    y -0.356860 5.409730 -0.156100 
#    z 0.071660 -0.156100 4.869420 
# 
# 
# High freq. dielectric constant tensor:
#      x y z
#    x 2.048610 -0.007010 -0.004530 
#    y -0.007010 2.049170 -0.011100 
#    z -0.004530 -0.011100 2.046140 
# 
# From -- ./inp_files/244465.got.cif
#   From: 2010.06.25/outbox.cif.g09.slc.cpg/sg2_123_cif.got.tgz:244465.got - 2010.06.27 13:26:56.
