data_PCOD8013548
_publ_section_title
;
Structure prediction by ZEFSAII (Michael W. Deem and Ramdas Pophale) SiO2 
 PCOD8013548
Probable space group: P -1
;
_chemical_formula_sum "Si O2"
_cell_formula_units_Z 16
_cell_length_a 8.172784
_cell_length_b 12.579554
_cell_length_c 9.398552
_cell_angle_alpha 103.166537
_cell_angle_beta 61.596613
_cell_angle_gamma 121.168559
_cell_volume 727.037729
_symmetry_space_group_name_H-M "P -1"
_symmetry_group_IT_number 2
_symmetry_cell_setting 'triclinic'
loop_
_space_group_symop_operation_xyz
x,y,z
-x,-y,-z
loop_
_atom_site_type_symbol
_atom_site_label
_atom_site_fract_x
_atom_site_fract_y
_atom_site_fract_z
Si Si1 0.738468 0.606495 0.448410
Si Si2 0.156440 0.173477 0.742369
Si Si3 0.748218 0.198171 0.449487
Si Si4 0.679345 0.959027 0.559600
Si Si5 0.704481 0.985247 0.884111
Si Si6 0.591598 0.753875 0.050944
Si Si7 0.188409 0.353589 0.251447
Si Si8 0.158885 0.602499 0.299942
O O1 0.500000 0.500000 0.500000
O O2 0.781345 0.706965 0.341588
O O3 0.755329 0.663446 0.615057
O O4 0.919429 0.563817 0.337531
O O5 0.163251 0.065686 0.611767
O O6 0.320602 0.212123 0.815273
O O7 0.914053 0.113245 0.878797
O O8 0.556429 0.151362 0.405395
O O9 0.790803 0.325071 0.548877
O O10 0.957843 0.235544 0.279873
O O11 0.704528 0.093818 0.554732
O O12 0.724288 0.952935 0.703549
O O13 0.695345 0.876622 0.952003
O O14 0.500000 0.000000 0.000000
O O15 0.335923 0.692557 0.140826
O O16 0.648083 0.652534 0.928946
O O17 0.188993 0.483227 0.273035
#
# Coordination Sequence:
#
# PCOD8013548 Si02
#       8
#     2   2   2   2   2   2   2   2
#     4  11  24  43  70 100 128 176 230 281 330 402
#     4  12  25  43  68  97 139 179 223 273 338 407
#     4  10  21  40  69 101 125 175 224 276 329 403
#     4  11  23  40  70  97 135 171 225 272 338 396
#     4  12  26  42  67 101 141 179 219 282 339 398
#     4  12  25  45  65 100 140 179 226 274 340 401
#     4  11  24  43  72  95 137 177 230 276 340 388
#     4  11  23  46  69  98 136 178 226 279 334 402
#
# _framework density 22.007110000000001
#
# number of rings (size 3 to 8) (size 9 to 14) (size 15 to 20)
#    0.000    0.750    1.250    7.875    5.250    0.000 
#    0.000    1.250    0.000    0.000    0.000    0.000 
#    0.000    0.000    0.000    0.000    0.000    0.000 
#
# Total GULP energy -198426.613908 kJ/mol
# GULP energy per Si atom -12401.663369 kJ/mol
# Density = 2.195702 g / cm^3
# Si number density = 22.007110 Si / 1000 Ang^3
#
#
#
# Elastic Constant Matrix: (Units=GPa)
#
#
# Indices 1 2 3 4 5 6 
#
# 1 129.2338 54.0852 49.9465 -10.8663 -14.9388 13.0217
# 2 54.0852 111.6486 33.9399 -14.8727 -3.6713 1.4684
# 3 49.9465 33.9399 112.2621 -2.0837 -7.1963 -0.7576
# 4 -10.8663 -14.8727 -2.0837 42.9404 -2.9298 -11.1616
# 5 -14.9388 -3.6713 -7.1963 -2.9298 49.4754 -16.5353
# 6 13.0217 1.4684 -0.7576 -11.1616 -16.5353 41.9296
#
#
#
# Elastic Compliance Matrix: (Units=1/GPa)
#
#
# Indices 1 2 3 4 5 6 
#
# 1 0.011475 -0.004244 -0.003712 0.000702 0.001786 -0.002591
# 2 -0.004244 0.011957 -0.001636 0.003490 0.000202 0.001879
# 3 -0.003712 -0.001636 0.011113 -0.000481 0.000892 0.001635
# 4 0.000702 0.003490 -0.000481 0.027301 0.004987 0.008885
# 5 0.001786 0.000202 0.000892 0.004987 0.024709 0.010526
# 6 -0.002591 0.001879 0.001635 0.008885 0.010526 0.031134
#
#
# Mechanical properties :
#
#
# Convention : Reuss Voigt Hill
#
# Bulk Modulus (GPa) = 65.10345 69.89865 67.50105
# Shear Modulus (GPa) = 35.21226 41.21395 38.21311
#
# Velocity S-wave (km/s) = 4.00439 4.33223 4.17153
# Velocity P-wave (km/s) = 7.14334 7.54023 7.34447
#
# Compressibility (1/GPa) = 0.01536017
#
# Stress axis : x y z
#
# Youngs Moduli (GPa) = 87.14294 83.63397 89.98178
#
# Poissons Ratio (x) = 0.35495 0.33405
# Poissons Ratio (y) = 0.36984 0.14723
# Poissons Ratio (z) = 0.32351 0.13684
#
# Static dielectric constant tensor:
#      x y z
#    x 4.263010 0.117950 -0.321770 
#    y 0.117950 3.976970 -0.143540 
#    z -0.321770 -0.143540 4.160000 
# 
# 
# High freq. dielectric constant tensor:
#      x y z
#    x 1.875670 0.004480 -0.016940 
#    y 0.004480 1.871930 -0.015570 
#    z -0.016940 -0.015570 1.866750 
# 
# From -- ./inp_files/188330.got.cif
#   From: 2010.06.25/outbox.cif.g09.slc.cpg/sg2_95_cif.got.tgz:188330.got - 2010.06.27 13:26:56.
