data_PCOD8013209
_publ_section_title
;
Structure prediction by ZEFSAII (Michael W. Deem and Ramdas Pophale) SiO2 
 PCOD8013209
Probable space group: P -1
;
_chemical_formula_sum "Si O2"
_cell_formula_units_Z 14
_cell_length_a 9.269894
_cell_length_b 9.197031
_cell_length_c 9.256404
_cell_angle_alpha 87.065254
_cell_angle_beta 109.785222
_cell_angle_gamma 71.681364
_cell_volume 693.886269
_symmetry_space_group_name_H-M "P -1"
_symmetry_group_IT_number 2
_symmetry_cell_setting 'triclinic'
loop_
_space_group_symop_operation_xyz
x,y,z
-x,-y,-z
loop_
_atom_site_type_symbol
_atom_site_label
_atom_site_fract_x
_atom_site_fract_y
_atom_site_fract_z
Si Si1 0.976941 0.203821 0.759606
Si Si2 0.361602 0.129904 0.856031
Si Si3 0.925976 0.373420 0.016380
Si Si4 0.040186 0.115838 0.281693
Si Si5 0.640732 0.529690 0.131848
Si Si6 0.361283 0.988960 0.558605
Si Si7 0.229591 0.728937 0.592513
O O1 0.892493 0.283054 0.576314
O O2 0.171973 0.170605 0.836993
O O3 0.943188 0.045736 0.778433
O O4 0.878613 0.315067 0.850869
O O5 0.399745 0.288533 0.864574
O O6 0.393981 0.057485 0.714145
O O7 0.500000 0.000000 0.000000
O O8 0.786555 0.456234 0.076282
O O9 0.051594 0.226548 0.150030
O O10 0.000000 0.500000 0.000000
O O11 0.874092 0.169411 0.315617
O O12 0.186879 0.103327 0.438985
O O13 0.672358 0.443415 0.303501
O O14 0.500000 0.500000 0.000000
O O15 0.355826 0.813630 0.580003
O O16 0.500000 0.000000 0.500000
#
# Coordination Sequence:
#
# PCOD8013209 Si02
#       7
#     2   2   2   2   2   2   2
#     4  11  21  42  68  96 125 169 223 258 311 387
#     4  12  25  41  67  95 131 170 212 266 325 381
#     4  11  24  39  63  98 126 169 215 263 310 372
#     4  10  21  40  66  90 130 170 211 262 313 380
#     4  11  26  44  65  92 135 171 207 265 330 377
#     4  11  23  40  65  98 127 162 217 266 318 377
#     4  10  21  44  67  91 126 173 210 259 323 380
#
# _framework density 20.176217999999999
#
# number of rings (size 3 to 8) (size 9 to 14) (size 15 to 20)
#    0.000    1.143    4.286    2.143    4.000    5.143 
#    0.000    1.429    0.000    0.000    0.000    0.000 
#    0.000    0.000    0.000    0.000    0.000    0.000 
#
# Total GULP energy -173520.841548 kJ/mol
# GULP energy per Si atom -12394.345825 kJ/mol
# Density = 2.013030 g / cm^3
# Si number density = 20.176218 Si / 1000 Ang^3
#
#
#
# Elastic Constant Matrix: (Units=GPa)
#
#
# Indices 1 2 3 4 5 6 
#
# 1 90.1202 30.2392 43.9020 -19.2185 -0.0103 25.5830
# 2 30.2392 132.9868 83.9488 -18.5981 3.5591 27.8371
# 3 43.9020 83.9488 156.6335 -9.9067 3.9280 20.8805
# 4 -19.2185 -18.5981 -9.9067 41.9615 -1.0717 -4.5838
# 5 -0.0103 3.5591 3.9280 -1.0717 37.6315 2.2978
# 6 25.5830 27.8371 20.8805 -4.5838 2.2978 27.4815
#
#
#
# Elastic Compliance Matrix: (Units=1/GPa)
#
#
# Indices 1 2 3 4 5 6 
#
# 1 0.017944 0.002513 -0.003951 0.006769 0.001302 -0.015228
# 2 0.002513 0.013908 -0.006433 0.004623 0.000147 -0.010781
# 3 -0.003951 -0.006433 0.010580 -0.001974 -0.000668 0.001881
# 4 0.006769 0.004623 -0.001974 0.028003 0.000867 -0.004886
# 5 0.001302 0.000147 -0.000668 0.000867 0.026835 -0.002952
# 6 -0.015228 -0.010781 0.001881 -0.004886 -0.002952 0.059488
#
#
# Mechanical properties :
#
#
# Convention : Reuss Voigt Hill
#
# Bulk Modulus (GPa) = 37.46407 77.32449 57.39428
# Shear Modulus (GPa) = 27.56399 36.19161 31.87780
#
# Velocity S-wave (km/s) = 3.70017 4.23989 3.97919
# Velocity P-wave (km/s) = 6.07156 7.89789 7.04416
#
# Compressibility (1/GPa) = 0.02669224
#
# Stress axis : x y z
#
# Youngs Moduli (GPa) = 55.72759 71.90108 94.51428
#
# Poissons Ratio (x) = -0.18071 0.37343
# Poissons Ratio (y) = -0.14006 0.60797
# Poissons Ratio (z) = 0.22018 0.46251
#
# Static dielectric constant tensor:
#      x y z
#    x 3.514640 0.244760 0.063010 
#    y 0.244760 3.423910 -0.062090 
#    z 0.063010 -0.062090 3.926780 
# 
# 
# High freq. dielectric constant tensor:
#      x y z
#    x 1.781860 0.011050 -0.003260 
#    y 0.011050 1.791670 -0.000280 
#    z -0.003260 -0.000280 1.806180 
# 
# From -- ./inp_files/153870.got.cif
#   From: 2010.06.25/outbox.cif.g09.slc.cpg/sg2_77_cif.got.tgz:153870.got - 2010.06.27 13:26:56.
