data_PCOD8013608
_publ_section_title
;
Structure prediction by ZEFSAII (Michael W. Deem and Ramdas Pophale) SiO2 
 PCOD8013608
Probable space group: P -1
;
_chemical_formula_sum "Si O2"
_cell_formula_units_Z 16
_cell_length_a 12.667263
_cell_length_b 8.514635
_cell_length_c 9.180300
_cell_angle_alpha 101.544954
_cell_angle_beta 100.888322
_cell_angle_gamma 45.286756
_cell_volume 687.762353
_symmetry_space_group_name_H-M "P -1"
_symmetry_group_IT_number 2
_symmetry_cell_setting 'triclinic'
loop_
_space_group_symop_operation_xyz
x,y,z
-x,-y,-z
loop_
_atom_site_type_symbol
_atom_site_label
_atom_site_fract_x
_atom_site_fract_y
_atom_site_fract_z
Si Si1 0.574011 0.003664 0.721405
Si Si2 0.404950 0.495102 0.858985
Si Si3 0.823358 0.838462 0.939422
Si Si4 0.226389 0.815957 0.615763
Si Si5 0.102101 0.746921 0.326070
Si Si6 0.689857 0.927876 0.420736
Si Si7 0.057852 0.395553 0.777209
Si Si8 0.832670 0.186666 0.945675
O O1 0.481058 0.260892 0.770167
O O2 0.461246 0.970394 0.681802
O O3 0.690571 0.857645 0.856334
O O4 0.673092 0.909300 0.583199
O O5 0.353356 0.654259 0.737503
O O6 0.500000 0.500000 0.000000
O O7 0.255277 0.603712 0.929234
O O8 0.982584 0.634351 0.864976
O O9 0.768537 0.071629 0.921030
O O10 0.842890 0.798737 0.110058
O O11 0.209006 0.685822 0.475609
O O12 0.279038 0.917068 0.560094
O O13 0.062070 0.005165 0.675361
O O14 0.188669 0.717386 0.200720
O O15 0.079901 0.578528 0.296685
O O16 0.832593 0.683593 0.345315
O O17 0.000000 0.000000 0.000000
#
# Coordination Sequence:
#
# PCOD8013608 Si02
#       8
#     2   2   2   2   2   2   2   2
#     4  11  26  45  64  94 138 180 217 268 334 401
#     4  12  26  44  66 100 138 178 220 272 336 395
#     4  11  23  42  65  99 135 167 221 275 330 395
#     4  10  22  43  67  97 132 170 224 273 326 394
#     4  10  21  40  69  99 127 169 221 280 327 380
#     4  10  24  46  66  95 132 177 221 271 328 395
#     4  10  23  42  68  99 128 171 224 276 328 387
#     4  12  21  41  69  97 132 172 219 276 322 391
#
# _framework density 23.263849
#
# number of rings (size 3 to 8) (size 9 to 14) (size 15 to 20)
#    0.000    1.250    3.750    1.500    1.750    3.500 
#    2.250    0.000    0.000    0.000    0.000    0.000 
#    0.000    0.000    0.000    0.000    0.000    0.000 
#
# Total GULP energy -198346.576147 kJ/mol
# GULP energy per Si atom -12396.661009 kJ/mol
# Density = 2.321090 g / cm^3
# Si number density = 23.263849 Si / 1000 Ang^3
#
#
#
# Elastic Constant Matrix: (Units=GPa)
#
#
# Indices 1 2 3 4 5 6 
#
# 1 92.6310 7.2582 32.4671 -0.0467 3.6000 -10.1083
# 2 7.2582 62.6547 23.3381 13.4552 -12.2124 -14.6143
# 3 32.4671 23.3381 105.4037 7.6146 5.6605 -8.7696
# 4 -0.0467 13.4552 7.6146 39.2483 -17.6997 0.4407
# 5 3.6000 -12.2124 5.6605 -17.6997 45.9584 -2.2585
# 6 -10.1083 -14.6143 -8.7696 0.4407 -2.2585 21.9969
#
#
#
# Elastic Compliance Matrix: (Units=1/GPa)
#
#
# Indices 1 2 3 4 5 6 
#
# 1 0.012556 0.001038 -0.003719 0.000390 0.000145 0.004984
# 2 0.001038 0.022870 -0.004105 -0.004780 0.005382 0.014683
# 3 -0.003719 -0.004105 0.011881 -0.002326 -0.003158 0.000023
# 4 0.000390 -0.004780 -0.002326 0.032765 0.011437 -0.003406
# 5 0.000145 0.005382 -0.003158 0.011437 0.028220 0.005052
# 6 0.004984 0.014683 0.000023 -0.003406 0.005052 0.058102
#
#
# Mechanical properties :
#
#
# Convention : Reuss Voigt Hill
#
# Bulk Modulus (GPa) = 29.64346 42.97959 36.31152
# Shear Modulus (GPa) = 26.14895 34.61579 30.38237
#
# Velocity S-wave (km/s) = 3.35627 3.86160 3.61777
# Velocity P-wave (km/s) = 5.27156 6.19658 5.75269
#
# Compressibility (1/GPa) = 0.03373426
#
# Stress axis : x y z
#
# Youngs Moduli (GPa) = 79.64305 43.72551 84.16550
#
# Poissons Ratio (x) = -0.04537 0.31299
# Poissons Ratio (y) = -0.08264 0.34554
# Poissons Ratio (z) = 0.29617 0.17951
#
# Static dielectric constant tensor:
#      x y z
#    x 7.602550 0.795130 -0.152280 
#    y 0.795130 4.441570 0.270240 
#    z -0.152280 0.270240 4.442080 
# 
# 
# High freq. dielectric constant tensor:
#      x y z
#    x 1.916690 -0.015270 0.012160 
#    y -0.015270 1.907480 0.016180 
#    z 0.012160 0.016180 1.932710 
# 
# From -- ./inp_files/244644.got.cif
#   From: 2010.06.25/outbox.cif.g09.slc.cpg/sg2_123_cif.got.tgz:244644.got - 2010.06.27 13:26:56.
