data_PCOD8013119
_publ_section_title
;
Structure prediction by ZEFSAII (Michael W. Deem and Ramdas Pophale) SiO2 
 PCOD8013119
Probable space group: P -1
;
_chemical_formula_sum "Si O2"
_cell_formula_units_Z 16
_cell_length_a 14.375397
_cell_length_b 11.905809
_cell_length_c 11.971572
_cell_angle_alpha 82.306890
_cell_angle_beta 60.937210
_cell_angle_gamma 30.877355
_cell_volume 713.046974
_symmetry_space_group_name_H-M "P -1"
_symmetry_group_IT_number 2
_symmetry_cell_setting 'triclinic'
loop_
_space_group_symop_operation_xyz
x,y,z
-x,-y,-z
loop_
_atom_site_type_symbol
_atom_site_label
_atom_site_fract_x
_atom_site_fract_y
_atom_site_fract_z
Si Si1 0.859985 0.030367 0.134859
Si Si2 0.689728 0.034723 0.050959
Si Si3 0.206074 0.434964 0.736943
Si Si4 0.963750 0.565233 0.343986
Si Si5 0.554922 0.585886 0.478440
Si Si6 0.839205 0.379215 0.809255
Si Si7 0.109756 0.928070 0.567224
Si Si8 0.563421 0.939720 0.721059
O O1 0.696875 0.127894 0.122077
O O2 0.648704 0.257465 0.327052
O O3 0.093938 0.724204 0.090421
O O4 0.000000 0.000000 0.000000
O O5 0.467766 0.286711 0.057105
O O6 0.621085 0.987428 0.161762
O O7 0.969455 0.747942 0.866754
O O8 0.386303 0.337078 0.563019
O O9 0.104402 0.419624 0.738897
O O10 0.373771 0.233480 0.775014
O O11 0.987885 0.677855 0.314931
O O12 0.236994 0.238290 0.267803
O O13 0.728776 0.757175 0.536575
O O14 0.399221 0.709472 0.435365
O O15 0.831961 0.246488 0.375815
O O16 0.895855 0.220137 0.711249
O O17 0.000000 0.000000 0.500000
#
# Coordination Sequence:
#
# PCOD8013119 Si02
#       8
#     2   2   2   2   2   2   2   2
#     4  11  24  43  67  87 131 176 215 272 328 378
#     4  11  25  40  63  98 133 170 217 264 328 388
#     4  12  24  40  67  98 134 169 212 270 323 386
#     4  10  22  41  70  96 127 171 216 265 325 388
#     4  10  24  42  65 100 128 164 227 262 318 399
#     4  10  23  44  66  96 132 171 222 265 323 392
#     4  10  21  41  70  91 126 169 213 277 317 369
#     4  10  21  40  65  94 129 168 215 258 326 391
#
# _framework density 22.438915999999999
#
# number of rings (size 3 to 8) (size 9 to 14) (size 15 to 20)
#    0.000    1.500    0.000    4.500    5.250    6.500 
#    2.250    0.000    0.000    0.000    0.000    0.000 
#    0.000    0.000    0.000    0.000    0.000    0.000 
#
# Total GULP energy -198254.710032 kJ/mol
# GULP energy per Si atom -12390.919377 kJ/mol
# Density = 2.238784 g / cm^3
# Si number density = 22.438916 Si / 1000 Ang^3
#
#
#
# Elastic Constant Matrix: (Units=GPa)
#
#
# Indices 1 2 3 4 5 6 
#
# 1 102.1921 41.1409 23.3131 -4.8752 -5.2854 -3.8888
# 2 41.1409 166.1205 44.3315 9.2783 -16.1522 2.0882
# 3 23.3131 44.3315 74.3018 -0.0077 -17.4433 3.8304
# 4 -4.8752 9.2783 -0.0077 36.2826 6.0185 -1.3610
# 5 -5.2854 -16.1522 -17.4433 6.0185 26.3533 -5.2452
# 6 -3.8888 2.0882 3.8304 -1.3610 -5.2452 36.0282
#
#
#
# Elastic Compliance Matrix: (Units=1/GPa)
#
#
# Indices 1 2 3 4 5 6 
#
# 1 0.011448 -0.002433 -0.002471 0.002395 -0.001064 0.001575
# 2 -0.002433 0.007938 -0.003307 -0.002828 0.002821 -0.000067
# 3 -0.002471 -0.003307 0.018564 -0.001149 0.009898 -0.000651
# 4 0.002395 -0.002828 -0.001149 0.030082 -0.008804 0.000399
# 5 -0.001064 0.002821 0.009898 -0.008804 0.049115 0.005487
# 6 0.001575 -0.000067 -0.000651 0.000399 0.005487 0.028813
#
#
# Mechanical properties :
#
#
# Convention : Reuss Voigt Hill
#
# Bulk Modulus (GPa) = 46.45266 62.24284 54.34775
# Shear Modulus (GPa) = 29.48834 35.32141 32.40487
#
# Velocity S-wave (km/s) = 3.62907 3.97181 3.80430
# Velocity P-wave (km/s) = 6.18926 6.98804 6.60075
#
# Compressibility (1/GPa) = 0.02152729
#
# Stress axis : x y z
#
# Youngs Moduli (GPa) = 87.35308 125.97820 53.86643
#
# Poissons Ratio (x) = 0.30647 0.13312
# Poissons Ratio (y) = 0.21251 0.17816
# Poissons Ratio (z) = 0.21587 0.41667
#
# Static dielectric constant tensor:
#      x y z
#    x 2.613550 -0.516660 0.538180 
#    y -0.516660 4.321170 0.302570 
#    z 0.538180 0.302570 3.335000 
# 
# 
# High freq. dielectric constant tensor:
#      x y z
#    x 1.887270 -0.001090 -0.013210 
#    y -0.001090 1.907420 0.010340 
#    z -0.013210 0.010340 1.855110 
# 
# From -- ./inp_files/452274.got.cif
#   From: 2010.06.25/outbox.cif.g09.slc.cpg/sg2_227_cif.got.tgz:452274.got - 2010.06.27 13:26:56.
