data_PCOD8013555
_publ_section_title
;
Structure prediction by ZEFSAII (Michael W. Deem and Ramdas Pophale) SiO2 
 PCOD8013555
Probable space group: P -1
;
_chemical_formula_sum "Si O2"
_cell_formula_units_Z 14
_cell_length_a 13.953832
_cell_length_b 8.117608
_cell_length_c 9.576408
_cell_angle_alpha 95.142401
_cell_angle_beta 120.682165
_cell_angle_gamma 45.544001
_cell_volume 599.206479
_symmetry_space_group_name_H-M "P -1"
_symmetry_group_IT_number 2
_symmetry_cell_setting 'triclinic'
loop_
_space_group_symop_operation_xyz
x,y,z
-x,-y,-z
loop_
_atom_site_type_symbol
_atom_site_label
_atom_site_fract_x
_atom_site_fract_y
_atom_site_fract_z
Si Si1 0.359707 0.033481 0.952889
Si Si2 0.625849 0.006046 0.550466
Si Si3 0.620416 0.217468 0.821085
Si Si4 0.925135 0.043014 0.600422
Si Si5 0.401670 0.765376 0.712474
Si Si6 0.974594 0.382596 0.177829
Si Si7 0.995518 0.165726 0.915789
O O1 0.172866 0.326924 0.858787
O O2 0.327673 0.922591 0.811253
O O3 0.500000 0.000000 0.000000
O O4 0.456036 0.841580 0.143201
O O5 0.836262 0.738344 0.688858
O O6 0.500000 0.000000 0.500000
O O7 0.588763 0.207176 0.635908
O O8 0.561093 0.126684 0.357243
O O9 0.570088 0.462559 0.839280
O O10 0.817676 0.981592 0.995109
O O11 0.024699 0.777591 0.729766
O O12 0.728483 0.217499 0.449233
O O13 0.000000 0.000000 0.500000
O O14 0.909698 0.220817 0.705979
O O15 0.915881 0.397580 0.976553
O O16 0.000000 0.000000 0.000000
#
# Coordination Sequence:
#
# PCOD8013555 Si02
#       7
#     2   2   2   2   2   2   2
#     4  12  27  44  67  98 140 185 224 280 337 398
#     4  10  22  46  70 102 134 173 221 289 351 387
#     4  11  24  45  67 100 133 178 231 272 337 416
#     4  10  21  40  69 103 131 175 220 282 345 390
#     4  11  25  44  67 101 138 172 228 280 334 412
#     4   9  23  44  67  97 136 176 232 271 331 416
#     4   9  20  41  70  96 129 173 224 276 336 402
#
# _framework density 23.364231
#
# number of rings (size 3 to 8) (size 9 to 14) (size 15 to 20)
#    0.000    1.714    0.000    3.429    6.000    4.571 
#   10.286    0.000    0.000    0.000    0.000    0.000 
#    0.000    0.000    0.000    0.000    0.000    0.000 
#
# Total GULP energy -173445.654236 kJ/mol
# GULP energy per Si atom -12388.975303 kJ/mol
# Density = 2.331105 g / cm^3
# Si number density = 23.364231 Si / 1000 Ang^3
#
#
#
# Elastic Constant Matrix: (Units=GPa)
#
#
# Indices 1 2 3 4 5 6 
#
# 1 110.5802 27.7166 17.5150 -1.9949 -1.3697 -15.8712
# 2 27.7166 166.5762 43.6776 14.0318 0.9742 -15.3376
# 3 17.5150 43.6776 81.3083 22.1180 -5.9550 -11.1742
# 4 -1.9949 14.0318 22.1180 33.7079 1.8059 -4.4189
# 5 -1.3697 0.9742 -5.9550 1.8059 41.7366 6.5453
# 6 -15.8712 -15.3376 -11.1742 -4.4189 6.5453 24.3008
#
#
#
# Elastic Compliance Matrix: (Units=1/GPa)
#
#
# Indices 1 2 3 4 5 6 
#
# 1 0.010509 -0.000953 -0.001802 0.003076 -0.001005 0.006264
# 2 -0.000953 0.007323 -0.003293 -0.000536 -0.001069 0.002676
# 3 -0.001802 -0.003293 0.017749 -0.010216 0.002625 0.002342
# 4 0.003076 -0.000536 -0.010216 0.037606 -0.003726 0.004815
# 5 -0.001005 -0.001069 0.002625 -0.003726 0.025699 -0.007723
# 6 0.006264 0.002676 0.002342 0.004815 -0.007723 0.050964
#
#
# Mechanical properties :
#
#
# Convention : Reuss Voigt Hill
#
# Bulk Modulus (GPa) = 42.57787 59.58702 51.08244
# Shear Modulus (GPa) = 29.45092 37.91943 33.68517
#
# Velocity S-wave (km/s) = 3.55422 4.03298 3.80115
# Velocity P-wave (km/s) = 5.92507 6.87353 6.41685
#
# Compressibility (1/GPa) = 0.02348638
#
# Stress axis : x y z
#
# Youngs Moduli (GPa) = 95.15217 136.55435 56.34071
#
# Poissons Ratio (x) = 0.13010 0.10150
# Poissons Ratio (y) = 0.09065 0.18555
# Poissons Ratio (z) = 0.17142 0.44973
#
# Static dielectric constant tensor:
#      x y z
#    x 4.310530 -0.207620 -0.146100 
#    y -0.207620 4.111960 0.342380 
#    z -0.146100 0.342380 4.455420 
# 
# 
# High freq. dielectric constant tensor:
#      x y z
#    x 1.942900 -0.003510 -0.005830 
#    y -0.003510 1.915550 0.019480 
#    z -0.005830 0.019480 1.923060 
# 
# From -- ./inp_files/280282.got.cif
#   From: 2010.06.25/outbox.cif.g09.slc.cpg/sg2_141_cif.got.tgz:280282.got - 2010.06.27 13:26:56.
