data_PCOD8013571
_publ_section_title
;
Structure prediction by ZEFSAII (Michael W. Deem and Ramdas Pophale) SiO2 
 PCOD8013571
Probable space group: P -1
;
_chemical_formula_sum "Si O2"
_cell_formula_units_Z 16
_cell_length_a 13.714376
_cell_length_b 12.084339
_cell_length_c 11.712472
_cell_angle_alpha 73.825839
_cell_angle_beta 22.095613
_cell_angle_gamma 72.800763
_cell_volume 697.443255
_symmetry_space_group_name_H-M "P -1"
_symmetry_group_IT_number 2
_symmetry_cell_setting 'triclinic'
loop_
_space_group_symop_operation_xyz
x,y,z
-x,-y,-z
loop_
_atom_site_type_symbol
_atom_site_label
_atom_site_fract_x
_atom_site_fract_y
_atom_site_fract_z
Si Si1 0.424176 0.417518 0.784064
Si Si2 0.899385 0.979697 0.240398
Si Si3 0.220521 0.213129 0.163525
Si Si4 0.556466 0.391386 0.134407
Si Si5 0.348230 0.768374 0.120130
Si Si6 0.345098 0.004288 0.924072
Si Si7 0.822708 0.405778 0.178746
Si Si8 0.954714 0.717526 0.224862
O O1 0.466683 0.470261 0.850266
O O2 0.679764 0.357642 0.458222
O O3 0.349363 0.528959 0.753513
O O4 0.222107 0.320459 0.041247
O O5 0.608386 0.039403 0.566773
O O6 0.106425 0.022861 0.090446
O O7 0.873405 0.845032 0.319293
O O8 0.000000 0.000000 0.000000
O O9 0.949156 0.221809 0.520072
O O10 0.461390 0.225027 0.982434
O O11 0.271217 0.089202 0.084943
O O12 0.292376 0.352794 0.481221
O O13 0.581611 0.355823 0.983858
O O14 0.816235 0.331247 0.926953
O O15 0.386284 0.872962 0.962194
O O16 0.000000 0.500000 0.000000
O O17 0.965071 0.291962 0.994148
#
# Coordination Sequence:
#
# PCOD8013571 Si02
#       8
#     2   2   2   2   2   2   2   2
#     4  10  25  42  62 105 131 173 221 270 336 396
#     4  12  25  42  69 106 133 173 219 275 335 397
#     4  12  28  43  70  99 135 173 229 286 324 384
#     4  11  22  42  70  92 131 172 220 268 326 400
#     4  12  24  46  70  94 130 184 227 276 336 381
#     4  12  25  48  68  98 138 177 224 272 335 402
#     4  10  21  40  69  90 137 178 212 260 339 414
#     4  11  21  40  66  97 129 173 215 268 323 409
#
# _framework density 22.940936000000001
#
# number of rings (size 3 to 8) (size 9 to 14) (size 15 to 20)
#    0.000    0.750    3.750    3.375    3.500    2.000 
#    0.000    0.000    0.000    0.000    0.000    0.000 
#    0.000    0.000    0.000    0.000    0.000    0.000 
#
# Total GULP energy -198306.818078 kJ/mol
# GULP energy per Si atom -12394.176130 kJ/mol
# Density = 2.288872 g / cm^3
# Si number density = 22.940936 Si / 1000 Ang^3
#
#
#
# Elastic Constant Matrix: (Units=GPa)
#
#
# Indices 1 2 3 4 5 6 
#
# 1 76.3564 32.1534 16.9999 1.6792 -1.0576 28.3257
# 2 32.1534 52.0603 37.7112 8.5375 4.4088 30.2462
# 3 16.9999 37.7112 146.3184 2.3008 7.6671 8.2858
# 4 1.6792 8.5375 2.3008 37.8261 10.4280 13.2498
# 5 -1.0576 4.4088 7.6671 10.4280 46.1272 3.2526
# 6 28.3257 30.2462 8.2858 13.2498 3.2526 40.0678
#
#
#
# Elastic Compliance Matrix: (Units=1/GPa)
#
#
# Indices 1 2 3 4 5 6 
#
# 1 0.019711 -0.007126 -0.000002 0.003956 0.000940 -0.009939
# 2 -0.007126 0.047392 -0.009701 0.000643 -0.001192 -0.028847
# 3 -0.000002 -0.009701 0.009072 -0.000037 -0.000963 0.005538
# 4 0.003956 0.000643 -0.000037 0.032623 -0.006385 -0.013544
# 5 0.000940 -0.001192 -0.000963 -0.006385 0.023372 0.000648
# 6 -0.009939 -0.028847 0.005538 -0.013544 0.000648 0.057041
#
#
# Mechanical properties :
#
#
# Convention : Reuss Voigt Hill
#
# Bulk Modulus (GPa) = 23.51994 49.82934 36.67464
# Shear Modulus (GPa) = 21.09346 37.32893 29.21119
#
# Velocity S-wave (km/s) = 3.03556 4.03820 3.57223
# Velocity P-wave (km/s) = 4.74982 6.59626 5.74767
#
# Compressibility (1/GPa) = 0.04251712
#
# Stress axis : x y z
#
# Youngs Moduli (GPa) = 50.73342 21.10077 110.22652
#
# Poissons Ratio (x) = 0.15037 0.00023
# Poissons Ratio (y) = 0.36154 1.06926
# Poissons Ratio (z) = 0.00010 0.20469
#
# Static dielectric constant tensor:
#      x y z
#    x 3.792120 0.371960 0.204400 
#    y 0.371960 4.553570 0.306390 
#    z 0.204400 0.306390 4.439430 
# 
# 
# High freq. dielectric constant tensor:
#      x y z
#    x 1.906270 0.029540 0.002210 
#    y 0.029540 1.903400 0.009890 
#    z 0.002210 0.009890 1.926000 
# 
# From -- ./inp_files/98617.got.cif
#   From: 2010.06.25/outbox.cif.g09.slc.cpg/sg2_50_cif.got.tgz:98617.got - 2010.06.27 13:26:56.
