data_PCOD8013993
_publ_section_title
;
Structure prediction by ZEFSAII (Michael W. Deem and Ramdas Pophale) SiO2 
 PCOD8013993
Probable space group: P -1
;
_chemical_formula_sum "Si O2"
_cell_formula_units_Z 16
_cell_length_a 7.833383
_cell_length_b 12.799325
_cell_length_c 15.472998
_cell_angle_alpha 34.740824
_cell_angle_beta 115.881663
_cell_angle_gamma 98.743968
_cell_volume 727.898814
_symmetry_space_group_name_H-M "P -1"
_symmetry_group_IT_number 2
_symmetry_cell_setting 'triclinic'
loop_
_space_group_symop_operation_xyz
x,y,z
-x,-y,-z
loop_
_atom_site_type_symbol
_atom_site_label
_atom_site_fract_x
_atom_site_fract_y
_atom_site_fract_z
Si Si1 0.661407 0.673098 0.704075
Si Si2 0.812543 0.129652 0.967641
Si Si3 0.898824 0.296628 0.699712
Si Si4 0.834045 0.934743 0.463658
Si Si5 0.954214 0.662896 0.023868
Si Si6 0.418344 0.502741 0.660847
Si Si7 0.469714 0.304228 0.156095
Si Si8 0.050139 0.571508 0.649620
O O1 0.557036 0.627922 0.625176
O O2 0.502873 0.725291 0.713978
O O3 0.861675 0.469508 0.910004
O O4 0.742001 0.841107 0.582240
O O5 0.813537 0.197945 0.822484
O O6 0.574090 0.265476 0.849561
O O7 0.988748 0.162114 0.042399
O O8 0.883991 0.887383 0.157876
O O9 0.724015 0.393146 0.523256
O O10 0.940071 0.486155 0.612604
O O11 0.645143 0.133994 0.255800
O O12 0.000000 0.000000 0.500000
O O13 0.918756 0.806390 0.481821
O O14 0.930192 0.527635 0.186705
O O15 0.739345 0.731560 0.880173
O O16 0.278425 0.525742 0.698032
O O17 0.500000 0.500000 0.000000
#
# Coordination Sequence:
#
# PCOD8013993 Si02
#       8
#     2   2   2   2   2   2   2   2
#     4  10  22  41  65  93 127 169 216 261 320 394
#     4   9  21  39  61  95 122 165 213 267 306 389
#     4  10  21  41  64  89 131 164 215 259 322 379
#     4  11  24  43  63  88 129 169 213 266 320 383
#     4   9  20  39  60  87 129 160 209 263 321 374
#     4  11  21  39  67  92 131 166 210 261 329 375
#     4  12  23  39  65  95 127 169 212 269 330 378
#     4  10  22  43  59  91 129 163 208 268 308 392
#
# _framework density 21.981078
#
# number of rings (size 3 to 8) (size 9 to 14) (size 15 to 20)
#    0.000    1.750    0.000    5.250    1.750    0.500 
#   11.250    0.000    0.000    0.000    0.000    0.000 
#    0.000    0.000    0.000    0.000    0.000    0.000 
#
# Total GULP energy -198241.287928 kJ/mol
# GULP energy per Si atom -12390.080496 kJ/mol
# Density = 2.193105 g / cm^3
# Si number density = 21.981078 Si / 1000 Ang^3
#
#
#
# Elastic Constant Matrix: (Units=GPa)
#
#
# Indices 1 2 3 4 5 6 
#
# 1 108.6125 48.2324 41.3077 -18.4854 18.1809 -10.2457
# 2 48.2324 133.9478 70.2746 -22.5429 21.2703 -1.7958
# 3 41.3077 70.2746 95.9127 -19.0110 37.3227 0.5471
# 4 -18.4854 -22.5429 -19.0110 37.9263 -3.8200 12.0217
# 5 18.1809 21.2703 37.3227 -3.8200 40.0611 -4.4645
# 6 -10.2457 -1.7958 0.5471 12.0217 -4.4645 35.8589
#
#
#
# Elastic Compliance Matrix: (Units=1/GPa)
#
#
# Indices 1 2 3 4 5 6 
#
# 1 0.012066 -0.002430 -0.002401 0.002325 -0.001459 0.002401
# 2 -0.002430 0.013113 -0.009225 0.002386 0.002925 -0.000332
# 3 -0.002401 -0.009225 0.027190 0.007031 -0.019379 -0.006333
# 4 0.002325 0.002386 0.007031 0.035592 -0.006828 -0.012106
# 5 -0.001459 0.002925 -0.019379 -0.006828 0.042320 0.007583
# 6 0.002401 -0.000332 -0.006333 -0.012106 0.007583 0.033656
#
#
# Mechanical properties :
#
#
# Convention : Reuss Voigt Hill
#
# Bulk Modulus (GPa) = 41.22450 73.12250 57.17350
# Shear Modulus (GPa) = 24.98338 34.67982 29.83160
#
# Velocity S-wave (km/s) = 3.37499 3.97635 3.68795
# Velocity P-wave (km/s) = 5.82946 7.37700 6.64841
#
# Compressibility (1/GPa) = 0.02425742
#
# Stress axis : x y z
#
# Youngs Moduli (GPa) = 82.87921 76.26212 36.77821
#
# Poissons Ratio (x) = 0.18529 0.08831
# Poissons Ratio (y) = 0.20137 0.33926
# Poissons Ratio (z) = 0.19902 0.70349
#
# Static dielectric constant tensor:
#      x y z
#    x 4.244770 -0.124390 0.321980 
#    y -0.124390 4.220950 -0.277180 
#    z 0.321980 -0.277180 3.861340 
# 
# 
# High freq. dielectric constant tensor:
#      x y z
#    x 1.867930 -0.004120 0.014900 
#    y -0.004120 1.878030 -0.009470 
#    z 0.014900 -0.009470 1.846200 
# 
# From -- ./inp_files/499922.got.cif
#   From: 2010.06.25/outbox.cif.g09.slc.cpg/sg2_250_cif.got.tgz:499922.got - 2010.06.27 13:26:56.
