data_PCOD8013542
_publ_section_title
;
Structure prediction by ZEFSAII (Michael W. Deem and Ramdas Pophale) SiO2 
 PCOD8013542
Probable space group: P -1
;
_chemical_formula_sum "Si O2"
_cell_formula_units_Z 16
_cell_length_a 10.917131
_cell_length_b 17.522458
_cell_length_c 8.946891
_cell_angle_alpha 134.865136
_cell_angle_beta 123.761095
_cell_angle_gamma 33.446079
_cell_volume 666.203558
_symmetry_space_group_name_H-M "P -1"
_symmetry_group_IT_number 2
_symmetry_cell_setting 'triclinic'
loop_
_space_group_symop_operation_xyz
x,y,z
-x,-y,-z
loop_
_atom_site_type_symbol
_atom_site_label
_atom_site_fract_x
_atom_site_fract_y
_atom_site_fract_z
Si Si1 0.216815 0.434243 0.485286
Si Si2 0.152310 0.126514 0.802090
Si Si3 0.035870 0.727089 0.621740
Si Si4 0.390109 0.867408 0.842300
Si Si5 0.018417 0.905340 0.612290
Si Si6 0.287656 0.732364 0.029154
Si Si7 0.546648 0.999042 0.703043
Si Si8 0.738878 0.452691 0.048242
O O1 0.169411 0.541722 0.462564
O O2 0.395597 0.253542 0.289031
O O3 0.321856 0.443147 0.704988
O O4 0.000000 0.500000 0.500000
O O5 0.012629 0.107676 0.600106
O O6 0.217299 0.048134 0.902270
O O7 0.375719 0.026202 0.723559
O O8 0.994878 0.320714 0.978588
O O9 0.003093 0.796730 0.532662
O O10 0.797832 0.823609 0.663570
O O11 0.159188 0.751980 0.831427
O O12 0.259498 0.825587 0.702824
O O13 0.459819 0.872139 0.062213
O O14 0.811701 0.093860 0.780719
O O15 0.558002 0.586052 0.983044
O O16 0.267558 0.670767 0.080534
O O17 0.500000 0.000000 0.500000
#
# Coordination Sequence:
#
# PCOD8013542 Si02
#       8
#     2   2   2   2   2   2   2   2
#     4  11  24  46  71 102 144 190 242 293 355 428
#     4  12  24  43  74 106 144 185 245 291 351 428
#     4  11  24  45  67  98 145 191 228 297 366 418
#     4  12  25  43  75 106 138 189 248 292 350 428
#     4  12  24  41  69 108 142 183 240 293 358 426
#     4  10  21  40  68  99 144 179 234 292 359 412
#     4  12  25  48  70 102 143 191 237 295 363 429
#     4  10  22  41  68 106 138 184 234 299 348 410
#
# _framework density 24.016684999999999
#
# number of rings (size 3 to 8) (size 9 to 14) (size 15 to 20)
#    0.000    0.750    3.750    4.125    5.250    0.500 
#    0.000    0.625    0.000    0.000    0.000    0.000 
#    0.000    0.000    0.000    0.000    0.000    0.000 
#
# Total GULP energy -198251.690607 kJ/mol
# GULP energy per Si atom -12390.730663 kJ/mol
# Density = 2.396202 g / cm^3
# Si number density = 24.016685 Si / 1000 Ang^3
#
#
#
# Elastic Constant Matrix: (Units=GPa)
#
#
# Indices 1 2 3 4 5 6 
#
# 1 72.4564 24.0883 13.7492 -12.8822 -1.9358 -10.4570
# 2 24.0883 132.4690 49.1101 0.7504 -5.7211 -12.7596
# 3 13.7492 49.1101 133.9214 -9.3646 -4.7833 -6.8414
# 4 -12.8822 0.7504 -9.3646 31.0176 -7.0401 -1.8059
# 5 -1.9358 -5.7211 -4.7833 -7.0401 26.6829 3.0829
# 6 -10.4570 -12.7596 -6.8414 -1.8059 3.0829 40.0089
#
#
#
# Elastic Compliance Matrix: (Units=1/GPa)
#
#
# Indices 1 2 3 4 5 6 
#
# 1 0.016632 -0.002641 0.000070 0.007721 0.002264 0.003691
# 2 -0.002641 0.009416 -0.003226 -0.002088 0.000510 0.001627
# 3 0.000070 -0.003226 0.008957 0.003231 0.001710 0.000535
# 4 0.007721 -0.002088 0.003231 0.039060 0.010668 0.002846
# 5 0.002264 0.000510 0.001710 0.010668 0.041061 -0.001636
# 6 0.003691 0.001627 0.000535 0.002846 -0.001636 0.026824
#
#
# Mechanical properties :
#
#
# Convention : Reuss Voigt Hill
#
# Bulk Modulus (GPa) = 42.71487 56.97135 49.84311
# Shear Modulus (GPa) = 30.98894 36.33515 33.66205
#
# Velocity S-wave (km/s) = 3.59598 3.89384 3.74787
# Velocity P-wave (km/s) = 5.92162 6.63242 6.28707
#
# Compressibility (1/GPa) = 0.02341105
#
# Stress axis : x y z
#
# Youngs Moduli (GPa) = 60.12502 106.20339 111.64042
#
# Poissons Ratio (x) = 0.28047 -0.00784
# Poissons Ratio (y) = 0.15878 0.36020
# Poissons Ratio (z) = -0.00422 0.34266
#
# Static dielectric constant tensor:
#      x y z
#    x 4.139660 -0.335710 0.104070 
#    y -0.335710 4.714170 -0.033830 
#    z 0.104070 -0.033830 4.359750 
# 
# 
# High freq. dielectric constant tensor:
#      x y z
#    x 1.928760 -0.022500 0.003010 
#    y -0.022500 1.966050 -0.005230 
#    z 0.003010 -0.005230 1.950040 
# 
# From -- ./inp_files/283437.got.cif
#   From: 2010.06.25/outbox.cif.g09.slc.cpg/sg2_142_cif.got.tgz:283437.got - 2010.06.27 13:26:56.
