data_PCOD8013476
_publ_section_title
;
Structure prediction by ZEFSAII (Michael W. Deem and Ramdas Pophale) SiO2 
 PCOD8013476
Probable space group: P -1
;
_chemical_formula_sum "Si O2"
_cell_formula_units_Z 16
_cell_length_a 14.097588
_cell_length_b 11.915770
_cell_length_c 8.178594
_cell_angle_alpha 140.910906
_cell_angle_beta 64.599866
_cell_angle_gamma 99.103588
_cell_volume 744.804984
_symmetry_space_group_name_H-M "P -1"
_symmetry_group_IT_number 2
_symmetry_cell_setting 'triclinic'
loop_
_space_group_symop_operation_xyz
x,y,z
-x,-y,-z
loop_
_atom_site_type_symbol
_atom_site_label
_atom_site_fract_x
_atom_site_fract_y
_atom_site_fract_z
Si Si1 0.533762 0.452776 0.734231
Si Si2 0.228016 0.521687 0.399194
Si Si3 0.406870 0.927079 0.910742
Si Si4 0.670556 0.269064 0.964185
Si Si5 0.126923 0.730362 0.015211
Si Si6 0.822404 0.156805 0.440916
Si Si7 0.965440 0.855299 0.537664
Si Si8 0.208556 0.158005 0.118902
O O1 0.649144 0.487847 0.647284
O O2 0.543722 0.238927 0.444302
O O3 0.500000 0.500000 0.000000
O O4 0.444390 0.577964 0.818073
O O5 0.199188 0.633378 0.377232
O O6 0.218261 0.312703 0.154771
O O7 0.136422 0.624453 0.717450
O O8 0.345979 0.867926 0.039828
O O9 0.500000 0.000000 0.000000
O O10 0.321537 0.094103 0.064261
O O11 0.760796 0.363962 0.071347
O O12 0.722615 0.155060 0.633581
O O13 0.021563 0.721969 0.192102
O O14 0.116525 0.948444 0.242880
O O15 0.940047 0.094150 0.369983
O O16 0.819155 0.015418 0.139498
O O17 0.893936 0.752797 0.580375
#
# Coordination Sequence:
#
# PCOD8013476 Si02
#       8
#     2   2   2   2   2   2   2   2
#     4  12  23  43  70  95 136 180 218 277 336 398
#     4  12  24  42  66  96 134 174 218 270 336 397
#     4  12  25  42  67 103 135 175 228 277 337 398
#     4  11  21  41  69  91 129 176 218 270 333 393
#     4  10  21  40  68  92 127 171 220 273 328 392
#     4  11  23  44  66  96 134 177 219 272 335 397
#     4  10  21  42  69  93 128 177 219 275 339 380
#     4  12  24  43  67  98 136 172 222 276 331 400
#
# _framework density 21.482132
#
# number of rings (size 3 to 8) (size 9 to 14) (size 15 to 20)
#    0.000    0.750    6.250    1.500    1.750    2.000 
#    0.000    2.500    0.000    0.000    0.000    0.000 
#    0.000    0.000    0.000    0.000    0.000    0.000 
#
# Total GULP energy -198394.875745 kJ/mol
# GULP energy per Si atom -12399.679734 kJ/mol
# Density = 2.143324 g / cm^3
# Si number density = 21.482132 Si / 1000 Ang^3
#
#
#
# Elastic Constant Matrix: (Units=GPa)
#
#
# Indices 1 2 3 4 5 6 
#
# 1 85.9757 17.3818 33.7941 2.0707 -11.3032 -3.8603
# 2 17.3818 110.3783 52.4759 -2.7328 6.5807 -3.7227
# 3 33.7941 52.4759 92.9797 -19.4157 -6.9191 6.0538
# 4 2.0707 -2.7328 -19.4157 37.9638 -3.6329 -0.7064
# 5 -11.3032 6.5807 -6.9191 -3.6329 27.8911 3.0506
# 6 -3.8603 -3.7227 6.0538 -0.7064 3.0506 34.2941
#
#
#
# Elastic Compliance Matrix: (Units=1/GPa)
#
#
# Indices 1 2 3 4 5 6 
#
# 1 0.014642 0.000415 -0.006186 -0.003545 0.003578 0.002394
# 2 0.000415 0.014044 -0.009766 -0.004565 -0.006577 0.003786
# 3 -0.006186 -0.009766 0.021834 0.011393 0.007358 -0.006031
# 4 -0.003545 -0.004565 0.011393 0.032652 0.007032 -0.002859
# 5 0.003578 -0.006577 0.007358 0.007032 0.042167 -0.005216
# 6 0.002394 0.003786 -0.006031 -0.002859 -0.005216 0.031310
#
#
# Mechanical properties :
#
#
# Convention : Reuss Voigt Hill
#
# Bulk Modulus (GPa) = 51.42451 55.18194 53.30322
# Shear Modulus (GPa) = 25.74577 32.40857 29.07717
#
# Velocity S-wave (km/s) = 3.46565 3.88832 3.68306
# Velocity P-wave (km/s) = 6.32492 6.77509 6.55387
#
# Compressibility (1/GPa) = 0.01944598
#
# Stress axis : x y z
#
# Youngs Moduli (GPa) = 68.29666 71.20300 45.79921
#
# Poissons Ratio (x) = -0.02953 0.28330
# Poissons Ratio (y) = -0.02832 0.44729
# Poissons Ratio (z) = 0.42247 0.69540
#
# Static dielectric constant tensor:
#      x y z
#    x 4.039520 -0.011750 -0.356030 
#    y -0.011750 3.983900 -0.286420 
#    z -0.356030 -0.286420 3.948640 
# 
# 
# High freq. dielectric constant tensor:
#      x y z
#    x 1.841420 -0.014340 -0.024590 
#    y -0.014340 1.844170 -0.020490 
#    z -0.024590 -0.020490 1.840520 
# 
# From -- ./inp_files/305967.got.cif
#   From: 2010.06.25/outbox.cif.g09.slc.cpg/sg2_153_cif.got.tgz:305967.got - 2010.06.27 13:26:56.
