data_PCOD8013139
_publ_section_title
;
Structure prediction by ZEFSAII (Michael W. Deem and Ramdas Pophale) SiO2 
 PCOD8013139
Probable space group: P -1
;
_chemical_formula_sum "Si O2"
_cell_formula_units_Z 16
_cell_length_a 11.639720
_cell_length_b 9.280663
_cell_length_c 9.034313
_cell_angle_alpha 94.137551
_cell_angle_beta 81.835324
_cell_angle_gamma 51.836016
_cell_volume 743.334687
_symmetry_space_group_name_H-M "P -1"
_symmetry_group_IT_number 2
_symmetry_cell_setting 'triclinic'
loop_
_space_group_symop_operation_xyz
x,y,z
-x,-y,-z
loop_
_atom_site_type_symbol
_atom_site_label
_atom_site_fract_x
_atom_site_fract_y
_atom_site_fract_z
Si Si1 0.154523 0.519123 0.085244
Si Si2 0.085256 0.503421 0.769234
Si Si3 0.887294 0.206671 0.673632
Si Si4 0.523521 0.786090 0.881453
Si Si5 0.589746 0.532680 0.596900
Si Si6 0.070570 0.150976 0.373407
Si Si7 0.598245 0.790043 0.406753
Si Si8 0.395202 0.969404 0.208460
O O1 0.134129 0.696530 0.161071
O O2 0.325871 0.337265 0.057502
O O3 0.055773 0.491617 0.204015
O O4 0.102872 0.561266 0.930164
O O5 0.235062 0.294597 0.683601
O O6 0.056920 0.656393 0.672130
O O7 0.737647 0.331034 0.608119
O O8 0.025266 0.170970 0.555711
O O9 0.922475 0.016611 0.703328
O O10 0.499900 0.664905 0.769746
O O11 0.532802 0.926593 0.796895
O O12 0.391970 0.900144 0.039139
O O13 0.500000 0.500000 0.500000
O O14 0.631938 0.643739 0.511770
O O15 0.229482 0.104923 0.319101
O O16 0.504255 0.794374 0.287332
O O17 0.500000 0.000000 0.500000
#
# Coordination Sequence:
#
# PCOD8013139 Si02
#       8
#     2   2   2   2   2   2   2   2
#     4  10  22  41  65  95 132 166 213 269 325 381
#     4  11  23  42  66  96 129 169 218 268 321 384
#     4  10  24  43  65  93 132 171 219 266 318 386
#     4  10  21  40  65  95 131 168 211 275 320 387
#     4  11  23  44  63  92 131 170 213 270 326 381
#     4  11  23  43  66  93 128 176 215 264 320 388
#     4  12  24  40  63  99 128 164 218 271 321 384
#     4  11  22  40  65  97 130 168 220 262 331 383
#
# _framework density 21.524623999999999
#
# number of rings (size 3 to 8) (size 9 to 14) (size 15 to 20)
#    0.000    1.250    5.000    0.750    1.750    1.000 
#    2.250    1.875    0.000    0.000    0.000    0.000 
#    0.000    0.000    0.000    0.000    0.000    0.000 
#
# Total GULP energy -198332.276110 kJ/mol
# GULP energy per Si atom -12395.767257 kJ/mol
# Density = 2.147563 g / cm^3
# Si number density = 21.524624 Si / 1000 Ang^3
#
#
#
# Elastic Constant Matrix: (Units=GPa)
#
#
# Indices 1 2 3 4 5 6 
#
# 1 68.5222 19.1611 30.3751 12.4309 3.6181 -8.6764
# 2 19.1611 102.6527 24.2691 8.5379 -2.9463 -2.8062
# 3 30.3751 24.2691 72.3314 15.2268 0.3756 -0.2789
# 4 12.4309 8.5379 15.2268 35.6130 -0.1412 -2.1928
# 5 3.6181 -2.9463 0.3756 -0.1412 34.5015 5.6753
# 6 -8.6764 -2.8062 -0.2789 -2.1928 5.6753 26.4471
#
#
#
# Elastic Compliance Matrix: (Units=1/GPa)
#
#
# Indices 1 2 3 4 5 6 
#
# 1 0.019761 -0.001678 -0.007044 -0.003086 -0.003249 0.006672
# 2 -0.001678 0.010812 -0.002758 -0.000806 0.001082 0.000269
# 3 -0.007044 -0.002758 0.018763 -0.005084 0.000770 -0.002992
# 4 -0.003086 -0.000806 -0.005084 0.031612 0.000205 0.001426
# 5 -0.003249 0.001082 0.000770 0.000205 0.030644 -0.007502
# 6 0.006672 0.000269 -0.002992 0.001426 -0.007502 0.041725
#
#
# Mechanical properties :
#
#
# Convention : Reuss Voigt Hill
#
# Bulk Modulus (GPa) = 37.90972 43.45745 40.68358
# Shear Modulus (GPa) = 27.01683 30.62572 28.82128
#
# Velocity S-wave (km/s) = 3.54667 3.77612 3.66319
# Velocity P-wave (km/s) = 5.86705 6.26463 6.06910
#
# Compressibility (1/GPa) = 0.02637846
#
# Stress axis : x y z
#
# Youngs Moduli (GPa) = 50.60347 92.48754 53.29561
#
# Poissons Ratio (x) = 0.15516 0.37539
# Poissons Ratio (y) = 0.08489 0.14700
# Poissons Ratio (z) = 0.35643 0.25509
#
# Static dielectric constant tensor:
#      x y z
#    x 3.588830 -0.088540 -0.028750 
#    y -0.088540 4.056950 0.067710 
#    z -0.028750 0.067710 4.065730 
# 
# 
# High freq. dielectric constant tensor:
#      x y z
#    x 1.817780 -0.007830 -0.001750 
#    y -0.007830 1.852290 0.005700 
#    z -0.001750 0.005700 1.858600 
# 
# From -- ./inp_files/208383.got.cif
#   From: 2010.06.25/outbox.cif.g09.slc.cpg/sg2_105_cif.got.tgz:208383.got - 2010.06.27 13:26:56.
