data_PCOD8013536
_publ_section_title
;
Structure prediction by ZEFSAII (Michael W. Deem and Ramdas Pophale) SiO2 
 PCOD8013536
Probable space group: P -1
;
_chemical_formula_sum "Si O2"
_cell_formula_units_Z 16
_cell_length_a 21.247537
_cell_length_b 12.190473
_cell_length_c 8.362404
_cell_angle_alpha 141.156367
_cell_angle_beta 49.512088
_cell_angle_gamma 148.445454
_cell_volume 710.238685
_symmetry_space_group_name_H-M "P -1"
_symmetry_group_IT_number 2
_symmetry_cell_setting 'triclinic'
loop_
_space_group_symop_operation_xyz
x,y,z
-x,-y,-z
loop_
_atom_site_type_symbol
_atom_site_label
_atom_site_fract_x
_atom_site_fract_y
_atom_site_fract_z
Si Si1 0.316101 0.104368 0.740834
Si Si2 0.909570 0.130550 0.573951
Si Si3 0.241567 0.193126 0.252485
Si Si4 0.185575 0.446312 0.461174
Si Si5 0.887724 0.392982 0.665994
Si Si6 0.585995 0.984711 0.275463
Si Si7 0.125581 0.244214 0.996626
Si Si8 0.515541 0.568196 0.734512
O O1 0.416011 0.162719 0.749767
O O2 0.387897 0.333477 0.759256
O O3 0.235737 0.838596 0.483003
O O4 0.229664 0.085969 0.976520
O O5 0.887251 0.289239 0.717534
O O6 0.051345 0.312797 0.547704
O O7 0.857666 0.050103 0.746839
O O8 0.835524 0.865021 0.296738
O O9 0.209546 0.345733 0.449096
O O10 0.375102 0.379982 0.316882
O O11 0.211067 0.411677 0.199286
O O12 0.278862 0.745671 0.676513
O O13 0.889002 0.606233 0.923392
O O14 0.000000 0.500000 0.500000
O O15 0.500000 0.000000 0.500000
O O16 0.539803 0.813836 0.998116
O O17 0.000000 0.000000 0.000000
O O18 0.500000 0.500000 0.500000
#
# Coordination Sequence:
#
# PCOD8013536 Si02
#       8
#     2   2   2   2   2   2   2   2
#     4  11  23  44  69  94 130 180 227 273 344 414
#     4  11  24  42  66 105 144 181 226 285 340 410
#     4  11  24  43  69  95 137 181 223 282 348 410
#     4  11  21  42  64 101 137 182 226 279 343 409
#     4  12  21  42  69  99 136 180 229 278 342 406
#     4  11  22  42  69 100 131 178 230 283 343 414
#     4  10  21  40  68  98 138 179 229 272 340 407
#     4  11  25  48  68  98 132 176 234 287 346 413
#
# _framework density 22.527640000000002
#
# number of rings (size 3 to 8) (size 9 to 14) (size 15 to 20)
#    0.000    1.000    3.750    4.875    1.750    1.000 
#    6.750    4.375    0.000    0.000    0.000    0.000 
#    0.000    0.000    0.000    0.000    0.000    0.000 
#
# Total GULP energy -198373.376028 kJ/mol
# GULP energy per Si atom -12398.336002 kJ/mol
# Density = 2.247637 g / cm^3
# Si number density = 22.527640 Si / 1000 Ang^3
#
#
#
# Elastic Constant Matrix: (Units=GPa)
#
#
# Indices 1 2 3 4 5 6 
#
# 1 111.0773 35.1630 46.5973 1.1861 -11.1484 -23.0361
# 2 35.1630 134.5766 65.3229 2.2630 9.4639 -21.5138
# 3 46.5973 65.3229 121.0141 13.7318 3.4486 -11.2694
# 4 1.1861 2.2630 13.7318 38.9463 -3.9866 0.8330
# 5 -11.1484 9.4639 3.4486 -3.9866 31.8667 6.4419
# 6 -23.0361 -21.5138 -11.2694 0.8330 6.4419 43.8401
#
#
#
# Elastic Compliance Matrix: (Units=1/GPa)
#
#
# Indices 1 2 3 4 5 6 
#
# 1 0.012342 -0.000823 -0.004198 0.001502 0.004328 0.004338
# 2 -0.000823 0.011136 -0.005280 0.000763 -0.003781 0.004216
# 3 -0.004198 -0.005280 0.013170 -0.004355 -0.001651 -0.001086
# 4 0.001502 0.000763 -0.004355 0.027602 0.004453 -0.001135
# 5 0.004328 -0.003781 -0.001651 0.004453 0.035836 -0.005356
# 6 0.004338 0.004216 -0.001086 -0.001135 -0.005356 0.027688
#
#
# Mechanical properties :
#
#
# Convention : Reuss Voigt Hill
#
# Bulk Modulus (GPa) = 62.32326 73.42604 67.87465
# Shear Modulus (GPa) = 32.52557 37.56962 35.04760
#
# Velocity S-wave (km/s) = 3.80387 4.08819 3.94859
# Velocity P-wave (km/s) = 6.85696 7.41276 7.14027
#
# Compressibility (1/GPa) = 0.01604537
#
# Stress axis : x y z
#
# Youngs Moduli (GPa) = 81.02193 89.80010 75.92913
#
# Poissons Ratio (x) = 0.07394 0.31874
# Poissons Ratio (y) = 0.06672 0.40092
# Poissons Ratio (z) = 0.34012 0.47416
#
# Static dielectric constant tensor:
#      x y z
#    x 4.192690 -0.139990 0.081600 
#    y -0.139990 4.073230 0.170040 
#    z 0.081600 0.170040 4.796430 
# 
# 
# High freq. dielectric constant tensor:
#      x y z
#    x 1.891110 -0.001690 -0.003210 
#    y -0.001690 1.888480 0.014420 
#    z -0.003210 0.014420 1.880990 
# 
# From -- ./inp_files/346465.got.cif
#   From: 2010.06.25/outbox.cif.g09.slc.cpg/sg2_174_cif.got.tgz:346465.got - 2010.06.27 13:26:56.
