data_PCOD8013659
_publ_section_title
;
Structure prediction by ZEFSAII (Michael W. Deem and Ramdas Pophale) SiO2 
 PCOD8013659
Probable space group: P -1
;
_chemical_formula_sum "Si O2"
_cell_formula_units_Z 16
_cell_length_a 18.910520
_cell_length_b 8.652394
_cell_length_c 6.669719
_cell_angle_alpha 57.876984
_cell_angle_beta 116.262276
_cell_angle_gamma 132.435158
_cell_volume 675.984251
_symmetry_space_group_name_H-M "P -1"
_symmetry_group_IT_number 2
_symmetry_cell_setting 'triclinic'
loop_
_space_group_symop_operation_xyz
x,y,z
-x,-y,-z
loop_
_atom_site_type_symbol
_atom_site_label
_atom_site_fract_x
_atom_site_fract_y
_atom_site_fract_z
Si Si1 0.504025 0.011206 0.761548
Si Si2 0.647997 0.702444 0.204921
Si Si3 0.180302 0.966701 0.563203
Si Si4 0.999764 0.302811 0.232165
Si Si5 0.708415 0.391076 0.571854
Si Si6 0.538266 0.744114 0.723543
Si Si7 0.140968 0.302325 0.141145
Si Si8 0.848361 0.448325 0.403063
O O1 0.609517 0.187107 0.680653
O O2 0.435122 0.084116 0.545659
O O3 0.476257 0.778317 0.791780
O O4 0.500000 0.000000 0.000000
O O5 0.705424 0.590802 0.339230
O O6 0.536405 0.513752 0.266525
O O7 0.709120 0.905760 0.300352
O O8 0.635726 0.790827 0.913472
O O9 0.147290 0.743970 0.557802
O O10 0.109671 0.900524 0.710687
O O11 0.168675 0.125551 0.293122
O O12 0.038082 0.203077 0.189950
O O13 0.061522 0.395217 0.448518
O O14 0.000000 0.500000 0.000000
O O15 0.781666 0.477827 0.788269
O O16 0.747367 0.320606 0.486670
O O17 0.143615 0.380066 0.866878
#
# Coordination Sequence:
#
# PCOD8013659 Si02
#       8
#     2   2   2   2   2   2   2   2
#     4  10  21  40  70  98 129 177 221 268 343 399
#     4   9  20  43  65  93 133 171 224 273 334 391
#     4  11  23  43  71 101 132 184 227 277 338 403
#     4  11  23  44  68  98 144 175 225 282 333 401
#     4   9  22  43  65  96 136 170 221 280 327 400
#     4   9  20  41  66  94 130 170 219 279 330 395
#     4  10  23  43  66 100 136 180 223 278 333 400
#     4  11  24  44  68  98 137 178 224 281 336 399
#
# _framework density 23.669191000000001
#
# number of rings (size 3 to 8) (size 9 to 14) (size 15 to 20)
#    0.000    2.000    1.250    0.750    1.750    3.500 
#    9.000    6.875    0.000    0.000    0.000    0.000 
#    0.000    0.000    0.000    0.000    0.000    0.000 
#
# Total GULP energy -198296.680968 kJ/mol
# GULP energy per Si atom -12393.542560 kJ/mol
# Density = 2.361532 g / cm^3
# Si number density = 23.669191 Si / 1000 Ang^3
#
#
#
# Elastic Constant Matrix: (Units=GPa)
#
#
# Indices 1 2 3 4 5 6 
#
# 1 69.1297 11.2413 48.8006 1.6064 -2.1593 8.2713
# 2 11.2413 72.7240 41.4827 -3.0500 -2.4891 8.4941
# 3 48.8006 41.4827 205.1722 7.9973 12.3114 3.1021
# 4 1.6064 -3.0500 7.9973 29.9521 -1.1030 4.2436
# 5 -2.1593 -2.4891 12.3114 -1.1030 41.8058 -0.8651
# 6 8.2713 8.4941 3.1021 4.2436 -0.8651 19.8051
#
#
#
# Elastic Compliance Matrix: (Units=1/GPa)
#
#
# Indices 1 2 3 4 5 6 
#
# 1 0.018567 0.000815 -0.004660 0.001491 0.002262 -0.007595
# 2 0.000815 0.016915 -0.003773 0.003860 0.002102 -0.007739
# 3 -0.004660 -0.003773 0.006950 -0.002494 -0.002518 0.002900
# 4 0.001491 0.003860 -0.002494 0.035774 0.001789 -0.009475
# 5 0.002262 0.002102 -0.002518 0.001789 0.024935 -0.000746
# 6 -0.007595 -0.007739 0.002900 -0.009475 -0.000746 0.058526
#
#
# Mechanical properties :
#
#
# Convention : Reuss Voigt Hill
#
# Bulk Modulus (GPa) = 36.77118 61.11944 48.94531
# Shear Modulus (GPa) = 26.88617 34.67936 30.78276
#
# Velocity S-wave (km/s) = 3.37399 3.83190 3.61021
# Velocity P-wave (km/s) = 5.54505 6.74214 6.17268
#
# Compressibility (1/GPa) = 0.02719521
#
# Stress axis : x y z
#
# Youngs Moduli (GPa) = 53.85766 59.11992 143.89077
#
# Poissons Ratio (x) = -0.04819 0.67055
# Poissons Ratio (y) = -0.04390 0.54295
# Poissons Ratio (z) = 0.25098 0.22308
#
# Static dielectric constant tensor:
#      x y z
#    x 4.240130 0.103090 0.358540 
#    y 0.103090 4.380820 0.031660 
#    z 0.358540 0.031660 4.434990 
# 
# 
# High freq. dielectric constant tensor:
#      x y z
#    x 1.919700 0.004410 0.027150 
#    y 0.004410 1.940410 -0.001780 
#    z 0.027150 -0.001780 1.947150 
# 
# From -- ./inp_files/116691.got.cif
#   From: 2010.06.25/outbox.cif.g09.slc.cpg/sg2_59_cif.got.tgz:116691.got - 2010.06.27 13:26:56.
