data_PCOD8013225
_publ_section_title
;
Structure prediction by ZEFSAII (Michael W. Deem and Ramdas Pophale) SiO2 
 PCOD8013225
Probable space group: P -1
;
_chemical_formula_sum "Si O2"
_cell_formula_units_Z 16
_cell_length_a 14.976682
_cell_length_b 14.739467
_cell_length_c 9.035415
_cell_angle_alpha 44.610708
_cell_angle_beta 40.627313
_cell_angle_gamma 41.790079
_cell_volume 814.998949
_symmetry_space_group_name_H-M "P -1"
_symmetry_group_IT_number 2
_symmetry_cell_setting 'triclinic'
loop_
_space_group_symop_operation_xyz
x,y,z
-x,-y,-z
loop_
_atom_site_type_symbol
_atom_site_label
_atom_site_fract_x
_atom_site_fract_y
_atom_site_fract_z
Si Si1 0.445228 0.383102 0.544740
Si Si2 0.422189 0.914063 0.118861
Si Si3 0.269153 0.593211 0.748619
Si Si4 0.870053 0.089745 0.451603
Si Si5 0.591300 0.081727 0.223361
Si Si6 0.577992 0.605331 0.776077
Si Si7 0.897071 0.420092 0.743824
Si Si8 0.050019 0.089201 0.942029
O O1 0.488619 0.248266 0.752387
O O2 0.291566 0.498358 0.683858
O O3 0.573920 0.442690 0.315155
O O4 0.414482 0.348892 0.456544
O O5 0.248638 0.979511 0.324887
O O6 0.422788 0.921472 0.931868
O O7 0.500000 0.000000 0.000000
O O8 0.213594 0.749838 0.564453
O O9 0.149651 0.575404 0.030382
O O10 0.000000 0.000000 0.500000
O O11 0.936802 0.102048 0.199539
O O12 0.516842 0.247760 0.181362
O O13 0.500000 0.000000 0.500000
O O14 0.769669 0.994560 0.148462
O O15 0.749363 0.509566 0.726326
O O16 0.500000 0.500000 0.000000
O O17 0.000000 0.500000 0.500000
O O18 0.997974 0.252902 0.759134
O O19 0.000000 0.000000 0.000000
#
# Coordination Sequence:
#
# PCOD8013225 Si02
#       8
#     2   2   2   2   2   2   2   2
#     4  10  21  40  66  92 124 163 220 267 310 380
#     4  11  24  41  67  94 130 170 217 269 330 384
#     4   9  20  38  65  90 123 165 211 263 318 377
#     4  10  21  41  64  90 125 170 214 263 321 391
#     4  12  26  43  68 101 134 173 220 277 329 393
#     4  12  24  40  70  98 127 170 231 264 320 395
#     4  11  23  43  63  94 135 171 208 273 333 386
#     4  11  25  42  65  96 135 173 217 267 333 394
#
# _framework density 19.631926
#
# number of rings (size 3 to 8) (size 9 to 14) (size 15 to 20)
#    0.000    1.250    2.500    3.000    8.750    1.000 
#    0.000    0.625    0.000    0.000    0.000    0.000 
#    0.000    0.000    0.000    0.000    0.000    0.000 
#
# Total GULP energy -198279.178983 kJ/mol
# GULP energy per Si atom -12392.448686 kJ/mol
# Density = 1.958724 g / cm^3
# Si number density = 19.631926 Si / 1000 Ang^3
#
#
#
# Elastic Constant Matrix: (Units=GPa)
#
#
# Indices 1 2 3 4 5 6 
#
# 1 132.0048 80.9622 61.2001 -2.4675 -7.5976 -7.8730
# 2 80.9622 151.0174 54.0771 -4.9603 -9.5794 -3.1076
# 3 61.2001 54.0771 134.5803 -7.5299 -20.9795 -0.1171
# 4 -2.4675 -4.9603 -7.5299 25.6230 -1.0941 -0.3378
# 5 -7.5976 -9.5794 -20.9795 -1.0941 39.6211 -2.3634
# 6 -7.8730 -3.1076 -0.1171 -0.3378 -2.3634 37.5700
#
#
#
# Elastic Compliance Matrix: (Units=1/GPa)
#
#
# Indices 1 2 3 4 5 6 
#
# 1 0.012784 -0.005544 -0.003758 -0.000951 -0.000777 0.002151
# 2 -0.005544 0.010167 -0.001402 0.001047 0.000665 -0.000274
# 3 -0.003758 -0.001402 0.010564 0.002659 0.004574 -0.000559
# 4 -0.000951 0.001047 0.002659 0.040037 0.002609 0.000420
# 5 -0.000777 0.000665 0.004574 0.002609 0.027845 0.001682
# 6 0.002151 -0.000274 -0.000559 0.000420 0.001682 0.027153
#
#
# Mechanical properties :
#
#
# Convention : Reuss Voigt Hill
#
# Bulk Modulus (GPa) = 82.60075 90.00902 86.30488
# Shear Modulus (GPa) = 32.46854 35.32037 33.89445
#
# Velocity S-wave (km/s) = 4.07118 4.24622 4.15962
# Velocity P-wave (km/s) = 8.01657 8.36590 8.19310
#
# Compressibility (1/GPa) = 0.01210643
#
# Stress axis : x y z
#
# Youngs Moduli (GPa) = 78.22219 98.35672 94.65820
#
# Poissons Ratio (x) = 0.54531 0.35575
# Poissons Ratio (y) = 0.43368 0.13272
# Poissons Ratio (z) = 0.29398 0.13790
#
# Static dielectric constant tensor:
#      x y z
#    x 3.386240 0.062230 0.460410 
#    y 0.062230 3.845210 -0.253570 
#    z 0.460410 -0.253570 2.431800 
# 
# 
# High freq. dielectric constant tensor:
#      x y z
#    x 1.758740 -0.005420 0.005450 
#    y -0.005420 1.780150 -0.001880 
#    z 0.005450 -0.001880 1.779410 
# 
# From -- ./inp_files/238487.got.cif
#   From: 2010.06.25/outbox.cif.g09.slc.cpg/sg2_120_cif.got.tgz:238487.got - 2010.06.27 13:26:56.
