data_PCOD8013850
_publ_section_title
;
Structure prediction by ZEFSAII (Michael W. Deem and Ramdas Pophale) SiO2 
 PCOD8013850
Probable space group: P -1
;
_chemical_formula_sum "Si O2"
_cell_formula_units_Z 16
_cell_length_a 12.498789
_cell_length_b 16.621013
_cell_length_c 8.990473
_cell_angle_alpha 46.100655
_cell_angle_beta 147.563093
_cell_angle_gamma 133.043888
_cell_volume 698.570205
_symmetry_space_group_name_H-M "P -1"
_symmetry_group_IT_number 2
_symmetry_cell_setting 'triclinic'
loop_
_space_group_symop_operation_xyz
x,y,z
-x,-y,-z
loop_
_atom_site_type_symbol
_atom_site_label
_atom_site_fract_x
_atom_site_fract_y
_atom_site_fract_z
Si Si1 0.878184 0.614362 0.331081
Si Si2 0.686354 0.890067 0.452134
Si Si3 0.414128 0.300771 0.893993
Si Si4 0.793985 0.509979 0.063354
Si Si5 0.261378 0.850166 0.853117
Si Si6 0.857626 0.151822 0.606996
Si Si7 0.280282 0.091555 0.181659
Si Si8 0.848299 0.726967 0.661360
O O1 0.726908 0.639330 0.246651
O O2 0.751393 0.571012 0.088313
O O3 0.980228 0.514353 0.637231
O O4 0.060882 0.729710 0.357962
O O5 0.677530 0.881089 0.630654
O O6 0.839394 0.815595 0.670313
O O7 0.767967 0.021198 0.323912
O O8 0.464214 0.834300 0.191997
O O9 0.306508 0.258000 0.668146
O O10 0.628289 0.390105 0.998597
O O11 0.452461 0.185678 0.169343
O O12 0.784997 0.594604 0.808870
O O13 0.265777 0.823900 0.715281
O O14 0.079035 0.755417 0.835472
O O15 0.718182 0.042700 0.677853
O O16 0.059718 0.109421 0.845651
#
# Coordination Sequence:
#
# PCOD8013850 Si02
#       8
#     2   2   2   2   2   2   2   2
#     4  10  22  44  63  84 122 166 204 267 302 362
#     4  10  23  38  66  94 128 160 204 256 307 379
#     4  11  23  41  63  90 124 164 207 255 310 363
#     4  11  26  40  61  91 122 163 220 251 301 363
#     4  10  21  41  62  94 130 163 199 252 321 367
#     4   9  17  37  67  88 120 159 202 248 315 367
#     4   9  18  38  65  92 119 165 199 247 315 373
#     4  12  23  39  62  94 123 168 205 256 307 366
#
# _framework density 22.903925000000001
#
# number of rings (size 3 to 8) (size 9 to 14) (size 15 to 20)
#    0.000    1.750    2.500    2.625    1.750    3.500 
#    2.250    0.625    0.000    0.000    0.000    0.000 
#    0.000    0.000    0.000    0.000    0.000    0.000 
#
# Total GULP energy -198418.946865 kJ/mol
# GULP energy per Si atom -12401.184179 kJ/mol
# Density = 2.285179 g / cm^3
# Si number density = 22.903925 Si / 1000 Ang^3
#
#
#
# Elastic Constant Matrix: (Units=GPa)
#
#
# Indices 1 2 3 4 5 6 
#
# 1 52.1934 23.6912 10.6525 -8.4795 -17.6589 15.9837
# 2 23.6912 105.8963 8.4885 -2.7939 -6.3040 22.8046
# 3 10.6525 8.4885 74.8431 2.2728 -24.7388 8.7623
# 4 -8.4795 -2.7939 2.2728 45.5563 -2.0024 -2.9954
# 5 -17.6589 -6.3040 -24.7388 -2.0024 24.9696 -2.9260
# 6 15.9837 22.8046 8.7623 -2.9954 -2.9260 43.7788
#
#
#
# Elastic Compliance Matrix: (Units=1/GPa)
#
#
# Indices 1 2 3 4 5 6 
#
# 1 0.032736 -0.004123 0.005611 0.006182 0.027148 -0.008690
# 2 -0.004123 0.011269 -0.000553 -0.000386 -0.001160 -0.004358
# 3 0.005611 -0.000553 0.021154 0.000741 0.024341 -0.004317
# 4 0.006182 -0.000386 0.000741 0.023333 0.006863 -0.000149
# 5 0.027148 -0.001160 0.024341 0.006863 0.082662 -0.008185
# 6 -0.008690 -0.004358 -0.004317 -0.000149 -0.008185 0.028592
#
#
# Mechanical properties :
#
#
# Convention : Reuss Voigt Hill
#
# Bulk Modulus (GPa) = 14.91855 35.39969 25.15912
# Shear Modulus (GPa) = 22.70469 35.53433 29.11951
#
# Velocity S-wave (km/s) = 3.15191 3.94312 3.56950
# Velocity P-wave (km/s) = 4.44676 6.01832 5.29122
#
# Compressibility (1/GPa) = 0.06703065
#
# Stress axis : x y z
#
# Youngs Moduli (GPa) = 30.54696 88.73755 47.27263
#
# Poissons Ratio (x) = 0.36587 -0.26526
# Poissons Ratio (y) = 0.12595 0.02613
# Poissons Ratio (z) = -0.17141 0.04905
#
# Static dielectric constant tensor:
#      x y z
#    x 3.763910 0.069700 -0.126860 
#    y 0.069700 4.468370 -0.018500 
#    z -0.126860 -0.018500 4.132450 
# 
# 
# High freq. dielectric constant tensor:
#      x y z
#    x 1.879680 -0.002180 -0.006870 
#    y -0.002180 1.919310 -0.001250 
#    z -0.006870 -0.001250 1.909790 
# 
# From -- ./inp_files/279165.got.cif
#   From: 2010.06.25/outbox.cif.g09.slc.cpg/sg2_140_cif.got.tgz:279165.got - 2010.06.27 13:26:56.
