data_PCOD8013243
_publ_section_title
;
Structure prediction by ZEFSAII (Michael W. Deem and Ramdas Pophale) SiO2 
 PCOD8013243
Probable space group: P -1
;
_chemical_formula_sum "Si O2"
_cell_formula_units_Z 14
_cell_length_a 22.936330
_cell_length_b 8.283839
_cell_length_c 7.282664
_cell_angle_alpha 99.983468
_cell_angle_beta 136.961656
_cell_angle_gamma 48.888433
_cell_volume 570.560070
_symmetry_space_group_name_H-M "P -1"
_symmetry_group_IT_number 2
_symmetry_cell_setting 'triclinic'
loop_
_space_group_symop_operation_xyz
x,y,z
-x,-y,-z
loop_
_atom_site_type_symbol
_atom_site_label
_atom_site_fract_x
_atom_site_fract_y
_atom_site_fract_z
Si Si1 0.159304 0.295957 0.864187
Si Si2 0.123656 0.962187 0.081709
Si Si3 0.929603 0.306916 0.008971
Si Si4 0.609278 0.218475 0.292048
Si Si5 0.549735 0.698192 0.725113
Si Si6 0.169911 0.921614 0.783962
Si Si7 0.616424 0.963541 0.934812
O O1 0.000000 0.500000 0.500000
O O2 0.165844 0.395190 0.086444
O O3 0.233190 0.007343 0.989034
O O4 0.235012 0.283915 0.876150
O O5 0.252651 0.886359 0.382826
O O6 0.988915 0.245934 0.928616
O O7 0.086418 0.992743 0.788058
O O8 0.158468 0.728721 0.198522
O O9 0.065621 0.077877 0.404782
O O10 0.555382 0.232175 0.364901
O O11 0.500000 0.500000 0.000000
O O12 0.641837 0.020015 0.192042
O O13 0.490280 0.778297 0.396005
O O14 0.557607 0.875811 0.836263
O O15 0.701078 0.389827 0.024090
#
# Coordination Sequence:
#
# PCOD8013243 Si02
#       7
#     2   2   2   2   2   2   2
#     4  10  21  40  66  93 127 167 209 263 322 378
#     4  11  23  39  64  93 126 170 212 258 322 383
#     4  10  23  43  63  94 130 165 212 264 320 385
#     4  12  24  41  66  97 132 170 216 268 322 385
#     4  11  25  44  69  97 128 173 220 265 326 383
#     4  11  22  42  68  94 126 167 214 267 321 380
#     4  11  24  44  67  95 133 171 216 270 319 384
#
# _framework density 24.537295
#
# number of rings (size 3 to 8) (size 9 to 14) (size 15 to 20)
#    0.000    1.143    0.000    6.857    0.000    4.571 
#    0.000   10.000    0.000    0.000    0.000    0.000 
#    0.000    0.000    0.000    0.000    0.000    0.000 
#
# Total GULP energy -173575.275344 kJ/mol
# GULP energy per Si atom -12398.233953 kJ/mol
# Density = 2.448145 g / cm^3
# Si number density = 24.537295 Si / 1000 Ang^3
#
#
#
# Elastic Constant Matrix: (Units=GPa)
#
#
# Indices 1 2 3 4 5 6 
#
# 1 141.6530 38.0582 26.3372 8.9102 24.4012 -4.3915
# 2 38.0582 113.7940 14.8180 11.0143 -3.7281 -8.0729
# 3 26.3372 14.8180 75.0149 8.5618 2.8882 3.0661
# 4 8.9102 11.0143 8.5618 32.4163 2.3753 1.8383
# 5 24.4012 -3.7281 2.8882 2.3753 22.7386 2.7271
# 6 -4.3915 -8.0729 3.0661 1.8383 2.7271 47.0705
#
#
#
# Elastic Compliance Matrix: (Units=1/GPa)
#
#
# Indices 1 2 3 4 5 6 
#
# 1 0.010533 -0.003455 -0.002588 -0.000254 -0.011663 0.001244
# 2 -0.003455 0.010616 -0.000823 -0.002933 0.005699 0.001336
# 3 -0.002588 -0.000823 0.014741 -0.002919 0.001231 -0.001300
# 4 -0.000254 -0.002933 -0.002919 0.032996 -0.003112 -0.001445
# 5 -0.011663 0.005699 0.001231 -0.003112 0.058008 -0.003430
# 6 0.001244 0.001336 -0.001300 -0.001445 -0.003430 0.021930
#
#
# Mechanical properties :
#
#
# Convention : Reuss Voigt Hill
#
# Bulk Modulus (GPa) = 45.13349 54.32097 49.72723
# Shear Modulus (GPa) = 29.42183 37.19499 33.30841
#
# Velocity S-wave (km/s) = 3.46651 3.89762 3.68837
# Velocity P-wave (km/s) = 5.86992 6.51471 6.20070
#
# Compressibility (1/GPa) = 0.02215650
#
# Stress axis : x y z
#
# Youngs Moduli (GPa) = 94.94346 94.19823 67.83838
#
# Poissons Ratio (x) = 0.32544 0.17559
# Poissons Ratio (y) = 0.32801 0.05585
# Poissons Ratio (z) = 0.24575 0.07755
#
# Static dielectric constant tensor:
#      x y z
#    x 5.084880 -0.088550 -0.074760 
#    y -0.088550 5.055860 0.264640 
#    z -0.074760 0.264640 4.387480 
# 
# 
# High freq. dielectric constant tensor:
#      x y z
#    x 1.986420 -0.002430 0.015640 
#    y -0.002430 1.989870 0.015310 
#    z 0.015640 0.015310 1.967260 
# 
# From -- ./inp_files/352275.got.cif
#   From: 2010.06.25/outbox.cif.g09.slc.cpg/sg2_177_cif.got.tgz:352275.got - 2010.06.27 13:26:56.
