data_PCOD8013281
_publ_section_title
;
Structure prediction by ZEFSAII (Michael W. Deem and Ramdas Pophale) SiO2 
 PCOD8013281
Probable space group: P -1
;
_chemical_formula_sum "Si O2"
_cell_formula_units_Z 16
_cell_length_a 9.030564
_cell_length_b 13.656967
_cell_length_c 11.698175
_cell_angle_alpha 107.324193
_cell_angle_beta 142.421239
_cell_angle_gamma 57.450056
_cell_volume 718.059225
_symmetry_space_group_name_H-M "P -1"
_symmetry_group_IT_number 2
_symmetry_cell_setting 'triclinic'
loop_
_space_group_symop_operation_xyz
x,y,z
-x,-y,-z
loop_
_atom_site_type_symbol
_atom_site_label
_atom_site_fract_x
_atom_site_fract_y
_atom_site_fract_z
Si Si1 0.652941 0.509695 0.285847
Si Si2 0.793649 0.694692 0.514097
Si Si3 0.543204 0.197200 0.185583
Si Si4 0.408531 0.841283 0.535230
Si Si5 0.809171 0.902543 0.462622
Si Si6 0.798241 0.430286 0.597842
Si Si7 0.861064 0.842956 0.220118
Si Si8 0.185363 0.463186 0.987628
O O1 0.644344 0.634991 0.329726
O O2 0.766155 0.433877 0.445224
O O3 0.334128 0.539914 0.080439
O O4 0.880262 0.413514 0.300761
O O5 0.639381 0.743335 0.557180
O O6 0.762470 0.804499 0.460219
O O7 0.494719 0.214530 0.298095
O O8 0.427179 0.324092 0.097801
O O9 0.876001 0.120947 0.336459
O O10 0.392310 0.128766 0.014402
O O11 0.091328 0.871480 0.318973
O O12 0.403735 0.966410 0.568235
O O13 0.732569 0.913021 0.284742
O O14 0.500000 0.500000 0.500000
O O15 0.958347 0.296892 0.693171
O O16 0.983162 0.489050 0.764734
O O17 0.000000 0.500000 0.000000
#
# Coordination Sequence:
#
# PCOD8013281 Si02
#       8
#     2   2   2   2   2   2   2   2
#     4  11  22  43  62  90 132 171 203 261 317 380
#     4  11  24  42  64  89 133 175 212 252 317 384
#     4  10  22  41  65  99 128 155 216 270 318 373
#     4  11  24  40  67  94 124 170 216 262 311 376
#     4  11  22  44  66  89 128 171 214 263 315 368
#     4  11  20  35  64  95 127 156 201 260 317 379
#     4  10  21  40  66  96 123 161 209 271 320 363
#     4  11  22  35  67  98 125 160 204 263 325 371
#
# _framework density 22.282284000000001
#
# number of rings (size 3 to 8) (size 9 to 14) (size 15 to 20)
#    0.000    1.250    3.750    3.375    3.500    2.000 
#    0.000    6.250    0.000    3.000    0.000    0.000 
#    0.000    0.000    0.000    0.000    0.000    0.000 
#
# Total GULP energy -198372.309027 kJ/mol
# GULP energy per Si atom -12398.269314 kJ/mol
# Density = 2.223157 g / cm^3
# Si number density = 22.282284 Si / 1000 Ang^3
#
#
#
# Elastic Constant Matrix: (Units=GPa)
#
#
# Indices 1 2 3 4 5 6 
#
# 1 106.8712 45.1083 31.0314 12.2539 17.7397 -1.4873
# 2 45.1083 115.9895 26.3757 17.6849 16.8932 -1.9026
# 3 31.0314 26.3757 121.0745 29.5584 17.2037 2.5262
# 4 12.2539 17.6849 29.5584 29.7665 8.5478 2.0280
# 5 17.7397 16.8932 17.2037 8.5478 30.6528 6.6307
# 6 -1.4873 -1.9026 2.5262 2.0280 6.6307 37.8358
#
#
#
# Elastic Compliance Matrix: (Units=1/GPa)
#
#
# Indices 1 2 3 4 5 6 
#
# 1 0.012140 -0.003694 -0.001741 0.000078 -0.004284 0.001154
# 2 -0.003694 0.011186 -0.000030 -0.004295 -0.003069 0.001187
# 3 -0.001741 -0.000030 0.011520 -0.009939 -0.002706 0.000168
# 4 0.000078 -0.004295 -0.009939 0.047528 -0.005093 -0.001204
# 5 -0.004284 -0.003069 -0.002706 -0.005093 0.041269 -0.007101
# 6 0.001154 0.001187 0.000168 -0.001204 -0.007101 0.027833
#
#
# Mechanical properties :
#
#
# Convention : Reuss Voigt Hill
#
# Bulk Modulus (GPa) = 41.81495 60.99623 51.40559
# Shear Modulus (GPa) = 29.34624 35.74566 32.54595
#
# Velocity S-wave (km/s) = 3.63302 4.00962 3.82595
# Velocity P-wave (km/s) = 6.03367 6.99069 6.52974
#
# Compressibility (1/GPa) = 0.02391489
#
# Stress axis : x y z
#
# Youngs Moduli (GPa) = 82.37106 89.39435 86.80905
#
# Poissons Ratio (x) = 0.33025 0.15114
# Poissons Ratio (y) = 0.30431 0.00262
# Poissons Ratio (z) = 0.14341 0.00270
#
# Static dielectric constant tensor:
#      x y z
#    x 3.795000 0.008770 0.021640 
#    y 0.008770 4.277610 0.325600 
#    z 0.021640 0.325600 4.079850 
# 
# 
# High freq. dielectric constant tensor:
#      x y z
#    x 1.867990 0.003200 0.010160 
#    y 0.003200 1.896170 0.010570 
#    z 0.010160 0.010570 1.868240 
# 
# From -- ./inp_files/399343.got.cif
#   From: 2010.06.25/outbox.cif.g09.slc.cpg/sg2_200_cif.got.tgz:399343.got - 2010.06.27 13:26:56.
