data_PCOD8013171
_publ_section_title
;
Structure prediction by ZEFSAII (Michael W. Deem and Ramdas Pophale) SiO2 
 PCOD8013171
Probable space group: P -1
;
_chemical_formula_sum "Si O2"
_cell_formula_units_Z 16
_cell_length_a 12.361238
_cell_length_b 9.235983
_cell_length_c 9.236313
_cell_angle_alpha 93.396296
_cell_angle_beta 45.417967
_cell_angle_gamma 82.771674
_cell_volume 728.660850
_symmetry_space_group_name_H-M "P -1"
_symmetry_group_IT_number 2
_symmetry_cell_setting 'triclinic'
loop_
_space_group_symop_operation_xyz
x,y,z
-x,-y,-z
loop_
_atom_site_type_symbol
_atom_site_label
_atom_site_fract_x
_atom_site_fract_y
_atom_site_fract_z
Si Si1 0.488729 0.658947 0.094738
Si Si2 0.239712 0.849066 0.149433
Si Si3 0.069402 0.329306 0.958564
Si Si4 0.666043 0.881554 0.835688
Si Si5 0.097858 0.140239 0.629964
Si Si6 0.623163 0.610060 0.270439
Si Si7 0.368887 0.713742 0.731663
Si Si8 0.111370 0.880869 0.788808
O O1 0.323644 0.768628 0.210998
O O2 0.496752 0.641384 0.260315
O O3 0.500000 0.500000 0.000000
O O4 0.637786 0.728015 0.918463
O O5 0.069903 0.813926 0.291311
O O6 0.220840 0.029259 0.181052
O O7 0.360331 0.786923 0.902029
O O8 0.085060 0.239491 0.789566
O O9 0.237484 0.307230 0.877166
O O10 0.000000 0.500000 0.000000
O O11 0.963014 0.263069 0.168279
O O12 0.754468 0.835000 0.597811
O O13 0.500000 0.000000 0.000000
O O14 0.132060 0.962606 0.624024
O O15 0.544101 0.665270 0.502552
O O16 0.700440 0.433114 0.198794
O O17 0.275230 0.832588 0.713556
O O18 0.000000 0.000000 0.000000
#
# Coordination Sequence:
#
# PCOD8013171 Si02
#       8
#     2   2   2   2   2   2   2   2
#     4  11  25  46  69  94 140 182 227 279 342 411
#     4  11  22  46  68  95 143 180 225 282 338 411
#     4  11  22  42  69 103 139 171 230 288 341 408
#     4  10  26  43  66  97 137 181 227 280 338 414
#     4  11  24  44  69 101 139 184 225 285 350 399
#     4  11  25  40  69 105 135 182 228 286 345 406
#     4  11  22  42  69 102 137 178 230 285 343 398
#     4  10  21  40  65  98 136 174 218 282 345 399
#
# _framework density 21.958086999999999
#
# number of rings (size 3 to 8) (size 9 to 14) (size 15 to 20)
#    0.000    1.250    5.000    0.375    8.750    0.000 
#    0.000    3.750    0.000    0.000    0.000    0.000 
#    0.000    0.000    0.000    0.000    0.000    0.000 
#
# Total GULP energy -198280.184071 kJ/mol
# GULP energy per Si atom -12392.511504 kJ/mol
# Density = 2.190811 g / cm^3
# Si number density = 21.958087 Si / 1000 Ang^3
#
#
#
# Elastic Constant Matrix: (Units=GPa)
#
#
# Indices 1 2 3 4 5 6 
#
# 1 104.2348 23.2133 10.1341 4.1682 -2.8542 -4.5229
# 2 23.2133 123.4740 27.0765 -4.7350 -0.1005 6.3905
# 3 10.1341 27.0765 85.4992 -1.3417 5.4671 3.1956
# 4 4.1682 -4.7350 -1.3417 30.8251 6.3470 1.5442
# 5 -2.8542 -0.1005 5.4671 6.3470 20.8726 -0.4000
# 6 -4.5229 6.3905 3.1956 1.5442 -0.4000 38.1167
#
#
#
# Elastic Compliance Matrix: (Units=1/GPa)
#
#
# Indices 1 2 3 4 5 6 
#
# 1 0.010341 -0.001931 -0.000867 -0.002307 0.002367 0.001742
# 2 -0.001931 0.009176 -0.002586 0.001655 -0.000077 -0.001619
# 3 -0.000867 -0.002586 0.012914 0.001121 -0.003870 -0.000838
# 4 -0.002307 0.001655 0.001121 0.035523 -0.011446 -0.002204
# 5 0.002367 -0.000077 -0.003870 -0.011446 0.052759 0.001636
# 6 0.001742 -0.001619 -0.000838 -0.002204 0.001636 0.026890
#
#
# Mechanical properties :
#
#
# Convention : Reuss Voigt Hill
#
# Bulk Modulus (GPa) = 46.15912 48.22840 47.19376
# Shear Modulus (GPa) = 30.19500 34.81514 32.50507
#
# Velocity S-wave (km/s) = 3.71228 3.98619 3.85167
# Velocity P-wave (km/s) = 6.28027 6.57250 6.42805
#
# Compressibility (1/GPa) = 0.02166419
#
# Stress axis : x y z
#
# Youngs Moduli (GPa) = 96.70617 108.97966 77.43515
#
# Poissons Ratio (x) = 0.21040 0.06713
# Poissons Ratio (y) = 0.18670 0.20022
# Poissons Ratio (z) = 0.08383 0.28179
#
# Static dielectric constant tensor:
#      x y z
#    x 3.938460 0.201570 -0.027350 
#    y 0.201570 4.671740 -0.435030 
#    z -0.027350 -0.435030 3.888440 
# 
# 
# High freq. dielectric constant tensor:
#      x y z
#    x 1.857960 0.007460 -0.005770 
#    y 0.007460 1.870720 0.002650 
#    z -0.005770 0.002650 1.855510 
# 
# From -- ./inp_files/187517.got.cif
#   From: 2010.06.25/outbox.cif.g09.slc.cpg/sg2_94_cif.got.tgz:187517.got - 2010.06.27 13:26:56.
