data_PCOD8013628
_publ_section_title
;
Structure prediction by ZEFSAII (Michael W. Deem and Ramdas Pophale) SiO2 
 PCOD8013628
Probable space group: P -1
;
_chemical_formula_sum "Si O2"
_cell_formula_units_Z 14
_cell_length_a 5.846908
_cell_length_b 11.739884
_cell_length_c 16.682084
_cell_angle_alpha 34.889047
_cell_angle_beta 61.463477
_cell_angle_gamma 52.974643
_cell_volume 522.586051
_symmetry_space_group_name_H-M "P -1"
_symmetry_group_IT_number 2
_symmetry_cell_setting 'triclinic'
loop_
_space_group_symop_operation_xyz
x,y,z
-x,-y,-z
loop_
_atom_site_type_symbol
_atom_site_label
_atom_site_fract_x
_atom_site_fract_y
_atom_site_fract_z
Si Si1 0.550757 0.559752 0.362090
Si Si2 0.473617 0.854817 0.703812
Si Si3 0.508352 0.073477 0.730998
Si Si4 0.049368 0.685221 0.932273
Si Si5 0.893268 0.187582 0.819575
Si Si6 0.943841 0.854383 0.527745
Si Si7 0.088847 0.257112 0.903257
O O1 0.545623 0.667822 0.389714
O O2 0.234058 0.633421 0.334664
O O3 0.756302 0.303061 0.472331
O O4 0.668727 0.671379 0.209015
O O5 0.767355 0.732465 0.672841
O O6 0.357533 0.687586 0.858591
O O7 0.538332 0.006753 0.671275
O O8 0.231213 0.007573 0.596667
O O9 0.233313 0.048162 0.826377
O O10 0.791338 0.920860 0.820758
O O11 0.000000 0.500000 0.000000
O O12 0.058130 0.618160 0.062347
O O13 0.852105 0.312477 0.839461
O O14 0.768663 0.004589 0.951460
O O15 0.000000 0.000000 0.500000
#
# Coordination Sequence:
#
# PCOD8013628 Si02
#       7
#     2   2   2   2   2   2   2
#     4  11  24  43  73 105 140 190 239 294 356 424
#     4  11  26  51  73 102 146 187 242 300 360 421
#     4  11  23  45  71 106 142 186 242 294 354 425
#     4  12  27  45  72 109 151 188 233 296 361 430
#     4  10  21  40  70 104 149 181 234 291 355 425
#     4  11  28  51  75 102 141 192 244 300 356 431
#     4  10  22  38  67 107 142 184 229 288 355 428
#
# _framework density 26.789845
#
# number of rings (size 3 to 8) (size 9 to 14) (size 15 to 20)
#    0.000    1.143    2.857    1.286    8.000    6.857 
#    0.000    5.000    0.000    0.000    0.000    0.000 
#    0.000    0.000    0.000    0.000    0.000    0.000 
#
# Total GULP energy -173546.885131 kJ/mol
# GULP energy per Si atom -12396.206081 kJ/mol
# Density = 2.672887 g / cm^3
# Si number density = 26.789845 Si / 1000 Ang^3
#
#
#
# Elastic Constant Matrix: (Units=GPa)
#
#
# Indices 1 2 3 4 5 6 
#
# 1 85.1517 40.7372 13.0080 14.8303 16.6601 21.4149
# 2 40.7372 155.1229 33.2305 28.1217 -3.4195 22.5597
# 3 13.0080 33.2305 26.7961 14.8305 -1.4984 10.5008
# 4 14.8303 28.1217 14.8305 52.3833 5.4374 1.0579
# 5 16.6601 -3.4195 -1.4984 5.4374 53.3253 7.0834
# 6 21.4149 22.5597 10.5008 1.0579 7.0834 61.9300
#
#
#
# Elastic Compliance Matrix: (Units=1/GPa)
#
#
# Indices 1 2 3 4 5 6 
#
# 1 0.015469 -0.002965 -0.001762 -0.001759 -0.004437 -0.003433
# 2 -0.002965 0.009707 -0.008959 -0.001984 0.001652 -0.001147
# 3 -0.001762 -0.008959 0.058251 -0.011432 0.003605 -0.006221
# 4 -0.001759 -0.001984 -0.011432 0.024114 -0.002779 0.003175
# 5 -0.004437 0.001652 0.003605 -0.002779 0.020898 -0.002021
# 6 -0.003433 -0.001147 -0.006221 0.003175 -0.002021 0.018984
#
#
# Mechanical properties :
#
#
# Convention : Reuss Voigt Hill
#
# Bulk Modulus (GPa) = 17.83952 49.00249 33.42100
# Shear Modulus (GPa) = 25.84243 45.53406 35.68825
#
# Velocity S-wave (km/s) = 3.10923 4.12719 3.65383
# Velocity P-wave (km/s) = 4.42304 6.40646 5.50481
#
# Compressibility (1/GPa) = 0.05605532
#
# Stress axis : x y z
#
# Youngs Moduli (GPa) = 64.64525 103.01766 17.16704
#
# Poissons Ratio (x) = 0.30540 0.03025
# Poissons Ratio (y) = 0.19164 0.15380
# Poissons Ratio (z) = 0.11392 0.92296
#
# Static dielectric constant tensor:
#      x y z
#    x 3.890320 -0.668760 -0.446210 
#    y -0.668760 4.760850 0.220030 
#    z -0.446210 0.220030 4.924940 
# 
# 
# High freq. dielectric constant tensor:
#      x y z
#    x 2.086870 0.004530 -0.002060 
#    y 0.004530 2.084290 0.023420 
#    z -0.002060 0.023420 2.087750 
# 
# From -- ./inp_files/117167.got.cif
#   From: 2010.06.25/outbox.cif.g09.slc.cpg/sg2_59_cif.got.tgz:117167.got - 2010.06.27 13:26:56.
