data_PCOD8013698
_publ_section_title
;
Structure prediction by ZEFSAII (Michael W. Deem and Ramdas Pophale) SiO2 
 PCOD8013698
Probable space group: P -1
;
_chemical_formula_sum "Si O2"
_cell_formula_units_Z 14
_cell_length_a 9.418041
_cell_length_b 15.753127
_cell_length_c 13.140187
_cell_angle_alpha 45.613897
_cell_angle_beta 56.011603
_cell_angle_gamma 26.759005
_cell_volume 614.121547
_symmetry_space_group_name_H-M "P -1"
_symmetry_group_IT_number 2
_symmetry_cell_setting 'triclinic'
loop_
_space_group_symop_operation_xyz
x,y,z
-x,-y,-z
loop_
_atom_site_type_symbol
_atom_site_label
_atom_site_fract_x
_atom_site_fract_y
_atom_site_fract_z
Si Si1 0.388534 0.807442 0.902479
Si Si2 0.196424 0.649380 0.807186
Si Si3 0.248352 0.245435 0.356095
Si Si4 0.235359 0.664482 0.557486
Si Si5 0.567594 0.894351 0.907320
Si Si6 0.269038 0.288849 0.786481
Si Si7 0.047139 0.000319 0.255667
O O1 0.597265 0.757566 0.781772
O O2 0.360016 0.911932 0.922582
O O3 0.546549 0.592476 0.050680
O O4 0.052321 0.969578 0.846829
O O5 0.345205 0.619340 0.668648
O O6 0.848440 0.788155 0.813928
O O7 0.166243 0.770277 0.802530
O O8 0.948453 0.350971 0.342116
O O9 0.055822 0.449403 0.339068
O O10 0.500000 0.000000 0.500000
O O11 0.500000 0.500000 0.500000
O O12 0.991300 0.913882 0.416657
O O13 0.299508 0.150976 0.824646
O O14 0.748229 0.738077 0.065333
O O15 0.577942 0.190391 0.728876
#
# Coordination Sequence:
#
# PCOD8013698 Si02
#       7
#     2   2   2   2   2   2   2
#     4  12  23  42  70 104 130 181 226 281 339 399
#     4  11  23  43  70  99 135 183 228 274 343 404
#     4  12  23  42  71  96 135 180 223 280 336 404
#     4  12  24  43  68  96 133 182 228 277 337 410
#     4  10  21  40  72  98 134 177 226 281 333 399
#     4  10  22  43  66 101 136 176 226 275 337 404
#     4  11  25  42  67  99 145 174 219 284 345 401
#
# _framework density 22.796790999999999
#
# number of rings (size 3 to 8) (size 9 to 14) (size 15 to 20)
#    0.000    0.857    5.714    2.143    0.000    0.571 
#    0.000    0.714    0.000    0.000    0.000    0.000 
#    0.000    0.000    0.000    0.000    0.000    0.000 
#
# Total GULP energy -173437.265158 kJ/mol
# GULP energy per Si atom -12388.376083 kJ/mol
# Density = 2.274490 g / cm^3
# Si number density = 22.796791 Si / 1000 Ang^3
#
#
#
# Elastic Constant Matrix: (Units=GPa)
#
#
# Indices 1 2 3 4 5 6 
#
# 1 80.1143 31.3374 26.9594 -9.0137 -5.3931 20.4596
# 2 31.3374 120.6562 61.6877 -16.8963 -0.0702 23.3147
# 3 26.9594 61.6877 132.9861 -18.4691 0.2413 21.0941
# 4 -9.0137 -16.8963 -18.4691 52.9683 7.9601 -8.5453
# 5 -5.3931 -0.0702 0.2413 7.9601 26.3458 -6.5718
# 6 20.4596 23.3147 21.0941 -8.5453 -6.5718 21.6154
#
#
#
# Elastic Compliance Matrix: (Units=1/GPa)
#
#
# Indices 1 2 3 4 5 6 
#
# 1 0.016739 -0.001398 -0.000558 -0.000017 -0.000009 -0.013801
# 2 -0.001398 0.012541 -0.003965 0.001408 -0.002794 -0.008627
# 3 -0.000558 -0.003965 0.010590 0.001768 -0.002122 -0.005476
# 4 -0.000017 0.001408 0.001768 0.021349 -0.005590 0.003512
# 5 -0.000009 -0.002794 -0.002122 -0.005590 0.043688 0.016166
# 6 -0.013801 -0.008627 -0.005476 0.003512 0.016166 0.080279
#
#
# Mechanical properties :
#
#
# Convention : Reuss Voigt Hill
#
# Bulk Modulus (GPa) = 35.67885 63.74729 49.71307
# Shear Modulus (GPa) = 24.22849 34.43739 29.33294
#
# Velocity S-wave (km/s) = 3.26360 3.89089 3.59097
# Velocity P-wave (km/s) = 5.46683 6.94330 6.24883
#
# Compressibility (1/GPa) = 0.02802781
#
# Stress axis : x y z
#
# Youngs Moduli (GPa) = 59.74202 79.74026 94.42999
#
# Poissons Ratio (x) = 0.11145 0.05272
# Poissons Ratio (y) = 0.08350 0.37440
# Poissons Ratio (z) = 0.03335 0.31616
#
# Static dielectric constant tensor:
#      x y z
#    x 4.413350 0.185370 -0.140640 
#    y 0.185370 4.198960 -0.136090 
#    z -0.140640 -0.136090 4.926340 
# 
# 
# High freq. dielectric constant tensor:
#      x y z
#    x 1.892160 0.016910 -0.030020 
#    y 0.016910 1.899090 -0.001860 
#    z -0.030020 -0.001860 1.903250 
# 
# From -- ./inp_files/159254.got.cif
#   From: 2010.06.25/outbox.cif.g09.slc.cpg/sg2_80_cif.got.tgz:159254.got - 2010.06.27 13:26:56.
