data_PCOD8013074
_publ_section_title
;
Structure prediction by ZEFSAII (Michael W. Deem and Ramdas Pophale) SiO2 
 PCOD8013074
Probable space group: P -1
;
_chemical_formula_sum "Si O2"
_cell_formula_units_Z 14
_cell_length_a 16.151097
_cell_length_b 18.940685
_cell_length_c 18.209452
_cell_angle_alpha 22.391933
_cell_angle_beta 158.128073
_cell_angle_gamma 157.900189
_cell_volume 692.385130
_symmetry_space_group_name_H-M "P -1"
_symmetry_group_IT_number 2
_symmetry_cell_setting 'triclinic'
loop_
_space_group_symop_operation_xyz
x,y,z
-x,-y,-z
loop_
_atom_site_type_symbol
_atom_site_label
_atom_site_fract_x
_atom_site_fract_y
_atom_site_fract_z
Si Si1 0.447594 0.912759 0.266640
Si Si2 0.028481 0.883730 0.434436
Si Si3 0.979250 0.439279 0.821170
Si Si4 0.409484 0.173697 0.253597
Si Si5 0.664681 0.039820 0.025618
Si Si6 0.509139 0.470213 0.916844
Si Si7 0.123325 0.106205 0.865496
O O1 0.695901 0.928773 0.494177
O O2 0.333250 0.029586 0.110355
O O3 0.233374 0.666199 0.317226
O O4 0.512912 0.023729 0.132460
O O5 0.998132 0.900105 0.307304
O O6 0.018922 0.665850 0.658390
O O7 0.808172 0.900213 0.281732
O O8 0.234947 0.441266 0.004586
O O9 0.878913 0.287316 0.956584
O O10 0.511177 0.334803 0.251410
O O11 0.500000 0.000000 0.500000
O O12 0.516388 0.308777 0.138066
O O13 0.103769 0.051888 0.116825
O O14 0.500000 0.000000 0.000000
O O15 0.262317 0.344177 0.783236
#
# Coordination Sequence:
#
# PCOD8013074 Si02
#       7
#     2   2   2   2   2   2   2
#     4   9  21  40  64  90 124 159 210 254 296 369
#     4  11  21  40  67  90 122 169 207 243 316 365
#     4  10  21  40  65  92 117 166 209 249 307 368
#     4  11  24  40  60  94 123 165 203 254 318 359
#     4   9  22  42  61  96 132 154 202 259 306 366
#     4  11  22  41  64  87 128 157 210 260 301 366
#     4  11  22  41  63  90 126 163 208 262 297 360
#
# _framework density 20.219961000000001
#
# number of rings (size 3 to 8) (size 9 to 14) (size 15 to 20)
#    0.857    0.857    2.857    1.286    0.000    4.000 
#    0.000    0.714    0.000    0.000    0.000    0.000 
#    0.000    0.000    0.000    0.000    0.000    0.000 
#
# Total GULP energy -173549.988733 kJ/mol
# GULP energy per Si atom -12396.427767 kJ/mol
# Density = 2.017394 g / cm^3
# Si number density = 20.219961 Si / 1000 Ang^3
#
#
#
# Elastic Constant Matrix: (Units=GPa)
#
#
# Indices 1 2 3 4 5 6 
#
# 1 83.4176 36.6302 30.6268 11.0853 15.0454 22.9630
# 2 36.6302 120.2463 16.5895 16.2843 3.5785 -5.7602
# 3 30.6268 16.5895 85.8964 1.3830 10.8796 -0.7491
# 4 11.0853 16.2843 1.3830 38.9372 -4.8663 -6.3340
# 5 15.0454 3.5785 10.8796 -4.8663 21.4733 -1.7152
# 6 22.9630 -5.7602 -0.7491 -6.3340 -1.7152 35.3475
#
#
#
# Elastic Compliance Matrix: (Units=1/GPa)
#
#
# Indices 1 2 3 4 5 6 
#
# 1 0.028867 -0.006865 -0.006419 -0.011397 -0.020252 -0.023033
# 2 -0.006865 0.010756 0.000033 -0.001138 0.003236 0.006167
# 3 -0.006419 0.000033 0.014176 0.001840 -0.001897 0.004713
# 4 -0.011397 -0.001138 0.001840 0.033622 0.015985 0.014058
# 5 -0.020252 0.003236 -0.001897 0.015985 0.066379 0.019729
# 6 -0.023033 0.006167 0.004713 0.014058 0.019729 0.047835
#
#
# Mechanical properties :
#
#
# Convention : Reuss Voigt Hill
#
# Bulk Modulus (GPa) = 36.63522 50.80593 43.72057
# Shear Modulus (GPa) = 21.07595 32.86587 26.97091
#
# Velocity S-wave (km/s) = 3.23202 4.03602 3.65619
# Velocity P-wave (km/s) = 5.66442 6.84839 6.28435
#
# Compressibility (1/GPa) = 0.02729614
#
# Stress axis : x y z
#
# Youngs Moduli (GPa) = 34.64168 92.96920 70.54140
#
# Poissons Ratio (x) = 0.63826 0.45280
# Poissons Ratio (y) = 0.23782 -0.00231
# Poissons Ratio (z) = 0.22236 -0.00304
#
# Static dielectric constant tensor:
#      x y z
#    x 3.461150 -0.059570 0.130240 
#    y -0.059570 3.809930 -0.067450 
#    z 0.130240 -0.067450 3.472140 
# 
# 
# High freq. dielectric constant tensor:
#      x y z
#    x 1.773470 -0.002440 0.008680 
#    y -0.002440 1.798930 -0.002990 
#    z 0.008680 -0.002990 1.779120 
# 
# From -- ./inp_files/600543.got.cif
#   From: 2010.06.25/outbox.cif.g09.slc.cpg/sg2_301_cif.got.tgz:600543.got - 2010.06.27 13:26:56.
