data_PCOD8013091
_publ_section_title
;
Structure prediction by ZEFSAII (Michael W. Deem and Ramdas Pophale) SiO2 
 PCOD8013091
Probable space group: P -1
;
_chemical_formula_sum "Si O2"
_cell_formula_units_Z 14
_cell_length_a 12.662051
_cell_length_b 9.525376
_cell_length_c 16.717520
_cell_angle_alpha 128.433625
_cell_angle_beta 22.724439
_cell_angle_gamma 118.153541
_cell_volume 574.774899
_symmetry_space_group_name_H-M "P -1"
_symmetry_group_IT_number 2
_symmetry_cell_setting 'triclinic'
loop_
_space_group_symop_operation_xyz
x,y,z
-x,-y,-z
loop_
_atom_site_type_symbol
_atom_site_label
_atom_site_fract_x
_atom_site_fract_y
_atom_site_fract_z
Si Si1 0.131414 0.402726 0.493129
Si Si2 0.829937 0.720792 0.194510
Si Si3 0.703661 0.832759 0.850522
Si Si4 0.589438 0.311351 0.654259
Si Si5 0.721527 0.926459 0.505423
Si Si6 0.316841 0.887210 0.907382
Si Si7 0.255845 0.641900 0.115931
O O1 0.068605 0.305249 0.420876
O O2 0.155631 0.610165 0.528209
O O3 0.434952 0.280215 0.279010
O O4 0.857148 0.432832 0.752486
O O5 0.555371 0.767357 0.344470
O O6 0.706258 0.798254 0.395085
O O7 0.000000 0.500000 0.000000
O O8 0.054611 0.818648 0.039533
O O9 0.529103 0.706741 0.969523
O O10 0.500000 0.000000 0.000000
O O11 0.828431 0.931811 0.868936
O O12 0.735509 0.133478 0.547436
O O13 0.339243 0.478041 0.932883
O O14 0.440244 0.951000 0.764305
O O15 0.010995 0.827043 0.318040
#
# Coordination Sequence:
#
# PCOD8013091 Si02
#       7
#     2   2   2   2   2   2   2
#     4   9  19  37  63  91 124 163 200 249 308 362
#     4  12  22  41  65  89 124 164 205 257 311 359
#     4   9  18  36  64  95 123 159 210 249 299 372
#     4  11  23  41  62  95 127 159 208 255 302 371
#     4  11  24  39  64  95 124 161 208 253 310 365
#     4  10  22  38  64  95 121 163 212 251 302 373
#     4  10  21  40  65  93 125 164 201 253 308 361
#
# _framework density 24.357361000000001
#
# number of rings (size 3 to 8) (size 9 to 14) (size 15 to 20)
#    0.000    1.714    2.857    2.143    0.000    9.714 
#    0.000    2.857    0.000   24.857    0.000    0.000 
#    0.000    0.000    0.000    0.000    0.000    0.000 
#
# Total GULP energy -173646.707347 kJ/mol
# GULP energy per Si atom -12403.336239 kJ/mol
# Density = 2.430192 g / cm^3
# Si number density = 24.357361 Si / 1000 Ang^3
#
#
#
# Elastic Constant Matrix: (Units=GPa)
#
#
# Indices 1 2 3 4 5 6 
#
# 1 74.1129 63.8388 29.9665 -12.3093 9.7374 8.8500
# 2 63.8388 177.0932 52.0384 -13.2523 24.1397 -3.0510
# 3 29.9665 52.0384 84.3380 -29.2565 28.9261 -3.9577
# 4 -12.3093 -13.2523 -29.2565 51.3166 -10.0686 -5.0506
# 5 9.7374 24.1397 28.9261 -10.0686 34.2181 1.9671
# 6 8.8500 -3.0510 -3.9577 -5.0506 1.9671 53.2427
#
#
#
# Elastic Compliance Matrix: (Units=1/GPa)
#
#
# Indices 1 2 3 4 5 6 
#
# 1 0.021418 -0.006878 -0.004147 0.001135 0.002842 -0.004260
# 2 -0.006878 0.009212 -0.002637 -0.001167 -0.002741 0.001466
# 3 -0.004147 -0.002637 0.023089 0.009097 -0.014010 0.003635
# 4 0.001135 -0.001167 0.009097 0.024914 -0.000018 0.002785
# 5 0.002842 -0.002741 -0.014010 -0.000018 0.042373 -0.003238
# 6 -0.004260 0.001466 0.003635 0.002785 -0.003238 0.020228
#
#
# Mechanical properties :
#
#
# Convention : Reuss Voigt Hill
#
# Bulk Modulus (GPa) = 37.88468 69.69240 53.78854
# Shear Modulus (GPa) = 28.19184 40.40218 34.29701
#
# Velocity S-wave (km/s) = 3.40579 4.07716 3.75650
# Velocity P-wave (km/s) = 5.57255 7.13014 6.39892
#
# Compressibility (1/GPa) = 0.02639590
#
# Stress axis : x y z
#
# Youngs Moduli (GPa) = 46.68942 108.54956 43.31140
#
# Poissons Ratio (x) = 0.74661 0.17961
# Poissons Ratio (y) = 0.32113 0.11419
# Poissons Ratio (z) = 0.19362 0.28620
#
# Static dielectric constant tensor:
#      x y z
#    x 4.542990 -0.073240 0.068060 
#    y -0.073240 4.761710 0.172110 
#    z 0.068060 0.172110 4.745220 
# 
# 
# High freq. dielectric constant tensor:
#      x y z
#    x 1.966390 -0.005080 -0.003660 
#    y -0.005080 1.987330 0.009020 
#    z -0.003660 0.009020 1.984000 
# 
# From -- ./inp_files/207502.got.cif
#   From: 2010.06.25/outbox.cif.g09.slc.cpg/sg2_104_cif.got.tgz:207502.got - 2010.06.27 13:26:56.
