data_PCOD8013844
_publ_section_title
;
Structure prediction by ZEFSAII (Michael W. Deem and Ramdas Pophale) SiO2 
 PCOD8013844
Probable space group: P -1
;
_chemical_formula_sum "Si O2"
_cell_formula_units_Z 16
_cell_length_a 17.828793
_cell_length_b 9.514738
_cell_length_c 11.874981
_cell_angle_alpha 59.859836
_cell_angle_beta 31.064648
_cell_angle_gamma 45.681137
_cell_volume 717.924390
_symmetry_space_group_name_H-M "P -1"
_symmetry_group_IT_number 2
_symmetry_cell_setting 'triclinic'
loop_
_space_group_symop_operation_xyz
x,y,z
-x,-y,-z
loop_
_atom_site_type_symbol
_atom_site_label
_atom_site_fract_x
_atom_site_fract_y
_atom_site_fract_z
Si Si1 0.939075 0.300203 0.949731
Si Si2 0.923418 0.211460 0.457421
Si Si3 0.587756 0.726933 0.297882
Si Si4 0.277946 0.010331 0.968171
Si Si5 0.434038 0.684671 0.089867
Si Si6 0.009035 0.458697 0.374029
Si Si7 0.751053 0.116468 0.175517
Si Si8 0.414816 0.209492 0.966180
O O1 0.774807 0.494406 0.154137
O O2 0.848492 0.223645 0.019254
O O3 0.047006 0.349581 0.706899
O O4 0.100039 0.123295 0.891958
O O5 0.725296 0.288314 0.638467
O O6 0.895293 0.375797 0.519119
O O7 0.000000 0.000000 0.500000
O O8 0.058680 0.179514 0.198068
O O9 0.431393 0.759619 0.564867
O O10 0.493901 0.793956 0.266619
O O11 0.633145 0.877511 0.221436
O O12 0.311903 0.865047 0.879564
O O13 0.366489 0.879575 0.020872
O O14 0.585622 0.645580 0.998963
O O15 0.500000 0.500000 0.000000
O O16 0.000000 0.500000 0.500000
O O17 0.218583 0.284607 0.145344
O O18 0.500000 0.000000 0.000000
#
# Coordination Sequence:
#
# PCOD8013844 Si02
#       8
#     2   2   2   2   2   2   2   2
#     4  10  25  46  65 102 131 176 242 276 345 410
#     4  10  21  41  62  93 133 172 212 276 341 398
#     4  11  23  46  69  95 135 181 233 282 345 402
#     4  11  23  45  63  96 138 176 230 279 340 414
#     4  11  24  38  64 104 134 170 224 274 347 411
#     4  11  23  39  69  94 133 174 217 284 341 405
#     4  11  26  44  71  96 137 184 232 287 332 415
#     4  11  21  40  64  96 133 169 218 281 339 411
#
# _framework density 22.286470999999999
#
# number of rings (size 3 to 8) (size 9 to 14) (size 15 to 20)
#    0.000    1.250    3.750    2.250    8.750    3.500 
#    2.250    0.000    0.000    0.000    0.000    0.000 
#    0.000    0.000    0.000    0.000    0.000    0.000 
#
# Total GULP energy -198308.149734 kJ/mol
# GULP energy per Si atom -12394.259358 kJ/mol
# Density = 2.223575 g / cm^3
# Si number density = 22.286471 Si / 1000 Ang^3
#
#
#
# Elastic Constant Matrix: (Units=GPa)
#
#
# Indices 1 2 3 4 5 6 
#
# 1 82.9772 10.5378 12.8761 -5.8087 5.7281 14.7556
# 2 10.5378 85.9632 17.0363 -7.6108 -6.7743 15.0349
# 3 12.8761 17.0363 71.5413 -3.4449 7.4478 -0.1722
# 4 -5.8087 -7.6108 -3.4449 35.7993 8.3659 -6.6360
# 5 5.7281 -6.7743 7.4478 8.3659 36.7584 2.7312
# 6 14.7556 15.0349 -0.1722 -6.6360 2.7312 35.9215
#
#
#
# Elastic Compliance Matrix: (Units=1/GPa)
#
#
# Indices 1 2 3 4 5 6 
#
# 1 0.013535 -0.000370 -0.002118 0.001375 -0.001687 -0.005033
# 2 -0.000370 0.013732 -0.003563 0.000604 0.003602 -0.005775
# 3 -0.002118 -0.003563 0.015747 0.001974 -0.004198 0.003121
# 4 0.001375 0.000604 0.001974 0.031399 -0.008065 0.005606
# 5 -0.001687 0.003602 -0.004198 -0.008065 0.031166 -0.004694
# 6 -0.005033 -0.005775 0.003121 0.005606 -0.004694 0.033730
#
#
# Mechanical properties :
#
#
# Convention : Reuss Voigt Hill
#
# Bulk Modulus (GPa) = 32.35127 35.70913 34.03020
# Shear Modulus (GPa) = 30.91840 35.03127 32.97484
#
# Velocity S-wave (km/s) = 3.72871 3.96897 3.85072
# Velocity P-wave (km/s) = 5.75199 6.08779 5.92227
#
# Compressibility (1/GPa) = 0.03091068
#
# Stress axis : x y z
#
# Youngs Moduli (GPa) = 73.88319 72.82405 63.50310
#
# Poissons Ratio (x) = 0.02698 0.13450
# Poissons Ratio (y) = 0.02737 0.22627
# Poissons Ratio (z) = 0.15649 0.25948
#
# Static dielectric constant tensor:
#      x y z
#    x 6.417710 -2.074810 3.495050 
#    y -2.074810 6.231050 -3.652770 
#    z 3.495050 -3.652770 10.933040 
# 
# 
# High freq. dielectric constant tensor:
#      x y z
#    x 1.870210 0.017770 -0.006860 
#    y 0.017770 1.883120 -0.004850 
#    z -0.006860 -0.004850 1.880440 
# 
# From -- ./inp_files/217519.got.cif
#   From: 2010.06.25/outbox.cif.g09.slc.cpg/sg2_109_cif.got.tgz:217519.got - 2010.06.27 13:26:56.
