data_PCOD8013527
_publ_section_title
;
Structure prediction by ZEFSAII (Michael W. Deem and Ramdas Pophale) SiO2 
 PCOD8013527
Probable space group: P -1
;
_chemical_formula_sum "Si O2"
_cell_formula_units_Z 16
_cell_length_a 12.417751
_cell_length_b 19.308595
_cell_length_c 16.437475
_cell_angle_alpha 29.833026
_cell_angle_beta 154.586314
_cell_angle_gamma 132.826606
_cell_volume 735.367794
_symmetry_space_group_name_H-M "P -1"
_symmetry_group_IT_number 2
_symmetry_cell_setting 'triclinic'
loop_
_space_group_symop_operation_xyz
x,y,z
-x,-y,-z
loop_
_atom_site_type_symbol
_atom_site_label
_atom_site_fract_x
_atom_site_fract_y
_atom_site_fract_z
Si Si1 0.964597 0.174959 0.303045
Si Si2 0.242981 0.754603 0.345124
Si Si3 0.054294 0.902804 0.894441
Si Si4 0.168545 0.205781 0.835024
Si Si5 0.389947 0.175837 0.718034
Si Si6 0.048350 0.746820 0.537536
Si Si7 0.319076 0.134988 0.442949
Si Si8 0.519389 0.605919 0.129760
O O1 0.207242 0.195320 0.493991
O O2 0.020926 0.215747 0.208734
O O3 0.664373 0.296028 0.016673
O O4 0.000000 0.000000 0.500000
O O5 0.533669 0.754117 0.572148
O O6 0.319591 0.578706 0.548809
O O7 0.021369 0.820363 0.200926
O O8 0.088895 0.873949 0.043633
O O9 0.787903 0.880681 0.704102
O O10 0.354573 0.787012 0.170034
O O11 0.985340 0.080352 0.644764
O O12 0.247450 0.337771 0.785796
O O13 0.974693 0.277011 0.549252
O O14 0.454905 0.036668 0.188818
O O15 0.194121 0.281359 0.552365
O O16 0.500000 0.000000 0.000000
O O17 0.348901 0.625424 0.908944
#
# Coordination Sequence:
#
# PCOD8013527 Si02
#       8
#     2   2   2   2   2   2   2   2
#     4  11  19  38  69  96 128 165 226 269 320 399
#     4  12  28  45  61 101 144 170 216 277 334 386
#     4  11  22  40  67  98 132 172 219 277 323 386
#     4  12  24  44  72  94 131 183 227 261 319 410
#     4   9  17  33  60  97 129 154 212 280 315 370
#     4  10  21  40  68  98 125 171 229 269 316 392
#     4  12  23  41  70  99 126 178 223 270 327 383
#     4  11  26  44  68 100 133 176 215 277 337 384
#
# _framework density 21.757819999999999
#
# number of rings (size 3 to 8) (size 9 to 14) (size 15 to 20)
#    0.000    1.000    5.000    3.000    1.750    3.500 
#    0.000    0.625    0.000    0.000    0.000    0.000 
#    0.000    0.000    0.000    0.000    0.000    0.000 
#
# Total GULP energy -198301.416605 kJ/mol
# GULP energy per Si atom -12393.838538 kJ/mol
# Density = 2.170830 g / cm^3
# Si number density = 21.757820 Si / 1000 Ang^3
#
#
#
# Elastic Constant Matrix: (Units=GPa)
#
#
# Indices 1 2 3 4 5 6 
#
# 1 124.3205 30.4747 8.3223 18.1348 -1.6572 1.8922
# 2 30.4747 89.1154 11.4723 15.1435 -0.6854 10.9410
# 3 8.3223 11.4723 37.0461 6.2005 -5.4539 -6.5324
# 4 18.1348 15.1435 6.2005 35.9858 -6.1313 -4.1575
# 5 -1.6572 -0.6854 -5.4539 -6.1313 18.6871 2.4989
# 6 1.8922 10.9410 -6.5324 -4.1575 2.4989 33.1444
#
#
#
# Elastic Compliance Matrix: (Units=1/GPa)
#
#
# Indices 1 2 3 4 5 6 
#
# 1 0.009214 -0.002386 -0.000878 -0.003640 -0.000679 -0.000317
# 2 -0.002386 0.014148 -0.004311 -0.004995 -0.001804 -0.005874
# 3 -0.000878 -0.004311 0.031023 -0.001004 0.007567 0.006891
# 4 -0.003640 -0.004995 -0.001004 0.034155 0.009710 0.005211
# 5 -0.000679 -0.001804 0.007567 0.009710 0.058928 -0.001099
# 6 -0.000317 -0.005874 0.006891 0.005211 -0.001099 0.034223
#
#
# Mechanical properties :
#
#
# Convention : Reuss Voigt Hill
#
# Bulk Modulus (GPa) = 25.48628 39.00228 32.24428
# Shear Modulus (GPa) = 23.81884 30.91097 27.36490
#
# Velocity S-wave (km/s) = 3.31225 3.77328 3.55026
# Velocity P-wave (km/s) = 5.13489 6.07850 5.62651
#
# Compressibility (1/GPa) = 0.03923679
#
# Stress axis : x y z
#
# Youngs Moduli (GPa) = 108.52950 70.67980 32.23451
#
# Poissons Ratio (x) = 0.16862 0.02829
# Poissons Ratio (y) = 0.25891 0.13896
# Poissons Ratio (z) = 0.09525 0.30469
#
# Static dielectric constant tensor:
#      x y z
#    x 4.223860 0.198240 0.142390 
#    y 0.198240 3.929820 0.307660 
#    z 0.142390 0.307660 3.697050 
# 
# 
# High freq. dielectric constant tensor:
#      x y z
#    x 1.861940 0.004160 -0.001400 
#    y 0.004160 1.852630 0.024110 
#    z -0.001400 0.024110 1.825280 
# 
# From -- ./inp_files/447314.got.cif
#   From: 2010.06.25/outbox.cif.g09.slc.cpg/sg2_224_cif.got.tgz:447314.got - 2010.06.27 13:26:56.
