data_PCOD8013980
_publ_section_title
;
Structure prediction by ZEFSAII (Michael W. Deem and Ramdas Pophale) SiO2 
 PCOD8013980
Probable space group: P -1
;
_chemical_formula_sum "Si O2"
_cell_formula_units_Z 12
_cell_length_a 10.290017
_cell_length_b 14.854919
_cell_length_c 8.750749
_cell_angle_alpha 133.235411
_cell_angle_beta 139.423521
_cell_angle_gamma 38.144356
_cell_volume 524.447790
_symmetry_space_group_name_H-M "P -1"
_symmetry_group_IT_number 2
_symmetry_cell_setting 'triclinic'
loop_
_space_group_symop_operation_xyz
x,y,z
-x,-y,-z
loop_
_atom_site_type_symbol
_atom_site_label
_atom_site_fract_x
_atom_site_fract_y
_atom_site_fract_z
Si Si1 0.764224 0.055955 0.257020
Si Si2 0.755814 0.773503 0.923909
Si Si3 0.917787 0.694272 0.320887
Si Si4 0.090788 0.860630 0.812153
Si Si5 0.342749 0.541951 0.716766
Si Si6 0.807111 0.493564 0.144745
O O1 0.762113 0.132948 0.189244
O O2 0.752921 0.916881 0.040971
O O3 0.520389 0.180129 0.274929
O O4 0.000000 0.000000 0.500000
O O5 0.872474 0.711014 0.121389
O O6 0.916394 0.643663 0.795077
O O7 0.756345 0.646830 0.206136
O O8 0.875136 0.846524 0.533063
O O9 0.203539 0.558570 0.452778
O O10 0.265668 0.710263 0.891530
O O11 0.000000 0.000000 0.000000
O O12 0.247612 0.482922 0.695625
O O13 0.633292 0.449408 0.858210
#
# Coordination Sequence:
#
# PCOD8013980 Si02
#       6
#     2   2   2   2   2   2
#     4  11  22  44  61  91 128 155 214 254 305 376
#     4  11  24  38  66  91 124 167 201 258 309 369
#     4  10  22  39  62  92 126 159 210 255 298 377
#     4  10  21  41  64  86 125 167 203 258 310 353
#     4   9  22  39  63  89 130 160 207 258 291 377
#     4  11  21  41  62  93 127 164 206 250 316 359
#
# _framework density 22.881208000000001
#
# number of rings (size 3 to 8) (size 9 to 14) (size 15 to 20)
#    1.000    0.667    1.667    3.000    0.000    2.000 
#    0.000    6.667    0.000    0.000    0.000    0.000 
#    0.000    0.000    0.000    0.000    0.000    0.000 
#
# Total GULP energy -148661.550306 kJ/mol
# GULP energy per Si atom -12388.462526 kJ/mol
# Density = 2.282913 g / cm^3
# Si number density = 22.881208 Si / 1000 Ang^3
#
#
#
# Elastic Constant Matrix: (Units=GPa)
#
#
# Indices 1 2 3 4 5 6 
#
# 1 115.1717 34.5022 37.6662 7.1470 31.9756 14.8864
# 2 34.5022 54.5147 17.5625 -7.3254 18.7118 -3.8445
# 3 37.6662 17.5625 97.7693 -19.0446 14.7812 -11.1176
# 4 7.1470 -7.3254 -19.0446 39.5780 11.9784 5.5271
# 5 31.9756 18.7118 14.7812 11.9784 36.6027 -2.9262
# 6 14.8864 -3.8445 -11.1176 5.5271 -2.9262 43.5475
#
#
#
# Elastic Compliance Matrix: (Units=1/GPa)
#
#
# Indices 1 2 3 4 5 6 
#
# 1 0.015608 -0.006471 -0.005096 -0.003066 -0.007853 -0.007346
# 2 -0.006471 0.027769 0.001775 0.010525 -0.012468 0.002943
# 3 -0.005096 0.001775 0.014990 0.009477 -0.005277 0.004168
# 4 -0.003066 0.010525 0.009477 0.038397 -0.019236 -0.001770
# 5 -0.007853 -0.012468 -0.005277 -0.019236 0.049461 0.006002
# 6 -0.007346 0.002943 0.004168 -0.001770 0.006002 0.027426
#
#
# Mechanical properties :
#
#
# Convention : Reuss Voigt Hill
#
# Bulk Modulus (GPa) = 25.78476 49.65750 37.72113
# Shear Modulus (GPa) = 24.25257 35.79398 30.02327
#
# Velocity S-wave (km/s) = 3.25919 3.95946 3.62627
# Velocity P-wave (km/s) = 5.04545 6.53089 5.83563
#
# Compressibility (1/GPa) = 0.03878259
#
# Stress axis : x y z
#
# Youngs Moduli (GPa) = 64.07059 36.01148 66.70923
#
# Poissons Ratio (x) = 0.23303 0.33994
# Poissons Ratio (y) = 0.41460 -0.11838
# Poissons Ratio (z) = 0.32649 -0.06391
#
# Static dielectric constant tensor:
#      x y z
#    x 4.197460 0.357170 0.327020 
#    y 0.357170 4.009950 -0.068630 
#    z 0.327020 -0.068630 4.321170 
# 
# 
# High freq. dielectric constant tensor:
#      x y z
#    x 1.901270 0.034640 0.023860 
#    y 0.034640 1.883070 -0.005110 
#    z 0.023860 -0.005110 1.909610 
# 
# From -- ./inp_files/437409.got.cif
#   From: 2010.06.25/outbox.cif.g09.slc.cpg/sg2_219_cif.got.tgz:437409.got - 2010.06.27 13:26:56.
