data_PCOD8013948
_publ_section_title
;
Structure prediction by ZEFSAII (Michael W. Deem and Ramdas Pophale) SiO2 
 PCOD8013948
Probable space group: P -1
;
_chemical_formula_sum "Si O2"
_cell_formula_units_Z 14
_cell_length_a 9.189378
_cell_length_b 13.521612
_cell_length_c 9.006508
_cell_angle_alpha 130.707173
_cell_angle_beta 118.116150
_cell_angle_gamma 50.569927
_cell_volume 652.143318
_symmetry_space_group_name_H-M "P -1"
_symmetry_group_IT_number 2
_symmetry_cell_setting 'triclinic'
loop_
_space_group_symop_operation_xyz
x,y,z
-x,-y,-z
loop_
_atom_site_type_symbol
_atom_site_label
_atom_site_fract_x
_atom_site_fract_y
_atom_site_fract_z
Si Si1 0.593283 0.162330 0.278762
Si Si2 0.309843 0.551257 0.050383
Si Si3 0.892295 0.425136 0.295194
Si Si4 0.244992 0.122292 0.106573
Si Si5 0.822871 0.119718 0.621571
Si Si6 0.406065 0.640863 0.787712
Si Si7 0.195128 0.944617 0.129297
O O1 0.382683 0.186230 0.190920
O O2 0.637097 0.173449 0.482146
O O3 0.598318 0.295668 0.317396
O O4 0.745279 0.997594 0.129094
O O5 0.192597 0.498901 0.832881
O O6 0.500000 0.500000 0.000000
O O7 0.175602 0.729067 0.184807
O O8 0.375764 0.471134 0.165110
O O9 0.728750 0.435482 0.339894
O O10 0.000000 0.500000 0.500000
O O11 0.032956 0.253408 0.153248
O O12 0.301059 0.032233 0.201809
O O13 0.825004 0.027695 0.677851
O O14 0.000000 0.000000 0.500000
O O15 0.329900 0.769589 0.999976
O O16 0.000000 0.000000 0.000000
#
# Coordination Sequence:
#
# PCOD8013948 Si02
#       7
#     2   2   2   2   2   2   2
#     4  10  24  40  66  95 131 161 216 274 329 371
#     4  10  21  41  63  96 128 173 218 261 318 394
#     4  11  22  38  68  90 128 168 224 258 316 388
#     4  10  22  42  61  95 131 166 209 274 319 384
#     4  12  23  37  67  99 127 166 222 268 317 387
#     4  10  21  42  69  90 127 181 212 259 329 393
#     4  11  19  39  69  87 124 174 213 255 328 388
#
# _framework density 21.467673999999999
#
# number of rings (size 3 to 8) (size 9 to 14) (size 15 to 20)
#    0.000    1.429    4.286    2.571    4.000    1.143 
#    0.000    3.571    3.143    0.000    0.000    0.000 
#    0.000    0.000    0.000    0.000    0.000    0.000 
#
# Total GULP energy -173461.740387 kJ/mol
# GULP energy per Si atom -12390.124313 kJ/mol
# Density = 2.141881 g / cm^3
# Si number density = 21.467674 Si / 1000 Ang^3
#
#
#
# Elastic Constant Matrix: (Units=GPa)
#
#
# Indices 1 2 3 4 5 6 
#
# 1 96.4188 35.8339 35.9497 -15.6696 1.8674 23.9053
# 2 35.8339 117.5365 57.3809 -19.7490 2.1887 14.3256
# 3 35.9497 57.3809 89.7705 -24.8948 3.3044 9.5971
# 4 -15.6696 -19.7490 -24.8948 43.1689 -1.6608 -11.5632
# 5 1.8674 2.1887 3.3044 -1.6608 37.7875 -1.4733
# 6 23.9053 14.3256 9.5971 -11.5632 -1.4733 31.6581
#
#
#
# Elastic Compliance Matrix: (Units=1/GPa)
#
#
# Indices 1 2 3 4 5 6 
#
# 1 0.014686 -0.001396 -0.004007 -0.000142 -0.000664 -0.009326
# 2 -0.001396 0.012856 -0.007246 0.000557 -0.000110 -0.002368
# 3 -0.004007 -0.007246 0.019009 0.006991 -0.000618 0.003067
# 4 -0.000142 0.000557 0.006991 0.029756 0.001009 0.008651
# 5 -0.000664 -0.000110 -0.000618 0.001009 0.026693 0.002349
# 6 -0.009326 -0.002368 0.003067 0.008651 0.002349 0.042041
#
#
# Mechanical properties :
#
#
# Convention : Reuss Voigt Hill
#
# Bulk Modulus (GPa) = 47.05340 62.45052 54.75196
# Shear Modulus (GPa) = 28.18113 34.16032 31.17072
#
# Velocity S-wave (km/s) = 3.62708 3.99337 3.81462
# Velocity P-wave (km/s) = 6.28545 7.10044 6.70534
#
# Compressibility (1/GPa) = 0.02125245
#
# Stress axis : x y z
#
# Youngs Moduli (GPa) = 68.09095 77.78717 52.60531
#
# Poissons Ratio (x) = 0.10861 0.21078
# Poissons Ratio (y) = 0.09507 0.38120
# Poissons Ratio (z) = 0.27283 0.56368
#
# Static dielectric constant tensor:
#      x y z
#    x 3.834090 0.158270 -0.203620 
#    y 0.158270 4.410900 -0.036860 
#    z -0.203620 -0.036860 3.876970 
# 
# 
# High freq. dielectric constant tensor:
#      x y z
#    x 1.822070 0.000040 -0.017770 
#    y 0.000040 1.857250 0.001750 
#    z -0.017770 0.001750 1.833670 
# 
# From -- ./inp_files/436229.got.cif
#   From: 2010.06.25/outbox.cif.g09.slc.cpg/sg2_219_cif.got.tgz:436229.got - 2010.06.27 13:26:56.
