data_PCOD8013488
_publ_section_title
;
Structure prediction by ZEFSAII (Michael W. Deem and Ramdas Pophale) SiO2 
 PCOD8013488
Probable space group: P -1
;
_chemical_formula_sum "Si O2"
_cell_formula_units_Z 16
_cell_length_a 15.948254
_cell_length_b 11.619633
_cell_length_c 16.655308
_cell_angle_alpha 54.517714
_cell_angle_beta 26.349337
_cell_angle_gamma 37.350417
_cell_volume 724.568512
_symmetry_space_group_name_H-M "P -1"
_symmetry_group_IT_number 2
_symmetry_cell_setting 'triclinic'
loop_
_space_group_symop_operation_xyz
x,y,z
-x,-y,-z
loop_
_atom_site_type_symbol
_atom_site_label
_atom_site_fract_x
_atom_site_fract_y
_atom_site_fract_z
Si Si1 0.564151 0.853903 0.434058
Si Si2 0.055726 0.912647 0.590420
Si Si3 0.013585 0.614667 0.689328
Si Si4 0.500827 0.275280 0.838117
Si Si5 0.894482 0.444747 0.548992
Si Si6 0.061910 0.751549 0.006640
Si Si7 0.963267 0.903015 0.328101
Si Si8 0.771546 0.176133 0.018178
O O1 0.680029 0.638655 0.455855
O O2 0.500000 0.000000 0.500000
O O3 0.293273 0.993135 0.552635
O O4 0.820256 0.770164 0.193697
O O5 0.055108 0.750211 0.629632
O O6 0.285352 0.881958 0.356812
O O7 0.122609 0.902074 0.631199
O O8 0.727262 0.162643 0.762556
O O9 0.948314 0.638421 0.639686
O O10 0.744660 0.699516 0.936603
O O11 0.372103 0.500090 0.830074
O O12 0.000000 0.500000 0.500000
O O13 0.960853 0.255848 0.606453
O O14 0.552698 0.666802 0.736207
O O15 0.061649 0.805696 0.076955
O O16 0.985012 0.918336 0.942775
O O17 0.241037 0.767650 0.086346
#
# Coordination Sequence:
#
# PCOD8013488 Si02
#       8
#     2   2   2   2   2   2   2   2
#     4  11  22  44  67 100 135 176 222 277 344 406
#     4  11  24  45  68  97 140 176 236 277 331 410
#     4  11  25  45  74  96 135 187 225 275 343 406
#     4  10  23  44  71  96 129 184 229 281 335 401
#     4  12  26  42  69 105 138 170 224 284 344 407
#     4  10  21  40  68  94 132 176 230 271 338 416
#     4  12  26  41  67 101 139 176 222 285 338 397
#     4  11  23  39  66 101 136 177 217 278 349 400
#
# _framework density 22.082107000000001
#
# number of rings (size 3 to 8) (size 9 to 14) (size 15 to 20)
#    0.000    1.000    1.250    6.000    7.000    0.500 
#    2.250    1.250    0.000    0.000    0.000    0.000 
#    0.000    0.000    0.000    0.000    0.000    0.000 
#
# Total GULP energy -198234.469550 kJ/mol
# GULP energy per Si atom -12389.654347 kJ/mol
# Density = 2.203185 g / cm^3
# Si number density = 22.082107 Si / 1000 Ang^3
#
#
#
# Elastic Constant Matrix: (Units=GPa)
#
#
# Indices 1 2 3 4 5 6 
#
# 1 123.1984 30.6652 37.0514 1.2539 -1.3858 15.9224
# 2 30.6652 92.6133 41.8057 20.2470 -10.4907 -6.4472
# 3 37.0514 41.8057 112.4680 -1.3338 -0.3995 -0.0765
# 4 1.2539 20.2470 -1.3338 31.8521 -7.8572 -3.4433
# 5 -1.3858 -10.4907 -0.3995 -7.8572 22.7142 -1.2960
# 6 15.9224 -6.4472 -0.0765 -3.4433 -1.2960 30.5359
#
#
#
# Elastic Compliance Matrix: (Units=1/GPa)
#
#
# Indices 1 2 3 4 5 6 
#
# 1 0.010316 -0.003037 -0.002271 0.000541 -0.000969 -0.006006
# 2 -0.003037 0.017153 -0.005468 -0.009401 0.004636 0.004328
# 3 -0.002271 -0.005468 0.011714 0.003830 -0.001108 0.000444
# 4 0.000541 -0.009401 0.003830 0.040226 0.009827 0.002696
# 5 -0.000969 0.004636 -0.001108 0.009827 0.049755 0.004701
# 6 -0.006006 0.004328 0.000444 0.002696 0.004701 0.037298
#
#
# Mechanical properties :
#
#
# Convention : Reuss Voigt Hill
#
# Bulk Modulus (GPa) = 56.71474 60.81382 58.76428
# Shear Modulus (GPa) = 25.78804 31.60427 28.69616
#
# Velocity S-wave (km/s) = 3.42105 3.78725 3.60880
# Velocity P-wave (km/s) = 6.42994 6.83549 6.63582
#
# Compressibility (1/GPa) = 0.01763210
#
# Stress axis : x y z
#
# Youngs Moduli (GPa) = 96.94105 58.29952 85.37063
#
# Poissons Ratio (x) = 0.17704 0.19385
# Poissons Ratio (y) = 0.29438 0.46677
# Poissons Ratio (z) = 0.22012 0.31876
#
# Static dielectric constant tensor:
#      x y z
#    x 3.970580 -0.037050 0.000020 
#    y -0.037050 4.233300 0.083070 
#    z 0.000020 0.083070 4.236000 
# 
# 
# High freq. dielectric constant tensor:
#      x y z
#    x 1.856530 -0.001770 -0.005510 
#    y -0.001770 1.878710 0.003820 
#    z -0.005510 0.003820 1.879730 
# 
# From -- ./inp_files/532446.got.cif
#   From: 2010.06.25/outbox.cif.g09.slc.cpg/sg2_267_cif.got.tgz:532446.got - 2010.06.27 13:26:56.
