data_PCOD8013709
_publ_section_title
;
Structure prediction by ZEFSAII (Michael W. Deem and Ramdas Pophale) SiO2 
 PCOD8013709
Probable space group: P -1
;
_chemical_formula_sum "Si O2"
_cell_formula_units_Z 12
_cell_length_a 5.046822
_cell_length_b 18.321574
_cell_length_c 7.878828
_cell_angle_alpha 65.923814
_cell_angle_beta 84.424704
_cell_angle_gamma 59.176140
_cell_volume 565.343857
_symmetry_space_group_name_H-M "P -1"
_symmetry_group_IT_number 2
_symmetry_cell_setting 'triclinic'
loop_
_space_group_symop_operation_xyz
x,y,z
-x,-y,-z
loop_
_atom_site_type_symbol
_atom_site_label
_atom_site_fract_x
_atom_site_fract_y
_atom_site_fract_z
Si Si1 0.316748 0.807990 0.975106
Si Si2 0.269007 0.366178 0.075506
Si Si3 0.679718 0.397009 0.266059
Si Si4 0.094822 0.554415 0.313924
Si Si5 0.656450 0.896004 0.022604
Si Si6 0.116629 0.721927 0.325319
O O1 0.527033 0.745988 0.863037
O O2 0.404279 0.883780 0.949792
O O3 0.374758 0.732674 0.193239
O O4 0.945447 0.868896 0.900953
O O5 0.998820 0.391778 0.204510
O O6 0.115670 0.423509 0.860615
O O7 0.501600 0.396894 0.106959
O O8 0.459704 0.488755 0.304210
O O9 0.768497 0.306369 0.462508
O O10 0.051736 0.647649 0.309571
O O11 0.000000 0.500000 0.500000
O O12 0.793251 0.823408 0.242292
O O13 0.500000 0.000000 0.000000
#
# Coordination Sequence:
#
# PCOD8013709 Si02
#       6
#     2   2   2   2   2   2
#     4  10  21  41  67  91 127 161 214 257 326 365
#     4  12  24  43  60  93 135 172 208 260 318 376
#     4  12  26  38  63  94 134 174 212 255 315 377
#     4  12  24  44  64  93 132 178 225 257 302 372
#     4  10  21  40  74  97 116 156 222 272 315 374
#     4  10  24  41  66  94 130 165 221 267 312 362
#
# _framework density 21.226019000000001
#
# number of rings (size 3 to 8) (size 9 to 14) (size 15 to 20)
#    1.000    0.000    1.667    6.000    2.333    2.667 
#    0.000    0.000    0.000    6.000    0.000    0.000 
#    0.000    0.000    0.000    0.000    0.000    0.000 
#
# Total GULP energy -148746.909681 kJ/mol
# GULP energy per Si atom -12395.575807 kJ/mol
# Density = 2.117771 g / cm^3
# Si number density = 21.226019 Si / 1000 Ang^3
#
#
#
# Elastic Constant Matrix: (Units=GPa)
#
#
# Indices 1 2 3 4 5 6 
#
# 1 115.1836 41.2292 15.3341 2.5989 -6.5382 1.2217
# 2 41.2292 155.5788 27.9753 -11.4301 -12.5874 -5.0017
# 3 15.3341 27.9753 76.1853 -0.6972 1.4587 -4.7390
# 4 2.5989 -11.4301 -0.6972 21.1399 -6.3498 1.1130
# 5 -6.5382 -12.5874 1.4587 -6.3498 24.9446 4.8451
# 6 1.2217 -5.0017 -4.7390 1.1130 4.8451 41.7814
#
#
#
# Elastic Compliance Matrix: (Units=1/GPa)
#
#
# Indices 1 2 3 4 5 6 
#
# 1 0.009850 -0.002521 -0.001144 -0.002288 0.000943 -0.000768
# 2 -0.002521 0.008484 -0.002653 0.006437 0.005416 -0.000011
# 3 -0.001144 -0.002653 0.014488 -0.001908 -0.003320 0.001795
# 4 -0.002288 0.006437 -0.001908 0.056476 0.017706 -0.002937
# 5 0.000943 0.005416 -0.003320 0.017706 0.048916 -0.005900
# 6 -0.000768 -0.000011 0.001795 -0.002937 -0.005900 0.024921
#
#
# Mechanical properties :
#
#
# Convention : Reuss Voigt Hill
#
# Bulk Modulus (GPa) = 49.53998 57.33607 53.43802
# Shear Modulus (GPa) = 27.39748 35.06713 31.23231
#
# Velocity S-wave (km/s) = 3.59660 4.06899 3.84007
# Velocity P-wave (km/s) = 6.37474 7.01045 6.70014
#
# Compressibility (1/GPa) = 0.02018572
#
# Stress axis : x y z
#
# Youngs Moduli (GPa) = 101.52556 117.87562 69.02236
#
# Poissons Ratio (x) = 0.29718 0.07893
# Poissons Ratio (y) = 0.25596 0.18313
# Poissons Ratio (z) = 0.11610 0.31275
#
# Static dielectric constant tensor:
#      x y z
#    x 3.945440 -0.161150 -0.006320 
#    y -0.161150 3.711780 -0.016640 
#    z -0.006320 -0.016640 3.755330 
# 
# 
# High freq. dielectric constant tensor:
#      x y z
#    x 1.853190 -0.004130 0.003930 
#    y -0.004130 1.825610 0.003800 
#    z 0.003930 0.003800 1.800680 
# 
# From -- ./inp_files/133248.got.cif
#   From: 2010.06.25/outbox.cif.g09.slc.cpg/sg2_67_cif.got.tgz:133248.got - 2010.06.27 13:26:56.
