data_PCOD8013546
_publ_section_title
;
Structure prediction by ZEFSAII (Michael W. Deem and Ramdas Pophale) SiO2 
 PCOD8013546
Probable space group: P -1
;
_chemical_formula_sum "Si O2"
_cell_formula_units_Z 16
_cell_length_a 19.716632
_cell_length_b 8.225436
_cell_length_c 11.516092
_cell_angle_alpha 127.847775
_cell_angle_beta 137.415979
_cell_angle_gamma 35.331302
_cell_volume 730.456284
_symmetry_space_group_name_H-M "P -1"
_symmetry_group_IT_number 2
_symmetry_cell_setting 'triclinic'
loop_
_space_group_symop_operation_xyz
x,y,z
-x,-y,-z
loop_
_atom_site_type_symbol
_atom_site_label
_atom_site_fract_x
_atom_site_fract_y
_atom_site_fract_z
Si Si1 0.641289 0.912160 0.646498
Si Si2 0.130328 0.727658 0.398993
Si Si3 0.158302 0.968165 0.747070
Si Si4 0.845917 0.619296 0.212321
Si Si5 0.580653 0.727274 0.909832
Si Si6 0.875726 0.860096 0.569805
Si Si7 0.597609 0.348499 0.941445
Si Si8 0.596722 0.177187 0.467184
O O1 0.765748 0.573509 0.666780
O O2 0.500000 0.000000 0.500000
O O3 0.626112 0.077797 0.812865
O O4 0.659142 0.003837 0.588284
O O5 0.995227 0.794811 0.296415
O O6 0.192105 0.737785 0.598598
O O7 0.085644 0.982577 0.376553
O O8 0.201448 0.127972 0.818515
O O9 0.254425 0.774924 0.890168
O O10 0.857365 0.682931 0.387794
O O11 0.005059 0.331282 0.265294
O O12 0.740024 0.577894 0.038645
O O13 0.554445 0.545806 0.862527
O O14 0.498384 0.847602 0.736683
O O15 0.500000 0.000000 0.000000
O O16 0.727084 0.096112 0.536879
O O17 0.500000 0.500000 0.000000
O O18 0.500000 0.500000 0.500000
#
# Coordination Sequence:
#
# PCOD8013546 Si02
#       8
#     2   2   2   2   2   2   2   2
#     4  12  27  43  67  97 135 179 220 275 338 393
#     4  10  22  42  69 100 133 176 221 269 337 393
#     4  10  22  41  69  99 135 174 221 273 325 404
#     4  10  21  40  69 100 131 173 226 271 325 388
#     4  12  25  42  69 101 133 176 224 277 328 397
#     4  10  21  41  68  98 132 175 222 271 326 397
#     4  12  27  44  67  97 135 173 225 278 332 399
#     4  12  25  45  66  96 139 176 220 273 334 399
#
# _framework density 21.904119000000001
#
# number of rings (size 3 to 8) (size 9 to 14) (size 15 to 20)
#    0.000    1.000    2.500    3.750    7.000    2.500 
#    0.000    0.625    0.000    0.000    0.000    0.000 
#    0.000    0.000    0.000    0.000    0.000    0.000 
#
# Total GULP energy -198223.610299 kJ/mol
# GULP energy per Si atom -12388.975644 kJ/mol
# Density = 2.185426 g / cm^3
# Si number density = 21.904119 Si / 1000 Ang^3
#
#
#
# Elastic Constant Matrix: (Units=GPa)
#
#
# Indices 1 2 3 4 5 6 
#
# 1 70.4739 7.4521 26.1431 2.1799 14.0247 -10.0142
# 2 7.4521 118.8090 39.7820 9.7349 4.5753 -19.9607
# 3 26.1431 39.7820 108.3280 -1.2443 3.2462 -15.6480
# 4 2.1799 9.7349 -1.2443 36.8170 0.2764 -3.9711
# 5 14.0247 4.5753 3.2462 0.2764 32.3035 -3.2561
# 6 -10.0142 -19.9607 -15.6480 -3.9711 -3.2561 31.6015
#
#
#
# Elastic Compliance Matrix: (Units=1/GPa)
#
#
# Indices 1 2 3 4 5 6 
#
# 1 0.017442 0.001161 -0.003939 -0.001047 -0.006983 0.003459
# 2 0.001161 0.010567 -0.003445 -0.002441 -0.001138 0.004912
# 3 -0.003939 -0.003445 0.011834 0.001836 0.001275 0.002798
# 4 -0.001047 -0.002441 0.001836 0.028211 0.000641 0.002647
# 5 -0.006983 -0.001138 0.001275 0.000641 0.034147 0.001298
# 6 0.003459 0.004912 0.002798 0.002647 0.001298 0.037695
#
#
# Mechanical properties :
#
#
# Convention : Reuss Voigt Hill
#
# Bulk Modulus (GPa) = 36.50117 49.37392 42.93754
# Shear Modulus (GPa) = 30.96496 35.09332 33.02914
#
# Velocity S-wave (km/s) = 3.76395 4.00701 3.88738
# Velocity P-wave (km/s) = 5.96573 6.63310 6.30825
#
# Compressibility (1/GPa) = 0.02739639
#
# Stress axis : x y z
#
# Youngs Moduli (GPa) = 57.33431 94.63709 84.50330
#
# Poissons Ratio (x) = -0.10984 0.33282
# Poissons Ratio (y) = -0.06654 0.29111
# Poissons Ratio (z) = 0.22582 0.32602
#
# Static dielectric constant tensor:
#      x y z
#    x 3.319220 -0.205300 -0.025400 
#    y -0.205300 4.034410 0.001400 
#    z -0.025400 0.001400 3.616020 
# 
# 
# High freq. dielectric constant tensor:
#      x y z
#    x 1.860250 0.000330 0.009040 
#    y 0.000330 1.870110 -0.011690 
#    z 0.009040 -0.011690 1.860660 
# 
# From -- ./inp_files/209287.got.cif
#   From: 2010.06.25/outbox.cif.g09.slc.cpg/sg2_105_cif.got.tgz:209287.got - 2010.06.27 13:26:56.
