data_PCOD8013475
_publ_section_title
;
Structure prediction by ZEFSAII (Michael W. Deem and Ramdas Pophale) SiO2 
 PCOD8013475
Probable space group: P -1
;
_chemical_formula_sum "Si O2"
_cell_formula_units_Z 16
_cell_length_a 18.250993
_cell_length_b 12.409287
_cell_length_c 11.676724
_cell_angle_alpha 59.116052
_cell_angle_beta 141.501692
_cell_angle_gamma 149.074975
_cell_volume 735.531035
_symmetry_space_group_name_H-M "P -1"
_symmetry_group_IT_number 2
_symmetry_cell_setting 'triclinic'
loop_
_space_group_symop_operation_xyz
x,y,z
-x,-y,-z
loop_
_atom_site_type_symbol
_atom_site_label
_atom_site_fract_x
_atom_site_fract_y
_atom_site_fract_z
Si Si1 0.841352 0.813850 0.305498
Si Si2 0.096432 0.695203 0.859582
Si Si3 0.578791 0.188601 0.257736
Si Si4 0.008790 0.710868 0.493441
Si Si5 0.153456 0.469077 0.126964
Si Si6 0.088142 0.945798 0.100504
Si Si7 0.336449 0.006663 0.538887
Si Si8 0.419560 0.275039 0.139718
O O1 0.610193 0.554055 0.219426
O O2 0.965691 0.820643 0.379406
O O3 0.778971 0.873177 0.114128
O O4 0.000000 0.000000 0.500000
O O5 0.000088 0.650552 0.644942
O O6 0.955744 0.634175 0.823072
O O7 0.074177 0.524697 0.937495
O O8 0.359870 0.975653 0.025467
O O9 0.517158 0.225352 0.265794
O O10 0.795586 0.445605 0.315502
O O11 0.637109 0.105326 0.427371
O O12 0.245529 0.899892 0.615917
O O13 0.424885 0.705221 0.332043
O O14 0.075602 0.276718 0.065443
O O15 0.136943 0.904375 0.292681
O O16 0.327028 0.189309 0.200748
O O17 0.000000 0.000000 0.000000
#
# Coordination Sequence:
#
# PCOD8013475 Si02
#       8
#     2   2   2   2   2   2   2   2
#     4  10  22  38  62  88 122 162 212 260 304 379
#     4  10  21  41  67  97 128 167 218 271 317 378
#     4  10  21  40  68  92 126 166 217 270 317 381
#     4  11  23  39  64  96 129 171 213 264 327 381
#     4  10  24  41  66  98 129 168 219 265 321 385
#     4  12  26  43  65  90 136 174 210 264 325 387
#     4  11  26  41  63 101 130 168 213 268 329 382
#     4  10  22  40  60  92 119 165 217 256 315 375
#
# _framework density 21.752991000000002
#
# number of rings (size 3 to 8) (size 9 to 14) (size 15 to 20)
#    0.000    1.500    1.250    2.625    3.500    5.000 
#    0.000    0.000    0.000    0.000    0.000    0.000 
#    0.000    0.000    0.000    0.000    0.000    0.000 
#
# Total GULP energy -198377.691465 kJ/mol
# GULP energy per Si atom -12398.605717 kJ/mol
# Density = 2.170348 g / cm^3
# Si number density = 21.752991 Si / 1000 Ang^3
#
#
#
# Elastic Constant Matrix: (Units=GPa)
#
#
# Indices 1 2 3 4 5 6 
#
# 1 114.4930 66.6433 54.0498 0.9569 9.5624 -3.4982
# 2 66.6433 101.5366 47.9448 9.4192 3.9673 -7.9966
# 3 54.0498 47.9448 99.7614 2.8101 7.8117 -0.9643
# 4 0.9569 9.4192 2.8101 41.9893 -0.9248 3.6282
# 5 9.5624 3.9673 7.8117 -0.9248 31.6944 -0.8962
# 6 -3.4982 -7.9966 -0.9643 3.6282 -0.8962 44.5715
#
#
#
# Elastic Compliance Matrix: (Units=1/GPa)
#
#
# Indices 1 2 3 4 5 6 
#
# 1 0.015948 -0.008498 -0.004408 0.001829 -0.002624 -0.000570
# 2 -0.008498 0.017790 -0.003913 -0.003747 0.001271 0.002771
# 3 -0.004408 -0.003913 0.014421 0.000041 -0.001755 -0.000775
# 4 0.001829 -0.003747 0.000041 0.024843 0.000560 -0.002539
# 5 -0.002624 0.001271 -0.001755 0.000560 0.032650 0.000595
# 6 -0.000570 0.002771 -0.000775 -0.002539 0.000595 0.023090
#
#
# Mechanical properties :
#
#
# Convention : Reuss Voigt Hill
#
# Bulk Modulus (GPa) = 68.86174 72.56299 70.71237
# Shear Modulus (GPa) = 29.90054 33.46124 31.68089
#
# Velocity S-wave (km/s) = 3.71151 3.92629 3.82041
# Velocity P-wave (km/s) = 7.07757 7.34741 7.21375
#
# Compressibility (1/GPa) = 0.01452185
#
# Stress axis : x y z
#
# Youngs Moduli (GPa) = 62.70362 56.21097 69.34171
#
# Poissons Ratio (x) = 0.47769 0.30565
# Poissons Ratio (y) = 0.53286 0.27132
# Poissons Ratio (z) = 0.27639 0.21994
#
# Static dielectric constant tensor:
#      x y z
#    x 3.790260 -0.069470 0.279860 
#    y -0.069470 4.153450 0.041280 
#    z 0.279860 0.041280 4.034650 
# 
# 
# High freq. dielectric constant tensor:
#      x y z
#    x 1.844420 -0.006730 0.017040 
#    y -0.006730 1.867560 0.007300 
#    z 0.017040 0.007300 1.852120 
# 
# From -- ./inp_files/464480.got.cif
#   From: 2010.06.25/outbox.cif.g09.slc.cpg/sg2_233_cif.got.tgz:464480.got - 2010.06.27 13:26:56.
