data_PCOD8013604
_publ_section_title
;
Structure prediction by ZEFSAII (Michael W. Deem and Ramdas Pophale) SiO2 
 PCOD8013604
Probable space group: P -1
;
_chemical_formula_sum "Si O2"
_cell_formula_units_Z 16
_cell_length_a 13.253997
_cell_length_b 15.065317
_cell_length_c 9.434242
_cell_angle_alpha 75.880996
_cell_angle_beta 61.089174
_cell_angle_gamma 129.190029
_cell_volume 749.840383
_symmetry_space_group_name_H-M "P -1"
_symmetry_group_IT_number 2
_symmetry_cell_setting 'triclinic'
loop_
_space_group_symop_operation_xyz
x,y,z
-x,-y,-z
loop_
_atom_site_type_symbol
_atom_site_label
_atom_site_fract_x
_atom_site_fract_y
_atom_site_fract_z
Si Si1 0.364839 0.238145 0.732190
Si Si2 0.937102 0.207039 0.644826
Si Si3 0.904289 0.658052 0.212374
Si Si4 0.945680 0.070648 0.167906
Si Si5 0.548088 0.190712 0.776162
Si Si6 0.008883 0.489065 0.832736
Si Si7 0.166556 0.029650 0.399540
Si Si8 0.273181 0.597879 0.157926
O O1 0.625722 0.462879 0.424555
O O2 0.392463 0.171956 0.845685
O O3 0.245489 0.128071 0.706367
O O4 0.210667 0.207872 0.929176
O O5 0.097943 0.306182 0.638633
O O6 0.055522 0.371096 0.408787
O O7 0.931343 0.113303 0.589029
O O8 0.653616 0.028055 0.958880
O O9 0.020039 0.638268 0.133480
O O10 0.058274 0.832934 0.940121
O O11 0.865647 0.031499 0.397419
O O12 0.727345 0.286829 0.489127
O O13 0.729134 0.338945 0.726864
O O14 0.784527 0.383860 0.950277
O O15 0.000000 0.500000 0.000000
O O16 0.455229 0.256005 0.095385
O O17 0.000000 0.000000 0.500000
#
# Coordination Sequence:
#
# PCOD8013604 Si02
#       8
#     2   2   2   2   2   2   2   2
#     4  10  21  40  69  98 135 176 214 281 333 402
#     4  11  23  43  71  98 129 181 228 267 332 410
#     4  11  24  43  69  96 132 176 229 270 337 404
#     4  11  23  41  68  98 136 176 226 269 342 390
#     4  10  21  44  69  96 135 173 225 272 339 400
#     4  11  26  44  70  97 139 174 224 289 336 388
#     4  11  28  45  67 102 143 173 223 280 333 396
#     4  11  24  46  68  95 137 183 223 275 340 395
#
# _framework density 21.337875
#
# number of rings (size 3 to 8) (size 9 to 14) (size 15 to 20)
#    0.000    1.250    3.750    2.250    7.000    1.000 
#    2.250    1.250    0.000    0.000    0.000    0.000 
#    0.000    0.000    0.000    0.000    0.000    0.000 
#
# Total GULP energy -198408.409726 kJ/mol
# GULP energy per Si atom -12400.525608 kJ/mol
# Density = 2.128931 g / cm^3
# Si number density = 21.337875 Si / 1000 Ang^3
#
#
#
# Elastic Constant Matrix: (Units=GPa)
#
#
# Indices 1 2 3 4 5 6 
#
# 1 107.0530 45.6544 50.2195 0.9118 -1.0399 15.9491
# 2 45.6544 125.9763 65.2145 9.2678 6.4037 7.7619
# 3 50.2195 65.2145 135.2743 3.7315 3.9118 -7.2548
# 4 0.9118 9.2678 3.7315 40.8066 6.7928 11.3585
# 5 -1.0399 6.4037 3.9118 6.7928 33.0785 2.7925
# 6 15.9491 7.7619 -7.2548 11.3585 2.7925 24.7898
#
#
#
# Elastic Compliance Matrix: (Units=1/GPa)
#
#
# Indices 1 2 3 4 5 6 
#
# 1 0.014444 -0.002225 -0.005083 0.003690 0.001739 -0.011970
# 2 -0.002225 0.011583 -0.004850 -0.001101 -0.001262 -0.002968
# 3 -0.005083 -0.004850 0.012226 -0.002406 -0.000981 0.009580
# 4 0.003690 -0.001101 -0.002406 0.030056 -0.004205 -0.016031
# 5 0.001739 -0.001262 -0.000981 -0.004205 0.031734 -0.002659
# 6 -0.011970 -0.002968 0.009580 -0.016031 -0.002659 0.059418
#
#
# Mechanical properties :
#
#
# Convention : Reuss Voigt Hill
#
# Bulk Modulus (GPa) = 71.75968 76.72006 74.23987
# Shear Modulus (GPa) = 26.53583 33.54933 30.04258
#
# Velocity S-wave (km/s) = 3.53030 3.96951 3.75633
# Velocity P-wave (km/s) = 7.09370 7.55264 7.32676
#
# Compressibility (1/GPa) = 0.01393540
#
# Stress axis : x y z
#
# Youngs Moduli (GPa) = 69.23485 86.33020 81.79002
#
# Poissons Ratio (x) = 0.19211 0.41576
# Poissons Ratio (y) = 0.15407 0.39672
# Poissons Ratio (z) = 0.35194 0.41874
#
# Static dielectric constant tensor:
#      x y z
#    x 3.777160 0.137020 0.031000 
#    y 0.137020 3.924770 -0.054690 
#    z 0.031000 -0.054690 4.004870 
# 
# 
# High freq. dielectric constant tensor:
#      x y z
#    x 1.833780 0.016810 0.003950 
#    y 0.016810 1.836290 -0.004350 
#    z 0.003950 -0.004350 1.843250 
# 
# From -- ./inp_files/272473.got.cif
#   From: 2010.06.25/outbox.cif.g09.slc.cpg/sg2_137_cif.got.tgz:272473.got - 2010.06.27 13:26:56.
