data_PCOD8013973
_publ_section_title
;
Structure prediction by ZEFSAII (Michael W. Deem and Ramdas Pophale) SiO2 
 PCOD8013973
Probable space group: P -1
;
_chemical_formula_sum "Si O2"
_cell_formula_units_Z 14
_cell_length_a 22.015663
_cell_length_b 9.159633
_cell_length_c 8.578375
_cell_angle_alpha 49.024382
_cell_angle_beta 46.378722
_cell_angle_gamma 28.930355
_cell_volume 599.086897
_symmetry_space_group_name_H-M "P -1"
_symmetry_group_IT_number 2
_symmetry_cell_setting 'triclinic'
loop_
_space_group_symop_operation_xyz
x,y,z
-x,-y,-z
loop_
_atom_site_type_symbol
_atom_site_label
_atom_site_fract_x
_atom_site_fract_y
_atom_site_fract_z
Si Si1 0.100494 0.153257 0.527110
Si Si2 0.020769 0.004416 0.280332
Si Si3 0.312400 0.873570 0.110048
Si Si4 0.212222 0.330767 0.721774
Si Si5 0.290300 0.931349 0.602398
Si Si6 0.308344 0.487733 0.220564
Si Si7 0.486524 0.721254 0.175973
O O1 0.170237 0.082467 0.291751
O O2 0.000000 0.500000 0.500000
O O3 0.025568 0.083457 0.690551
O O4 0.204266 0.949156 0.628501
O O5 0.928548 0.357728 0.168839
O O6 0.000000 0.000000 0.500000
O O7 0.178160 0.751111 0.156753
O O8 0.351186 0.617627 0.122692
O O9 0.423500 0.709782 0.155782
O O10 0.301576 0.082347 0.873525
O O11 0.289939 0.372946 0.476201
O O12 0.191466 0.213429 0.700889
O O13 0.368167 0.962871 0.342969
O O14 0.398120 0.612599 0.719941
O O15 0.437895 0.219080 0.065923
#
# Coordination Sequence:
#
# PCOD8013973 Si02
#       7
#     2   2   2   2   2   2   2
#     4  11  22  43  71  97 139 173 213 276 337 392
#     4  10  21  41  64 102 130 163 220 275 318 393
#     4  11  23  42  70  96 131 180 218 273 328 389
#     4  11  23  41  70 104 125 173 229 265 335 387
#     4  10  23  42  70  96 132 180 217 271 335 393
#     4  11  22  41  68  95 138 165 219 282 314 395
#     4  10  23  45  64  95 135 179 222 266 333 387
#
# _framework density 23.368898000000002
#
# number of rings (size 3 to 8) (size 9 to 14) (size 15 to 20)
#    0.000    1.429    4.286    2.143    0.000    2.857 
#    0.000    5.714    0.000    0.000    0.000    0.000 
#    0.000    0.000    0.000    0.000    0.000    0.000 
#
# Total GULP energy -173482.135567 kJ/mol
# GULP energy per Si atom -12391.581112 kJ/mol
# Density = 2.331571 g / cm^3
# Si number density = 23.368898 Si / 1000 Ang^3
#
#
#
# Elastic Constant Matrix: (Units=GPa)
#
#
# Indices 1 2 3 4 5 6 
#
# 1 102.6351 20.5257 10.3235 1.2440 15.9423 -15.0562
# 2 20.5257 59.5073 -3.1512 8.7007 13.5097 -1.5411
# 3 10.3235 -3.1512 59.3243 -3.1676 12.4149 -14.5621
# 4 1.2440 8.7007 -3.1676 45.9191 -9.1330 0.5459
# 5 15.9423 13.5097 12.4149 -9.1330 24.7489 -0.6057
# 6 -15.0562 -1.5411 -14.5621 0.5459 -0.6057 32.8250
#
#
#
# Elastic Compliance Matrix: (Units=1/GPa)
#
#
# Indices 1 2 3 4 5 6 
#
# 1 0.012081 -0.002124 0.000615 -0.001403 -0.007312 0.005603
# 2 -0.002124 0.022538 0.005075 -0.007079 -0.016040 0.002157
# 3 0.000615 0.005075 0.022591 -0.002564 -0.015193 0.010305
# 4 -0.001403 -0.007079 -0.002564 0.026117 0.015637 -0.002259
# 5 -0.007312 -0.016040 -0.015193 0.015637 0.067022 -0.009870
# 6 0.005603 0.002157 0.010305 -0.002259 -0.009870 0.037563
#
#
# Mechanical properties :
#
#
# Convention : Reuss Voigt Hill
#
# Bulk Modulus (GPa) = 15.54168 30.76254 23.15211
# Shear Modulus (GPa) = 24.72472 33.61653 29.17063
#
# Velocity S-wave (km/s) = 3.25625 3.79689 3.53692
# Velocity P-wave (km/s) = 4.56098 5.69336 5.15834
#
# Compressibility (1/GPa) = 0.06434310
#
# Stress axis : x y z
#
# Youngs Moduli (GPa) = 82.77557 44.36858 44.26533
#
# Poissons Ratio (x) = 0.09425 -0.02724
# Poissons Ratio (y) = 0.17583 -0.22465
# Poissons Ratio (z) = -0.05094 -0.22517
#
# Static dielectric constant tensor:
#      x y z
#    x 4.297510 -0.162140 0.122360 
#    y -0.162140 4.885020 0.565240 
#    z 0.122360 0.565240 4.667830 
# 
# 
# High freq. dielectric constant tensor:
#      x y z
#    x 1.922720 -0.005870 0.006680 
#    y -0.005870 1.929380 0.019710 
#    z 0.006680 0.019710 1.923540 
# 
# From -- ./inp_files/343300.got.cif
#   From: 2010.06.25/outbox.cif.g09.slc.cpg/sg2_172_cif.got.tgz:343300.got - 2010.06.27 13:26:56.
