data_PCOD8013410
_publ_section_title
;
Structure prediction by ZEFSAII (Michael W. Deem and Ramdas Pophale) SiO2 
 PCOD8013410
Probable space group: P -1
;
_chemical_formula_sum "Si O2"
_cell_formula_units_Z 16
_cell_length_a 13.562948
_cell_length_b 6.047677
_cell_length_c 16.784747
_cell_angle_alpha 77.364201
_cell_angle_beta 146.958329
_cell_angle_gamma 94.758213
_cell_volume 719.327682
_symmetry_space_group_name_H-M "P -1"
_symmetry_group_IT_number 2
_symmetry_cell_setting 'triclinic'
loop_
_space_group_symop_operation_xyz
x,y,z
-x,-y,-z
loop_
_atom_site_type_symbol
_atom_site_label
_atom_site_fract_x
_atom_site_fract_y
_atom_site_fract_z
Si Si1 0.991867 0.854270 0.927858
Si Si2 0.030823 0.272542 0.831854
Si Si3 0.849097 0.497867 0.462020
Si Si4 0.593533 0.895362 0.191258
Si Si5 0.891792 0.725148 0.632622
Si Si6 0.754574 0.603652 0.882571
Si Si7 0.630635 0.129715 0.361925
Si Si8 0.213586 0.998317 0.841899
O O1 0.836007 0.700073 0.849102
O O2 0.942619 0.042345 0.808129
O O3 0.186149 0.676511 0.056246
O O4 0.000000 0.000000 0.000000
O O5 0.883000 0.514682 0.706060
O O6 0.134254 0.231839 0.819626
O O7 0.172500 0.289952 0.997241
O O8 0.925979 0.617909 0.577923
O O9 0.813998 0.242693 0.477200
O O10 0.000000 0.500000 0.500000
O O11 0.655412 0.640312 0.287987
O O12 0.578063 0.073717 0.240535
O O13 0.745586 0.947962 0.226327
O O14 0.402572 0.883280 0.021239
O O15 0.072871 0.824870 0.768117
O O16 0.697256 0.907926 0.482475
O O17 0.535542 0.692394 0.723921
#
# Coordination Sequence:
#
# PCOD8013410 Si02
#       8
#     2   2   2   2   2   2   2   2
#     4   9  21  39  66  95 126 156 208 264 324 384
#     4  11  21  38  65  93 126 167 208 264 316 377
#     4  11  23  39  58  86 129 181 215 258 312 374
#     4  10  23  38  61  92 126 170 219 267 308 366
#     4  11  24  38  60  90 130 171 211 256 320 374
#     4  10  21  40  67  97 122 162 212 263 321 379
#     4  11  23  41  63  93 130 172 214 261 313 382
#     4  11  22  39  61  93 129 167 218 266 310 369
#
# _framework density 22.242992000000001
#
# number of rings (size 3 to 8) (size 9 to 14) (size 15 to 20)
#    0.000    1.500    1.250    3.750    3.500    3.000 
#    0.000    3.750    0.000   12.750    0.000    0.000 
#    0.000    0.000    0.000    0.000    0.000    0.000 
#
# Total GULP energy -198280.940724 kJ/mol
# GULP energy per Si atom -12392.558795 kJ/mol
# Density = 2.219237 g / cm^3
# Si number density = 22.242992 Si / 1000 Ang^3
#
#
#
# Elastic Constant Matrix: (Units=GPa)
#
#
# Indices 1 2 3 4 5 6 
#
# 1 89.1490 42.4120 46.0843 -23.8334 7.9461 -3.3586
# 2 42.4120 116.3023 51.1061 -26.8701 0.6107 6.9873
# 3 46.0843 51.1061 97.2672 -16.4014 -1.6792 7.6082
# 4 -23.8334 -26.8701 -16.4014 41.6303 -0.0937 -9.9367
# 5 7.9461 0.6107 -1.6792 -0.0937 21.3582 -3.6343
# 6 -3.3586 6.9873 7.6082 -9.9367 -3.6343 34.1334
#
#
#
# Elastic Compliance Matrix: (Units=1/GPa)
#
#
# Indices 1 2 3 4 5 6 
#
# 1 0.018746 -0.002292 -0.006896 0.007819 -0.006492 0.005436
# 2 -0.002292 0.012660 -0.004709 0.004927 0.000087 -0.000324
# 3 -0.006896 -0.004709 0.016101 -0.001439 0.003388 -0.003362
# 4 0.007819 0.004927 -0.001439 0.033414 -0.001372 0.009663
# 5 -0.006492 0.000087 0.003388 -0.001372 0.050093 0.003522
# 6 0.005436 -0.000324 -0.003362 0.009663 0.003522 0.033835
#
#
# Mechanical properties :
#
#
# Convention : Reuss Voigt Hill
#
# Bulk Modulus (GPa) = 50.72431 64.65815 57.69123
# Shear Modulus (GPa) = 25.09846 30.29878 27.69862
#
# Velocity S-wave (km/s) = 3.36277 3.69477 3.53267
# Velocity P-wave (km/s) = 6.15888 6.87996 6.52938
#
# Compressibility (1/GPa) = 0.01971441
#
# Stress axis : x y z
#
# Youngs Moduli (GPa) = 53.34401 78.98584 62.10685
#
# Poissons Ratio (x) = 0.18102 0.42832
# Poissons Ratio (y) = 0.12225 0.29243
# Poissons Ratio (z) = 0.36789 0.37191
#
# Static dielectric constant tensor:
#      x y z
#    x 3.830610 0.145560 -0.670880 
#    y 0.145560 4.296910 -0.271740 
#    z -0.670880 -0.271740 3.631620 
# 
# 
# High freq. dielectric constant tensor:
#      x y z
#    x 1.865670 -0.009250 -0.015900 
#    y -0.009250 1.886630 -0.016840 
#    z -0.015900 -0.016840 1.868370 
# 
# From -- ./inp_files/37577.got.cif
#   From: 2010.06.25/outbox.cif.g09.slc.cpg/sg2_19_cif.got.tgz:37577.got - 2010.06.27 13:26:56.
