data_PCOD8013218
_publ_section_title
;
Structure prediction by ZEFSAII (Michael W. Deem and Ramdas Pophale) SiO2 
 PCOD8013218
Probable space group: P -1
;
_chemical_formula_sum "Si O2"
_cell_formula_units_Z 16
_cell_length_a 12.941894
_cell_length_b 11.622579
_cell_length_c 11.300499
_cell_angle_alpha 58.594195
_cell_angle_beta 71.617457
_cell_angle_gamma 121.291991
_cell_volume 738.038691
_symmetry_space_group_name_H-M "P -1"
_symmetry_group_IT_number 2
_symmetry_cell_setting 'triclinic'
loop_
_space_group_symop_operation_xyz
x,y,z
-x,-y,-z
loop_
_atom_site_type_symbol
_atom_site_label
_atom_site_fract_x
_atom_site_fract_y
_atom_site_fract_z
Si Si1 0.352873 0.542449 0.016768
Si Si2 0.550245 0.797872 0.388057
Si Si3 0.784904 0.500761 0.147019
Si Si4 0.060777 0.654802 0.121411
Si Si5 0.836685 0.605381 0.409554
Si Si6 0.887559 0.573387 0.660829
Si Si7 0.130917 0.062514 0.703869
Si Si8 0.787871 0.892549 0.627034
O O1 0.250559 0.534250 0.961259
O O2 0.584275 0.764803 0.781769
O O3 0.329702 0.604534 0.112180
O O4 0.235017 0.276126 0.210213
O O5 0.429795 0.714327 0.594040
O O6 0.394725 0.621637 0.429707
O O7 0.671195 0.786481 0.378515
O O8 0.708450 0.080965 0.144705
O O9 0.908767 0.496575 0.146789
O O10 0.930392 0.779223 0.976286
O O11 0.036767 0.490624 0.285876
O O12 0.984907 0.699639 0.206833
O O13 0.855399 0.526763 0.557835
O O14 0.910506 0.827418 0.307155
O O15 0.043100 0.850555 0.499592
O O16 0.161558 0.073072 0.547179
#
# Coordination Sequence:
#
# PCOD8013218 Si02
#       8
#     2   2   2   2   2   2   2   2
#     4  11  22  39  66 100 125 160 201 259 326 376
#     4  10  23  42  62  93 129 166 213 259 304 374
#     4  10  21  40  66  91 130 163 206 257 316 371
#     4  10  26  44  61  91 127 175 218 250 301 370
#     4  11  24  41  67  93 126 167 211 260 314 370
#     4  12  24  43  66  93 129 170 206 259 315 371
#     4  11  20  40  68  97 127 159 206 264 323 371
#     4  11  23  40  66 101 129 154 205 266 322 378
#
# _framework density 21.679079999999999
#
# number of rings (size 3 to 8) (size 9 to 14) (size 15 to 20)
#    0.000    1.250    3.750    1.875    0.000    9.500 
#    0.000    1.250    0.000    0.000    0.000    0.000 
#    0.000    0.000    0.000    0.000    0.000    0.000 
#
# Total GULP energy -198346.028926 kJ/mol
# GULP energy per Si atom -12396.626808 kJ/mol
# Density = 2.162974 g / cm^3
# Si number density = 21.679080 Si / 1000 Ang^3
#
#
#
# Elastic Constant Matrix: (Units=GPa)
#
#
# Indices 1 2 3 4 5 6 
#
# 1 41.1891 -43.3123 -61.4181 -4.8481 -79.1680 31.2190
# 2 -43.3123 -3.7343 -88.6260 0.9993 -101.4701 30.0185
# 3 -61.4181 -88.6260 -88.4205 -8.5325 -174.5809 27.1536
# 4 -4.8481 0.9993 -8.5325 19.3137 -11.6032 6.3955
# 5 -79.1680 -101.4701 -174.5809 -11.6032 -96.8010 27.8136
# 6 31.2190 30.0185 27.1536 6.3955 27.8136 35.6464
#
#
#
# Elastic Compliance Matrix: (Units=1/GPa)
#
#
# Indices 1 2 3 4 5 6 
#
# 1 0.014343 -0.000512 -0.005605 0.001326 -0.002918 -0.005823
# 2 -0.000512 0.017196 -0.007005 -0.006105 -0.005248 -0.003506
# 3 -0.005605 -0.007005 0.010097 -0.001317 -0.004216 0.006643
# 4 0.001326 -0.006105 -0.001317 0.053347 -0.000019 -0.004574
# 5 -0.002918 -0.005248 -0.004216 -0.000019 0.006610 0.005033
# 6 -0.005823 -0.003506 0.006643 -0.004574 0.005033 0.027939
#
#
# Mechanical properties :
#
#
# Convention : Reuss Voigt Hill
#
# Bulk Modulus (GPa) = 64.96685 -48.63092 8.16797
# Shear Modulus (GPa) = 31.07410 1.12452 16.09931
#
# Velocity S-wave (km/s) = 3.79009 0.72100 2.72806
# Velocity P-wave (km/s) = 7.01325 4.66774 3.70121
#
# Compressibility (1/GPa) = 0.01539246
#
# Stress axis : x y z
#
# Youngs Moduli (GPa) = 69.71838 58.15381 99.04279
#
# Poissons Ratio (x) = 0.02978 0.55509
# Poissons Ratio (y) = 0.03570 0.69380
# Poissons Ratio (z) = 0.39074 0.40737
#
# Static dielectric constant tensor:
#      x y z
#    x 4.165940 0.254760 -0.044810 
#    y 0.254760 3.726730 0.215810 
#    z -0.044810 0.215810 4.055760 
# 
# 
# High freq. dielectric constant tensor:
#      x y z
#    x 1.870160 0.017500 -0.001110 
#    y 0.017500 1.832270 0.019110 
#    z -0.001110 0.019110 1.859330 
# 
# From -- ./inp_files/427578.got.cif
#   From: 2010.06.25/outbox.cif.g09.slc.cpg/sg2_214_cif.got.tgz:427578.got - 2010.06.27 13:26:56.
