data_PCOD8013736
_publ_section_title
;
Structure prediction by ZEFSAII (Michael W. Deem and Ramdas Pophale) SiO2 
 PCOD8013736
Probable space group: P -1
;
_chemical_formula_sum "Si O2"
_cell_formula_units_Z 14
_cell_length_a 6.782775
_cell_length_b 10.197671
_cell_length_c 27.280650
_cell_angle_alpha 30.255176
_cell_angle_beta 48.015849
_cell_angle_gamma 42.667812
_cell_volume 641.206128
_symmetry_space_group_name_H-M "P -1"
_symmetry_group_IT_number 2
_symmetry_cell_setting 'triclinic'
loop_
_space_group_symop_operation_xyz
x,y,z
-x,-y,-z
loop_
_atom_site_type_symbol
_atom_site_label
_atom_site_fract_x
_atom_site_fract_y
_atom_site_fract_z
Si Si1 0.708804 0.226993 0.668449
Si Si2 0.178793 0.138096 0.895170
Si Si3 0.081147 0.976577 0.595257
Si Si4 0.775059 0.606444 0.867950
Si Si5 0.261293 0.392572 0.375584
Si Si6 0.942355 0.528256 0.287483
Si Si7 0.296345 0.424500 0.003153
O O1 0.838091 0.360594 0.645985
O O2 0.368411 0.433135 0.650494
O O3 0.727809 0.926348 0.781285
O O4 0.880160 0.192284 0.600455
O O5 0.094722 0.212823 0.827629
O O6 0.078836 0.448053 0.838309
O O7 0.519345 0.924030 0.913054
O O8 0.000000 0.000000 0.000000
O O9 0.390082 0.767575 0.634820
O O10 0.926000 0.782268 0.661598
O O11 0.124660 0.168587 0.483057
O O12 0.495675 0.576094 0.897925
O O13 0.799455 0.450581 0.966541
O O14 0.149428 0.532852 0.295798
O O15 0.000000 0.500000 0.000000
#
# Coordination Sequence:
#
# PCOD8013736 Si02
#       7
#     2   2   2   2   2   2   2
#     4  11  22  40  63  94 132 164 208 264 320 379
#     4  10  21  42  63  89 130 166 206 264 314 371
#     4  10  22  44  64  93 132 167 210 268 318 374
#     4  10  21  41  60  89 127 164 205 264 315 375
#     4  10  24  41  66  95 128 168 215 262 318 383
#     4  11  22  41  65  93 126 169 217 262 314 378
#     4  10  22  41  64  90 122 164 213 263 317 372
#
# _framework density 21.833852
#
# number of rings (size 3 to 8) (size 9 to 14) (size 15 to 20)
#    0.000    1.714    2.857    0.857    0.000    3.429 
#    5.143    0.000    0.000    0.000    0.000    0.000 
#    0.000    0.000    0.000    0.000    0.000    0.000 
#
# Total GULP energy -173516.063002 kJ/mol
# GULP energy per Si atom -12394.004500 kJ/mol
# Density = 2.178416 g / cm^3
# Si number density = 21.833852 Si / 1000 Ang^3
#
#
#
# Elastic Constant Matrix: (Units=GPa)
#
#
# Indices 1 2 3 4 5 6 
#
# 1 111.8498 38.5067 36.5357 -3.2161 19.4274 1.8168
# 2 38.5067 124.3418 16.9938 7.1040 16.5720 3.1403
# 3 36.5357 16.9938 85.6211 -1.2304 5.8633 -3.4842
# 4 -3.2161 7.1040 -1.2304 38.5677 4.3530 -3.2083
# 5 19.4274 16.5720 5.8633 4.3530 33.4347 -4.1908
# 6 1.8168 3.1403 -3.4842 -3.2083 -4.1908 24.7739
#
#
#
# Elastic Compliance Matrix: (Units=1/GPa)
#
#
# Indices 1 2 3 4 5 6 
#
# 1 0.012308 -0.002516 -0.004421 0.001822 -0.005607 -0.001918
# 2 -0.002516 0.009481 -0.000697 -0.001782 -0.003118 -0.001874
# 3 -0.004421 -0.000697 0.013758 0.000321 0.000775 0.002520
# 4 0.001822 -0.001782 0.000321 0.027055 -0.003369 0.003071
# 5 -0.005607 -0.003118 0.000775 -0.003369 0.035835 0.006541
# 6 -0.001918 -0.001874 0.002520 0.003071 0.006541 0.042602
#
#
# Mechanical properties :
#
#
# Convention : Reuss Voigt Hill
#
# Bulk Modulus (GPa) = 49.30611 56.20946 52.75778
# Shear Modulus (GPa) = 30.66242 34.67369 32.66806
#
# Velocity S-wave (km/s) = 3.75153 3.98938 3.87229
# Velocity P-wave (km/s) = 6.43403 6.85714 6.64895
#
# Compressibility (1/GPa) = 0.02028146
#
# Stress axis : x y z
#
# Youngs Moduli (GPa) = 81.24707 105.46941 72.68488
#
# Poissons Ratio (x) = 0.26534 0.32131
# Poissons Ratio (y) = 0.20440 0.05063
# Poissons Ratio (z) = 0.35916 0.07347
#
# Static dielectric constant tensor:
#      x y z
#    x 3.625660 0.109640 -0.171960 
#    y 0.109640 4.709190 -0.144340 
#    z -0.171960 -0.144340 4.004940 
# 
# 
# High freq. dielectric constant tensor:
#      x y z
#    x 1.819480 0.007070 -0.007820 
#    y 0.007070 1.879590 0.000420 
#    z -0.007820 0.000420 1.862360 
# 
# From -- ./inp_files/46535.got.cif
#   From: 2010.06.25/outbox.cif.g09.slc.cpg/sg2_24_cif.got.tgz:46535.got - 2010.06.27 13:26:56.
