data_PCOD8013195
_publ_section_title
;
Structure prediction by ZEFSAII (Michael W. Deem and Ramdas Pophale) SiO2 
 PCOD8013195
Probable space group: P -1
;
_chemical_formula_sum "Si O2"
_cell_formula_units_Z 16
_cell_length_a 19.962906
_cell_length_b 8.461939
_cell_length_c 20.280691
_cell_angle_alpha 41.604787
_cell_angle_beta 20.676666
_cell_angle_gamma 51.664266
_cell_volume 755.852991
_symmetry_space_group_name_H-M "P -1"
_symmetry_group_IT_number 2
_symmetry_cell_setting 'triclinic'
loop_
_space_group_symop_operation_xyz
x,y,z
-x,-y,-z
loop_
_atom_site_type_symbol
_atom_site_label
_atom_site_fract_x
_atom_site_fract_y
_atom_site_fract_z
Si Si1 0.911395 0.359557 0.877224
Si Si2 0.068819 0.909252 0.551602
Si Si3 0.847621 0.441443 0.057561
Si Si4 0.477949 0.509352 0.438936
Si Si5 0.251522 0.143139 0.655705
Si Si6 0.231561 0.851544 0.557874
Si Si7 0.338998 0.138934 0.114438
Si Si8 0.506799 0.702048 0.740809
O O1 0.037493 0.622942 0.642775
O O2 0.039040 0.175808 0.824106
O O3 0.852651 0.459564 0.968825
O O4 0.693537 0.218165 0.089113
O O5 0.139029 0.945689 0.550948
O O6 0.854954 0.959335 0.725564
O O7 0.247193 0.101254 0.284490
O O8 0.695131 0.565615 0.189638
O O9 0.786922 0.151350 0.225618
O O10 0.069643 0.623006 0.819639
O O11 0.500000 0.500000 0.500000
O O12 0.322097 0.247027 0.632437
O O13 0.406433 0.741292 0.410377
O O14 0.430188 0.299143 0.393605
O O15 0.307266 0.092340 0.459701
O O16 0.466320 0.431168 0.894709
O O17 0.500000 0.000000 0.000000
#
# Coordination Sequence:
#
# PCOD8013195 Si02
#       8
#     2   2   2   2   2   2   2   2
#     4  10  21  40  66  89 124 173 215 263 319 379
#     4   9  20  41  64  94 130 159 211 264 324 382
#     4  11  24  41  62  88 129 175 219 269 313 376
#     4  12  26  40  64  95 130 175 226 270 319 372
#     4  12  23  41  65  91 129 178 226 266 318 382
#     4  11  26  44  61  97 138 172 214 272 320 374
#     4  10  21  40  72  98 120 166 214 263 327 395
#     4  11  25  41  66  96 130 170 218 261 325 393
#
# _framework density 21.168137999999999
#
# number of rings (size 3 to 8) (size 9 to 14) (size 15 to 20)
#    0.000    1.250    3.750    2.250    1.750    3.500 
#    0.000    0.625    0.000    0.000    0.000    0.000 
#    0.000    0.000    0.000    0.000    0.000    0.000 
#
# Total GULP energy -198336.022697 kJ/mol
# GULP energy per Si atom -12396.001419 kJ/mol
# Density = 2.111996 g / cm^3
# Si number density = 21.168138 Si / 1000 Ang^3
#
#
#
# Elastic Constant Matrix: (Units=GPa)
#
#
# Indices 1 2 3 4 5 6 
#
# 1 89.0847 40.7959 45.2186 -6.6740 -9.9532 -10.5648
# 2 40.7959 112.3282 65.9782 15.0713 -7.7772 -15.2444
# 3 45.2186 65.9782 136.3004 -7.9607 2.0548 -3.3213
# 4 -6.6740 15.0713 -7.9607 39.2839 -4.4842 -9.7651
# 5 -9.9532 -7.7772 2.0548 -4.4842 36.5348 0.0983
# 6 -10.5648 -15.2444 -3.3213 -9.7651 0.0983 30.7144
#
#
#
# Elastic Compliance Matrix: (Units=1/GPa)
#
#
# Indices 1 2 3 4 5 6 
#
# 1 0.015982 -0.003664 -0.003168 0.005217 0.004379 0.004981
# 2 -0.003664 0.015749 -0.006752 -0.006919 0.001875 0.003620
# 3 -0.003168 -0.006752 0.011860 0.003676 -0.002511 -0.001982
# 4 0.005217 -0.006919 0.003676 0.032413 0.003696 0.009051
# 5 0.004379 0.001875 -0.002511 0.003696 0.029549 0.003246
# 6 0.004981 0.003620 -0.001982 0.009051 0.003246 0.038721
#
#
# Mechanical properties :
#
#
# Convention : Reuss Voigt Hill
#
# Bulk Modulus (GPa) = 60.89292 71.29988 66.09640
# Shear Modulus (GPa) = 28.26162 33.68800 30.97481
#
# Velocity S-wave (km/s) = 3.65787 3.99362 3.82943
# Velocity P-wave (km/s) = 6.83145 7.41762 7.13056
#
# Compressibility (1/GPa) = 0.01642227
#
# Stress axis : x y z
#
# Youngs Moduli (GPa) = 62.56879 63.49793 84.31362
#
# Poissons Ratio (x) = 0.23268 0.26714
# Poissons Ratio (y) = 0.22927 0.56927
# Poissons Ratio (z) = 0.19825 0.42872
#
# Static dielectric constant tensor:
#      x y z
#    x 3.836410 -0.208510 -0.056040 
#    y -0.208510 3.665720 0.045930 
#    z -0.056040 0.045930 4.225440 
# 
# 
# High freq. dielectric constant tensor:
#      x y z
#    x 1.821250 -0.018530 -0.007790 
#    y -0.018530 1.816080 0.006810 
#    z -0.007790 0.006810 1.848140 
# 
# From -- ./inp_files/297421.got.cif
#   From: 2010.06.25/outbox.cif.g09.slc.cpg/sg2_149_cif.got.tgz:297421.got - 2010.06.27 13:26:56.
