data_PCOD8013642
_publ_section_title
;
Structure prediction by ZEFSAII (Michael W. Deem and Ramdas Pophale) SiO2 
 PCOD8013642
Probable space group: P -1
;
_chemical_formula_sum "Si O2"
_cell_formula_units_Z 16
_cell_length_a 9.620319
_cell_length_b 11.397599
_cell_length_c 9.176541
_cell_angle_alpha 91.127928
_cell_angle_beta 52.994321
_cell_angle_gamma 84.348655
_cell_volume 795.660608
_symmetry_space_group_name_H-M "P -1"
_symmetry_group_IT_number 2
_symmetry_cell_setting 'triclinic'
loop_
_space_group_symop_operation_xyz
x,y,z
-x,-y,-z
loop_
_atom_site_type_symbol
_atom_site_label
_atom_site_fract_x
_atom_site_fract_y
_atom_site_fract_z
Si Si1 0.852490 0.500429 0.713468
Si Si2 0.495838 0.876308 0.078470
Si Si3 0.033804 0.131130 0.949612
Si Si4 0.748887 0.278365 0.939608
Si Si5 0.167976 0.296959 0.050812
Si Si6 0.612808 0.642919 0.347793
Si Si7 0.445430 0.105426 0.641953
Si Si8 0.452338 0.432884 0.305907
O O1 0.836755 0.373503 0.791030
O O2 0.904249 0.590117 0.805502
O O3 0.666016 0.550260 0.762190
O O4 0.000000 0.500000 0.500000
O O5 0.349933 0.803351 0.105001
O O6 0.455735 0.921852 0.268556
O O7 0.677223 0.785638 0.962995
O O8 0.500000 0.000000 0.000000
O O9 0.235587 0.123071 0.777252
O O10 0.904927 0.188634 0.907968
O O11 0.014169 0.216229 0.109051
O O12 0.000000 0.000000 0.000000
O O13 0.622303 0.340857 0.148754
O O14 0.220651 0.345673 0.859851
O O15 0.494707 0.771075 0.445340
O O16 0.504333 0.557577 0.324872
O O17 0.657066 0.605562 0.486472
O O18 0.500000 0.000000 0.500000
#
# Coordination Sequence:
#
# PCOD8013642 Si02
#       8
#     2   2   2   2   2   2   2   2
#     4  12  26  40  64  99 135 171 215 268 331 391
#     4  10  21  40  70  94 119 176 223 260 330 386
#     4  10  24  43  65  95 127 169 220 266 325 382
#     4  12  23  42  71  94 133 173 214 277 329 386
#     4  10  21  44  63  89 139 163 215 268 325 388
#     4   9  21  38  66  95 119 169 218 258 321 392
#     4  10  23  42  65  89 132 166 214 269 318 379
#     4  11  22  40  69  94 127 165 222 264 325 391
#
# _framework density 20.109076000000002
#
# number of rings (size 3 to 8) (size 9 to 14) (size 15 to 20)
#    0.000    1.750    2.500    3.375    7.000    2.500 
#    2.250    0.625    0.000    0.000    0.000    0.000 
#    0.000    0.000    0.000    0.000    0.000    0.000 
#
# Total GULP energy -198209.687054 kJ/mol
# GULP energy per Si atom -12388.105441 kJ/mol
# Density = 2.006331 g / cm^3
# Si number density = 20.109076 Si / 1000 Ang^3
#
#
#
# Elastic Constant Matrix: (Units=GPa)
#
#
# Indices 1 2 3 4 5 6 
#
# 1 141.3024 74.8965 37.8661 1.8143 16.6749 10.3271
# 2 74.8965 175.3043 66.3957 -6.7285 22.5739 21.9754
# 3 37.8661 66.3957 102.0629 3.8836 17.0647 13.1902
# 4 1.8143 -6.7285 3.8836 34.0410 7.1316 11.9542
# 5 16.6749 22.5739 17.0647 7.1316 27.2339 7.7639
# 6 10.3271 21.9754 13.1902 11.9542 7.7639 41.7345
#
#
#
# Elastic Compliance Matrix: (Units=1/GPa)
#
#
# Indices 1 2 3 4 5 6 
#
# 1 0.009398 -0.003477 -0.000875 -0.000765 -0.002243 0.000418
# 2 -0.003477 0.009904 -0.004255 0.004673 -0.003589 -0.003681
# 3 -0.000875 -0.004255 0.013703 -0.001253 -0.003974 -0.000776
# 4 -0.000765 0.004673 -0.001253 0.036079 -0.009068 -0.010522
# 5 -0.002243 -0.003589 -0.003974 -0.009068 0.046608 -0.002372
# 6 0.000418 -0.003681 -0.000776 -0.010522 -0.002372 0.029496
#
#
# Mechanical properties :
#
#
# Convention : Reuss Voigt Hill
#
# Bulk Modulus (GPa) = 63.32454 86.33181 74.82817
# Shear Modulus (GPa) = 29.82105 36.56931 33.19518
#
# Velocity S-wave (km/s) = 3.85511 4.26907 4.06736
# Velocity P-wave (km/s) = 7.16761 8.20518 7.70388
#
# Compressibility (1/GPa) = 0.01579167
#
# Stress axis : x y z
#
# Youngs Moduli (GPa) = 106.40153 100.96526 72.97622
#
# Poissons Ratio (x) = 0.35105 0.06385
# Poissons Ratio (y) = 0.36995 0.31054
# Poissons Ratio (z) = 0.09309 0.42964
#
# Static dielectric constant tensor:
#      x y z
#    x 2.780460 -2.074170 -0.264170 
#    y -2.074170 -0.778450 -1.074740 
#    z -0.264170 -1.074740 3.430490 
# 
# 
# High freq. dielectric constant tensor:
#      x y z
#    x 1.792970 0.013220 0.019330 
#    y 0.013220 1.811680 -0.001520 
#    z 0.019330 -0.001520 1.762230 
# 
# From -- ./inp_files/187247.got.cif
#   From: 2010.06.25/outbox.cif.g09.slc.cpg/sg2_94_cif.got.tgz:187247.got - 2010.06.27 13:26:56.
