data_PCOD8013589
_publ_section_title
;
Structure prediction by ZEFSAII (Michael W. Deem and Ramdas Pophale) SiO2 
 PCOD8013589
Probable space group: P -1
;
_chemical_formula_sum "Si O2"
_cell_formula_units_Z 14
_cell_length_a 11.840052
_cell_length_b 9.593398
_cell_length_c 11.672000
_cell_angle_alpha 110.910870
_cell_angle_beta 131.523838
_cell_angle_gamma 41.795008
_cell_volume 635.979655
_symmetry_space_group_name_H-M "P -1"
_symmetry_group_IT_number 2
_symmetry_cell_setting 'triclinic'
loop_
_space_group_symop_operation_xyz
x,y,z
-x,-y,-z
loop_
_atom_site_type_symbol
_atom_site_label
_atom_site_fract_x
_atom_site_fract_y
_atom_site_fract_z
Si Si1 0.630604 0.776267 0.584400
Si Si2 0.890856 0.926554 0.288183
Si Si3 0.054898 0.543220 0.668071
Si Si4 0.724350 0.753148 0.080487
Si Si5 0.625514 0.449215 0.411879
Si Si6 0.467160 0.257968 0.252383
Si Si7 0.702900 0.345113 0.178354
O O1 0.879921 0.629893 0.674884
O O2 0.554675 0.664442 0.465820
O O3 0.588022 0.816019 0.703246
O O4 0.500000 0.000000 0.500000
O O5 0.909536 0.749430 0.188715
O O6 0.129409 0.784014 0.460084
O O7 0.712312 0.050214 0.307713
O O8 0.814263 0.101864 0.192594
O O9 0.000000 0.500000 0.500000
O O10 0.271325 0.324436 0.812485
O O11 0.092179 0.692120 0.722140
O O12 0.719000 0.635485 0.939698
O O13 0.500000 0.000000 0.000000
O O14 0.458229 0.439284 0.341769
O O15 0.599654 0.470841 0.264777
O O16 0.500000 0.500000 0.000000
#
# Coordination Sequence:
#
# PCOD8013589 Si02
#       7
#     2   2   2   2   2   2   2
#     4  12  28  39  64  98 134 176 211 276 328 371
#     4  10  21  40  70  95 120 170 220 263 311 384
#     4  12  24  43  67  95 133 170 219 266 324 390
#     4  10  21  40  69  96 122 169 212 271 318 381
#     4  11  22  44  65  92 124 176 219 262 312 387
#     4  10  23  41  67  95 132 161 222 262 323 387
#     4  11  22  38  69 101 126 157 216 276 321 372
#
# _framework density 22.013283000000001
#
# number of rings (size 3 to 8) (size 9 to 14) (size 15 to 20)
#    0.000    1.143    2.857    4.714    8.000    1.714 
#    0.000    0.000    0.000    2.571    0.000    0.000 
#    0.000    0.000    0.000    0.000    0.000    0.000 
#
# Total GULP energy -173460.308103 kJ/mol
# GULP energy per Si atom -12390.022007 kJ/mol
# Density = 2.196318 g / cm^3
# Si number density = 22.013283 Si / 1000 Ang^3
#
#
#
# Elastic Constant Matrix: (Units=GPa)
#
#
# Indices 1 2 3 4 5 6 
#
# 1 142.6223 36.5123 56.4490 3.2327 -6.5079 32.5706
# 2 36.5123 95.8155 41.0355 -2.2746 -7.2057 29.8891
# 3 56.4490 41.0355 158.1351 -2.5355 -20.2566 15.7353
# 4 3.2327 -2.2746 -2.5355 34.2185 18.5710 4.4646
# 5 -6.5079 -7.2057 -20.2566 18.5710 33.5274 -2.3060
# 6 32.5706 29.8891 15.7353 4.4646 -2.3060 33.3140
#
#
#
# Elastic Compliance Matrix: (Units=1/GPa)
#
#
# Indices 1 2 3 4 5 6 
#
# 1 0.010045 0.000012 -0.002788 0.000197 -0.000431 -0.008571
# 2 0.000012 0.015816 -0.002854 0.003097 -0.000956 -0.013335
# 3 -0.002788 -0.002854 0.008533 -0.002572 0.005562 0.001986
# 4 0.000197 0.003097 -0.002572 0.044737 -0.026288 -0.009572
# 5 -0.000431 -0.000956 0.005562 -0.026288 0.047836 0.005486
# 6 -0.008571 -0.013335 0.001986 -0.009572 0.005486 0.051086
#
#
# Mechanical properties :
#
#
# Convention : Reuss Voigt Hill
#
# Bulk Modulus (GPa) = 43.22659 73.84073 58.53366
# Shear Modulus (GPa) = 25.37741 37.71704 31.54722
#
# Velocity S-wave (km/s) = 3.39901 4.14379 3.78974
# Velocity P-wave (km/s) = 5.92314 7.51739 6.76737
#
# Compressibility (1/GPa) = 0.02313391
#
# Stress axis : x y z
#
# Youngs Moduli (GPa) = 99.54978 63.22730 117.18743
#
# Poissons Ratio (x) = -0.00077 0.32673
# Poissons Ratio (y) = -0.00122 0.33450
# Poissons Ratio (z) = 0.27756 0.18048
#
# Static dielectric constant tensor:
#      x y z
#    x 5.701320 2.207930 1.133610 
#    y 2.207930 6.361400 0.977460 
#    z 1.133610 0.977460 6.296390 
# 
# 
# High freq. dielectric constant tensor:
#      x y z
#    x 1.862640 0.035550 0.002010 
#    y 0.035550 1.854440 0.005500 
#    z 0.002010 0.005500 1.881350 
# 
# From -- ./inp_files/417652.got.cif
#   From: 2010.06.25/outbox.cif.g09.slc.cpg/sg2_209_cif.got.tgz:417652.got - 2010.06.27 13:26:56.
