data_PCOD8013807
_publ_section_title
;
Structure prediction by ZEFSAII (Michael W. Deem and Ramdas Pophale) SiO2 
 PCOD8013807
Probable space group: P -1
;
_chemical_formula_sum "Si O2"
_cell_formula_units_Z 8
_cell_length_a 8.197379
_cell_length_b 8.461070
_cell_length_c 7.376475
_cell_angle_alpha 89.289050
_cell_angle_beta 122.614809
_cell_angle_gamma 127.119456
_cell_volume 304.069931
_symmetry_space_group_name_H-M "P -1"
_symmetry_group_IT_number 2
_symmetry_cell_setting 'triclinic'
loop_
_space_group_symop_operation_xyz
x,y,z
-x,-y,-z
loop_
_atom_site_type_symbol
_atom_site_label
_atom_site_fract_x
_atom_site_fract_y
_atom_site_fract_z
Si Si1 0.992906 0.036759 0.706219
Si Si2 0.597998 0.225758 0.666310
Si Si3 0.448052 0.092408 0.124790
Si Si4 0.154402 0.483568 0.837310
O O1 0.144797 0.290478 0.820626
O O2 0.675935 0.857731 0.586812
O O3 0.000000 0.000000 0.500000
O O4 0.147689 0.996445 0.921592
O O5 0.853555 0.388225 0.680186
O O6 0.544293 0.006175 0.683627
O O7 0.658176 0.359732 0.881684
O O8 0.696776 0.363077 0.257009
O O9 0.500000 0.000000 0.000000
#
# Coordination Sequence:
#
# PCOD8013807 Si02
#       4
#     2   2   2   2
#     4  12  22  39  65  91 122 160 202 246 300 361
#     4  10  23  44  61  89 126 153 204 253 292 359
#     4  10  21  41  62  89 122 158 202 246 300 356
#     4  10  22  41  65  88 122 162 196 251 303 348
#
# _framework density 26.309739
#
# number of rings (size 3 to 8) (size 9 to 14) (size 15 to 20)
#    0.000    1.500    5.000    1.500    0.000    2.000 
#    0.000   13.750    0.000    0.000    0.000    0.000 
#    0.000    0.000    0.000    0.000    0.000    0.000 
#
# Total GULP energy -99215.481041 kJ/mol
# GULP energy per Si atom -12401.935130 kJ/mol
# Density = 2.624986 g / cm^3
# Si number density = 26.309739 Si / 1000 Ang^3
#
#
#
# Elastic Constant Matrix: (Units=GPa)
#
#
# Indices 1 2 3 4 5 6 
#
# 1 106.4182 36.7189 72.0909 -4.3796 42.8521 -11.8101
# 2 36.7189 110.7401 79.0407 4.7410 26.2344 -5.6918
# 3 72.0909 79.0407 165.5574 -9.3693 46.4583 9.3133
# 4 -4.3796 4.7410 -9.3693 50.5651 0.8793 -3.2917
# 5 42.8521 26.2344 46.4583 0.8793 62.9127 12.0077
# 6 -11.8101 -5.6918 9.3133 -3.2917 12.0077 46.5303
#
#
#
# Elastic Compliance Matrix: (Units=1/GPa)
#
#
# Indices 1 2 3 4 5 6 
#
# 1 0.018135 0.001039 -0.006007 0.001094 -0.010005 0.008591
# 2 0.001039 0.014622 -0.007158 -0.002315 -0.002231 0.003897
# 3 -0.006007 -0.007158 0.012913 0.002286 -0.001653 -0.004397
# 4 0.001094 -0.002315 0.002286 0.020647 -0.002048 0.001526
# 5 -0.010005 -0.002231 -0.001653 -0.002048 0.026706 -0.009518
# 6 0.008591 0.003897 -0.004397 0.001526 -0.009518 0.027593
#
#
# Mechanical properties :
#
#
# Convention : Reuss Voigt Hill
#
# Bulk Modulus (GPa) = 46.68495 84.26852 65.47673
# Shear Modulus (GPa) = 32.89344 44.99265 38.94304
#
# Velocity S-wave (km/s) = 3.53971 4.13984 3.85148
# Velocity P-wave (km/s) = 5.87273 7.41282 6.68726
#
# Compressibility (1/GPa) = 0.02142018
#
# Stress axis : x y z
#
# Youngs Moduli (GPa) = 55.14329 68.38876 77.43880
#
# Poissons Ratio (x) = -0.07106 0.46514
# Poissons Ratio (y) = -0.05730 0.55428
# Poissons Ratio (z) = 0.33122 0.48950
#
# Static dielectric constant tensor:
#      x y z
#    x 5.351150 0.306760 -0.049040 
#    y 0.306760 5.535170 0.209950 
#    z -0.049040 0.209950 5.035580 
# 
# 
# High freq. dielectric constant tensor:
#      x y z
#    x 2.085430 0.000080 -0.010640 
#    y 0.000080 2.042360 0.021010 
#    z -0.010640 0.021010 2.070950 
# 
# From -- ./inp_files/15598.got.cif
#   From: 2010.06.25/outbox.cif.g09.slc.cpg/sg2_8_cif.got.tgz:15598.got - 2010.06.27 13:26:56.
