data_PCOD8013668
_publ_section_title
;
Structure prediction by ZEFSAII (Michael W. Deem and Ramdas Pophale) SiO2 
 PCOD8013668
Probable space group: P -1
;
_chemical_formula_sum "Si O2"
_cell_formula_units_Z 14
_cell_length_a 18.178587
_cell_length_b 12.260747
_cell_length_c 9.405108
_cell_angle_alpha 117.008900
_cell_angle_beta 126.068204
_cell_angle_gamma 21.070812
_cell_volume 575.528774
_symmetry_space_group_name_H-M "P -1"
_symmetry_group_IT_number 2
_symmetry_cell_setting 'triclinic'
loop_
_space_group_symop_operation_xyz
x,y,z
-x,-y,-z
loop_
_atom_site_type_symbol
_atom_site_label
_atom_site_fract_x
_atom_site_fract_y
_atom_site_fract_z
Si Si1 0.876707 0.656910 0.298512
Si Si2 0.872517 0.404900 0.217876
Si Si3 0.252943 0.360503 0.476289
Si Si4 0.388065 0.716527 0.328378
Si Si5 0.137927 0.740012 0.396064
Si Si6 0.280564 0.860936 0.980612
Si Si7 0.514970 0.285260 0.140606
O O1 0.830959 0.570897 0.158633
O O2 0.000000 0.500000 0.500000
O O3 0.063898 0.487398 0.304867
O O4 0.637694 0.037770 0.244605
O O5 0.748612 0.594846 0.336336
O O6 0.744164 0.445026 0.034399
O O7 0.153114 0.024750 0.341729
O O8 0.198026 0.542792 0.426690
O O9 0.500000 0.000000 0.500000
O O10 0.617002 0.503747 0.527005
O O11 0.471161 0.472148 0.271280
O O12 0.306183 0.879834 0.181314
O O13 0.000000 0.000000 0.500000
O O14 0.962681 0.917514 0.173592
O O15 0.312576 0.920176 0.925274
O O16 0.500000 0.500000 0.000000
#
# Coordination Sequence:
#
# PCOD8013668 Si02
#       7
#     2   2   2   2   2   2   2
#     4  10  22  44  63  96 137 176 229 280 324 411
#     4  11  25  44  69  97 144 177 224 285 347 403
#     4  11  24  46  69  96 131 180 235 281 337 411
#     4  11  24  44  68 110 141 174 226 288 343 407
#     4  12  21  43  75 101 134 182 229 282 344 399
#     4  10  21  40  71 101 140 172 230 280 333 406
#     4  11  21  44  68  99 138 183 222 276 342 408
#
# _framework density 24.325457
#
# number of rings (size 3 to 8) (size 9 to 14) (size 15 to 20)
#    0.000    1.143    4.286    2.571    2.000    0.000 
#   12.857    5.000    0.000    0.000    0.000    0.000 
#    0.000    0.000    0.000    0.000    0.000    0.000 
#
# Total GULP energy -173498.352061 kJ/mol
# GULP energy per Si atom -12392.739433 kJ/mol
# Density = 2.427009 g / cm^3
# Si number density = 24.325457 Si / 1000 Ang^3
#
#
#
# Elastic Constant Matrix: (Units=GPa)
#
#
# Indices 1 2 3 4 5 6 
#
# 1 90.5658 50.6101 50.4540 -11.3648 20.4490 16.9275
# 2 50.6101 136.9879 38.1497 -30.2589 4.9686 -4.9174
# 3 50.4540 38.1497 119.9417 -38.4549 37.9898 0.4871
# 4 -11.3648 -30.2589 -38.4549 37.0790 -3.6975 3.0603
# 5 20.4490 4.9686 37.9898 -3.6975 51.9511 -9.6039
# 6 16.9275 -4.9174 0.4871 3.0603 -9.6039 42.0320
#
#
#
# Elastic Compliance Matrix: (Units=1/GPa)
#
#
# Indices 1 2 3 4 5 6 
#
# 1 0.021383 -0.007570 -0.007200 -0.006739 -0.004758 -0.010010
# 2 -0.007570 0.011652 0.001574 0.008681 0.002117 0.004245
# 3 -0.007200 0.001574 0.020699 0.019515 -0.011277 -0.001154
# 4 -0.006739 0.008681 0.019515 0.051503 -0.009218 -0.002352
# 5 -0.004758 0.002117 -0.011277 -0.009218 0.030339 0.009898
# 6 -0.010010 0.004245 -0.001154 -0.002352 0.009898 0.030765
#
#
# Mechanical properties :
#
#
# Convention : Reuss Voigt Hill
#
# Bulk Modulus (GPa) = 36.57561 69.54697 53.06129
# Shear Modulus (GPa) = 24.77134 40.09788 32.43461
#
# Velocity S-wave (km/s) = 3.19459 4.06444 3.65548
# Velocity P-wave (km/s) = 5.35498 7.11889 6.29898
#
# Compressibility (1/GPa) = 0.02734063
#
# Stress axis : x y z
#
# Youngs Moduli (GPa) = 46.76697 85.82566 48.31188
#
# Poissons Ratio (x) = 0.64970 0.34785
# Poissons Ratio (y) = 0.35403 -0.07604
# Poissons Ratio (z) = 0.33672 -0.13508
#
# Static dielectric constant tensor:
#      x y z
#    x 6.338950 -0.267760 -0.277650 
#    y -0.267760 4.382260 0.019910 
#    z -0.277650 0.019910 4.866000 
# 
# 
# High freq. dielectric constant tensor:
#      x y z
#    x 1.978310 0.011300 0.014770 
#    y 0.011300 1.960010 -0.020710 
#    z 0.014770 -0.020710 1.961270 
# 
# From -- ./inp_files/465122.got.cif
#   From: 2010.06.25/outbox.cif.g09.slc.cpg/sg2_233_cif.got.tgz:465122.got - 2010.06.27 13:26:56.
