data_PCOD8013745
_publ_section_title
;
Structure prediction by ZEFSAII (Michael W. Deem and Ramdas Pophale) SiO2 
 PCOD8013745
Probable space group: P -1
;
_chemical_formula_sum "Si O2"
_cell_formula_units_Z 16
_cell_length_a 7.453747
_cell_length_b 6.718443
_cell_length_c 21.045249
_cell_angle_alpha 123.372047
_cell_angle_beta 134.809728
_cell_angle_gamma 79.506213
_cell_volume 585.627989
_symmetry_space_group_name_H-M "P -1"
_symmetry_group_IT_number 2
_symmetry_cell_setting 'triclinic'
loop_
_space_group_symop_operation_xyz
x,y,z
-x,-y,-z
loop_
_atom_site_type_symbol
_atom_site_label
_atom_site_fract_x
_atom_site_fract_y
_atom_site_fract_z
Si Si1 0.664826 0.605513 0.330465
Si Si2 0.811128 0.384978 0.871492
Si Si3 0.497303 0.814667 0.693846
Si Si4 0.323435 0.222978 0.019194
Si Si5 0.804261 0.453469 0.663062
Si Si6 0.731776 0.104072 0.481093
Si Si7 0.270440 0.915609 0.835779
Si Si8 0.838514 0.631850 0.160472
O O1 0.430169 0.542093 0.208667
O O2 0.679998 0.343046 0.318529
O O3 0.947935 0.790269 0.405088
O O4 0.604621 0.795746 0.402812
O O5 0.873574 0.613514 0.982631
O O6 0.065032 0.417679 0.894607
O O7 0.679320 0.094461 0.811655
O O8 0.674166 0.645190 0.691801
O O9 0.317961 0.822662 0.590036
O O10 0.584152 0.392546 0.073919
O O11 0.430144 0.103911 0.085545
O O12 0.170654 0.995217 0.893264
O O13 0.611180 0.243182 0.528963
O O14 0.907647 0.313771 0.720253
O O15 0.067117 0.632219 0.719433
O O16 0.252073 0.120301 0.815547
#
# Coordination Sequence:
#
# PCOD8013745 Si02
#       8
#     2   2   2   2   2   2   2   2
#     4  10  21  41  60  93 129 164 217 264 314 389
#     4  11  23  42  66  96 134 169 211 270 317 382
#     4  11  22  40  61  94 129 165 218 262 317 385
#     4  10  24  43  68  96 130 171 212 265 326 378
#     4  11  22  40  62  92 129 168 212 266 321 374
#     4  10  23  38  63  89 126 173 213 265 319 378
#     4  10  22  44  66  95 131 164 218 268 313 393
#     4  11  22  42  66  94 132 168 215 265 317 385
#
# _framework density 27.321097999999999
#
# number of rings (size 3 to 8) (size 9 to 14) (size 15 to 20)
#    0.000    1.500    2.500    2.625    0.000    4.000 
#    0.000    5.625    0.000    0.000    0.000    0.000 
#    0.000    0.000    0.000    0.000    0.000    0.000 
#
# Total GULP energy -198343.027796 kJ/mol
# GULP energy per Si atom -12396.439237 kJ/mol
# Density = 2.725891 g / cm^3
# Si number density = 27.321098 Si / 1000 Ang^3
#
#
#
# Elastic Constant Matrix: (Units=GPa)
#
#
# Indices 1 2 3 4 5 6 
#
# 1 58.5775 22.8226 11.5265 0.7092 -2.1642 -12.0563
# 2 22.8226 180.7574 47.7068 8.0481 -11.5048 -20.8331
# 3 11.5265 47.7068 113.1321 25.9920 -14.4868 -5.2362
# 4 0.7092 8.0481 25.9920 41.1266 -11.5274 -0.0901
# 5 -2.1642 -11.5048 -14.4868 -11.5274 37.3826 0.7334
# 6 -12.0563 -20.8331 -5.2362 -0.0901 0.7334 50.2665
#
#
#
# Elastic Compliance Matrix: (Units=1/GPa)
#
#
# Indices 1 2 3 4 5 6 
#
# 1 0.018704 -0.001639 -0.001201 0.000850 0.000303 0.003679
# 2 -0.001639 0.006702 -0.002569 0.000663 0.001135 0.002102
# 3 -0.001201 -0.002569 0.011729 -0.006410 0.001712 -0.000167
# 4 0.000850 0.000663 -0.006410 0.030208 0.007089 -0.000238
# 5 0.000303 0.001135 0.001712 0.007089 0.029961 0.000297
# 6 0.003679 0.002102 -0.000167 -0.000238 0.000297 0.021625
#
#
# Mechanical properties :
#
#
# Convention : Reuss Voigt Hill
#
# Bulk Modulus (GPa) = 37.99702 57.39764 47.69733
# Shear Modulus (GPa) = 36.09578 43.78255 39.93917
#
# Velocity S-wave (km/s) = 3.63873 4.00749 3.82755
# Velocity P-wave (km/s) = 5.62064 6.51670 6.08519
#
# Compressibility (1/GPa) = 0.02631785
#
# Stress axis : x y z
#
# Youngs Moduli (GPa) = 53.46327 149.20397 85.25908
#
# Poissons Ratio (x) = 0.24459 0.10236
# Poissons Ratio (y) = 0.08764 0.21903
# Poissons Ratio (z) = 0.06419 0.38330
#
# Static dielectric constant tensor:
#      x y z
#    x 5.003060 -0.204460 -0.108130 
#    y -0.204460 5.722200 0.231540 
#    z -0.108130 0.231540 5.276100 
# 
# 
# High freq. dielectric constant tensor:
#      x y z
#    x 2.089550 -0.028860 -0.007840 
#    y -0.028860 2.123570 0.005840 
#    z -0.007840 0.005840 2.118570 
# 
# From -- ./inp_files/585895.got.cif
#   From: 2010.06.25/outbox.cif.g09.slc.cpg/sg2_293_cif.got.tgz:585895.got - 2010.06.27 13:26:56.
