data_PCOD8013288
_publ_section_title
;
Structure prediction by ZEFSAII (Michael W. Deem and Ramdas Pophale) SiO2 
 PCOD8013288
Probable space group: P -1
;
_chemical_formula_sum "Si O2"
_cell_formula_units_Z 12
_cell_length_a 5.242517
_cell_length_b 10.635805
_cell_length_c 10.224713
_cell_angle_alpha 104.113558
_cell_angle_beta 70.941819
_cell_angle_gamma 99.403426
_cell_volume 520.411758
_symmetry_space_group_name_H-M "P -1"
_symmetry_group_IT_number 2
_symmetry_cell_setting 'triclinic'
loop_
_space_group_symop_operation_xyz
x,y,z
-x,-y,-z
loop_
_atom_site_type_symbol
_atom_site_label
_atom_site_fract_x
_atom_site_fract_y
_atom_site_fract_z
Si Si1 0.583483 0.426363 0.837510
Si Si2 0.790642 0.933620 0.119688
Si Si3 0.925384 0.712904 0.207636
Si Si4 0.300254 0.792169 0.741022
Si Si5 0.489787 0.626197 0.446585
Si Si6 0.674857 0.724294 0.894044
O O1 0.271885 0.364571 0.885279
O O2 0.678409 0.419849 0.667646
O O3 0.595728 0.576605 0.923153
O O4 0.782726 0.340888 0.863749
O O5 0.940316 0.863490 0.195470
O O6 0.637597 0.050760 0.237138
O O7 0.592177 0.829909 0.042668
O O8 0.000000 0.000000 0.000000
O O9 0.789265 0.690563 0.368931
O O10 0.343649 0.735663 0.575680
O O11 0.513098 0.737868 0.790991
O O12 0.997016 0.744159 0.823772
O O13 0.500000 0.500000 0.500000
#
# Coordination Sequence:
#
# PCOD8013288 Si02
#       6
#     2   2   2   2   2   2
#     4  10  22  39  63 101 123 158 205 264 319 360
#     4  10  25  46  64  88 129 174 213 252 305 375
#     4  10  24  40  63  99 126 161 210 258 314 371
#     4  11  23  38  66  93 123 170 211 250 311 374
#     4  10  21  40  66  96 128 158 204 262 318 372
#     4  11  22  40  65  94 123 166 213 256 310 372
#
# _framework density 23.058664
#
# number of rings (size 3 to 8) (size 9 to 14) (size 15 to 20)
#    1.000    0.667    1.667    2.500    2.333    8.667 
#    0.000    0.833    0.000    0.000    0.000    0.000 
#    0.000    0.000    0.000    0.000    0.000    0.000 
#
# Total GULP energy -148719.799173 kJ/mol
# GULP energy per Si atom -12393.316598 kJ/mol
# Density = 2.300618 g / cm^3
# Si number density = 23.058664 Si / 1000 Ang^3
#
#
#
# Elastic Constant Matrix: (Units=GPa)
#
#
# Indices 1 2 3 4 5 6 
#
# 1 125.2063 46.3578 17.5313 1.0833 2.5903 -9.8305
# 2 46.3578 181.1862 63.1930 1.5108 1.2125 -10.9897
# 3 17.5313 63.1930 118.0653 19.3886 6.6019 -0.6803
# 4 1.0833 1.5108 19.3886 54.0113 0.4196 5.1564
# 5 2.5903 1.2125 6.6019 0.4196 29.8658 -2.9985
# 6 -9.8305 -10.9897 -0.6803 5.1564 -2.9985 37.1921
#
#
#
# Elastic Compliance Matrix: (Units=1/GPa)
#
#
# Indices 1 2 3 4 5 6 
#
# 1 0.008942 -0.002142 -0.000104 -0.000243 -0.000489 0.001723
# 2 -0.002142 0.007511 -0.003922 0.001091 0.000883 0.001502
# 3 -0.000104 -0.003922 0.011350 -0.003884 -0.002349 -0.000630
# 4 -0.000243 0.001091 -0.003884 0.020127 0.000294 -0.002580
# 5 -0.000489 0.000883 -0.002349 0.000294 0.034287 0.002812
# 6 0.001723 0.001502 -0.000630 -0.002580 0.002812 0.028359
#
#
# Mechanical properties :
#
#
# Convention : Reuss Voigt Hill
#
# Bulk Modulus (GPa) = 64.65319 75.40244 70.02781
# Shear Modulus (GPa) = 39.04144 44.03888 41.54016
#
# Velocity S-wave (km/s) = 4.11924 4.37494 4.24901
# Velocity P-wave (km/s) = 7.12205 7.63488 7.38292
#
# Compressibility (1/GPa) = 0.01546714
#
# Stress axis : x y z
#
# Youngs Moduli (GPa) = 111.83340 133.13579 88.10399
#
# Poissons Ratio (x) = 0.28513 0.00919
# Poissons Ratio (y) = 0.23951 0.34555
# Poissons Ratio (z) = 0.01167 0.52217
#
# Static dielectric constant tensor:
#      x y z
#    x 3.883090 0.150310 0.176620 
#    y 0.150310 4.849740 0.253430 
#    z 0.176620 0.253430 4.434280 
# 
# 
# High freq. dielectric constant tensor:
#      x y z
#    x 1.898730 -0.001070 0.008760 
#    y -0.001070 1.929540 -0.006760 
#    z 0.008760 -0.006760 1.920780 
# 
# From -- ./inp_files/72981.got.cif
#   From: 2010.06.25/outbox.cif.g09.slc.cpg/sg2_37_cif.got.tgz:72981.got - 2010.06.27 13:26:56.
