data_PCOD8013050
_publ_section_title
;
Structure prediction by ZEFSAII (Michael W. Deem and Ramdas Pophale) SiO2 
 PCOD8013050
Probable space group: P -1
;
_chemical_formula_sum "Si O2"
_cell_formula_units_Z 16
_cell_length_a 14.986572
_cell_length_b 11.601601
_cell_length_c 9.001615
_cell_angle_alpha 113.662119
_cell_angle_beta 148.546938
_cell_angle_gamma 67.077492
_cell_volume 744.364354
_symmetry_space_group_name_H-M "P -1"
_symmetry_group_IT_number 2
_symmetry_cell_setting 'triclinic'
loop_
_space_group_symop_operation_xyz
x,y,z
-x,-y,-z
loop_
_atom_site_type_symbol
_atom_site_label
_atom_site_fract_x
_atom_site_fract_y
_atom_site_fract_z
Si Si1 0.941181 0.461241 0.233437
Si Si2 0.419560 0.968329 0.155027
Si Si3 0.640667 0.589804 0.703988
Si Si4 0.108418 0.811854 0.079408
Si Si5 0.530611 0.190262 0.273786
Si Si6 0.533184 0.297921 0.022173
Si Si7 0.785317 0.957503 0.823555
Si Si8 0.278764 0.458964 0.545223
O O1 0.000000 0.500000 0.500000
O O2 0.082284 0.470692 0.313864
O O3 0.789285 0.564508 0.023605
O O4 0.882601 0.319717 0.066349
O O5 0.365171 0.832100 0.959041
O O6 0.604752 0.944411 0.482594
O O7 0.452992 0.054642 0.103050
O O8 0.262426 0.032734 0.064580
O O9 0.500000 0.500000 0.500000
O O10 0.555711 0.733405 0.668457
O O11 0.706506 0.567681 0.620614
O O12 0.262372 0.814472 0.419787
O O13 0.130633 0.916639 0.040479
O O14 0.926675 0.839557 0.924770
O O15 0.466418 0.266511 0.075036
O O16 0.373109 0.343717 0.714020
O O17 0.658238 0.406727 0.255694
#
# Coordination Sequence:
#
# PCOD8013050 Si02
#       8
#     2   2   2   2   2   2   2   2
#     4  12  26  41  68 103 135 173 219 279 330 391
#     4  10  22  38  69  91 129 167 228 268 333 385
#     4  12  24  45  68  96 135 179 223 265 335 403
#     4  10  21  40  65  89 140 166 220 264 338 386
#     4  11  23  42  66  95 130 179 216 272 329 398
#     4  11  23  42  66  98 135 169 222 271 337 384
#     4   9  21  39  62 100 117 176 218 273 320 404
#     4  11  26  41  70  97 134 177 218 274 330 402
#
# _framework density 21.494851000000001
#
# number of rings (size 3 to 8) (size 9 to 14) (size 15 to 20)
#    0.000    1.250    2.500    2.250   10.500    0.000 
#    0.000    1.875    0.000    0.000    0.000    0.000 
#    0.000    0.000    0.000    0.000    0.000    0.000 
#
# Total GULP energy -198357.764933 kJ/mol
# GULP energy per Si atom -12397.360308 kJ/mol
# Density = 2.144593 g / cm^3
# Si number density = 21.494851 Si / 1000 Ang^3
#
#
#
# Elastic Constant Matrix: (Units=GPa)
#
#
# Indices 1 2 3 4 5 6 
#
# 1 130.7432 27.6313 45.2848 -6.2905 -0.0353 -1.4110
# 2 27.6313 105.8270 19.4522 1.2416 -1.8261 2.3861
# 3 45.2848 19.4522 75.1649 -18.0768 -6.3058 5.3905
# 4 -6.2905 1.2416 -18.0768 30.3953 -3.5206 -0.8325
# 5 -0.0353 -1.8261 -6.3058 -3.5206 31.0245 -5.6237
# 6 -1.4110 2.3861 5.3905 -0.8325 -5.6237 35.8200
#
#
#
# Elastic Compliance Matrix: (Units=1/GPa)
#
#
# Indices 1 2 3 4 5 6 
#
# 1 0.010076 -0.001504 -0.006291 -0.001717 -0.001334 0.001195
# 2 -0.001504 0.010286 -0.002241 -0.002098 -0.000177 -0.000484
# 3 -0.006291 -0.002241 0.021117 0.011879 0.005102 -0.002199
# 4 -0.001717 -0.002098 0.011879 0.040508 0.006943 0.000316
# 5 -0.001334 -0.000177 0.005102 0.006943 0.034922 0.004835
# 6 0.001195 -0.000484 -0.002199 0.000316 0.004835 0.029094
#
#
# Mechanical properties :
#
#
# Convention : Reuss Voigt Hill
#
# Bulk Modulus (GPa) = 46.71448 55.16353 50.93901
# Shear Modulus (GPa) = 28.86661 34.07243 31.46952
#
# Velocity S-wave (km/s) = 3.66861 3.98571 3.83044
# Velocity P-wave (km/s) = 6.30278 6.84839 6.58124
#
# Compressibility (1/GPa) = 0.02140664
#
# Stress axis : x y z
#
# Youngs Moduli (GPa) = 99.25050 97.21575 47.35532
#
# Poissons Ratio (x) = 0.14622 0.29793
# Poissons Ratio (y) = 0.14928 0.10610
# Poissons Ratio (z) = 0.62443 0.21782
#
# Static dielectric constant tensor:
#      x y z
#    x 5.211580 -5.550000 1.576520 
#    y -5.550000 26.078760 -5.902960 
#    z 1.576520 -5.902960 5.351900 
# 
# 
# High freq. dielectric constant tensor:
#      x y z
#    x 1.847980 -0.001220 0.005040 
#    y -0.001220 1.860230 0.004790 
#    z 0.005040 0.004790 1.829350 
# 
# From -- ./inp_files/244994.got.cif
#   From: 2010.06.25/outbox.cif.g09.slc.cpg/sg2_123_cif.got.tgz:244994.got - 2010.06.27 13:26:56.
