data_PCOD8013795
_publ_section_title
;
Structure prediction by ZEFSAII (Michael W. Deem and Ramdas Pophale) SiO2 
 PCOD8013795
Probable space group: P -1
;
_chemical_formula_sum "Si O2"
_cell_formula_units_Z 16
_cell_length_a 14.138731
_cell_length_b 8.939454
_cell_length_c 15.556848
_cell_angle_alpha 122.748101
_cell_angle_beta 139.510222
_cell_angle_gamma 87.098998
_cell_volume 806.084970
_symmetry_space_group_name_H-M "P -1"
_symmetry_group_IT_number 2
_symmetry_cell_setting 'triclinic'
loop_
_space_group_symop_operation_xyz
x,y,z
-x,-y,-z
loop_
_atom_site_type_symbol
_atom_site_label
_atom_site_fract_x
_atom_site_fract_y
_atom_site_fract_z
Si Si1 0.801112 0.056672 0.399535
Si Si2 0.709308 0.657695 0.789624
Si Si3 0.914110 0.445901 0.184693
Si Si4 0.299964 0.200621 0.354260
Si Si5 0.107454 0.212138 0.519678
Si Si6 0.595916 0.385520 0.042629
Si Si7 0.953652 0.330937 0.991484
Si Si8 0.024740 0.873290 0.792359
O O1 0.876551 0.301123 0.568431
O O2 0.915784 0.096063 0.405641
O O3 0.815835 0.920795 0.442601
O O4 0.577385 0.898716 0.164410
O O5 0.509619 0.406465 0.606349
O O6 0.673964 0.764798 0.719788
O O7 0.853854 0.625706 0.843354
O O8 0.803237 0.842774 0.990966
O O9 0.744905 0.452200 0.090282
O O10 0.897819 0.395681 0.057198
O O11 0.888902 0.249998 0.164498
O O12 0.146637 0.222039 0.288647
O O13 0.225032 0.941964 0.243814
O O14 0.273640 0.494962 0.743293
O O15 0.059212 0.183687 0.378196
O O16 0.500000 0.500000 0.000000
O O17 0.000000 0.500000 0.000000
#
# Coordination Sequence:
#
# PCOD8013795 Si02
#       8
#     2   2   2   2   2   2   2   2
#     4   9  20  38  58  83 115 153 197 246 300 354
#     4  10  21  41  63  83 126 165 198 245 295 356
#     4  11  22  37  61  89 118 160 198 244 304 353
#     4  10  21  41  62  86 123 165 201 240 297 361
#     4   9  20  38  61  81 114 155 195 247 303 357
#     4   9  20  41  59  84 117 152 199 249 295 356
#     4  11  23  40  60  92 131 157 196 251 299 355
#     4  11  21  38  60  91 120 157 202 247 299 356
#
# _framework density 19.849024
#
# number of rings (size 3 to 8) (size 9 to 14) (size 15 to 20)
#    0.000    2.000    2.500    1.500    3.500    5.500 
#    4.500    1.250    0.000    0.000    0.000    0.000 
#    0.000    0.000    0.000    0.000    0.000    0.000 
#
# Total GULP energy -198356.864354 kJ/mol
# GULP energy per Si atom -12397.304022 kJ/mol
# Density = 1.980385 g / cm^3
# Si number density = 19.849024 Si / 1000 Ang^3
#
#
#
# Elastic Constant Matrix: (Units=GPa)
#
#
# Indices 1 2 3 4 5 6 
#
# 1 73.5946 40.8664 59.7750 5.0561 -6.2506 -12.9017
# 2 40.8664 86.7716 50.5648 11.3277 -10.0267 8.7220
# 3 59.7750 50.5648 180.2799 23.1841 5.3176 5.6501
# 4 5.0561 11.3277 23.1841 31.5177 8.9517 -4.8900
# 5 -6.2506 -10.0267 5.3176 8.9517 32.7767 0.3339
# 6 -12.9017 8.7220 5.6501 -4.8900 0.3339 25.2376
#
#
#
# Elastic Compliance Matrix: (Units=1/GPa)
#
#
# Indices 1 2 3 4 5 6 
#
# 1 0.032275 -0.013821 -0.008936 0.010184 0.000338 0.025245
# 2 -0.013821 0.021800 0.000107 -0.010274 0.006992 -0.016707
# 3 -0.008936 0.000107 0.009610 -0.006528 -0.001366 -0.008003
# 4 0.010184 -0.010274 -0.006528 0.045156 -0.012670 0.019135
# 5 0.000338 0.006992 -0.001366 -0.012670 0.036444 -0.004875
# 6 0.025245 -0.016707 -0.008003 0.019135 -0.004875 0.063867
#
#
# Mechanical properties :
#
#
# Convention : Reuss Voigt Hill
#
# Bulk Modulus (GPa) = 54.39043 71.45096 62.92069
# Shear Modulus (GPa) = 19.18784 30.53572 24.86178
#
# Velocity S-wave (km/s) = 3.11254 3.92650 3.54297
# Velocity P-wave (km/s) = 6.35443 7.52542 6.96457
#
# Compressibility (1/GPa) = 0.01838559
#
# Stress axis : x y z
#
# Youngs Moduli (GPa) = 30.98352 45.87134 104.05455
#
# Poissons Ratio (x) = 0.63400 0.92979
# Poissons Ratio (y) = 0.42823 -0.01112
# Poissons Ratio (z) = 0.27686 -0.00490
#
# Static dielectric constant tensor:
#      x y z
#    x 3.496850 -0.112820 0.063540 
#    y -0.112820 3.420450 0.260140 
#    z 0.063540 0.260140 4.077200 
# 
# 
# High freq. dielectric constant tensor:
#      x y z
#    x 1.765970 -0.007500 -0.002250 
#    y -0.007500 1.749650 0.016180 
#    z -0.002250 0.016180 1.791220 
# 
# From -- ./inp_files/306247.got.cif
#   From: 2010.06.25/outbox.cif.g09.slc.cpg/sg2_154_cif.got.tgz:306247.got - 2010.06.27 13:26:56.
