data_PCOD8013726
_publ_section_title
;
Structure prediction by ZEFSAII (Michael W. Deem and Ramdas Pophale) SiO2 
 PCOD8013726
Probable space group: P -1
;
_chemical_formula_sum "Si O2"
_cell_formula_units_Z 16
_cell_length_a 11.830215
_cell_length_b 12.483543
_cell_length_c 18.000510
_cell_angle_alpha 151.277995
_cell_angle_beta 132.557309
_cell_angle_gamma 36.920410
_cell_volume 764.572731
_symmetry_space_group_name_H-M "P -1"
_symmetry_group_IT_number 2
_symmetry_cell_setting 'triclinic'
loop_
_space_group_symop_operation_xyz
x,y,z
-x,-y,-z
loop_
_atom_site_type_symbol
_atom_site_label
_atom_site_fract_x
_atom_site_fract_y
_atom_site_fract_z
Si Si1 0.773578 0.513669 0.000625
Si Si2 0.978569 0.711456 0.454572
Si Si3 0.596016 0.269761 0.840307
Si Si4 0.599517 0.646781 0.620682
Si Si5 0.595523 0.003893 0.118267
Si Si6 0.007762 0.303328 0.322646
Si Si7 0.651182 0.883108 0.314402
Si Si8 0.103593 0.939398 0.769437
O O1 0.639825 0.403351 0.873353
O O2 0.752351 0.665140 0.160152
O O3 0.990842 0.256682 0.934619
O O4 0.736491 0.694984 0.022548
O O5 0.177157 0.568409 0.414591
O O6 0.950561 0.478087 0.327773
O O7 0.974734 0.897863 0.631618
O O8 0.807623 0.901830 0.436966
O O9 0.445597 0.198056 0.716120
O O10 0.791512 0.985999 0.778522
O O11 0.500000 0.500000 0.000000
O O12 0.500000 0.500000 0.500000
O O13 0.560065 0.833457 0.788202
O O14 0.515045 0.823602 0.615161
O O15 0.702863 0.146891 0.235908
O O16 0.500000 0.000000 0.000000
O O17 0.000000 0.500000 0.500000
O O18 0.861395 0.236469 0.246556
#
# Coordination Sequence:
#
# PCOD8013726 Si02
#       8
#     2   2   2   2   2   2   2   2
#     4   9  21  40  59  86 124 157 201 259 297 365
#     4  11  22  40  66  94 120 161 206 253 312 365
#     4   9  17  37  61  86 124 159 198 259 308 354
#     4  11  23  43  61  89 128 158 204 261 296 366
#     4  11  24  39  60  85 121 167 201 248 310 364
#     4   9  19  37  63  87 126 161 196 262 310 360
#     4  10  22  38  66  93 119 162 205 253 311 365
#     4  10  21  41  59  88 126 158 201 253 306 361
#
# _framework density 20.926721000000001
#
# number of rings (size 3 to 8) (size 9 to 14) (size 15 to 20)
#    0.000    2.000    2.500    0.375    1.750    2.500 
#    0.000   11.250    0.000    0.000    0.000    0.000 
#    0.000    0.000    0.000    0.000    0.000    0.000 
#
# Total GULP energy -198239.379054 kJ/mol
# GULP energy per Si atom -12389.961191 kJ/mol
# Density = 2.087909 g / cm^3
# Si number density = 20.926721 Si / 1000 Ang^3
#
#
#
# Elastic Constant Matrix: (Units=GPa)
#
#
# Indices 1 2 3 4 5 6 
#
# 1 109.4812 20.0280 8.6638 -4.0715 21.4245 4.2704
# 2 20.0280 50.8977 13.9917 -16.7489 10.6412 0.3316
# 3 8.6638 13.9917 53.9194 2.1346 8.3661 4.2616
# 4 -4.0715 -16.7489 2.1346 33.8194 -6.4973 0.4065
# 5 21.4245 10.6412 8.3661 -6.4973 37.1740 6.2467
# 6 4.2704 0.3316 4.2616 0.4065 6.2467 28.6556
#
#
#
# Elastic Compliance Matrix: (Units=1/GPa)
#
#
# Indices 1 2 3 4 5 6 
#
# 1 0.010812 -0.003675 0.000150 -0.001565 -0.005422 -0.000387
# 2 -0.003675 0.027846 -0.006942 0.013341 -0.002220 0.001552
# 3 0.000150 -0.006942 0.021251 -0.005395 -0.003443 -0.002275
# 4 -0.001565 0.013341 -0.005395 0.037285 0.004935 -0.000724
# 5 -0.005422 -0.002220 -0.003443 0.004935 0.033304 -0.005984
# 6 -0.000387 0.001552 -0.002275 -0.000724 -0.005984 0.036590
#
#
# Mechanical properties :
#
#
# Convention : Reuss Voigt Hill
#
# Bulk Modulus (GPa) = 25.65667 33.29612 29.47639
# Shear Modulus (GPa) = 24.87409 31.37077 28.12243
#
# Velocity S-wave (km/s) = 3.45139 3.87599 3.66984
# Velocity P-wave (km/s) = 5.30751 5.99804 5.66331
#
# Compressibility (1/GPa) = 0.03897623
#
# Stress axis : x y z
#
# Youngs Moduli (GPa) = 92.48783 35.91226 47.05660
#
# Poissons Ratio (x) = 0.13196 -0.00706
# Poissons Ratio (y) = 0.33985 0.32665
# Poissons Ratio (z) = -0.01387 0.24929
#
# Static dielectric constant tensor:
#      x y z
#    x 4.303450 0.178680 0.159650 
#    y 0.178680 3.526690 0.378920 
#    z 0.159650 0.378920 3.837040 
# 
# 
# High freq. dielectric constant tensor:
#      x y z
#    x 1.844080 0.004450 0.002080 
#    y 0.004450 1.781650 0.028910 
#    z 0.002080 0.028910 1.818130 
# 
# From -- ./inp_files/244653.got.cif
#   From: 2010.06.25/outbox.cif.g09.slc.cpg/sg2_123_cif.got.tgz:244653.got - 2010.06.27 13:26:56.
