data_PCOD8013815
_publ_section_title
;
Structure prediction by ZEFSAII (Michael W. Deem and Ramdas Pophale) SiO2 
 PCOD8013815
Probable space group: P -1
;
_chemical_formula_sum "Si O2"
_cell_formula_units_Z 16
_cell_length_a 12.628199
_cell_length_b 12.625037
_cell_length_c 11.927028
_cell_angle_alpha 67.285576
_cell_angle_beta 137.138916
_cell_angle_gamma 77.646597
_cell_volume 728.372627
_symmetry_space_group_name_H-M "P -1"
_symmetry_group_IT_number 2
_symmetry_cell_setting 'triclinic'
loop_
_space_group_symop_operation_xyz
x,y,z
-x,-y,-z
loop_
_atom_site_type_symbol
_atom_site_label
_atom_site_fract_x
_atom_site_fract_y
_atom_site_fract_z
Si Si1 0.352653 0.055354 0.698401
Si Si2 0.004974 0.311103 0.128855
Si Si3 0.119822 0.345132 0.744134
Si Si4 0.095231 0.821933 0.608195
Si Si5 0.022213 0.533207 0.159134
Si Si6 0.544364 0.188886 0.782666
Si Si7 0.579261 0.404686 0.841605
Si Si8 0.924825 0.211341 0.639651
O O1 0.254279 0.122913 0.465573
O O2 0.449708 0.123110 0.791977
O O3 0.575197 0.831134 0.958403
O O4 0.130135 0.140444 0.571332
O O5 0.896607 0.490026 0.031482
O O6 0.072527 0.302286 0.055215
O O7 0.790252 0.337825 0.952173
O O8 0.000000 0.500000 0.500000
O O9 0.045618 0.416469 0.784765
O O10 0.015849 0.284306 0.651701
O O11 0.169783 0.790275 0.549127
O O12 0.333809 0.641406 0.942089
O O13 0.000000 0.000000 0.500000
O O14 0.333127 0.344737 0.461513
O O15 0.542953 0.291891 0.830219
O O16 0.833427 0.001799 0.034345
O O17 0.319406 0.631938 0.531926
#
# Coordination Sequence:
#
# PCOD8013815 Si02
#       8
#     2   2   2   2   2   2   2   2
#     4   9  23  41  63  93 126 171 216 259 320 377
#     4   9  22  43  68  90 124 173 213 267 315 371
#     4  11  25  36  66 100 127 168 213 260 314 392
#     4  11  23  38  60  88 132 171 203 266 315 376
#     4  10  21  44  67  91 128 169 214 263 318 371
#     4  10  21  41  62  89 128 162 211 264 315 374
#     4  11  22  41  63  93 124 169 214 261 320 371
#     4  11  24  38  60  93 132 167 210 256 316 388
#
# _framework density 21.966778999999999
#
# number of rings (size 3 to 8) (size 9 to 14) (size 15 to 20)
#    0.000    1.750    2.500    0.375    8.750    3.000 
#    0.000    0.625    0.000    0.000    0.000    0.000 
#    0.000    0.000    0.000    0.000    0.000    0.000 
#
# Total GULP energy -198280.523588 kJ/mol
# GULP energy per Si atom -12392.532724 kJ/mol
# Density = 2.191678 g / cm^3
# Si number density = 21.966779 Si / 1000 Ang^3
#
#
#
# Elastic Constant Matrix: (Units=GPa)
#
#
# Indices 1 2 3 4 5 6 
#
# 1 73.9137 31.3413 29.8915 4.1212 -13.6802 -0.5782
# 2 31.3413 100.3218 37.6032 0.4091 4.1008 0.0462
# 3 29.8915 37.6032 117.4654 -16.1866 6.7602 -0.1067
# 4 4.1212 0.4091 -16.1866 36.9230 3.4936 3.9943
# 5 -13.6802 4.1008 6.7602 3.4936 31.5049 4.3533
# 6 -0.5782 0.0462 -0.1067 3.9943 4.3533 26.0797
#
#
#
# Elastic Compliance Matrix: (Units=1/GPa)
#
#
# Indices 1 2 3 4 5 6 
#
# 1 0.019853 -0.004802 -0.004872 -0.005271 0.010958 -0.000593
# 2 -0.004802 0.012614 -0.002709 -0.000544 -0.003150 0.000469
# 3 -0.004872 -0.002709 0.011762 0.006218 -0.004951 -0.000181
# 4 -0.005271 -0.000544 0.006218 0.031433 -0.006511 -0.003818
# 5 0.010958 -0.003150 -0.004951 -0.006511 0.039434 -0.005357
# 6 -0.000593 0.000469 -0.000181 -0.003818 -0.005357 0.039808
#
#
# Mechanical properties :
#
#
# Convention : Reuss Voigt Hill
#
# Bulk Modulus (GPa) = 51.38242 54.37477 52.87859
# Shear Modulus (GPa) = 26.85858 31.75920 29.30889
#
# Velocity S-wave (km/s) = 3.50049 3.80647 3.65668
# Velocity P-wave (km/s) = 6.30711 6.64273 6.47710
#
# Compressibility (1/GPa) = 0.01946191
#
# Stress axis : x y z
#
# Youngs Moduli (GPa) = 50.36920 79.27389 85.01922
#
# Poissons Ratio (x) = 0.38069 0.41425
# Poissons Ratio (y) = 0.24188 0.23035
# Poissons Ratio (z) = 0.24542 0.21479
#
# Static dielectric constant tensor:
#      x y z
#    x 3.608250 0.185590 -0.005600 
#    y 0.185590 4.026400 -0.084190 
#    z -0.005600 -0.084190 4.528370 
# 
# 
# High freq. dielectric constant tensor:
#      x y z
#    x 1.824200 0.016750 -0.002740 
#    y 0.016750 1.862410 0.006440 
#    z -0.002740 0.006440 1.881650 
# 
# From -- ./inp_files/428034.got.cif
#   From: 2010.06.25/outbox.cif.g09.slc.cpg/sg2_215_cif.got.tgz:428034.got - 2010.06.27 13:26:56.
