data_PCOD8013516
_publ_section_title
;
Structure prediction by ZEFSAII (Michael W. Deem and Ramdas Pophale) SiO2 
 PCOD8013516
Probable space group: P -1
;
_chemical_formula_sum "Si O2"
_cell_formula_units_Z 16
_cell_length_a 8.856869
_cell_length_b 20.601002
_cell_length_c 12.768287
_cell_angle_alpha 155.195415
_cell_angle_beta 130.747766
_cell_angle_gamma 58.171107
_cell_volume 724.733393
_symmetry_space_group_name_H-M "P -1"
_symmetry_group_IT_number 2
_symmetry_cell_setting 'triclinic'
loop_
_space_group_symop_operation_xyz
x,y,z
-x,-y,-z
loop_
_atom_site_type_symbol
_atom_site_label
_atom_site_fract_x
_atom_site_fract_y
_atom_site_fract_z
Si Si1 0.231000 0.474433 0.430405
Si Si2 0.419929 0.519770 0.793133
Si Si3 0.573271 0.991050 0.903247
Si Si4 0.136804 0.455491 0.752479
Si Si5 0.016226 0.834927 0.596614
Si Si6 0.280611 0.683539 0.330069
Si Si7 0.370355 0.133398 0.650665
Si Si8 0.586834 0.760798 0.948192
O O1 0.244940 0.456909 0.536446
O O2 0.413178 0.612810 0.680853
O O3 0.240960 0.306450 0.135320
O O4 0.023927 0.523706 0.378067
O O5 0.345520 0.467915 0.800698
O O6 0.615416 0.442081 0.743820
O O7 0.491335 0.707598 0.098430
O O8 0.462685 0.817978 0.560115
O O9 0.820837 0.024252 0.066870
O O10 0.505505 0.122337 0.994599
O O11 0.500000 0.000000 0.000000
O O12 0.084512 0.287541 0.539865
O O13 0.148163 0.596112 0.047014
O O14 0.130700 0.747537 0.434741
O O15 0.842167 0.910567 0.573530
O O16 0.500000 0.000000 0.500000
O O17 0.317025 0.150016 0.773092
#
# Coordination Sequence:
#
# PCOD8013516 Si02
#       8
#     2   2   2   2   2   2   2   2
#     4  10  21  40  68  97 131 176 236 271 328 410
#     4  11  25  43  65 101 141 175 218 290 343 386
#     4  10  22  42  65 101 133 166 224 287 330 382
#     4  12  23  40  69  99 134 177 229 276 337 400
#     4  11  23  45  72 100 127 186 237 267 331 410
#     4  11  24  42  71  99 138 172 231 289 325 398
#     4  11  26  45  67  96 147 177 219 275 346 411
#     4  10  21  41  69  96 133 182 221 282 334 389
#
# _framework density 22.077082000000001
#
# number of rings (size 3 to 8) (size 9 to 14) (size 15 to 20)
#    0.000    1.250    2.500    3.375    5.250    0.000 
#   11.250    4.375    0.000    0.000    0.000    0.000 
#    0.000    0.000    0.000    0.000    0.000    0.000 
#
# Total GULP energy -198393.591569 kJ/mol
# GULP energy per Si atom -12399.599473 kJ/mol
# Density = 2.202683 g / cm^3
# Si number density = 22.077082 Si / 1000 Ang^3
#
#
#
# Elastic Constant Matrix: (Units=GPa)
#
#
# Indices 1 2 3 4 5 6 
#
# 1 72.6022 44.9247 16.9404 8.9271 5.6101 1.0845
# 2 44.9247 150.0788 31.8346 -14.4320 -1.0053 -18.4150
# 3 16.9404 31.8346 70.4527 2.8363 6.2308 -5.2281
# 4 8.9271 -14.4320 2.8363 30.2794 -11.1804 -4.1350
# 5 5.6101 -1.0053 6.2308 -11.1804 18.1972 1.1100
# 6 1.0845 -18.4150 -5.2281 -4.1350 1.1100 43.7972
#
#
#
# Elastic Compliance Matrix: (Units=1/GPa)
#
#
# Indices 1 2 3 4 5 6 
#
# 1 0.024159 -0.010348 0.001064 -0.020647 -0.020689 -0.006247
# 2 -0.010348 0.013302 -0.005065 0.016408 0.015350 0.006405
# 3 0.001064 -0.005065 0.017611 -0.008919 -0.012082 -0.000590
# 4 -0.020647 0.016408 -0.008919 0.068413 0.051658 0.011495
# 5 -0.020689 0.015350 -0.012082 0.051658 0.097572 0.007928
# 6 -0.006247 0.006405 -0.000590 0.011495 0.007928 0.026494
#
#
# Mechanical properties :
#
#
# Convention : Reuss Voigt Hill
#
# Bulk Modulus (GPa) = 37.91712 53.39255 45.65484
# Shear Modulus (GPa) = 17.54144 31.75036 24.64590
#
# Velocity S-wave (km/s) = 2.82184 3.79642 3.34482
# Velocity P-wave (km/s) = 5.27534 6.59198 5.97007
#
# Compressibility (1/GPa) = 0.02637331
#
# Stress axis : x y z
#
# Youngs Moduli (GPa) = 41.39193 75.17858 56.78417
#
# Poissons Ratio (x) = 0.77796 -0.06043
# Poissons Ratio (y) = 0.42833 0.28761
# Poissons Ratio (z) = -0.04405 0.38078
#
# Static dielectric constant tensor:
#      x y z
#    x 3.559700 -0.084010 -0.151500 
#    y -0.084010 4.067910 -0.287470 
#    z -0.151500 -0.287470 4.226510 
# 
# 
# High freq. dielectric constant tensor:
#      x y z
#    x 1.859110 0.003200 0.000130 
#    y 0.003200 1.883600 -0.008630 
#    z 0.000130 -0.008630 1.867970 
# 
# From -- ./inp_files/279495.got.cif
#   From: 2010.06.25/outbox.cif.g09.slc.cpg/sg2_140_cif.got.tgz:279495.got - 2010.06.27 13:26:56.
