data_PCOD8013001
_publ_section_title
;
Structure prediction by ZEFSAII (Michael W. Deem and Ramdas Pophale) SiO2 
 PCOD8013001
Probable space group: P -1
;
_chemical_formula_sum "Si O2"
_cell_formula_units_Z 14
_cell_length_a 5.523696
_cell_length_b 14.499291
_cell_length_c 13.175960
_cell_angle_alpha 125.857746
_cell_angle_beta 85.226456
_cell_angle_gamma 130.133998
_cell_volume 575.386695
_symmetry_space_group_name_H-M "P -1"
_symmetry_group_IT_number 2
_symmetry_cell_setting 'triclinic'
loop_
_space_group_symop_operation_xyz
x,y,z
-x,-y,-z
loop_
_atom_site_type_symbol
_atom_site_label
_atom_site_fract_x
_atom_site_fract_y
_atom_site_fract_z
Si Si1 0.258984 0.537693 0.865795
Si Si2 0.773178 0.607253 0.753201
Si Si3 0.110097 0.821413 0.690152
Si Si4 0.478030 0.685589 0.321958
Si Si5 0.788657 0.728180 0.142509
Si Si6 0.323969 0.818246 0.035623
Si Si7 0.235742 0.099792 0.369616
O O1 0.386569 0.517676 0.746750
O O2 0.827899 0.370574 0.780228
O O3 0.438783 0.563909 0.984456
O O4 0.407203 0.715575 0.958355
O O5 0.749756 0.463683 0.681969
O O6 0.842252 0.657087 0.665386
O O7 0.071402 0.769381 0.919452
O O8 0.395180 0.830341 0.638854
O O9 0.861693 0.808349 0.612781
O O10 0.313832 0.983810 0.857538
O O11 0.723529 0.689884 0.241902
O O12 0.705311 0.859745 0.485240
O O13 0.131481 0.775494 0.123519
O O14 0.892644 0.898942 0.234989
#
# Coordination Sequence:
#
# PCOD8013001 Si02
#       7
#     2   2   2   2   2   2   2
#     4  10  21  40  64  98 126 169 218 265 336 382
#     4  10  24  39  65  97 131 173 214 271 330 387
#     4  11  24  45  69  95 135 172 224 269 320 391
#     4  11  25  41  63  97 133 171 217 269 330 392
#     4  10  21  44  66  94 129 170 219 274 324 388
#     4   9  20  40  65  99 124 168 221 272 327 379
#     4  11  26  45  69  97 129 178 221 268 324 385
#
# _framework density 24.331462999999999
#
# number of rings (size 3 to 8) (size 9 to 14) (size 15 to 20)
#    0.000    1.714    1.429    1.286    6.000    8.000 
#    0.000    2.143    0.000    0.000    0.000    0.000 
#    0.000    0.000    0.000    0.000    0.000    0.000 
#
# Total GULP energy -173504.839514 kJ/mol
# GULP energy per Si atom -12393.202822 kJ/mol
# Density = 2.427608 g / cm^3
# Si number density = 24.331463 Si / 1000 Ang^3
#
#
#
# Elastic Constant Matrix: (Units=GPa)
#
#
# Indices 1 2 3 4 5 6 
#
# 1 94.3221 5.0122 17.5184 -7.9815 9.8151 1.9796
# 2 5.0122 81.1007 8.3958 -18.0548 12.2484 2.3143
# 3 17.5184 8.3958 100.0330 -4.7917 1.6931 14.0365
# 4 -7.9815 -18.0548 -4.7917 20.4822 2.0900 -0.5692
# 5 9.8151 12.2484 1.6931 2.0900 24.4689 -3.6622
# 6 1.9796 2.3143 14.0365 -0.5692 -3.6622 25.4048
#
#
#
# Elastic Compliance Matrix: (Units=1/GPa)
#
#
# Indices 1 2 3 4 5 6 
#
# 1 0.012060 0.001886 -0.001716 0.006584 -0.006365 -0.000933
# 2 0.001886 0.018031 -0.000399 0.017649 -0.011690 -0.002859
# 3 -0.001716 -0.000399 0.011286 0.001545 -0.000948 -0.006168
# 4 0.006584 0.017649 0.001545 0.069041 -0.018084 -0.004034
# 5 -0.006365 -0.011690 -0.000948 -0.018084 0.052262 0.009213
# 6 -0.000933 -0.002859 -0.006168 -0.004034 0.009213 0.044341
#
#
# Mechanical properties :
#
#
# Convention : Reuss Voigt Hill
#
# Bulk Modulus (GPa) = 24.43897 37.47874 30.95886
# Shear Modulus (GPa) = 22.61217 30.37314 26.49265
#
# Velocity S-wave (km/s) = 3.05181 3.53697 3.30331
# Velocity P-wave (km/s) = 4.74174 5.66719 5.22500
#
# Compressibility (1/GPa) = 0.04091825
#
# Stress axis : x y z
#
# Youngs Moduli (GPa) = 82.92209 55.45877 88.60333
#
# Poissons Ratio (x) = -0.10459 0.15206
# Poissons Ratio (y) = -0.15639 0.03537
# Poissons Ratio (z) = 0.14231 0.02214
#
# Static dielectric constant tensor:
#      x y z
#    x 4.344610 0.002130 0.015780 
#    y 0.002130 4.117320 0.118950 
#    z 0.015780 0.118950 4.335660 
# 
# 
# High freq. dielectric constant tensor:
#      x y z
#    x 1.965420 -0.002380 -0.007680 
#    y -0.002380 1.952050 0.010200 
#    z -0.007680 0.010200 1.966830 
# 
# From -- ./inp_files/65594.got.cif
#   From: 2010.06.25/outbox.cif.g09.slc.cpg/sg2_33_cif.got.tgz:65594.got - 2010.06.27 13:26:56.
