data_PCOD8013397
_publ_section_title
;
Structure prediction by ZEFSAII (Michael W. Deem and Ramdas Pophale) SiO2 
 PCOD8013397
Probable space group: P -1
;
_chemical_formula_sum "Si O2"
_cell_formula_units_Z 14
_cell_length_a 8.940908
_cell_length_b 17.883582
_cell_length_c 23.857834
_cell_angle_alpha 159.568428
_cell_angle_beta 150.045039
_cell_angle_gamma 30.107020
_cell_volume 633.236614
_symmetry_space_group_name_H-M "P -1"
_symmetry_group_IT_number 2
_symmetry_cell_setting 'triclinic'
loop_
_space_group_symop_operation_xyz
x,y,z
-x,-y,-z
loop_
_atom_site_type_symbol
_atom_site_label
_atom_site_fract_x
_atom_site_fract_y
_atom_site_fract_z
Si Si1 0.902824 0.008094 0.739084
Si Si2 0.388714 0.271778 0.051967
Si Si3 0.962850 0.267842 0.302465
Si Si4 0.011694 0.251465 0.735621
Si Si5 0.189061 0.185675 0.623715
Si Si6 0.806198 0.299854 0.475586
Si Si7 0.455825 0.982774 0.182340
O O1 0.554565 0.171040 0.727164
O O2 0.914561 0.927816 0.750172
O O3 0.976669 0.782606 0.566359
O O4 0.157170 0.137713 0.903990
O O5 0.601806 0.299220 0.192740
O O6 0.189851 0.517997 0.138920
O O7 0.615711 0.152161 0.989484
O O8 0.000000 0.500000 0.500000
O O9 0.160578 0.180074 0.248313
O O10 0.030735 0.301787 0.711075
O O11 0.366684 0.182962 0.826828
O O12 0.836092 0.066824 0.561645
O O13 0.009748 0.346758 0.627119
O O14 0.500000 0.500000 0.500000
O O15 0.713364 0.087430 0.316362
#
# Coordination Sequence:
#
# PCOD8013397 Si02
#       7
#     2   2   2   2   2   2   2
#     4  11  23  42  60  95 135 169 212 269 330 383
#     4  11  25  40  65  97 134 168 211 276 333 374
#     4  12  24  42  70  93 129 177 223 260 321 391
#     4  10  21  40  69  94 125 173 223 262 317 391
#     4  10  21  40  67  95 129 170 221 267 314 390
#     4  10  22  38  64  98 132 166 213 270 323 381
#     4  10  22  44  63  95 132 167 218 267 320 391
#
# _framework density 22.108639
#
# number of rings (size 3 to 8) (size 9 to 14) (size 15 to 20)
#    0.000    1.429    1.429    3.429    6.000    0.571 
#    0.000    2.857    0.000    0.000    0.000    0.000 
#    0.000    0.000    0.000    0.000    0.000    0.000 
#
# Total GULP energy -173551.326541 kJ/mol
# GULP energy per Si atom -12396.523324 kJ/mol
# Density = 2.205832 g / cm^3
# Si number density = 22.108639 Si / 1000 Ang^3
#
#
#
# Elastic Constant Matrix: (Units=GPa)
#
#
# Indices 1 2 3 4 5 6 
#
# 1 93.4679 34.0508 42.8880 -3.7905 -15.1195 -11.1541
# 2 34.0508 145.4807 48.6689 -17.0005 -9.9884 -0.7451
# 3 42.8880 48.6689 99.7207 -11.8429 -16.0471 -4.2444
# 4 -3.7905 -17.0005 -11.8429 42.0685 -6.3702 -8.2465
# 5 -15.1195 -9.9884 -16.0471 -6.3702 24.8573 -0.7658
# 6 -11.1541 -0.7451 -4.2444 -8.2465 -0.7658 37.9887
#
#
#
# Elastic Compliance Matrix: (Units=1/GPa)
#
#
# Indices 1 2 3 4 5 6 
#
# 1 0.014740 -0.001410 -0.004347 0.001277 0.006050 0.004214
# 2 -0.001410 0.008639 -0.003075 0.002704 0.001323 0.000026
# 3 -0.004347 -0.003075 0.015020 0.003892 0.006855 0.001324
# 4 0.001277 0.002704 0.003892 0.029379 0.012135 0.007485
# 5 0.006050 0.001323 0.006855 0.012135 0.052169 0.006254
# 6 0.004214 0.000026 0.001324 0.007485 0.006254 0.029460
#
#
# Mechanical properties :
#
#
# Convention : Reuss Voigt Hill
#
# Bulk Modulus (GPa) = 48.22484 65.54276 56.88380
# Shear Modulus (GPa) = 28.73837 35.18701 31.96269
#
# Velocity S-wave (km/s) = 3.60928 3.99375 3.80637
# Velocity P-wave (km/s) = 6.26333 7.13981 6.71588
#
# Compressibility (1/GPa) = 0.02073620
#
# Stress axis : x y z
#
# Youngs Moduli (GPa) = 67.84093 115.74917 66.57781
#
# Poissons Ratio (x) = 0.16317 0.28941
# Poissons Ratio (y) = 0.09563 0.20474
# Poissons Ratio (z) = 0.29490 0.35595
#
# Static dielectric constant tensor:
#      x y z
#    x 4.132530 0.192590 -0.307270 
#    y 0.192590 3.955400 -0.227180 
#    z -0.307270 -0.227180 3.916190 
# 
# 
# High freq. dielectric constant tensor:
#      x y z
#    x 1.874380 0.000290 -0.017800 
#    y 0.000290 1.877110 -0.009890 
#    z -0.017800 -0.009890 1.853890 
# 
# From -- ./inp_files/156576.got.cif
#   From: 2010.06.25/outbox.cif.g09.slc.cpg/sg2_79_cif.got.tgz:156576.got - 2010.06.27 13:26:56.
