data_PCOD8013049
_publ_section_title
;
Structure prediction by ZEFSAII (Michael W. Deem and Ramdas Pophale) SiO2 
 PCOD8013049
Probable space group: P -1
;
_chemical_formula_sum "Si O2"
_cell_formula_units_Z 16
_cell_length_a 12.554552
_cell_length_b 14.546224
_cell_length_c 8.665479
_cell_angle_alpha 114.220653
_cell_angle_beta 105.764241
_cell_angle_gamma 31.712500
_cell_volume 748.694449
_symmetry_space_group_name_H-M "P -1"
_symmetry_group_IT_number 2
_symmetry_cell_setting 'triclinic'
loop_
_space_group_symop_operation_xyz
x,y,z
-x,-y,-z
loop_
_atom_site_type_symbol
_atom_site_label
_atom_site_fract_x
_atom_site_fract_y
_atom_site_fract_z
Si Si1 0.513568 0.993688 0.321416
Si Si2 0.320100 0.515640 0.691821
Si Si3 0.676140 0.669625 0.660767
Si Si4 0.930248 0.301783 0.986584
Si Si5 0.767057 0.230165 0.720453
Si Si6 0.024548 0.312312 0.723665
Si Si7 0.593491 0.036467 0.005202
Si Si8 0.939222 0.172882 0.436842
O O1 0.354655 0.203187 0.354477
O O2 0.500000 0.000000 0.500000
O O3 0.442508 0.942250 0.180004
O O4 0.744781 0.834625 0.244764
O O5 0.380248 0.380824 0.504569
O O6 0.186572 0.571696 0.818770
O O7 0.524057 0.406386 0.770798
O O8 0.196194 0.698170 0.678589
O O9 0.910383 0.481376 0.686021
O O10 0.527052 0.781789 0.829494
O O11 0.856464 0.246107 0.879668
O O12 0.892052 0.402740 0.892058
O O13 0.171260 0.120845 0.984414
O O14 0.799328 0.228642 0.551121
O O15 0.877548 0.042250 0.685808
O O16 0.042225 0.194133 0.558719
O O17 0.500000 0.000000 0.000000
#
# Coordination Sequence:
#
# PCOD8013049 Si02
#       8
#     2   2   2   2   2   2   2   2
#     4  11  24  42  68  92 128 163 215 268 316 372
#     4  11  23  40  65  98 130 160 217 262 310 377
#     4  10  23  42  66  93 125 168 212 256 317 380
#     4  11  23  42  63  95 134 165 210 269 310 378
#     4  10  21  40  65  89 130 171 210 252 327 370
#     4  10  21  42  63  93 129 168 209 257 325 378
#     4  10  22  45  64  88 129 167 210 258 317 375
#     4   9  21  38  66  93 124 169 210 261 309 383
#
# _framework density 21.370533999999999
#
# number of rings (size 3 to 8) (size 9 to 14) (size 15 to 20)
#    0.000    1.750    2.500    1.500    7.000    2.500 
#    4.500    0.000    0.000    0.000    0.000    0.000 
#    0.000    0.000    0.000    0.000    0.000    0.000 
#
# Total GULP energy -198330.146157 kJ/mol
# GULP energy per Si atom -12395.634135 kJ/mol
# Density = 2.132189 g / cm^3
# Si number density = 21.370534 Si / 1000 Ang^3
#
#
#
# Elastic Constant Matrix: (Units=GPa)
#
#
# Indices 1 2 3 4 5 6 
#
# 1 63.1960 55.6635 45.1608 -1.7017 4.5299 -6.7319
# 2 55.6635 135.3130 53.4459 -2.3352 10.2703 1.1133
# 3 45.1608 53.4459 148.0722 -11.7155 3.4527 2.4580
# 4 -1.7017 -2.3352 -11.7155 24.0373 -4.9222 -1.4421
# 5 4.5299 10.2703 3.4527 -4.9222 28.3428 -7.6468
# 6 -6.7319 1.1133 2.4580 -1.4421 -7.6468 37.6828
#
#
#
# Elastic Compliance Matrix: (Units=1/GPa)
#
#
# Indices 1 2 3 4 5 6 
#
# 1 0.029007 -0.009920 -0.005470 -0.000995 0.001074 0.006012
# 2 -0.009920 0.012292 -0.001365 -0.001092 -0.003656 -0.002830
# 3 -0.005470 -0.001365 0.009240 0.004031 0.000603 -0.001263
# 4 -0.000995 -0.001092 0.004031 0.045375 0.008783 0.003110
# 5 0.001074 -0.003656 0.000603 0.008783 0.040252 0.008765
# 6 0.006012 -0.002830 -0.001263 0.003110 0.008765 0.029675
#
#
# Mechanical properties :
#
#
# Convention : Reuss Voigt Hill
#
# Bulk Modulus (GPa) = 58.72415 72.79128 65.75772
# Shear Modulus (GPa) = 24.38671 30.83332 27.61002
#
# Velocity S-wave (km/s) = 3.38174 3.80254 3.59829
# Velocity P-wave (km/s) = 6.54117 7.30852 6.93547
#
# Compressibility (1/GPa) = 0.01702877
#
# Stress axis : x y z
#
# Youngs Moduli (GPa) = 34.47432 81.35113 108.21981
#
# Poissons Ratio (x) = 0.80703 0.59195
# Poissons Ratio (y) = 0.34200 0.14777
# Poissons Ratio (z) = 0.18857 0.11108
#
# Static dielectric constant tensor:
#      x y z
#    x 3.709250 -0.044240 0.085620 
#    y -0.044240 3.963960 -0.203330 
#    z 0.085620 -0.203330 4.345370 
# 
# 
# High freq. dielectric constant tensor:
#      x y z
#    x 1.813210 -0.009430 0.006250 
#    y -0.009430 1.845210 -0.010420 
#    z 0.006250 -0.010420 1.852420 
# 
# From -- ./inp_files/215076.got.cif
#   From: 2010.06.25/outbox.cif.g09.slc.cpg/sg2_108_cif.got.tgz:215076.got - 2010.06.27 13:26:56.
