data_PCOD8013856
_publ_section_title
;
Structure prediction by ZEFSAII (Michael W. Deem and Ramdas Pophale) SiO2 
 PCOD8013856
Probable space group: P -1
;
_chemical_formula_sum "Si O2"
_cell_formula_units_Z 16
_cell_length_a 13.933896
_cell_length_b 15.677490
_cell_length_c 8.942744
_cell_angle_alpha 131.225487
_cell_angle_beta 110.784627
_cell_angle_gamma 36.148436
_cell_volume 794.487906
_symmetry_space_group_name_H-M "P -1"
_symmetry_group_IT_number 2
_symmetry_cell_setting 'triclinic'
loop_
_space_group_symop_operation_xyz
x,y,z
-x,-y,-z
loop_
_atom_site_type_symbol
_atom_site_label
_atom_site_fract_x
_atom_site_fract_y
_atom_site_fract_z
Si Si1 0.493400 0.690724 0.936186
Si Si2 0.634343 0.364401 0.780228
Si Si3 0.642434 0.941887 0.101692
Si Si4 0.090901 0.735048 0.731799
Si Si5 0.128033 0.279240 0.294758
Si Si6 0.502608 0.053026 0.722007
Si Si7 0.152964 0.893701 0.143899
Si Si8 0.483751 0.323658 0.417084
O O1 0.657065 0.466550 0.830424
O O2 0.463473 0.707152 0.761526
O O3 0.537353 0.777876 0.111732
O O4 0.314369 0.805862 0.043747
O O5 0.811694 0.152656 0.710859
O O6 0.559819 0.354402 0.595711
O O7 0.500000 0.500000 0.000000
O O8 0.656959 0.865071 0.180124
O O9 0.568892 0.133569 0.309267
O O10 0.827656 0.775521 0.920904
O O11 0.500000 0.000000 0.000000
O O12 0.271397 0.510279 0.525792
O O13 0.954299 0.762668 0.740030
O O14 0.118291 0.798550 0.954691
O O15 0.015796 0.872187 0.704806
O O16 0.000000 0.500000 0.500000
O O17 0.307082 0.142578 0.325913
O O18 0.500000 0.000000 0.500000
#
# Coordination Sequence:
#
# PCOD8013856 Si02
#       8
#     2   2   2   2   2   2   2   2
#     4  11  21  41  63  94 124 163 223 257 305 385
#     4  10  22  37  62  92 124 167 214 258 304 369
#     4  10  21  41  62  96 119 163 219 257 301 387
#     4  11  21  36  67  91 127 169 201 255 331 367
#     4  11  23  42  66  93 127 163 210 259 322 381
#     4  11  24  41  70  92 125 167 214 264 313 372
#     4  10  22  41  60  89 130 165 212 257 316 375
#     4  12  21  37  70  90 124 166 220 260 307 381
#
# _framework density 20.138759
#
# number of rings (size 3 to 8) (size 9 to 14) (size 15 to 20)
#    0.000    1.250    6.250    1.875    3.500    1.000 
#    0.000    1.250    5.500    0.000    0.000    0.000 
#    0.000    0.000    0.000    0.000    0.000    0.000 
#
# Total GULP energy -198323.093565 kJ/mol
# GULP energy per Si atom -12395.193348 kJ/mol
# Density = 2.009292 g / cm^3
# Si number density = 20.138759 Si / 1000 Ang^3
#
#
#
# Elastic Constant Matrix: (Units=GPa)
#
#
# Indices 1 2 3 4 5 6 
#
# 1 104.3336 54.7201 59.9125 0.7308 16.4094 27.9383
# 2 54.7201 91.3138 49.4283 -8.3378 6.5492 10.4055
# 3 59.9125 49.4283 130.1995 -5.4921 13.0119 15.4034
# 4 0.7308 -8.3378 -5.4921 42.9988 6.1126 -4.6879
# 5 16.4094 6.5492 13.0119 6.1126 25.3166 10.2656
# 6 27.9383 10.4055 15.4034 -4.6879 10.2656 24.3888
#
#
#
# Elastic Compliance Matrix: (Units=1/GPa)
#
#
# Indices 1 2 3 4 5 6 
#
# 1 0.022356 -0.009027 -0.004692 -0.004740 -0.000734 -0.019397
# 2 -0.009027 0.017753 -0.003046 0.003870 -0.000378 0.005594
# 3 -0.004692 -0.003046 0.011205 0.001409 -0.002673 0.000994
# 4 -0.004740 0.003870 0.001409 0.027070 -0.010213 0.012391
# 5 -0.000734 -0.000378 -0.002673 -0.010213 0.052595 -0.021411
# 6 -0.019397 0.005594 0.000994 0.012391 -0.021411 0.071603
#
#
# Mechanical properties :
#
#
# Convention : Reuss Voigt Hill
#
# Bulk Modulus (GPa) = 56.23357 72.66319 64.44838
# Shear Modulus (GPa) = 20.65760 29.32656 24.99208
#
# Velocity S-wave (km/s) = 3.20623 3.82019 3.52660
# Velocity P-wave (km/s) = 6.45680 7.45775 6.97525
#
# Compressibility (1/GPa) = 0.01778297
#
# Stress axis : x y z
#
# Youngs Moduli (GPa) = 44.72990 56.32892 89.24410
#
# Poissons Ratio (x) = 0.50848 0.41876
# Poissons Ratio (y) = 0.40378 0.27188
# Poissons Ratio (z) = 0.20989 0.17160
#
# Static dielectric constant tensor:
#      x y z
#    x 4.007880 0.426090 -0.131710 
#    y 0.426090 4.180560 -0.041720 
#    z -0.131710 -0.041720 4.028630 
# 
# 
# High freq. dielectric constant tensor:
#      x y z
#    x 1.794680 0.022680 0.009510 
#    y 0.022680 1.776990 0.003000 
#    z 0.009510 0.003000 1.785350 
# 
# From -- ./inp_files/274425.got.cif
#   From: 2010.06.25/outbox.cif.g09.slc.cpg/sg2_138_cif.got.tgz:274425.got - 2010.06.27 13:26:56.
