data_PCOD8013125
_publ_section_title
;
Structure prediction by ZEFSAII (Michael W. Deem and Ramdas Pophale) SiO2 
 PCOD8013125
Probable space group: P -1
;
_chemical_formula_sum "Si O2"
_cell_formula_units_Z 16
_cell_length_a 15.159863
_cell_length_b 7.816495
_cell_length_c 9.887163
_cell_angle_alpha 94.802511
_cell_angle_beta 43.929086
_cell_angle_gamma 109.355622
_cell_volume 745.072446
_symmetry_space_group_name_H-M "P -1"
_symmetry_group_IT_number 2
_symmetry_cell_setting 'triclinic'
loop_
_space_group_symop_operation_xyz
x,y,z
-x,-y,-z
loop_
_atom_site_type_symbol
_atom_site_label
_atom_site_fract_x
_atom_site_fract_y
_atom_site_fract_z
Si Si1 0.087123 0.785511 0.472377
Si Si2 0.689943 0.368019 0.072576
Si Si3 0.607514 0.432111 0.444839
Si Si4 0.010894 0.563780 0.286251
Si Si5 0.368539 0.988269 0.065204
Si Si6 0.931282 0.876003 0.879930
Si Si7 0.373427 0.283578 0.880557
Si Si8 0.096728 0.287450 0.823973
O O1 0.034142 0.738929 0.372269
O O2 0.102501 0.613105 0.524802
O O3 0.982056 0.850320 0.673451
O O4 0.242135 0.937646 0.306028
O O5 0.660932 0.331060 0.262729
O O6 0.647414 0.165840 0.041443
O O7 0.620149 0.504342 0.095704
O O8 0.852303 0.480944 0.875918
O O9 0.500000 0.500000 0.500000
O O10 0.513897 0.289723 0.652026
O O11 0.737557 0.607748 0.372993
O O12 0.970745 0.594883 0.180368
O O13 0.381221 0.187084 0.006016
O O14 0.500000 0.000000 0.000000
O O15 0.769223 0.845305 0.048582
O O16 0.941281 0.730554 0.974552
O O17 0.036649 0.080064 0.818509
#
# Coordination Sequence:
#
# PCOD8013125 Si02
#       8
#     2   2   2   2   2   2   2   2
#     4  10  22  42  62  88 135 170 215 264 339 385
#     4  10  21  45  68  91 134 173 211 272 343 385
#     4  10  21  41  66  95 131 177 213 261 345 403
#     4  10  21  40  65  95 123 171 222 269 320 398
#     4  11  27  44  61 101 131 169 233 268 310 412
#     4  11  22  42  65 101 131 170 220 282 327 386
#     4  11  23  45  68  92 137 177 212 271 340 391
#     4  11  23  38  68 101 133 161 232 280 317 391
#
# _framework density 21.474423000000002
#
# number of rings (size 3 to 8) (size 9 to 14) (size 15 to 20)
#    0.000    1.500    3.750    1.500    1.750    7.000 
#    0.000    0.000    0.000    0.000    0.000    0.000 
#    0.000    0.000    0.000    0.000    0.000    0.000 
#
# Total GULP energy -198222.580878 kJ/mol
# GULP energy per Si atom -12388.911305 kJ/mol
# Density = 2.142555 g / cm^3
# Si number density = 21.474423 Si / 1000 Ang^3
#
#
#
# Elastic Constant Matrix: (Units=GPa)
#
#
# Indices 1 2 3 4 5 6 
#
# 1 93.5289 12.5767 34.7706 -16.3045 3.9511 -11.9495
# 2 12.5767 59.9453 32.6354 -4.6414 -8.1544 -2.4973
# 3 34.7706 32.6354 159.6762 -11.4887 -8.7088 2.8342
# 4 -16.3045 -4.6414 -11.4887 36.5304 3.9721 3.7465
# 5 3.9511 -8.1544 -8.7088 3.9721 30.8674 -11.9855
# 6 -11.9495 -2.4973 2.8342 3.7465 -11.9855 34.2291
#
#
#
# Elastic Compliance Matrix: (Units=1/GPa)
#
#
# Indices 1 2 3 4 5 6 
#
# 1 0.013120 -0.001171 -0.002441 0.004792 -0.001937 0.003494
# 2 -0.001171 0.019757 -0.003539 -0.000082 0.005671 0.003320
# 3 -0.002441 -0.003539 0.007657 0.000942 0.000809 -0.001564
# 4 0.004792 -0.000082 0.000942 0.030824 -0.005820 -0.003823
# 5 -0.001937 0.005671 0.000809 -0.005820 0.040785 0.014589
# 6 0.003494 0.003320 -0.001564 -0.003823 0.014589 0.036333
#
#
# Mechanical properties :
#
#
# Convention : Reuss Voigt Hill
#
# Bulk Modulus (GPa) = 38.11805 52.56843 45.34324
# Shear Modulus (GPa) = 29.15083 35.86988 32.51035
#
# Velocity S-wave (km/s) = 3.68838 4.09143 3.89512
# Velocity P-wave (km/s) = 5.99398 6.84488 6.43352
#
# Compressibility (1/GPa) = 0.02623429
#
# Stress axis : x y z
#
# Youngs Moduli (GPa) = 76.21780 50.61389 130.59858
#
# Poissons Ratio (x) = 0.05926 0.31874
# Poissons Ratio (y) = 0.08924 0.46215
# Poissons Ratio (z) = 0.18602 0.17911
#
# Static dielectric constant tensor:
#      x y z
#    x 3.922770 0.300630 -0.139600 
#    y 0.300630 3.980320 -0.336160 
#    z -0.139600 -0.336160 5.682270 
# 
# 
# High freq. dielectric constant tensor:
#      x y z
#    x 1.827330 0.004990 0.003540 
#    y 0.004990 1.832520 -0.015120 
#    z 0.003540 -0.015120 1.859440 
# 
# From -- ./inp_files/295420.got.cif
#   From: 2010.06.25/outbox.cif.g09.slc.cpg/sg2_148_cif.got.tgz:295420.got - 2010.06.27 13:26:56.
