data_PCOD8013706
_publ_section_title
;
Structure prediction by ZEFSAII (Michael W. Deem and Ramdas Pophale) SiO2 
 PCOD8013706
Probable space group: P -1
;
_chemical_formula_sum "Si O2"
_cell_formula_units_Z 16
_cell_length_a 9.531250
_cell_length_b 8.945392
_cell_length_c 14.292341
_cell_angle_alpha 40.845980
_cell_angle_beta 113.018777
_cell_angle_gamma 103.289094
_cell_volume 729.109923
_symmetry_space_group_name_H-M "P -1"
_symmetry_group_IT_number 2
_symmetry_cell_setting 'triclinic'
loop_
_space_group_symop_operation_xyz
x,y,z
-x,-y,-z
loop_
_atom_site_type_symbol
_atom_site_label
_atom_site_fract_x
_atom_site_fract_y
_atom_site_fract_z
Si Si1 0.486856 0.521537 0.620293
Si Si2 0.895794 0.005087 0.378492
Si Si3 0.579349 0.788584 0.677366
Si Si4 0.082051 0.243213 0.162270
Si Si5 0.856278 0.033409 0.881898
Si Si6 0.249828 0.463775 0.446060
Si Si7 0.576024 0.248366 0.161278
Si Si8 0.448507 0.991024 0.096690
O O1 0.502486 0.578631 0.707603
O O2 0.313321 0.556998 0.518026
O O3 0.606787 0.647748 0.528387
O O4 0.542690 0.260223 0.742106
O O5 0.854041 0.745805 0.469255
O O6 0.750883 0.199936 0.265657
O O7 0.000000 0.000000 0.500000
O O8 0.978974 0.090320 0.268680
O O9 0.763262 0.742824 0.742877
O O10 0.534351 0.838325 0.748437
O O11 0.500000 0.000000 0.500000
O O12 0.119278 0.112294 0.137321
O O13 0.000000 0.500000 0.000000
O O14 0.838242 0.308719 0.729878
O O15 0.725745 0.919758 0.962546
O O16 0.000000 0.000000 0.000000
O O17 0.573023 0.115379 0.126286
O O18 0.500000 0.500000 0.000000
O O19 0.500000 0.000000 0.000000
#
# Coordination Sequence:
#
# PCOD8013706 Si02
#       8
#     2   2   2   2   2   2   2   2
#     4  10  21  40  73  99 135 184 238 299 362 413
#     4  12  27  45  74 109 148 197 243 303 375 435
#     4  12  24  44  74 103 136 190 247 294 361 436
#     4  12  28  48  71 109 155 195 237 302 379 443
#     4  11  27  44  72 105 144 192 239 299 371 442
#     4  10  22  44  70 102 142 186 247 299 352 442
#     4  12  25  45  69 107 144 183 248 307 354 437
#     4  11  24  44  71 102 138 186 243 299 363 429
#
# _framework density 21.944565000000001
#
# number of rings (size 3 to 8) (size 9 to 14) (size 15 to 20)
#    0.000    0.750    2.500    4.500    8.750    0.500 
#    0.000    1.250    0.000    0.000    0.000    0.000 
#    0.000    0.000    0.000    0.000    0.000    0.000 
#
# Total GULP energy -198235.315799 kJ/mol
# GULP energy per Si atom -12389.707237 kJ/mol
# Density = 2.189462 g / cm^3
# Si number density = 21.944565 Si / 1000 Ang^3
#
#
#
# Elastic Constant Matrix: (Units=GPa)
#
#
# Indices 1 2 3 4 5 6 
#
# 1 140.4721 51.4122 73.7437 7.6079 -4.6155 3.5946
# 2 51.4122 148.3080 62.9110 9.9700 1.8426 7.3048
# 3 73.7437 62.9110 148.4225 3.9290 13.0328 9.6154
# 4 7.6079 9.9700 3.9290 36.6644 0.0077 4.6208
# 5 -4.6155 1.8426 13.0328 0.0077 50.3770 11.2235
# 6 3.5946 7.3048 9.6154 4.6208 11.2235 39.7610
#
#
#
# Elastic Compliance Matrix: (Units=1/GPa)
#
#
# Indices 1 2 3 4 5 6 
#
# 1 0.010230 -0.001546 -0.004587 -0.001210 0.002182 -0.000007
# 2 -0.001546 0.008620 -0.002835 -0.001632 0.000431 -0.000690
# 3 -0.004587 -0.002835 0.010506 0.000709 -0.002837 -0.000887
# 4 -0.001210 -0.001632 0.000709 0.028295 0.000470 -0.003183
# 5 0.002182 0.000431 -0.002837 0.000470 0.022078 -0.005877
# 6 -0.000007 -0.000690 -0.000887 -0.003183 -0.005877 0.027521
#
#
# Mechanical properties :
#
#
# Convention : Reuss Voigt Hill
#
# Bulk Modulus (GPa) = 87.56787 90.37069 88.96928
# Shear Modulus (GPa) = 38.76229 41.96953 40.36591
#
# Velocity S-wave (km/s) = 4.20738 4.37799 4.29353
# Velocity P-wave (km/s) = 7.97455 8.17474 8.07527
#
# Compressibility (1/GPa) = 0.01141971
#
# Stress axis : x y z
#
# Youngs Moduli (GPa) = 97.75230 116.01195 95.18460
#
# Poissons Ratio (x) = 0.17937 0.43656
# Poissons Ratio (y) = 0.15114 0.26988
# Poissons Ratio (z) = 0.44834 0.32893
#
# Static dielectric constant tensor:
#      x y z
#    x 4.104050 -0.112120 0.239390 
#    y -0.112120 4.186310 -0.297620 
#    z 0.239390 -0.297620 4.324660 
# 
# 
# High freq. dielectric constant tensor:
#      x y z
#    x 1.858020 0.002760 0.004820 
#    y 0.002760 1.873860 0.005260 
#    z 0.004820 0.005260 1.880470 
# 
# From -- ./inp_files/494324.got.cif
#   From: 2010.06.25/outbox.cif.g09.slc.cpg/sg2_248_cif.got.tgz:494324.got - 2010.06.27 13:26:56.
