data_PCOD8013200
_publ_section_title
;
Structure prediction by ZEFSAII (Michael W. Deem and Ramdas Pophale) SiO2 
 PCOD8013200
Probable space group: P -1
;
_chemical_formula_sum "Si O2"
_cell_formula_units_Z 14
_cell_length_a 11.305845
_cell_length_b 8.997912
_cell_length_c 11.984613
_cell_angle_alpha 43.452516
_cell_angle_beta 92.922230
_cell_angle_gamma 118.739885
_cell_volume 639.105809
_symmetry_space_group_name_H-M "P -1"
_symmetry_group_IT_number 2
_symmetry_cell_setting 'triclinic'
loop_
_space_group_symop_operation_xyz
x,y,z
-x,-y,-z
loop_
_atom_site_type_symbol
_atom_site_label
_atom_site_fract_x
_atom_site_fract_y
_atom_site_fract_z
Si Si1 0.569602 0.465983 0.347068
Si Si2 0.657634 0.897073 0.283798
Si Si3 0.187678 0.468750 0.036114
Si Si4 0.696534 0.765685 0.704609
Si Si5 0.048954 0.652362 0.535766
Si Si6 0.119040 0.331256 0.848675
Si Si7 0.111367 0.094958 0.578387
O O1 0.596300 0.742326 0.244803
O O2 0.480837 0.219459 0.571323
O O3 0.467556 0.364725 0.284783
O O4 0.726413 0.527748 0.291893
O O5 0.752363 0.801572 0.385424
O O6 0.764304 0.231818 0.095016
O O7 0.321976 0.465815 0.090495
O O8 0.163079 0.401674 0.941108
O O9 0.030457 0.231905 0.222966
O O10 0.831653 0.884803 0.554508
O O11 0.772691 0.049889 0.625339
O O12 0.038606 0.458093 0.736800
O O13 0.000000 0.500000 0.500000
O O14 0.926457 0.698089 0.527284
O O15 0.000000 0.000000 0.000000
#
# Coordination Sequence:
#
# PCOD8013200 Si02
#       7
#     2   2   2   2   2   2   2
#     4  10  23  42  60  87 126 163 204 252 315 370
#     4  10  21  40  66  90 119 162 208 257 302 361
#     4  11  22  37  62  95 124 159 207 255 303 363
#     4  10  23  42  63  90 126 166 203 254 311 361
#     4  11  22  39  63  90 124 163 200 248 307 365
#     4  12  25  41  63  92 124 162 208 257 309 369
#     4  10  21  41  64  91 125 159 206 254 307 364
#
# _framework density 21.905605999999999
#
# number of rings (size 3 to 8) (size 9 to 14) (size 15 to 20)
#    0.000    1.429    0.000    7.286    0.000    6.857 
#    0.000    5.714    0.000    0.000    0.000    0.000 
#    0.000    0.000    0.000    0.000    0.000    0.000 
#
# Total GULP energy -173588.090564 kJ/mol
# GULP energy per Si atom -12399.149326 kJ/mol
# Density = 2.185575 g / cm^3
# Si number density = 21.905606 Si / 1000 Ang^3
#
#
#
# Elastic Constant Matrix: (Units=GPa)
#
#
# Indices 1 2 3 4 5 6 
#
# 1 102.2700 31.6489 57.9867 -12.0875 -0.3154 1.8766
# 2 31.6489 132.2903 38.4639 -13.4126 12.5815 17.7632
# 3 57.9867 38.4639 116.2052 -10.5988 19.4127 -1.6854
# 4 -12.0875 -13.4126 -10.5988 36.6516 -0.8678 7.4355
# 5 -0.3154 12.5815 19.4127 -0.8678 35.5447 -1.0922
# 6 1.8766 17.7632 -1.6854 7.4355 -1.0922 23.6087
#
#
#
# Elastic Compliance Matrix: (Units=1/GPa)
#
#
# Indices 1 2 3 4 5 6 
#
# 1 0.014803 -0.001379 -0.007506 0.002576 0.004743 -0.001267
# 2 -0.001379 0.010500 -0.002033 0.004668 -0.002798 -0.009535
# 3 -0.007506 -0.002033 0.014257 0.000176 -0.007044 0.002762
# 4 0.002576 0.004668 0.000176 0.032715 -0.001359 -0.014071
# 5 0.004743 -0.002798 -0.007044 -0.001359 0.033078 0.003183
# 6 -0.001267 -0.009535 0.002762 -0.014071 0.003183 0.054408
#
#
# Mechanical properties :
#
#
# Convention : Reuss Voigt Hill
#
# Bulk Modulus (GPa) = 56.41887 67.44050 61.92968
# Shear Modulus (GPa) = 26.66616 34.00540 30.33578
#
# Velocity S-wave (km/s) = 3.49280 3.94428 3.72538
# Velocity P-wave (km/s) = 6.48672 7.18309 6.84377
#
# Compressibility (1/GPa) = 0.01772457
#
# Stress axis : x y z
#
# Youngs Moduli (GPa) = 67.55391 95.24155 70.14232
#
# Poissons Ratio (x) = 0.13132 0.52649
# Poissons Ratio (y) = 0.09314 0.14257
# Poissons Ratio (z) = 0.50707 0.19358
#
# Static dielectric constant tensor:
#      x y z
#    x 3.977900 0.301110 0.085630 
#    y 0.301110 4.022440 0.187660 
#    z 0.085630 0.187660 3.915470 
# 
# 
# High freq. dielectric constant tensor:
#      x y z
#    x 1.857000 0.013880 0.007910 
#    y 0.013880 1.880280 0.001390 
#    z 0.007910 0.001390 1.854890 
# 
# From -- ./inp_files/416124.got.cif
#   From: 2010.06.25/outbox.cif.g09.slc.cpg/sg2_209_cif.got.tgz:416124.got - 2010.06.27 13:26:56.
