data_PCOD8013491
_publ_section_title
;
Structure prediction by ZEFSAII (Michael W. Deem and Ramdas Pophale) SiO2 
 PCOD8013491
Probable space group: P -1
;
_chemical_formula_sum "Si O2"
_cell_formula_units_Z 16
_cell_length_a 28.083413
_cell_length_b 9.825054
_cell_length_c 8.838752
_cell_angle_alpha 112.893252
_cell_angle_beta 39.404832
_cell_angle_gamma 142.218953
_cell_volume 779.293133
_symmetry_space_group_name_H-M "P -1"
_symmetry_group_IT_number 2
_symmetry_cell_setting 'triclinic'
loop_
_space_group_symop_operation_xyz
x,y,z
-x,-y,-z
loop_
_atom_site_type_symbol
_atom_site_label
_atom_site_fract_x
_atom_site_fract_y
_atom_site_fract_z
Si Si1 0.077891 0.995295 0.231202
Si Si2 0.122203 0.210037 0.906773
Si Si3 0.664989 0.907703 0.673482
Si Si4 0.335653 0.363563 0.942040
Si Si5 0.644618 0.562578 0.731537
Si Si6 0.866916 0.436209 0.917913
Si Si7 0.635838 0.892339 0.393802
Si Si8 0.916742 0.432290 0.461516
O O1 0.093778 0.042583 0.033588
O O2 0.226169 0.253676 0.053539
O O3 0.000000 0.000000 0.500000
O O4 0.009470 0.724434 0.313570
O O5 0.269060 0.422831 0.557826
O O6 0.115388 0.361163 0.059451
O O7 0.000000 0.000000 0.000000
O O8 0.671069 0.757619 0.665184
O O9 0.684340 0.918459 0.451363
O O10 0.789935 0.211905 0.561693
O O11 0.518253 0.744070 0.999941
O O12 0.478010 0.682291 0.695614
O O13 0.347611 0.209078 0.814408
O O14 0.294906 0.319177 0.197261
O O15 0.855829 0.347665 0.741526
O O16 0.989771 0.561650 0.766321
O O17 0.725422 0.178069 0.243540
#
# Coordination Sequence:
#
# PCOD8013491 Si02
#       8
#     2   2   2   2   2   2   2   2
#     4  12  24  43  64  96 128 169 214 256 322 380
#     4  12  26  42  64  96 133 169 208 265 323 377
#     4  10  22  40  67  97 126 170 214 263 313 378
#     4  10  21  42  67  91 126 168 211 262 316 377
#     4  10  22  42  65  94 132 169 212 260 322 376
#     4  11  24  42  63  96 127 168 214 262 322 371
#     4  10  21  40  68  95 121 163 219 265 309 375
#     4  11  24  42  67  94 129 167 213 264 314 383
#
# _framework density 20.531427000000001
#
# number of rings (size 3 to 8) (size 9 to 14) (size 15 to 20)
#    0.000    1.250    2.500    3.000    3.500    3.500 
#    2.250    2.500    0.000    0.000    0.000    0.000 
#    0.000    0.000    0.000    0.000    0.000    0.000 
#
# Total GULP energy -198435.966918 kJ/mol
# GULP energy per Si atom -12402.247932 kJ/mol
# Density = 2.048470 g / cm^3
# Si number density = 20.531427 Si / 1000 Ang^3
#
#
#
# Elastic Constant Matrix: (Units=GPa)
#
#
# Indices 1 2 3 4 5 6 
#
# 1 130.0722 36.3880 54.8496 -14.6400 1.5632 15.1223
# 2 36.3880 66.8545 40.9700 -6.5246 -7.5290 9.4447
# 3 54.8496 40.9700 113.5919 -5.2011 1.2690 4.8767
# 4 -14.6400 -6.5246 -5.2011 35.8652 -1.2285 -4.9783
# 5 1.5632 -7.5290 1.2690 -1.2285 39.7533 -3.2867
# 6 15.1223 9.4447 4.8767 -4.9783 -3.2867 39.1615
#
#
#
# Elastic Compliance Matrix: (Units=1/GPa)
#
#
# Indices 1 2 3 4 5 6 
#
# 1 0.010806 -0.002941 -0.003898 0.002903 -0.000990 -0.002692
# 2 -0.002941 0.021317 -0.006128 0.001558 0.004174 -0.002694
# 3 -0.003898 -0.006128 0.012827 -0.000728 -0.001342 0.001181
# 4 0.002903 0.001558 -0.000728 0.029634 0.001324 0.002472
# 5 -0.000990 0.004174 -0.001342 0.001324 0.026226 0.001912
# 6 -0.002692 -0.002694 0.001181 0.002472 0.001912 0.027552
#
#
# Mechanical properties :
#
#
# Convention : Reuss Voigt Hill
#
# Bulk Modulus (GPa) = 52.58640 63.88153 58.23396
# Shear Modulus (GPa) = 31.12682 34.84340 32.98511
#
# Velocity S-wave (km/s) = 3.89788 4.12403 4.01255
# Velocity P-wave (km/s) = 6.77689 7.33883 7.06345
#
# Compressibility (1/GPa) = 0.01901632
#
# Stress axis : x y z
#
# Youngs Moduli (GPa) = 92.54158 46.91181 77.96278
#
# Poissons Ratio (x) = 0.13796 0.30386
# Poissons Ratio (y) = 0.27216 0.47775
# Poissons Ratio (z) = 0.36068 0.28747
#
# Static dielectric constant tensor:
#      x y z
#    x 3.763900 0.175270 0.039010 
#    y 0.175270 3.444190 0.005370 
#    z 0.039010 0.005370 3.904550 
# 
# 
# High freq. dielectric constant tensor:
#      x y z
#    x 1.809180 0.012710 0.005010 
#    y 0.012710 1.786020 -0.005510 
#    z 0.005010 -0.005510 1.821200 
# 
# From -- ./inp_files/205422.got.cif
#   From: 2010.06.25/outbox.cif.g09.slc.cpg/sg2_103_cif.got.tgz:205422.got - 2010.06.27 13:26:56.
