data_PCOD8013089
_publ_section_title
;
Structure prediction by ZEFSAII (Michael W. Deem and Ramdas Pophale) SiO2 
 PCOD8013089
Probable space group: P -1
;
_chemical_formula_sum "Si O2"
_cell_formula_units_Z 14
_cell_length_a 20.582066
_cell_length_b 8.173255
_cell_length_c 8.958281
_cell_angle_alpha 101.712190
_cell_angle_beta 141.230065
_cell_angle_gamma 51.514828
_cell_volume 603.971136
_symmetry_space_group_name_H-M "P -1"
_symmetry_group_IT_number 2
_symmetry_cell_setting 'triclinic'
loop_
_space_group_symop_operation_xyz
x,y,z
-x,-y,-z
loop_
_atom_site_type_symbol
_atom_site_label
_atom_site_fract_x
_atom_site_fract_y
_atom_site_fract_z
Si Si1 0.939486 0.302734 0.273269
Si Si2 0.084335 0.981830 0.006073
Si Si3 0.526528 0.775524 0.956870
Si Si4 0.258998 0.071313 0.722345
Si Si5 0.666470 0.880961 0.820793
Si Si6 0.136249 0.555493 0.496715
Si Si7 0.607845 0.232144 0.559847
O O1 0.938495 0.323677 0.452165
O O2 0.121951 0.107178 0.516259
O O3 0.897605 0.167240 0.126845
O O4 0.817701 0.573437 0.017682
O O5 0.980572 0.263335 0.814716
O O6 0.261639 0.835339 0.324971
O O7 0.000000 0.000000 0.000000
O O8 0.495951 0.767945 0.726956
O O9 0.407334 0.807853 0.850204
O O10 0.710935 0.509573 0.263868
O O11 0.500000 0.000000 0.000000
O O12 0.182764 0.305116 0.521371
O O13 0.338615 0.060343 0.005813
O O14 0.500000 0.000000 0.500000
O O15 0.696418 0.009566 0.799794
O O16 0.500000 0.500000 0.500000
#
# Coordination Sequence:
#
# PCOD8013089 Si02
#       7
#     2   2   2   2   2   2   2
#     4  11  22  41  64  90 125 173 220 260 319 396
#     4  12  26  41  60  95 134 170 213 273 328 377
#     4  10  22  41  65  93 127 169 213 260 321 388
#     4  10  21  40  65  93 122 168 220 266 320 389
#     4  11  22  40  68  99 127 167 222 275 322 388
#     4  10  21  41  64  89 124 169 216 266 321 386
#     4  12  25  44  67  99 135 172 215 272 331 384
#
# _framework density 23.179915000000001
#
# number of rings (size 3 to 8) (size 9 to 14) (size 15 to 20)
#    0.000    1.143    0.000    9.000    0.000    5.714 
#    0.000    7.143    0.000    0.000    0.000    0.000 
#    0.000    0.000    0.000    0.000    0.000    0.000 
#
# Total GULP energy -173530.085065 kJ/mol
# GULP energy per Si atom -12395.006076 kJ/mol
# Density = 2.312716 g / cm^3
# Si number density = 23.179915 Si / 1000 Ang^3
#
#
#
# Elastic Constant Matrix: (Units=GPa)
#
#
# Indices 1 2 3 4 5 6 
#
# 1 111.8465 15.5526 34.3993 -22.4343 22.0131 -6.4176
# 2 15.5526 60.2551 20.5123 9.8412 -2.9919 0.7910
# 3 34.3993 20.5123 110.8164 1.1914 13.4556 -0.1076
# 4 -22.4343 9.8412 1.1914 32.1283 -2.7837 5.3276
# 5 22.0131 -2.9919 13.4556 -2.7837 45.8601 -8.9199
# 6 -6.4176 0.7910 -0.1076 5.3276 -8.9199 28.8113
#
#
#
# Elastic Compliance Matrix: (Units=1/GPa)
#
#
# Indices 1 2 3 4 5 6 
#
# 1 0.013622 -0.004549 -0.002839 0.010621 -0.005456 -0.000505
# 2 -0.004549 0.020391 -0.002751 -0.009197 0.004028 0.001365
# 3 -0.002839 -0.002751 0.010701 -0.001578 -0.002231 -0.000916
# 4 0.010621 -0.009197 -0.001578 0.042138 -0.003921 -0.006393
# 5 -0.005456 0.004028 -0.002231 -0.003921 0.026586 0.007622
# 6 -0.000505 0.001365 -0.000916 -0.006393 0.007622 0.038097
#
#
# Mechanical properties :
#
#
# Convention : Reuss Voigt Hill
#
# Bulk Modulus (GPa) = 40.92187 47.09406 44.00797
# Shear Modulus (GPa) = 27.78434 35.52353 31.65393
#
# Velocity S-wave (km/s) = 3.46589 3.91898 3.69938
# Velocity P-wave (km/s) = 5.80594 6.39052 6.10523
#
# Compressibility (1/GPa) = 0.02443681
#
# Stress axis : x y z
#
# Youngs Moduli (GPa) = 73.41300 49.04126 93.44656
#
# Poissons Ratio (x) = 0.22306 0.26526
# Poissons Ratio (y) = 0.33392 0.25711
# Poissons Ratio (z) = 0.20839 0.13493
#
# Static dielectric constant tensor:
#      x y z
#    x 4.431670 -0.176860 0.278930 
#    y -0.176860 4.174750 -0.138660 
#    z 0.278930 -0.138660 4.333040 
# 
# 
# High freq. dielectric constant tensor:
#      x y z
#    x 1.921790 -0.009990 0.019980 
#    y -0.009990 1.902800 0.001690 
#    z 0.019980 0.001690 1.925940 
# 
# From -- ./inp_files/242817.got.cif
#   From: 2010.06.25/outbox.cif.g09.slc.cpg/sg2_122_cif.got.tgz:242817.got - 2010.06.27 13:26:56.
