data_PCOD8013860
_publ_section_title
;
Structure prediction by ZEFSAII (Michael W. Deem and Ramdas Pophale) SiO2 
 PCOD8013860
Probable space group: P -1
;
_chemical_formula_sum "Si O2"
_cell_formula_units_Z 16
_cell_length_a 13.134722
_cell_length_b 9.449512
_cell_length_c 22.095490
_cell_angle_alpha 63.271848
_cell_angle_beta 37.317629
_cell_angle_gamma 34.339063
_cell_volume 746.656622
_symmetry_space_group_name_H-M "P -1"
_symmetry_group_IT_number 2
_symmetry_cell_setting 'triclinic'
loop_
_space_group_symop_operation_xyz
x,y,z
-x,-y,-z
loop_
_atom_site_type_symbol
_atom_site_label
_atom_site_fract_x
_atom_site_fract_y
_atom_site_fract_z
Si Si1 0.845809 0.965193 0.777359
Si Si2 0.298759 0.341180 0.743894
Si Si3 0.669267 0.694490 0.959515
Si Si4 0.912347 0.255744 0.694029
Si Si5 0.994687 0.757123 0.208597
Si Si6 0.723134 0.591170 0.124674
Si Si7 0.695736 0.852996 0.555485
Si Si8 0.183699 0.835038 0.881710
O O1 0.115887 0.616086 0.734357
O O2 0.025289 0.984623 0.675494
O O3 0.625870 0.073429 0.805680
O O4 0.569219 0.237218 0.908026
O O5 0.381002 0.348501 0.767934
O O6 0.048895 0.394514 0.863513
O O7 0.625407 0.020479 0.615256
O O8 0.724392 0.596637 0.882343
O O9 0.500000 0.000000 0.000000
O O10 0.566315 0.575752 0.761719
O O11 0.883351 0.298198 0.771754
O O12 0.201373 0.130559 0.555023
O O13 0.629006 0.979121 0.342766
O O14 0.981227 0.919852 0.139043
O O15 0.852099 0.317113 0.093362
O O16 0.000000 0.500000 0.000000
O O17 0.000000 0.500000 0.500000
O O18 0.000000 0.000000 0.000000
#
# Coordination Sequence:
#
# PCOD8013860 Si02
#       8
#     2   2   2   2   2   2   2   2
#     4  10  21  41  62  96 133 160 218 273 329 396
#     4  10  22  41  63  92 128 172 217 275 327 386
#     4   9  19  37  60  94 133 161 208 271 321 397
#     4  11  24  42  67  92 131 176 223 280 324 390
#     4  11  22  43  68  94 130 181 223 264 342 395
#     4  11  22  38  66  99 132 176 215 257 337 409
#     4  11  24  47  66  90 134 174 231 285 323 391
#     4  11  25  41  66 105 141 169 215 276 337 400
#
# _framework density 21.428861000000001
#
# number of rings (size 3 to 8) (size 9 to 14) (size 15 to 20)
#    0.000    1.500    2.500    2.625    1.750    4.500 
#   11.250    2.500    0.000    0.000    0.000    0.000 
#    0.000    0.000    0.000    0.000    0.000    0.000 
#
# Total GULP energy -198258.189115 kJ/mol
# GULP energy per Si atom -12391.136820 kJ/mol
# Density = 2.138009 g / cm^3
# Si number density = 21.428861 Si / 1000 Ang^3
#
#
#
# Elastic Constant Matrix: (Units=GPa)
#
#
# Indices 1 2 3 4 5 6 
#
# 1 139.0766 59.0392 37.3027 0.4319 22.2666 -0.7423
# 2 59.0392 122.1403 53.6618 2.9798 14.1736 1.8858
# 3 37.3027 53.6618 94.3251 -4.3265 11.8026 7.5147
# 4 0.4319 2.9798 -4.3265 37.4784 6.4215 1.7031
# 5 22.2666 14.1736 11.8026 6.4215 37.4907 -3.4859
# 6 -0.7423 1.8858 7.5147 1.7031 -3.4859 31.0750
#
#
#
# Elastic Compliance Matrix: (Units=1/GPa)
#
#
# Indices 1 2 3 4 5 6 
#
# 1 0.009754 -0.003729 -0.001208 0.000737 -0.004106 0.000251
# 2 -0.003729 0.012597 -0.005759 -0.001580 -0.000410 0.000580
# 3 -0.001208 -0.005759 0.015128 0.002855 -0.002710 -0.003798
# 4 0.000737 -0.001580 0.002855 0.028255 -0.005837 -0.002780
# 5 -0.004106 -0.000410 -0.002710 -0.005837 0.031533 0.004439
# 6 0.000251 0.000580 -0.003798 -0.002780 0.004439 0.033720
#
#
# Mechanical properties :
#
#
# Convention : Reuss Voigt Hill
#
# Bulk Modulus (GPa) = 62.16436 72.83883 67.50159
# Shear Modulus (GPa) = 31.69716 34.91139 33.30427
#
# Velocity S-wave (km/s) = 3.85018 4.04068 3.94658
# Velocity P-wave (km/s) = 6.98841 7.47223 7.23437
#
# Compressibility (1/GPa) = 0.01608639
#
# Stress axis : x y z
#
# Youngs Moduli (GPa) = 102.52367 79.38139 66.10044
#
# Poissons Ratio (x) = 0.29604 0.07986
# Poissons Ratio (y) = 0.38235 0.38068
# Poissons Ratio (z) = 0.12386 0.45717
#
# Static dielectric constant tensor:
#      x y z
#    x 4.033530 0.056200 0.012270 
#    y 0.056200 3.893670 -0.180550 
#    z 0.012270 -0.180550 4.263160 
# 
# 
# High freq. dielectric constant tensor:
#      x y z
#    x 1.844140 0.005730 0.003050 
#    y 0.005730 1.841820 -0.006780 
#    z 0.003050 -0.006780 1.837470 
# 
# From -- ./inp_files/594089.got.cif
#   From: 2010.06.25/outbox.cif.g09.slc.cpg/sg2_298_cif.got.tgz:594089.got - 2010.06.27 13:26:56.
