data_PCOD8013391
_publ_section_title
;
Structure prediction by ZEFSAII (Michael W. Deem and Ramdas Pophale) SiO2 
 PCOD8013391
Probable space group: P -1
;
_chemical_formula_sum "Si O2"
_cell_formula_units_Z 14
_cell_length_a 8.350309
_cell_length_b 11.524200
_cell_length_c 8.543192
_cell_angle_alpha 47.395498
_cell_angle_beta 82.877835
_cell_angle_gamma 86.164132
_cell_volume 600.281717
_symmetry_space_group_name_H-M "P -1"
_symmetry_group_IT_number 2
_symmetry_cell_setting 'triclinic'
loop_
_space_group_symop_operation_xyz
x,y,z
-x,-y,-z
loop_
_atom_site_type_symbol
_atom_site_label
_atom_site_fract_x
_atom_site_fract_y
_atom_site_fract_z
Si Si1 0.196067 0.614423 0.811114
Si Si2 0.802504 0.869101 0.402804
Si Si3 0.127321 0.271211 0.157966
Si Si4 0.294724 0.871800 0.015736
Si Si5 0.931715 0.347610 0.558770
Si Si6 0.344499 0.091163 0.082623
Si Si7 0.455158 0.860227 0.513508
O O1 0.142740 0.608718 0.640187
O O2 0.361182 0.711312 0.736282
O O3 0.061422 0.692146 0.867631
O O4 0.221959 0.436980 0.031068
O O5 0.849641 0.855690 0.591527
O O6 0.619650 0.798122 0.472725
O O7 0.924744 0.774585 0.366441
O O8 0.801336 0.057748 0.187405
O O9 0.200866 0.203021 0.051694
O O10 0.204420 0.728119 0.242207
O O11 0.307456 0.035788 0.963108
O O12 0.478645 0.821999 0.999216
O O13 0.000000 0.500000 0.500000
O O14 0.338515 0.930051 0.331828
O O15 0.500000 0.000000 0.500000
#
# Coordination Sequence:
#
# PCOD8013391 Si02
#       7
#     2   2   2   2   2   2   2
#     4  10  24  43  64  91 137 164 213 264 312 387
#     4  10  23  41  65  97 124 162 221 262 312 380
#     4  10  22  44  64  96 126 172 208 263 325 370
#     4  10  22  41  66  95 128 164 213 268 308 385
#     4  11  24  44  63  94 130 173 211 257 320 382
#     4  10  21  40  67  95 125 166 215 259 323 372
#     4  11  21  41  65  96 124 165 210 265 317 370
#
# _framework density 23.322384
#
# number of rings (size 3 to 8) (size 9 to 14) (size 15 to 20)
#    0.000    1.714    2.857    0.429    2.000    3.429 
#   15.429    1.429    0.000    0.000    0.000    0.000 
#    0.000    0.000    0.000    0.000    0.000    0.000 
#
# Total GULP energy -173532.387185 kJ/mol
# GULP energy per Si atom -12395.170513 kJ/mol
# Density = 2.326930 g / cm^3
# Si number density = 23.322384 Si / 1000 Ang^3
#
#
#
# Elastic Constant Matrix: (Units=GPa)
#
#
# Indices 1 2 3 4 5 6 
#
# 1 50.7686 18.9931 17.5171 -1.6432 -24.7140 -8.1680
# 2 18.9931 68.8656 5.9845 8.7108 -9.8758 -5.5844
# 3 17.5171 5.9845 89.7583 4.7713 -20.1686 1.7649
# 4 -1.6432 8.7108 4.7713 17.2282 -0.3921 -8.4248
# 5 -24.7140 -9.8758 -20.1686 -0.3921 46.1299 0.5993
# 6 -8.1680 -5.5844 1.7649 -8.4248 0.5993 37.7782
#
#
#
# Elastic Compliance Matrix: (Units=1/GPa)
#
#
# Indices 1 2 3 4 5 6 
#
# 1 0.032390 -0.007455 -0.003449 0.012337 0.014242 0.008587
# 2 -0.007455 0.017746 0.000891 -0.010612 0.000123 -0.001399
# 3 -0.003449 0.000891 0.012999 -0.005518 0.004012 -0.002515
# 4 0.012337 -0.010612 -0.005518 0.074991 0.002328 0.018043
# 5 0.014242 0.000123 0.004012 0.002328 0.031070 0.002936
# 6 0.008587 -0.001399 -0.002515 0.018043 0.002936 0.032215
#
#
# Mechanical properties :
#
#
# Convention : Reuss Voigt Hill
#
# Bulk Modulus (GPa) = 23.19668 32.70910 27.95289
# Shear Modulus (GPa) = 21.20372 31.35378 26.27875
#
# Velocity S-wave (km/s) = 3.01850 3.67054 3.36037
# Velocity P-wave (km/s) = 4.70278 5.65853 5.20265
#
# Compressibility (1/GPa) = 0.04310961
#
# Stress axis : x y z
#
# Youngs Moduli (GPa) = 30.87345 56.35003 76.92907
#
# Poissons Ratio (x) = 0.42010 0.26530
# Poissons Ratio (y) = 0.23017 -0.06853
# Poissons Ratio (z) = 0.10647 -0.05020
#
# Static dielectric constant tensor:
#      x y z
#    x 4.256780 -0.269020 -0.073820 
#    y -0.269020 4.017650 0.211210 
#    z -0.073820 0.211210 4.400620 
# 
# 
# High freq. dielectric constant tensor:
#      x y z
#    x 1.922670 -0.016700 -0.009970 
#    y -0.016700 1.903450 0.016370 
#    z -0.009970 0.016370 1.929630 
# 
# From -- ./inp_files/183739.got.cif
#   From: 2010.06.25/outbox.cif.g09.slc.cpg/sg2_92_cif.got.tgz:183739.got - 2010.06.27 13:26:56.
