data_PCOD8013472
_publ_section_title
;
Structure prediction by ZEFSAII (Michael W. Deem and Ramdas Pophale) SiO2 
 PCOD8013472
Probable space group: P -1
;
_chemical_formula_sum "Si O2"
_cell_formula_units_Z 16
_cell_length_a 8.890158
_cell_length_b 11.514641
_cell_length_c 20.792615
_cell_angle_alpha 157.392044
_cell_angle_beta 69.538380
_cell_angle_gamma 107.130532
_cell_volume 764.263338
_symmetry_space_group_name_H-M "P -1"
_symmetry_group_IT_number 2
_symmetry_cell_setting 'triclinic'
loop_
_space_group_symop_operation_xyz
x,y,z
-x,-y,-z
loop_
_atom_site_type_symbol
_atom_site_label
_atom_site_fract_x
_atom_site_fract_y
_atom_site_fract_z
Si Si1 0.401232 0.931524 0.188456
Si Si2 0.181747 0.441637 0.923215
Si Si3 0.997213 0.658998 0.348805
Si Si4 0.276795 0.227193 0.131557
Si Si5 0.723290 0.587691 0.447132
Si Si6 0.917677 0.289844 0.051558
Si Si7 0.250547 0.044714 0.816354
Si Si8 0.508226 0.248942 0.218498
O O1 0.345507 0.114937 0.354041
O O2 0.589033 0.816754 0.109676
O O3 0.383199 0.140626 0.234530
O O4 0.290660 0.658468 0.057475
O O5 0.190974 0.495775 0.872877
O O6 0.237117 0.106376 0.772127
O O7 0.000000 0.500000 0.000000
O O8 0.176859 0.514549 0.262118
O O9 0.896535 0.647320 0.423427
O O10 0.913420 0.466692 0.209255
O O11 0.000000 0.000000 0.500000
O O12 0.410416 0.357779 0.225056
O O13 0.162613 0.023556 0.086045
O O14 0.362039 0.030393 0.961058
O O15 0.740063 0.313079 0.355343
O O16 0.602287 0.521086 0.373019
O O17 0.099348 0.217214 0.963334
#
# Coordination Sequence:
#
# PCOD8013472 Si02
#       8
#     2   2   2   2   2   2   2   2
#     4  11  22  41  62  97 130 164 213 256 318 379
#     4  10  23  40  63  96 125 161 213 265 307 370
#     4  12  26  43  63  96 130 169 209 267 326 377
#     4  11  21  43  71  91 125 167 224 261 313 387
#     4  11  23  42  64  93 132 167 208 254 323 388
#     4  11  21  44  66  93 124 164 222 260 308 385
#     4  10  21  40  68  91 123 172 209 260 312 368
#     4  10  21  40  71  96 121 170 218 266 311 375
#
# _framework density 20.935192000000001
#
# number of rings (size 3 to 8) (size 9 to 14) (size 15 to 20)
#    0.000    1.250    3.750    3.750    3.500    0.000 
#    6.750    3.750    0.000    0.000    0.000    0.000 
#    0.000    0.000    0.000    0.000    0.000    0.000 
#
# Total GULP energy -198358.595930 kJ/mol
# GULP energy per Si atom -12397.412246 kJ/mol
# Density = 2.088754 g / cm^3
# Si number density = 20.935192 Si / 1000 Ang^3
#
#
#
# Elastic Constant Matrix: (Units=GPa)
#
#
# Indices 1 2 3 4 5 6 
#
# 1 113.2989 47.6097 48.1477 5.4018 -3.8772 -8.4723
# 2 47.6097 87.4067 33.7815 2.2324 -9.6603 -11.7137
# 3 48.1477 33.7815 67.9364 -9.0989 -5.2190 -4.8547
# 4 5.4018 2.2324 -9.0989 39.8927 -1.7502 -3.4342
# 5 -3.8772 -9.6603 -5.2190 -1.7502 16.2651 1.6106
# 6 -8.4723 -11.7137 -4.8547 -3.4342 1.6106 41.4138
#
#
#
# Elastic Compliance Matrix: (Units=1/GPa)
#
#
# Indices 1 2 3 4 5 6 
#
# 1 0.014634 -0.004746 -0.008684 -0.003773 -0.002564 0.000420
# 2 -0.004746 0.016929 -0.004393 -0.000738 0.007141 0.002963
# 3 -0.008684 -0.004393 0.024336 0.007166 0.003873 0.000277
# 4 -0.003773 -0.000738 0.007166 0.027590 0.003732 0.002002
# 5 -0.002564 0.007141 0.003873 0.003732 0.066789 -0.000339
# 6 0.000420 0.002963 0.000277 0.002002 -0.000339 0.025282
#
#
# Mechanical properties :
#
#
# Convention : Reuss Voigt Hill
#
# Bulk Modulus (GPa) = 49.37479 58.63552 54.00516
# Shear Modulus (GPa) = 22.94025 28.78785 25.86405
#
# Velocity S-wave (km/s) = 3.31384 3.71225 3.51869
# Velocity P-wave (km/s) = 6.18691 6.81493 6.50850
#
# Compressibility (1/GPa) = 0.02025325
#
# Stress axis : x y z
#
# Youngs Moduli (GPa) = 68.33212 59.07112 41.09159
#
# Poissons Ratio (x) = 0.28033 0.35685
# Poissons Ratio (y) = 0.32428 0.18052
# Poissons Ratio (z) = 0.59341 0.25951
#
# Static dielectric constant tensor:
#      x y z
#    x 4.060280 -0.167730 0.008610 
#    y -0.167730 4.214620 0.020060 
#    z 0.008610 0.020060 3.420300 
# 
# 
# High freq. dielectric constant tensor:
#      x y z
#    x 1.832280 -0.000710 0.003820 
#    y -0.000710 1.834820 -0.003140 
#    z 0.003820 -0.003140 1.784810 
# 
# From -- ./inp_files/257616.got.cif
#   From: 2010.06.25/outbox.cif.g09.slc.cpg/sg2_129_cif.got.tgz:257616.got - 2010.06.27 13:26:56.
