data_PCOD8013024
_publ_section_title
;
Structure prediction by ZEFSAII (Michael W. Deem and Ramdas Pophale) SiO2 
 PCOD8013024
Probable space group: P -1
;
_chemical_formula_sum "Si O2"
_cell_formula_units_Z 16
_cell_length_a 14.805532
_cell_length_b 12.080496
_cell_length_c 14.242154
_cell_angle_alpha 114.695441
_cell_angle_beta 30.616402
_cell_angle_gamma 136.348133
_cell_volume 727.695476
_symmetry_space_group_name_H-M "P -1"
_symmetry_group_IT_number 2
_symmetry_cell_setting 'triclinic'
loop_
_space_group_symop_operation_xyz
x,y,z
-x,-y,-z
loop_
_atom_site_type_symbol
_atom_site_label
_atom_site_fract_x
_atom_site_fract_y
_atom_site_fract_z
Si Si1 0.171277 0.665089 0.484552
Si Si2 0.615882 0.782922 0.744405
Si Si3 0.725543 0.663478 0.274958
Si Si4 0.055045 0.469268 0.038662
Si Si5 0.569785 0.415889 0.962270
Si Si6 0.951055 0.161035 0.676611
Si Si7 0.695928 0.960169 0.018971
Si Si8 0.285555 0.578794 0.527050
O O1 0.440039 0.890035 0.282101
O O2 0.333143 0.668127 0.417029
O O3 0.000000 0.500000 0.500000
O O4 0.915433 0.604335 0.739430
O O5 0.764394 0.768360 0.532749
O O6 0.800621 0.006658 0.671056
O O7 0.327342 0.676684 0.919379
O O8 0.577098 0.684378 0.840633
O O9 0.500000 0.500000 0.500000
O O10 0.570374 0.664107 0.337636
O O11 0.881680 0.638431 0.070889
O O12 0.992290 0.882473 0.156606
O O13 0.791447 0.360628 0.304316
O O14 0.000000 0.500000 0.000000
O O15 0.444372 0.247685 0.944046
O O16 0.500000 0.500000 0.000000
O O17 0.032406 0.344012 0.648895
O O18 0.734446 0.050362 0.918476
#
# Coordination Sequence:
#
# PCOD8013024 Si02
#       8
#     2   2   2   2   2   2   2   2
#     4  10  24  45  66  99 135 175 233 281 346 415
#     4  10  21  40  65 102 134 172 240 280 345 415
#     4  12  23  45  70  96 144 185 226 285 344 411
#     4  12  23  39  64 101 135 181 224 280 343 410
#     4  10  22  43  71  99 137 176 226 295 347 405
#     4  10  21  40  68 101 132 176 228 296 345 399
#     4  10  22  44  66 101 136 179 233 277 347 414
#     4  12  24  43  72  97 138 185 227 288 349 402
#
# _framework density 21.987221000000002
#
# number of rings (size 3 to 8) (size 9 to 14) (size 15 to 20)
#    0.000    1.250    5.000    0.000    3.500    1.000 
#    6.750    0.625    0.000    0.000    0.000    0.000 
#    0.000    0.000    0.000    0.000    0.000    0.000 
#
# Total GULP energy -198225.980286 kJ/mol
# GULP energy per Si atom -12389.123768 kJ/mol
# Density = 2.193718 g / cm^3
# Si number density = 21.987221 Si / 1000 Ang^3
#
#
#
# Elastic Constant Matrix: (Units=GPa)
#
#
# Indices 1 2 3 4 5 6 
#
# 1 114.3933 18.2968 39.5518 1.1497 -12.4231 5.7525
# 2 18.2968 70.0814 40.4989 3.1340 -2.5827 3.0747
# 3 39.5518 40.4989 132.2088 -8.5879 0.0122 -2.6927
# 4 1.1497 3.1340 -8.5879 39.8925 2.2375 -2.0322
# 5 -12.4231 -2.5827 0.0122 2.2375 39.1592 1.6414
# 6 5.7525 3.0747 -2.6927 -2.0322 1.6414 20.6205
#
#
#
# Elastic Compliance Matrix: (Units=1/GPa)
#
#
# Indices 1 2 3 4 5 6 
#
# 1 0.010494 -0.000588 -0.003119 -0.001311 0.003519 -0.003656
# 2 -0.000588 0.017992 -0.005595 -0.002860 0.001318 -0.003636
# 3 -0.003119 -0.005595 0.010481 0.003059 -0.001684 0.003509
# 4 -0.001311 -0.002860 0.003059 0.026318 -0.002276 0.003967
# 5 0.003519 0.001318 -0.001684 -0.002276 0.027029 -0.003774
# 6 -0.003656 -0.003636 0.003509 0.003967 -0.003774 0.051207
#
#
# Mechanical properties :
#
#
# Convention : Reuss Voigt Hill
#
# Bulk Modulus (GPa) = 49.11284 57.04205 53.07745
# Shear Modulus (GPa) = 29.60089 34.49017 32.04553
#
# Velocity S-wave (km/s) = 3.67315 3.96491 3.82181
# Velocity P-wave (km/s) = 6.35412 6.85276 6.60814
#
# Compressibility (1/GPa) = 0.02036127
#
# Stress axis : x y z
#
# Youngs Moduli (GPa) = 95.29680 55.57951 95.40898
#
# Poissons Ratio (x) = 0.03271 0.29758
# Poissons Ratio (y) = 0.05608 0.53385
# Poissons Ratio (z) = 0.29723 0.31099
#
# Static dielectric constant tensor:
#      x y z
#    x 3.862090 0.278130 0.023520 
#    y 0.278130 3.935930 -0.012190 
#    z 0.023520 -0.012190 4.396130 
# 
# 
# High freq. dielectric constant tensor:
#      x y z
#    x 1.860140 0.018020 -0.003190 
#    y 0.018020 1.840280 0.002720 
#    z -0.003190 0.002720 1.883000 
# 
# From -- ./inp_files/404907.got.cif
#   From: 2010.06.25/outbox.cif.g09.slc.cpg/sg2_203_cif.got.tgz:404907.got - 2010.06.27 13:26:56.
