data_PCOD8013859
_publ_section_title
;
Structure prediction by ZEFSAII (Michael W. Deem and Ramdas Pophale) SiO2 
 PCOD8013859
Probable space group: P -1
;
_chemical_formula_sum "Si O2"
_cell_formula_units_Z 16
_cell_length_a 9.234468
_cell_length_b 8.647917
_cell_length_c 14.573484
_cell_angle_alpha 82.857575
_cell_angle_beta 43.701356
_cell_angle_gamma 71.009512
_cell_volume 749.281210
_symmetry_space_group_name_H-M "P -1"
_symmetry_group_IT_number 2
_symmetry_cell_setting 'triclinic'
loop_
_space_group_symop_operation_xyz
x,y,z
-x,-y,-z
loop_
_atom_site_type_symbol
_atom_site_label
_atom_site_fract_x
_atom_site_fract_y
_atom_site_fract_z
Si Si1 0.017152 0.793692 0.168261
Si Si2 0.658618 0.677087 0.671300
Si Si3 0.391180 0.060433 0.780031
Si Si4 0.857322 0.717606 0.968730
Si Si5 0.801163 0.113687 0.642784
Si Si6 0.019218 0.624241 0.367235
Si Si7 0.753747 0.971574 0.862502
Si Si8 0.732139 0.433485 0.093769
O O1 0.765396 0.898546 0.241787
O O2 0.998422 0.668362 0.266074
O O3 0.141434 0.911432 0.140053
O O4 0.168692 0.695633 0.023306
O O5 0.771238 0.670958 0.520256
O O6 0.485144 0.579998 0.758773
O O7 0.850208 0.573738 0.664028
O O8 0.528418 0.866130 0.744009
O O9 0.569828 0.158480 0.687264
O O10 0.230704 0.120875 0.937162
O O11 0.095814 0.591699 0.899241
O O12 0.882993 0.781989 0.850327
O O13 0.681501 0.618139 0.061140
O O14 0.779898 0.991690 0.742145
O O15 0.846692 0.275107 0.646317
O O16 0.000000 0.000000 0.500000
O O17 0.500000 0.000000 0.000000
#
# Coordination Sequence:
#
# PCOD8013859 Si02
#       8
#     2   2   2   2   2   2   2   2
#     4  10  24  42  63  97 126 163 210 263 313 377
#     4  11  22  38  64  92 122 170 205 261 307 374
#     4  11  21  40  69  90 127 164 213 255 317 370
#     4  10  21  41  62  96 127 161 209 261 316 370
#     4  11  22  41  61  91 121 169 205 256 315 373
#     4  10  24  43  60  92 132 160 213 258 316 377
#     4  11  22  38  63  91 125 158 209 258 304 374
#     4  10  22  39  67  90 128 166 205 260 318 369
#
# _framework density 21.3538
#
# number of rings (size 3 to 8) (size 9 to 14) (size 15 to 20)
#    0.000    1.500    2.500    2.250    1.750    4.000 
#    2.250    0.000    0.000    5.250    0.000    0.000 
#    0.000    0.000    0.000    0.000    0.000    0.000 
#
# Total GULP energy -198303.265670 kJ/mol
# GULP energy per Si atom -12393.954104 kJ/mol
# Density = 2.130520 g / cm^3
# Si number density = 21.353800 Si / 1000 Ang^3
#
#
#
# Elastic Constant Matrix: (Units=GPa)
#
#
# Indices 1 2 3 4 5 6 
#
# 1 105.4163 26.2786 40.2120 -10.4502 -12.3446 -6.9165
# 2 26.2786 104.8910 30.4935 -7.4568 -1.1332 -17.8124
# 3 40.2120 30.4935 120.0668 -25.9337 -13.5606 -9.7049
# 4 -10.4502 -7.4568 -25.9337 38.8095 -1.1527 -0.9940
# 5 -12.3446 -1.1332 -13.5606 -1.1527 18.6240 -5.2011
# 6 -6.9165 -17.8124 -9.7049 -0.9940 -5.2011 28.4217
#
#
#
# Elastic Compliance Matrix: (Units=1/GPa)
#
#
# Indices 1 2 3 4 5 6 
#
# 1 0.011895 -0.001742 -0.002207 0.001660 0.006938 0.002377
# 2 -0.001742 0.011586 -0.001651 0.000821 0.000168 0.006333
# 3 -0.002207 -0.001651 0.012660 0.007952 0.009477 0.004764
# 4 0.001660 0.000821 0.007952 0.032179 0.010814 0.006738
# 5 0.006938 0.000168 0.009477 0.010814 0.071012 0.018403
# 6 0.002377 0.006333 0.004764 0.006738 0.018403 0.044962
#
#
# Mechanical properties :
#
#
# Convention : Reuss Voigt Hill
#
# Bulk Modulus (GPa) = 40.09394 58.26026 49.17710
# Shear Modulus (GPa) = 24.53290 32.73039 28.63164
#
# Velocity S-wave (km/s) = 3.39319 3.91930 3.66570
# Velocity P-wave (km/s) = 5.84537 6.91548 6.40282
#
# Compressibility (1/GPa) = 0.02494143
#
# Stress axis : x y z
#
# Youngs Moduli (GPa) = 84.06598 86.31388 78.98810
#
# Poissons Ratio (x) = 0.15034 0.17434
# Poissons Ratio (y) = 0.14643 0.13040
# Poissons Ratio (z) = 0.18554 0.14250
#
# Static dielectric constant tensor:
#      x y z
#    x 4.042900 -0.174170 -0.135220 
#    y -0.174170 3.960900 -0.213700 
#    z -0.135220 -0.213700 3.917700 
# 
# 
# High freq. dielectric constant tensor:
#      x y z
#    x 1.829310 -0.003680 -0.015320 
#    y -0.003680 1.848990 -0.011710 
#    z -0.015320 -0.011710 1.834610 
# 
# From -- ./inp_files/299239.got.cif
#   From: 2010.06.25/outbox.cif.g09.slc.cpg/sg2_150_cif.got.tgz:299239.got - 2010.06.27 13:26:56.
