data_PCOD8013293
_publ_section_title
;
Structure prediction by ZEFSAII (Michael W. Deem and Ramdas Pophale) SiO2 
 PCOD8013293
Probable space group: P -1
;
_chemical_formula_sum "Si O2"
_cell_formula_units_Z 16
_cell_length_a 12.105354
_cell_length_b 7.005761
_cell_length_c 23.429977
_cell_angle_alpha 58.859684
_cell_angle_beta 29.722065
_cell_angle_gamma 47.974219
_cell_volume 720.593625
_symmetry_space_group_name_H-M "P -1"
_symmetry_group_IT_number 2
_symmetry_cell_setting 'triclinic'
loop_
_space_group_symop_operation_xyz
x,y,z
-x,-y,-z
loop_
_atom_site_type_symbol
_atom_site_label
_atom_site_fract_x
_atom_site_fract_y
_atom_site_fract_z
Si Si1 0.736741 0.214259 0.705475
Si Si2 0.440258 0.574388 0.887397
Si Si3 0.955617 0.273003 0.769506
Si Si4 0.096354 0.808406 0.695683
Si Si5 0.972669 0.274478 0.486056
Si Si6 0.989701 0.615187 0.152880
Si Si7 0.492031 0.009474 0.757769
Si Si8 0.368329 0.309977 0.517487
O O1 0.543583 0.418621 0.806337
O O2 0.886309 0.327940 0.583326
O O3 0.567314 0.148344 0.750318
O O4 0.959327 0.955123 0.676371
O O5 0.659499 0.470017 0.853846
O O6 0.344446 0.876770 0.873079
O O7 0.198719 0.551257 0.019606
O O8 0.971004 0.227606 0.837698
O O9 0.133403 0.399989 0.654614
O O10 0.061286 0.000194 0.733349
O O11 0.962876 0.652239 0.800758
O O12 0.408164 0.633264 0.570675
O O13 0.756581 0.526352 0.509517
O O14 0.258988 0.223482 0.352029
O O15 0.000000 0.000000 0.500000
O O16 0.698892 0.773611 0.234613
O O17 0.500000 0.000000 0.500000
#
# Coordination Sequence:
#
# PCOD8013293 Si02
#       8
#     2   2   2   2   2   2   2   2
#     4  10  24  42  69  96 133 175 213 279 332 398
#     4  11  24  45  65  95 130 179 228 265 330 391
#     4  10  23  43  65  95 130 173 217 281 327 389
#     4  10  23  41  65 100 131 168 221 271 335 391
#     4  10  21  40  66  96 134 174 213 271 343 396
#     4  12  26  40  68  96 132 180 223 270 325 396
#     4  11  24  43  63  97 134 174 223 267 336 396
#     4  10  21  41  67  97 136 169 224 276 334 399
#
# _framework density 22.203917000000001
#
# number of rings (size 3 to 8) (size 9 to 14) (size 15 to 20)
#    0.000    1.500    1.250    3.000    3.500    7.500 
#    0.000    0.000    0.000    0.000    0.000    0.000 
#    0.000    0.000    0.000    0.000    0.000    0.000 
#
# Total GULP energy -198397.330394 kJ/mol
# GULP energy per Si atom -12399.833150 kJ/mol
# Density = 2.215338 g / cm^3
# Si number density = 22.203917 Si / 1000 Ang^3
#
#
#
# Elastic Constant Matrix: (Units=GPa)
#
#
# Indices 1 2 3 4 5 6 
#
# 1 123.8214 34.5727 42.6724 4.2446 17.6920 -25.7058
# 2 34.5727 109.1395 37.6262 -9.9479 2.2370 -32.2429
# 3 42.6724 37.6262 123.9056 -15.2117 7.7305 -10.0729
# 4 4.2446 -9.9479 -15.2117 31.6260 0.8415 -3.3868
# 5 17.6920 2.2370 7.7305 0.8415 33.4546 -3.0545
# 6 -25.7058 -32.2429 -10.0729 -3.3868 -3.0545 31.2968
#
#
#
# Elastic Compliance Matrix: (Units=1/GPa)
#
#
# Indices 1 2 3 4 5 6 
#
# 1 0.011583 -0.000549 -0.003243 -0.002394 -0.004622 0.007194
# 2 -0.000549 0.015092 -0.002621 0.005128 0.001120 0.014917
# 3 -0.003243 -0.002621 0.010454 0.004490 -0.000784 -0.001590
# 4 -0.002394 0.005128 0.004490 0.036652 -0.000242 0.008704
# 5 -0.004622 0.001120 -0.000784 -0.000242 0.032471 0.000248
# 6 0.007194 0.014917 -0.001590 0.008704 0.000248 0.053683
#
#
# Mechanical properties :
#
#
# Convention : Reuss Voigt Hill
#
# Bulk Modulus (GPa) = 41.14928 65.17878 53.16403
# Shear Modulus (GPa) = 27.64521 35.40851 31.52686
#
# Velocity S-wave (km/s) = 3.53237 3.99770 3.77222
# Velocity P-wave (km/s) = 5.93376 7.12230 6.55502
#
# Compressibility (1/GPa) = 0.02430176
#
# Stress axis : x y z
#
# Youngs Moduli (GPa) = 86.33184 66.26148 95.65372
#
# Poissons Ratio (x) = 0.03640 0.31021
# Poissons Ratio (y) = 0.04743 0.25074
# Poissons Ratio (z) = 0.27998 0.17370
#
# Static dielectric constant tensor:
#      x y z
#    x 3.950490 -0.112190 -0.047260 
#    y -0.112190 3.906750 -0.106220 
#    z -0.047260 -0.106220 4.326040 
# 
# 
# High freq. dielectric constant tensor:
#      x y z
#    x 1.874560 -0.004780 -0.002610 
#    y -0.004780 1.876140 -0.007110 
#    z -0.002610 -0.007110 1.879370 
# 
# From -- ./inp_files/259017.got.cif
#   From: 2010.06.25/outbox.cif.g09.slc.cpg/sg2_130_cif.got.tgz:259017.got - 2010.06.27 13:26:56.
