data_PCOD8013409
_publ_section_title
;
Structure prediction by ZEFSAII (Michael W. Deem and Ramdas Pophale) SiO2 
 PCOD8013409
Probable space group: P -1
;
_chemical_formula_sum "Si O2"
_cell_formula_units_Z 14
_cell_length_a 11.814789
_cell_length_b 8.630774
_cell_length_c 10.096752
_cell_angle_alpha 40.357666
_cell_angle_beta 62.544919
_cell_angle_gamma 73.711883
_cell_volume 587.102238
_symmetry_space_group_name_H-M "P -1"
_symmetry_group_IT_number 2
_symmetry_cell_setting 'triclinic'
loop_
_space_group_symop_operation_xyz
x,y,z
-x,-y,-z
loop_
_atom_site_type_symbol
_atom_site_label
_atom_site_fract_x
_atom_site_fract_y
_atom_site_fract_z
Si Si1 0.364206 0.599941 0.011716
Si Si2 0.106938 0.820977 0.298010
Si Si3 0.330358 0.953149 0.269802
Si Si4 0.285790 0.075878 0.830823
Si Si5 0.173624 0.324169 0.490258
Si Si6 0.407630 0.805476 0.595971
Si Si7 0.533310 0.667291 0.226900
O O1 0.376282 0.859372 0.912135
O O2 0.316930 0.651358 0.853194
O O3 0.500000 0.500000 0.000000
O O4 0.260435 0.406154 0.262905
O O5 0.183461 0.933123 0.312795
O O6 0.132784 0.544458 0.452944
O O7 0.955561 0.835543 0.388878
O O8 0.154021 0.971945 0.043079
O O9 0.327591 0.926550 0.447943
O O10 0.397025 0.751143 0.283794
O O11 0.408991 0.209716 0.020320
O O12 0.252804 0.163980 0.645704
O O13 0.363264 0.283090 0.743360
O O14 0.492544 0.621032 0.595218
O O15 0.500000 0.000000 0.500000
#
# Coordination Sequence:
#
# PCOD8013409 Si02
#       7
#     2   2   2   2   2   2   2
#     4  11  28  39  61 101 137 175 223 273 337 398
#     4   9  20  39  68 103 128 174 228 278 320 391
#     4  10  22  40  64  95 133 167 219 276 331 392
#     4  10  21  42  71 101 130 176 223 273 339 393
#     4  10  21  40  67  96 139 175 223 275 324 394
#     4  12  27  39  62  96 133 177 216 273 347 403
#     4  10  23  39  65  99 129 168 219 281 338 395
#
# _framework density 23.845932000000001
#
# number of rings (size 3 to 8) (size 9 to 14) (size 15 to 20)
#    0.000    1.714    0.000    2.571   14.000    0.000 
#    0.000    0.714    0.000    4.286    0.000    0.000 
#    0.000    0.000    0.000    0.000    0.000    0.143 
#
# Total GULP energy -173575.714158 kJ/mol
# GULP energy per Si atom -12398.265297 kJ/mol
# Density = 2.379166 g / cm^3
# Si number density = 23.845932 Si / 1000 Ang^3
#
#
#
# Elastic Constant Matrix: (Units=GPa)
#
#
# Indices 1 2 3 4 5 6 
#
# 1 156.4612 43.5948 81.7806 15.1372 6.3427 14.6784
# 2 43.5948 94.6684 30.9672 -16.9903 -5.8821 9.5258
# 3 81.7806 30.9672 188.9846 36.8514 31.6342 14.0239
# 4 15.1372 -16.9903 36.8514 39.1451 3.2622 5.0863
# 5 6.3427 -5.8821 31.6342 3.2622 37.6890 9.4918
# 6 14.6784 9.5258 14.0239 5.0863 9.4918 31.3394
#
#
#
# Elastic Compliance Matrix: (Units=1/GPa)
#
#
# Indices 1 2 3 4 5 6 
#
# 1 0.009288 -0.003297 -0.003174 -0.001879 0.001253 -0.002002
# 2 -0.003297 0.017144 -0.004830 0.013405 0.007633 -0.005994
# 3 -0.003174 -0.004830 0.010864 -0.010675 -0.009062 0.002570
# 4 -0.001879 0.013405 -0.010675 0.042399 0.009779 -0.008261
# 5 0.001253 0.007633 -0.009062 0.009779 0.037223 -0.011713
# 6 -0.002002 -0.005994 0.002570 -0.008261 -0.011713 0.038407
#
#
# Mechanical properties :
#
#
# Convention : Reuss Voigt Hill
#
# Bulk Modulus (GPa) = 68.04668 83.64437 75.84552
# Shear Modulus (GPa) = 27.34890 40.55281 33.95085
#
# Velocity S-wave (km/s) = 3.39026 4.12833 3.77737
# Velocity P-wave (km/s) = 6.62745 7.60771 7.13444
#
# Compressibility (1/GPa) = 0.01469580
#
# Stress axis : x y z
#
# Youngs Moduli (GPa) = 107.67062 58.32808 92.04756
#
# Poissons Ratio (x) = 0.19228 0.29213
# Poissons Ratio (y) = 0.35495 0.44457
# Poissons Ratio (z) = 0.34172 0.28171
#
# Static dielectric constant tensor:
#      x y z
#    x 4.124490 0.086790 0.180890 
#    y 0.086790 4.274810 0.030600 
#    z 0.180890 0.030600 5.093870 
# 
# 
# High freq. dielectric constant tensor:
#      x y z
#    x 1.918070 0.012190 0.014070 
#    y 0.012190 1.935970 -0.004980 
#    z 0.014070 -0.004980 1.974280 
# 
# From -- ./inp_files/236562.got.cif
#   From: 2010.06.25/outbox.cif.g09.slc.cpg/sg2_119_cif.got.tgz:236562.got - 2010.06.27 13:26:56.
