data_PCOD8013041
_publ_section_title
;
Structure prediction by ZEFSAII (Michael W. Deem and Ramdas Pophale) SiO2 
 PCOD8013041
Probable space group: P -1
;
_chemical_formula_sum "Si O2"
_cell_formula_units_Z 16
_cell_length_a 9.263971
_cell_length_b 8.692482
_cell_length_c 21.973964
_cell_angle_alpha 29.575672
_cell_angle_beta 118.386308
_cell_angle_gamma 115.571386
_cell_volume 767.689149
_symmetry_space_group_name_H-M "P -1"
_symmetry_group_IT_number 2
_symmetry_cell_setting 'triclinic'
loop_
_space_group_symop_operation_xyz
x,y,z
-x,-y,-z
loop_
_atom_site_type_symbol
_atom_site_label
_atom_site_fract_x
_atom_site_fract_y
_atom_site_fract_z
Si Si1 0.848045 0.787114 0.519240
Si Si2 0.022589 0.220966 0.705194
Si Si3 0.622134 0.817758 0.238255
Si Si4 0.114283 0.140033 0.086802
Si Si5 0.574055 0.458873 0.962618
Si Si6 0.977702 0.658544 0.801046
Si Si7 0.302878 0.837524 0.741417
Si Si8 0.274494 0.556853 0.269323
O O1 0.748984 0.635032 0.607493
O O2 0.912665 0.521945 0.578133
O O3 0.719048 0.979222 0.388781
O O4 0.000000 0.000000 0.500000
O O5 0.210830 0.346036 0.690347
O O6 0.002043 0.048216 0.824911
O O7 0.969084 0.984690 0.722190
O O8 0.467471 0.576999 0.285574
O O9 0.632577 0.939191 0.267995
O O10 0.605643 0.093097 0.089981
O O11 0.254494 0.346457 0.078868
O O12 0.202094 0.900814 0.141826
O O13 0.995796 0.365677 0.949766
O O14 0.440563 0.579917 0.845979
O O15 0.500000 0.500000 0.000000
O O16 0.811357 0.622616 0.742129
O O17 0.131390 0.662956 0.784477
#
# Coordination Sequence:
#
# PCOD8013041 Si02
#       8
#     2   2   2   2   2   2   2   2
#     4  11  24  44  64  89 120 163 220 256 287 368
#     4  10  24  40  65  88 128 165 200 253 312 366
#     4  10  20  39  63  94 126 157 200 256 316 364
#     4  11  19  37  64  96 124 163 204 248 302 377
#     4  10  16  33  63  95 121 155 203 253 299 370
#     4  11  20  36  64  94 125 160 199 254 316 365
#     4  10  19  37  65  86 120 166 204 245 304 359
#     4  11  22  38  63  93 125 162 211 252 297 365
#
# _framework density 20.84177
#
# number of rings (size 3 to 8) (size 9 to 14) (size 15 to 20)
#    0.000    1.500    7.500    0.750    0.000    2.500 
#    0.000    2.500    0.000    0.000    0.000    0.000 
#    0.000    0.000    0.000    0.000    0.000    0.000 
#
# Total GULP energy -198406.741077 kJ/mol
# GULP energy per Si atom -12400.421317 kJ/mol
# Density = 2.079433 g / cm^3
# Si number density = 20.841770 Si / 1000 Ang^3
#
#
#
# Elastic Constant Matrix: (Units=GPa)
#
#
# Indices 1 2 3 4 5 6 
#
# 1 85.1181 44.6242 19.6372 7.5961 -5.0035 18.9657
# 2 44.6242 95.2008 44.2283 10.4006 1.2033 23.4790
# 3 19.6372 44.2283 121.1853 19.4779 14.0395 2.6737
# 4 7.5961 10.4006 19.4779 27.5228 9.1665 6.4230
# 5 -5.0035 1.2033 14.0395 9.1665 19.2091 -3.0671
# 6 18.9657 23.4790 2.6737 6.4230 -3.0671 29.1435
#
#
#
# Elastic Compliance Matrix: (Units=1/GPa)
#
#
# Indices 1 2 3 4 5 6 
#
# 1 0.016751 -0.006219 -0.000572 -0.002686 0.005711 -0.004645
# 2 -0.006219 0.018564 -0.005654 0.001627 -0.001162 -0.010871
# 3 -0.000572 -0.005654 0.011766 -0.005380 -0.005109 0.004496
# 4 -0.002686 0.001627 -0.005380 0.050981 -0.023233 -0.012750
# 5 0.005711 -0.001162 -0.005109 -0.023233 0.070066 0.010183
# 6 -0.004645 -0.010871 0.004496 -0.012750 0.010183 0.049563
#
#
# Mechanical properties :
#
#
# Convention : Reuss Voigt Hill
#
# Bulk Modulus (GPa) = 45.06635 57.60929 51.33782
# Shear Modulus (GPa) = 20.00173 28.04272 24.02222
#
# Velocity S-wave (km/s) = 3.10125 3.67209 3.39868
# Velocity P-wave (km/s) = 5.87314 6.75872 6.33143
#
# Compressibility (1/GPa) = 0.02218951
#
# Stress axis : x y z
#
# Youngs Moduli (GPa) = 59.69655 53.86680 84.99408
#
# Poissons Ratio (x) = 0.33502 0.04862
# Poissons Ratio (y) = 0.37128 0.48060
# Poissons Ratio (z) = 0.03415 0.30459
#
# Static dielectric constant tensor:
#      x y z
#    x 3.790010 0.162390 0.131460 
#    y 0.162390 3.558720 -0.042880 
#    z 0.131460 -0.042880 3.991140 
# 
# 
# High freq. dielectric constant tensor:
#      x y z
#    x 1.809660 0.016880 -0.001600 
#    y 0.016880 1.791660 -0.003050 
#    z -0.001600 -0.003050 1.818600 
# 
# From -- ./inp_files/327832.got.cif
#   From: 2010.06.25/outbox.cif.g09.slc.cpg/sg2_164_cif.got.tgz:327832.got - 2010.06.27 13:26:56.
