data_PCOD8013836
_publ_section_title
;
Structure prediction by ZEFSAII (Michael W. Deem and Ramdas Pophale) SiO2 
 PCOD8013836
Probable space group: P -1
;
_chemical_formula_sum "Si O2"
_cell_formula_units_Z 16
_cell_length_a 10.824484
_cell_length_b 13.796340
_cell_length_c 14.144936
_cell_angle_alpha 148.104719
_cell_angle_beta 69.336525
_cell_angle_gamma 87.602816
_cell_volume 755.270062
_symmetry_space_group_name_H-M "P -1"
_symmetry_group_IT_number 2
_symmetry_cell_setting 'triclinic'
loop_
_space_group_symop_operation_xyz
x,y,z
-x,-y,-z
loop_
_atom_site_type_symbol
_atom_site_label
_atom_site_fract_x
_atom_site_fract_y
_atom_site_fract_z
Si Si1 0.761000 0.339098 0.892021
Si Si2 0.354629 0.905533 0.888787
Si Si3 0.702133 0.743096 0.968023
Si Si4 0.861371 0.007495 0.417264
Si Si5 0.416521 0.535029 0.250269
Si Si6 0.997428 0.326808 0.419611
Si Si7 0.693889 0.803227 0.233922
Si Si8 0.320533 0.584418 0.515864
O O1 0.771520 0.166725 0.670266
O O2 0.568415 0.508751 0.135616
O O3 0.777929 0.520017 0.986801
O O4 0.921670 0.166067 0.782400
O O5 0.288414 0.777583 0.756915
O O6 0.560301 0.693909 0.698690
O O7 0.353694 0.066450 0.943769
O O8 0.210685 0.064143 0.146586
O O9 0.687919 0.855361 0.166304
O O10 0.565455 0.699728 0.970159
O O11 0.907015 0.465632 0.660624
O O12 0.779831 0.199443 0.510882
O O13 0.824105 0.826629 0.267629
O O14 0.437519 0.551279 0.369116
O O15 0.871488 0.301562 0.377387
O O16 0.000000 0.500000 0.500000
O O17 0.500000 0.000000 0.500000
#
# Coordination Sequence:
#
# PCOD8013836 Si02
#       8
#     2   2   2   2   2   2   2   2
#     4  11  24  42  64  94 129 168 215 252 323 372
#     4  10  21  41  62  92 125 160 212 262 315 376
#     4  10  22  38  65  92 123 167 214 257 316 380
#     4  11  23  41  65  89 130 169 210 268 302 379
#     4  11  21  40  61  91 126 168 204 260 318 368
#     4   9  20  38  62  84 122 160 202 257 316 363
#     4  12  22  40  71  92 132 171 208 263 317 372
#     4  10  22  38  65  91 126 161 208 263 313 382
#
# _framework density 21.184476
#
# number of rings (size 3 to 8) (size 9 to 14) (size 15 to 20)
#    0.000    1.500    2.500    2.625    0.000    6.500 
#    0.000    6.250    8.250    0.000    0.000    0.000 
#    0.000    0.000    0.000    0.000    0.000    0.000 
#
# Total GULP energy -198322.180735 kJ/mol
# GULP energy per Si atom -12395.136296 kJ/mol
# Density = 2.113626 g / cm^3
# Si number density = 21.184476 Si / 1000 Ang^3
#
#
#
# Elastic Constant Matrix: (Units=GPa)
#
#
# Indices 1 2 3 4 5 6 
#
# 1 71.4503 30.1323 26.9259 -0.2614 7.6413 5.6309
# 2 30.1323 105.8435 37.4363 2.4669 -4.1205 1.2279
# 3 26.9259 37.4363 86.3727 -4.8553 5.3313 -3.8101
# 4 -0.2614 2.4669 -4.8553 39.4451 -4.3686 4.0689
# 5 7.6413 -4.1205 5.3313 -4.3686 25.4558 1.3304
# 6 5.6309 1.2279 -3.8101 4.0689 1.3304 30.9424
#
#
#
# Elastic Compliance Matrix: (Units=1/GPa)
#
#
# Indices 1 2 3 4 5 6 
#
# 1 0.017853 -0.003922 -0.003714 -0.000319 -0.005099 -0.003289
# 2 -0.003922 0.012307 -0.004422 -0.000862 0.003967 -0.000376
# 3 -0.003714 -0.004422 0.015015 0.001541 -0.002618 0.002610
# 4 -0.000319 -0.000862 0.001541 0.026423 0.004345 -0.003379
# 5 -0.005099 0.003967 -0.002618 0.004345 0.042853 -0.001966
# 6 -0.003289 -0.000376 0.002610 -0.003379 -0.001966 0.033782
#
#
# Mechanical properties :
#
#
# Convention : Reuss Voigt Hill
#
# Bulk Modulus (GPa) = 47.48220 50.29508 48.88864
# Shear Modulus (GPa) = 27.87571 30.44680 29.16126
#
# Velocity S-wave (km/s) = 3.63141 3.79518 3.71420
# Velocity P-wave (km/s) = 6.32813 6.55725 6.44371
#
# Compressibility (1/GPa) = 0.02106052
#
# Stress axis : x y z
#
# Youngs Moduli (GPa) = 56.01443 81.25347 66.59879
#
# Poissons Ratio (x) = 0.31865 0.24734
# Poissons Ratio (y) = 0.21967 0.29447
# Poissons Ratio (z) = 0.20803 0.35927
#
# Static dielectric constant tensor:
#      x y z
#    x 3.944980 0.107070 -0.222950 
#    y 0.107070 3.834190 -0.092380 
#    z -0.222950 -0.092380 4.618950 
# 
# 
# High freq. dielectric constant tensor:
#      x y z
#    x 1.828250 0.009300 0.011940 
#    y 0.009300 1.825550 0.002840 
#    z 0.011940 0.002840 1.834800 
# 
# From -- ./inp_files/429054.got.cif
#   From: 2010.06.25/outbox.cif.g09.slc.cpg/sg2_215_cif.got.tgz:429054.got - 2010.06.27 13:26:56.
