data_PCOD8013192
_publ_section_title
;
Structure prediction by ZEFSAII (Michael W. Deem and Ramdas Pophale) SiO2 
 PCOD8013192
Probable space group: P -1
;
_chemical_formula_sum "Si O2"
_cell_formula_units_Z 16
_cell_length_a 14.754646
_cell_length_b 8.910548
_cell_length_c 21.586191
_cell_angle_alpha 118.814405
_cell_angle_beta 20.168114
_cell_angle_gamma 125.784267
_cell_volume 770.709452
_symmetry_space_group_name_H-M "P -1"
_symmetry_group_IT_number 2
_symmetry_cell_setting 'triclinic'
loop_
_space_group_symop_operation_xyz
x,y,z
-x,-y,-z
loop_
_atom_site_type_symbol
_atom_site_label
_atom_site_fract_x
_atom_site_fract_y
_atom_site_fract_z
Si Si1 0.914183 0.213548 0.924094
Si Si2 0.275728 0.018060 0.454438
Si Si3 0.351505 0.590077 0.659625
Si Si4 0.417554 0.724907 0.036643
Si Si5 0.192001 0.030312 0.943404
Si Si6 0.010656 0.302253 0.179650
Si Si7 0.963986 0.093086 0.281942
Si Si8 0.338283 0.057209 0.201431
O O1 0.112733 0.435777 0.827450
O O2 0.005227 0.099782 0.791260
O O3 0.968001 0.156473 0.947296
O O4 0.563879 0.156289 0.133062
O O5 0.416768 0.248793 0.412490
O O6 0.976990 0.940342 0.590009
O O7 0.481718 0.936602 0.274829
O O8 0.223072 0.938554 0.542577
O O9 0.500000 0.500000 0.500000
O O10 0.211772 0.701541 0.730821
O O11 0.185897 0.509591 0.136123
O O12 0.277141 0.837038 0.189883
O O13 0.710384 0.737462 0.883332
O O14 0.485941 0.819149 0.944570
O O15 0.223496 0.218576 0.997263
O O16 0.000000 0.000000 0.000000
O O17 0.828438 0.163446 0.325825
#
# Coordination Sequence:
#
# PCOD8013192 Si02
#       8
#     2   2   2   2   2   2   2   2
#     4  10  21  40  66  89 118 161 204 243 310 357
#     4  11  22  39  60  89 130 154 203 251 299 349
#     4  12  22  36  64  96 115 150 211 257 290 351
#     4   9  16  33  62  91 120 147 200 250 309 341
#     4  11  25  43  57  84 128 172 194 240 307 369
#     4  11  21  37  62  85 122 161 202 238 303 364
#     4   9  20  36  61  92 119 155 194 254 301 353
#     4   9  18  36  63  93 119 154 195 262 302 345
#
# _framework density 20.760093999999999
#
# number of rings (size 3 to 8) (size 9 to 14) (size 15 to 20)
#    0.000    1.750    3.750    1.875    0.000    2.500 
#    0.000    2.500    0.000    0.000    0.000    0.000 
#    0.000    0.000    0.000    0.000    0.000    0.000 
#
# Total GULP energy -198356.032347 kJ/mol
# GULP energy per Si atom -12397.252022 kJ/mol
# Density = 2.071284 g / cm^3
# Si number density = 20.760094 Si / 1000 Ang^3
#
#
#
# Elastic Constant Matrix: (Units=GPa)
#
#
# Indices 1 2 3 4 5 6 
#
# 1 92.4459 25.0184 28.7205 -10.5286 2.0073 -23.9150
# 2 25.0184 86.9159 42.9639 -5.1983 -2.9054 -11.1414
# 3 28.7205 42.9639 106.3802 7.7627 -3.1263 -10.0589
# 4 -10.5286 -5.1983 7.7627 34.3351 6.0922 -2.4055
# 5 2.0073 -2.9054 -3.1263 6.0922 21.4999 -0.0695
# 6 -23.9150 -11.1414 -10.0589 -2.4055 -0.0695 29.9953
#
#
#
# Elastic Compliance Matrix: (Units=1/GPa)
#
#
# Indices 1 2 3 4 5 6 
#
# 1 0.016163 -0.001154 -0.003416 0.007121 -0.004141 0.011874
# 2 -0.001154 0.015333 -0.005828 0.003437 0.000369 0.003097
# 3 -0.003416 -0.005828 0.013075 -0.005481 0.002983 -0.000936
# 4 0.007121 0.003437 -0.005481 0.035586 -0.011055 0.007944
# 5 -0.004141 0.000369 0.002983 -0.011055 0.050505 -0.002934
# 6 0.011874 0.003097 -0.000936 0.007944 -0.002934 0.044272
#
#
# Mechanical properties :
#
#
# Convention : Reuss Voigt Hill
#
# Bulk Modulus (GPa) = 42.06109 53.23864 47.64986
# Shear Modulus (GPa) = 24.55094 29.76866 27.15980
#
# Velocity S-wave (km/s) = 3.44263 3.79084 3.62093
# Velocity P-wave (km/s) = 6.00889 6.69784 6.36270
#
# Compressibility (1/GPa) = 0.02377494
#
# Stress axis : x y z
#
# Youngs Moduli (GPa) = 61.86801 65.21669 76.47917
#
# Poissons Ratio (x) = 0.07529 0.26126
# Poissons Ratio (y) = 0.07142 0.44574
# Poissons Ratio (z) = 0.21135 0.38010
#
# Static dielectric constant tensor:
#      x y z
#    x 3.957890 -0.194210 -0.141920 
#    y -0.194210 3.708020 0.032830 
#    z -0.141920 0.032830 3.617300 
# 
# 
# High freq. dielectric constant tensor:
#      x y z
#    x 1.816440 -0.013500 -0.007840 
#    y -0.013500 1.802550 -0.004510 
#    z -0.007840 -0.004510 1.797410 
# 
# From -- ./inp_files/223607.got.cif
#   From: 2010.06.25/outbox.cif.g09.slc.cpg/sg2_112_cif.got.tgz:223607.got - 2010.06.27 13:26:56.
