data_PCOD8013999
_publ_section_title
;
Structure prediction by ZEFSAII (Michael W. Deem and Ramdas Pophale) SiO2 
 PCOD8013999
Probable space group: P -1
;
_chemical_formula_sum "Si O2"
_cell_formula_units_Z 16
_cell_length_a 17.877136
_cell_length_b 11.407397
_cell_length_c 9.039694
_cell_angle_alpha 107.853757
_cell_angle_beta 102.027330
_cell_angle_gamma 139.983221
_cell_volume 778.181411
_symmetry_space_group_name_H-M "P -1"
_symmetry_group_IT_number 2
_symmetry_cell_setting 'triclinic'
loop_
_space_group_symop_operation_xyz
x,y,z
-x,-y,-z
loop_
_atom_site_type_symbol
_atom_site_label
_atom_site_fract_x
_atom_site_fract_y
_atom_site_fract_z
Si Si1 0.858158 0.237326 0.439554
Si Si2 0.806377 0.695995 0.803948
Si Si3 0.448607 0.527886 0.208423
Si Si4 0.299277 0.660822 0.157200
Si Si5 0.643264 0.041583 0.500805
Si Si6 0.496977 0.343863 0.050676
Si Si7 0.201839 0.310576 0.539308
Si Si8 0.986566 0.784898 0.371166
O O1 0.806191 0.266659 0.549438
O O2 0.920273 0.204544 0.535606
O O3 0.000000 0.500000 0.500000
O O4 0.694831 0.974871 0.170277
O O5 0.719041 0.684608 0.849065
O O6 0.770754 0.517447 0.802827
O O7 0.747151 0.598263 0.573900
O O8 0.000000 0.000000 0.000000
O O9 0.502539 0.463324 0.220064
O O10 0.593588 0.829706 0.441591
O O11 0.414801 0.495490 0.006429
O O12 0.313581 0.822506 0.280223
O O13 0.486194 0.876736 0.280853
O O14 0.177321 0.481427 0.897744
O O15 0.619944 0.417477 0.197481
O O16 0.073217 0.230602 0.511415
O O17 0.116745 0.054924 0.435702
#
# Coordination Sequence:
#
# PCOD8013999 Si02
#       8
#     2   2   2   2   2   2   2   2
#     4  11  25  42  62  95 127 164 205 263 311 369
#     4  11  22  35  60  99 132 156 206 266 310 360
#     4   9  19  38  66  87 123 164 207 253 311 367
#     4  10  21  41  64  90 125 173 206 255 308 380
#     4   9  20  40  64  85 127 168 207 246 321 368
#     4  10  21  42  66  88 123 168 208 252 314 377
#     4  11  23  38  66  97 122 165 211 261 307 370
#     4  11  23  40  65  93 127 165 213 251 318 374
#
# _framework density 20.560756999999999
#
# number of rings (size 3 to 8) (size 9 to 14) (size 15 to 20)
#    0.000    1.750    1.250    4.500    5.250    1.000 
#    6.750    1.250    0.000    0.000    0.000    0.000 
#    0.000    0.000    0.000    0.000    0.000    0.000 
#
# Total GULP energy -198349.064678 kJ/mol
# GULP energy per Si atom -12396.816542 kJ/mol
# Density = 2.051396 g / cm^3
# Si number density = 20.560757 Si / 1000 Ang^3
#
#
#
# Elastic Constant Matrix: (Units=GPa)
#
#
# Indices 1 2 3 4 5 6 
#
# 1 111.8159 47.7885 33.7653 3.6503 -6.9011 18.6168
# 2 47.7885 100.7179 25.7511 1.4257 4.5337 27.7827
# 3 33.7653 25.7511 101.8496 2.6532 8.3815 7.2971
# 4 3.6503 1.4257 2.6532 25.5772 3.1375 2.1685
# 5 -6.9011 4.5337 8.3815 3.1375 35.5044 2.4859
# 6 18.6168 27.7827 7.2971 2.1685 2.4859 35.7391
#
#
#
# Elastic Compliance Matrix: (Units=1/GPa)
#
#
# Indices 1 2 3 4 5 6 
#
# 1 0.012589 -0.004649 -0.003116 -0.001503 0.004084 -0.002500
# 2 -0.004649 0.015042 -0.001491 0.000971 -0.001936 -0.008891
# 3 -0.003116 -0.001491 0.011446 -0.000333 -0.003136 0.000683
# 4 -0.001503 0.000971 -0.000333 0.039924 -0.003721 -0.002067
# 5 0.004084 -0.001936 -0.003136 -0.003721 0.030407 -0.001871
# 6 -0.002500 -0.008891 0.000683 -0.002067 -0.001871 0.036311
#
#
# Mechanical properties :
#
#
# Convention : Reuss Voigt Hill
#
# Bulk Modulus (GPa) = 48.62648 58.77703 53.70175
# Shear Modulus (GPa) = 29.22538 33.16939 31.19738
#
# Velocity S-wave (km/s) = 3.77426 4.02087 3.89951
# Velocity P-wave (km/s) = 6.53413 7.08559 6.81544
#
# Compressibility (1/GPa) = 0.02056493
#
# Stress axis : x y z
#
# Youngs Moduli (GPa) = 79.43737 66.48102 87.36696
#
# Poissons Ratio (x) = 0.30909 0.27221
# Poissons Ratio (y) = 0.36933 0.13024
# Poissons Ratio (z) = 0.24750 0.09910
#
# Static dielectric constant tensor:
#      x y z
#    x 4.232200 0.231740 -0.256360 
#    y 0.231740 3.440700 0.074830 
#    z -0.256360 0.074830 3.805000 
# 
# 
# High freq. dielectric constant tensor:
#      x y z
#    x 1.817050 0.021750 -0.005000 
#    y 0.021750 1.782640 0.011790 
#    z -0.005000 0.011790 1.799610 
# 
# From -- ./inp_files/332277.got.cif
#   From: 2010.06.25/outbox.cif.g09.slc.cpg/sg2_167_cif.got.tgz:332277.got - 2010.06.27 13:26:56.
