data_PCOD8013365
_publ_section_title
;
Structure prediction by ZEFSAII (Michael W. Deem and Ramdas Pophale) SiO2 
 PCOD8013365
Probable space group: P -1
;
_chemical_formula_sum "Si O2"
_cell_formula_units_Z 14
_cell_length_a 8.609678
_cell_length_b 12.437605
_cell_length_c 9.217159
_cell_angle_alpha 83.647057
_cell_angle_beta 44.513522
_cell_angle_gamma 69.648991
_cell_volume 634.457377
_symmetry_space_group_name_H-M "P -1"
_symmetry_group_IT_number 2
_symmetry_cell_setting 'triclinic'
loop_
_space_group_symop_operation_xyz
x,y,z
-x,-y,-z
loop_
_atom_site_type_symbol
_atom_site_label
_atom_site_fract_x
_atom_site_fract_y
_atom_site_fract_z
Si Si1 0.601222 0.232266 0.017839
Si Si2 0.953389 0.603713 0.674237
Si Si3 0.774707 0.421535 0.798475
Si Si4 0.744723 0.018775 0.730587
Si Si5 0.947860 0.805247 0.823947
Si Si6 0.679546 0.120654 0.291118
Si Si7 0.646300 0.897055 0.261683
O O1 0.322368 0.317288 0.193241
O O2 0.657248 0.189951 0.149724
O O3 0.795397 0.292492 0.849862
O O4 0.647163 0.132896 0.881143
O O5 0.943001 0.480623 0.759467
O O6 0.046454 0.673460 0.717802
O O7 0.146053 0.578622 0.421244
O O8 0.500000 0.500000 0.000000
O O9 0.579588 0.027176 0.699934
O O10 0.757710 0.903500 0.830555
O O11 0.000000 0.000000 0.500000
O O12 0.160453 0.849206 0.701200
O O13 0.828166 0.794302 0.058195
O O14 0.424632 0.155244 0.539159
O O15 0.781981 0.981722 0.208200
#
# Coordination Sequence:
#
# PCOD8013365 Si02
#       7
#     2   2   2   2   2   2   2
#     4  11  22  40  61  91 125 161 204 255 304 363
#     4  10  21  40  67  93 115 158 211 255 305 360
#     4   9  21  40  67  92 118 151 207 263 306 360
#     4  12  22  37  62  90 122 164 212 246 296 362
#     4  12  22  38  62  90 126 164 207 250 300 363
#     4  11  25  37  57  89 132 169 200 245 309 362
#     4  11  23  40  54  85 129 168 203 249 294 363
#
# _framework density 22.066101
#
# number of rings (size 3 to 8) (size 9 to 14) (size 15 to 20)
#    0.000    1.143    4.286    2.571    0.000    1.143 
#    0.000    0.714    0.000    8.571    0.000    0.000 
#    0.000    0.000    0.000    0.000    0.000    0.000 
#
# Total GULP energy -173449.746138 kJ/mol
# GULP energy per Si atom -12389.267581 kJ/mol
# Density = 2.201588 g / cm^3
# Si number density = 22.066101 Si / 1000 Ang^3
#
#
#
# Elastic Constant Matrix: (Units=GPa)
#
#
# Indices 1 2 3 4 5 6 
#
# 1 73.5277 39.9983 20.5914 -4.5748 2.8686 37.6387
# 2 39.9983 103.4310 52.6264 -10.0402 10.3555 44.5646
# 3 20.5914 52.6264 154.0479 -5.8242 3.9456 19.3397
# 4 -4.5748 -10.0402 -5.8242 45.3820 1.3656 3.1571
# 5 2.8686 10.3555 3.9456 1.3656 28.0510 2.9564
# 6 37.6387 44.5646 19.3397 3.1571 2.9564 38.8837
#
#
#
# Elastic Compliance Matrix: (Units=1/GPa)
#
#
# Indices 1 2 3 4 5 6 
#
# 1 0.028547 0.003911 -0.000873 0.005897 -0.001147 -0.032072
# 2 0.003911 0.024925 -0.004815 0.007569 -0.006120 -0.030107
# 3 -0.000873 -0.004815 0.007926 -0.000319 0.000514 0.002409
# 4 0.005897 0.007569 -0.000319 0.025468 -0.002898 -0.016072
# 5 -0.001147 -0.006120 0.000514 -0.002898 0.037541 0.005250
# 6 -0.032072 -0.030107 0.002409 -0.016072 0.005250 0.090976
#
#
# Mechanical properties :
#
#
# Convention : Reuss Voigt Hill
#
# Bulk Modulus (GPa) = 17.28838 61.93765 39.61302
# Shear Modulus (GPa) = 20.98909 36.98272 28.98591
#
# Velocity S-wave (km/s) = 3.08749 4.09834 3.62829
# Velocity P-wave (km/s) = 4.53452 7.10811 5.96184
#
# Compressibility (1/GPa) = 0.05784232
#
# Stress axis : x y z
#
# Youngs Moduli (GPa) = 35.03036 40.11997 126.17424
#
# Poissons Ratio (x) = -0.15690 0.11015
# Poissons Ratio (y) = -0.13699 0.60755
# Poissons Ratio (z) = 0.03058 0.19318
#
# Static dielectric constant tensor:
#      x y z
#    x 3.858970 0.493760 -0.080580 
#    y 0.493760 4.359030 -0.106420 
#    z -0.080580 -0.106420 4.377630 
# 
# 
# High freq. dielectric constant tensor:
#      x y z
#    x 1.843790 0.041570 -0.008490 
#    y 0.041570 1.857020 -0.005070 
#    z -0.008490 -0.005070 1.901610 
# 
# From -- ./inp_files/178563.got.cif
#   From: 2010.06.25/outbox.cif.g09.slc.cpg/sg2_90_cif.got.tgz:178563.got - 2010.06.27 13:26:56.
