data_PCOD8013521
_publ_section_title
;
Structure prediction by ZEFSAII (Michael W. Deem and Ramdas Pophale) SiO2 
 PCOD8013521
Probable space group: P -1
;
_chemical_formula_sum "Si O2"
_cell_formula_units_Z 16
_cell_length_a 12.373362
_cell_length_b 8.546397
_cell_length_c 11.068379
_cell_angle_alpha 58.717922
_cell_angle_beta 125.514799
_cell_angle_gamma 89.163355
_cell_volume 725.205655
_symmetry_space_group_name_H-M "P -1"
_symmetry_group_IT_number 2
_symmetry_cell_setting 'triclinic'
loop_
_space_group_symop_operation_xyz
x,y,z
-x,-y,-z
loop_
_atom_site_type_symbol
_atom_site_label
_atom_site_fract_x
_atom_site_fract_y
_atom_site_fract_z
Si Si1 0.213404 0.884616 0.030451
Si Si2 0.016781 0.446622 0.393726
Si Si3 0.522982 0.288814 0.047786
Si Si4 0.736905 0.746780 0.989928
Si Si5 0.388652 0.242457 0.337612
Si Si6 0.858265 0.012137 0.331252
Si Si7 0.220138 0.545282 0.318885
Si Si8 0.518879 0.547565 0.297106
O O1 0.140229 0.765107 0.108091
O O2 0.385856 0.718601 0.218553
O O3 0.200499 0.094170 0.994270
O O4 0.142379 0.922695 0.835012
O O5 0.000000 0.500000 0.500000
O O6 0.128873 0.210407 0.556967
O O7 0.085866 0.554570 0.307696
O O8 0.848655 0.520808 0.204982
O O9 0.430253 0.187135 0.095333
O O10 0.699411 0.149607 0.232822
O O11 0.500000 0.500000 0.000000
O O12 0.462789 0.330471 0.854707
O O13 0.738913 0.723786 0.856345
O O14 0.302061 0.341783 0.367404
O O15 0.480208 0.364213 0.305658
O O16 0.500000 0.000000 0.500000
O O17 0.000000 0.000000 0.500000
O O18 0.336818 0.550738 0.488169
#
# Coordination Sequence:
#
# PCOD8013521 Si02
#       8
#     2   2   2   2   2   2   2   2
#     4  10  23  44  68 100 136 186 231 292 343 420
#     4  12  27  48  69 105 142 188 232 294 349 424
#     4  11  23  42  74 106 134 188 233 293 355 409
#     4  12  24  44  69  99 146 175 242 284 345 422
#     4  11  23  41  68 102 138 179 235 293 344 418
#     4  11  26  46  72 102 145 184 238 291 355 418
#     4  11  25  44  69 101 141 186 234 284 366 407
#     4  10  21  40  68  97 137 175 232 291 343 415
#
# _framework density 22.062707
#
# number of rings (size 3 to 8) (size 9 to 14) (size 15 to 20)
#    0.000    1.000    2.500    4.500    7.000    2.000 
#    0.000    0.000    0.000    0.000    0.000    0.000 
#    0.000    0.000    0.000    0.000    0.000    0.000 
#
# Total GULP energy -198282.786891 kJ/mol
# GULP energy per Si atom -12392.674181 kJ/mol
# Density = 2.201249 g / cm^3
# Si number density = 22.062707 Si / 1000 Ang^3
#
#
#
# Elastic Constant Matrix: (Units=GPa)
#
#
# Indices 1 2 3 4 5 6 
#
# 1 130.5639 38.3056 42.5598 -1.1986 -3.8564 1.9131
# 2 38.3056 108.9132 44.1311 -6.9170 7.7894 -8.8401
# 3 42.5598 44.1311 154.7791 4.3152 7.8410 -3.5332
# 4 -1.1986 -6.9170 4.3152 47.1446 1.8767 -3.0768
# 5 -3.8564 7.7894 7.8410 1.8767 24.6877 -5.4443
# 6 1.9131 -8.8401 -3.5332 -3.0768 -5.4443 22.1730
#
#
#
# Elastic Compliance Matrix: (Units=1/GPa)
#
#
# Indices 1 2 3 4 5 6 
#
# 1 0.009194 -0.002795 -0.001893 -0.000211 0.002581 -0.001605
# 2 -0.002795 0.011828 -0.002437 0.002269 -0.002633 0.004237
# 3 -0.001893 -0.002437 0.007801 -0.001054 -0.001967 -0.000195
# 4 -0.000211 0.002269 -0.001054 0.021914 -0.001314 0.003473
# 5 0.002581 -0.002633 -0.001967 -0.001314 0.044483 0.009154
# 6 -0.001605 0.004237 -0.000195 0.003473 0.009154 0.049626
#
#
# Mechanical properties :
#
#
# Convention : Reuss Voigt Hill
#
# Bulk Modulus (GPa) = 68.61768 71.58324 70.10046
# Shear Modulus (GPa) = 30.49640 36.75172 33.62406
#
# Velocity S-wave (km/s) = 3.72191 4.08583 3.90811
# Velocity P-wave (km/s) = 7.04549 7.40098 7.22542
#
# Compressibility (1/GPa) = 0.01457350
#
# Stress axis : x y z
#
# Youngs Moduli (GPa) = 108.76851 84.54214 128.19273
#
# Poissons Ratio (x) = 0.23628 0.24263
# Poissons Ratio (y) = 0.30399 0.31243
# Poissons Ratio (z) = 0.20586 0.20605
#
# Static dielectric constant tensor:
#      x y z
#    x 14.121170 -1.441210 -6.979940 
#    y -1.441210 4.152590 0.904720 
#    z -6.979940 0.904720 7.715360 
# 
# 
# High freq. dielectric constant tensor:
#      x y z
#    x 1.861260 -0.005780 -0.012260 
#    y -0.005780 1.870290 -0.003010 
#    z -0.012260 -0.003010 1.886340 
# 
# From -- ./inp_files/419213.got.cif
#   From: 2010.06.25/outbox.cif.g09.slc.cpg/sg2_210_cif.got.tgz:419213.got - 2010.06.27 13:26:56.
