data_PCOD8013092
_publ_section_title
;
Structure prediction by ZEFSAII (Michael W. Deem and Ramdas Pophale) SiO2 
 PCOD8013092
Probable space group: P -1
;
_chemical_formula_sum "Si O2"
_cell_formula_units_Z 12
_cell_length_a 7.592766
_cell_length_b 11.625737
_cell_length_c 9.861479
_cell_angle_alpha 74.803705
_cell_angle_beta 46.722628
_cell_angle_gamma 99.066723
_cell_volume 536.512378
_symmetry_space_group_name_H-M "P -1"
_symmetry_group_IT_number 2
_symmetry_cell_setting 'triclinic'
loop_
_space_group_symop_operation_xyz
x,y,z
-x,-y,-z
loop_
_atom_site_type_symbol
_atom_site_label
_atom_site_fract_x
_atom_site_fract_y
_atom_site_fract_z
Si Si1 0.937085 0.403112 0.188126
Si Si2 0.073685 0.972207 0.223241
Si Si3 0.568198 0.125486 0.075577
Si Si4 0.308743 0.297125 0.600254
Si Si5 0.048092 0.579330 0.311683
Si Si6 0.050441 0.818111 0.913843
O O1 0.624281 0.340518 0.419836
O O2 0.117065 0.493383 0.191121
O O3 0.019009 0.288701 0.139233
O O4 0.000000 0.500000 0.000000
O O5 0.234616 0.046981 0.255465
O O6 0.923169 0.047641 0.209667
O O7 0.840270 0.815103 0.407108
O O8 0.316356 0.976838 0.998301
O O9 0.660385 0.157298 0.175406
O O10 0.703005 0.265064 0.871397
O O11 0.239788 0.420042 0.571586
O O12 0.187651 0.234230 0.831018
O O13 0.000000 0.500000 0.500000
#
# Coordination Sequence:
#
# PCOD8013092 Si02
#       6
#     2   2   2   2   2   2
#     4  12  23  41  63  91 128 164 209 258 313 373
#     4   9  19  38  63  95 120 166 210 254 315 365
#     4   9  18  37  65  89 125 161 207 259 301 372
#     4  10  22  40  65  88 123 170 205 257 313 369
#     4  10  22  40  63  93 123 166 210 253 316 375
#     4  10  21  40  65  93 125 165 206 260 313 370
#
# _framework density 22.366679999999999
#
# number of rings (size 3 to 8) (size 9 to 14) (size 15 to 20)
#    0.000    2.333    3.333    2.500    2.333    0.667 
#    6.000    2.500    0.000    0.000    0.000    0.000 
#    0.000    0.000    0.000    0.000    0.000    0.000 
#
# Total GULP energy -148678.296157 kJ/mol
# GULP energy per Si atom -12389.858013 kJ/mol
# Density = 2.231577 g / cm^3
# Si number density = 22.366680 Si / 1000 Ang^3
#
#
#
# Elastic Constant Matrix: (Units=GPa)
#
#
# Indices 1 2 3 4 5 6 
#
# 1 66.2354 32.5755 22.9551 -7.0110 16.6080 0.8252
# 2 32.5755 142.1507 31.0570 -2.9325 12.7301 6.6339
# 3 22.9551 31.0570 49.2935 4.9859 0.5895 6.6905
# 4 -7.0110 -2.9325 4.9859 19.0355 -0.1154 6.5817
# 5 16.6080 12.7301 0.5895 -0.1154 35.7797 -5.3850
# 6 0.8252 6.6339 6.6905 6.5817 -5.3850 32.1654
#
#
#
# Elastic Compliance Matrix: (Units=1/GPa)
#
#
# Indices 1 2 3 4 5 6 
#
# 1 0.023556 -0.001799 -0.010615 0.011876 -0.010412 -0.002199
# 2 -0.001799 0.008832 -0.004718 0.002515 -0.002481 -0.001724
# 3 -0.010615 -0.004718 0.029531 -0.011817 0.005855 -0.001499
# 4 0.011876 0.002515 -0.011817 0.064824 -0.007954 -0.012961
# 5 -0.010412 -0.002481 0.005855 -0.007954 0.034593 0.006980
# 6 -0.002199 -0.001724 -0.001499 -0.012961 0.006980 0.035634
#
#
# Mechanical properties :
#
#
# Convention : Reuss Voigt Hill
#
# Bulk Modulus (GPa) = 36.15751 47.87276 42.01514
# Shear Modulus (GPa) = 20.79429 28.80225 24.79827
#
# Velocity S-wave (km/s) = 3.05241 3.59239 3.33335
# Velocity P-wave (km/s) = 5.35012 6.21748 5.80004
#
# Compressibility (1/GPa) = 0.02765677
#
# Stress axis : x y z
#
# Youngs Moduli (GPa) = 42.45144 113.22091 33.86313
#
# Poissons Ratio (x) = 0.20370 0.35944
# Poissons Ratio (y) = 0.07638 0.15975
# Poissons Ratio (z) = 0.45060 0.53413
#
# Static dielectric constant tensor:
#      x y z
#    x 4.044350 0.251720 -0.157450 
#    y 0.251720 4.575130 0.240660 
#    z -0.157450 0.240660 4.097980 
# 
# 
# High freq. dielectric constant tensor:
#      x y z
#    x 1.863920 0.007550 -0.000840 
#    y 0.007550 1.906810 -0.008300 
#    z -0.000840 -0.008300 1.840980 
# 
# From -- ./inp_files/177297.got.cif
#   From: 2010.06.25/outbox.cif.g09.slc.cpg/sg2_89_cif.got.tgz:177297.got - 2010.06.27 13:26:56.
