data_PCOD8013679
_publ_section_title
;
Structure prediction by ZEFSAII (Michael W. Deem and Ramdas Pophale) SiO2 
 PCOD8013679
Probable space group: P -1
;
_chemical_formula_sum "Si O2"
_cell_formula_units_Z 16
_cell_length_a 16.320142
_cell_length_b 25.137878
_cell_length_c 5.076573
_cell_angle_alpha 81.892793
_cell_angle_beta 97.134950
_cell_angle_gamma 161.425492
_cell_volume 656.486266
_symmetry_space_group_name_H-M "P -1"
_symmetry_group_IT_number 2
_symmetry_cell_setting 'triclinic'
loop_
_space_group_symop_operation_xyz
x,y,z
-x,-y,-z
loop_
_atom_site_type_symbol
_atom_site_label
_atom_site_fract_x
_atom_site_fract_y
_atom_site_fract_z
Si Si1 0.668513 0.655211 0.191790
Si Si2 0.231905 0.400766 0.832582
Si Si3 0.474913 0.760191 0.450837
Si Si4 0.785113 0.107047 0.206369
Si Si5 0.956768 0.638216 0.610216
Si Si6 0.986708 0.863814 0.654946
Si Si7 0.227440 0.559972 0.977451
Si Si8 0.251169 0.733435 0.323477
O O1 0.644353 0.575494 0.274729
O O2 0.763756 0.741073 0.440745
O O3 0.389799 0.506859 0.096946
O O4 0.875136 0.797059 0.949558
O O5 0.249311 0.462343 0.602627
O O6 0.931085 0.206194 0.918140
O O7 0.411091 0.677984 0.711656
O O8 0.363316 0.749625 0.499553
O O9 0.782197 0.950947 0.402826
O O10 0.344305 0.665804 0.188160
O O11 0.906236 0.129332 0.380336
O O12 0.828225 0.185585 0.350604
O O13 0.482658 0.911840 0.168145
O O14 0.093869 0.671027 0.515557
O O15 0.801850 0.520677 0.887172
O O16 0.940178 0.402563 0.892428
#
# Coordination Sequence:
#
# PCOD8013679 Si02
#       8
#     2   2   2   2   2   2   2   2
#     4  10  21  40  71  98 130 166 215 264 338 379
#     4  10  23  39  63 100 135 172 208 267 320 413
#     4  11  25  44  70  94 130 168 234 266 318 372
#     4  10  23  40  64  98 138 170 215 257 334 387
#     4  12  24  40  63  96 138 179 211 261 326 393
#     4  10  21  42  69 101 126 166 213 285 317 383
#     4  12  25  44  66  93 131 180 219 271 315 375
#     4  11  25  42  65  98 131 180 216 273 309 387
#
# _framework density 24.372177000000001
#
# number of rings (size 3 to 8) (size 9 to 14) (size 15 to 20)
#    0.000    1.250    2.500    2.625    3.500    4.500 
#    0.000    0.000    0.000    4.500    0.000    0.000 
#    0.000    0.000    0.000    0.000    0.000    0.000 
#
# Total GULP energy -198398.046441 kJ/mol
# GULP energy per Si atom -12399.877903 kJ/mol
# Density = 2.431670 g / cm^3
# Si number density = 24.372177 Si / 1000 Ang^3
#
#
#
# Elastic Constant Matrix: (Units=GPa)
#
#
# Indices 1 2 3 4 5 6 
#
# 1 22.5479 10.6875 3.9452 -7.0177 1.3019 -2.3236
# 2 10.6875 135.3700 27.9554 -8.2820 13.4643 -19.8095
# 3 3.9452 27.9554 106.2222 -6.5470 15.4922 -9.0764
# 4 -7.0177 -8.2820 -6.5470 37.4696 -12.1894 -2.6022
# 5 1.3019 13.4643 15.4922 -12.1894 32.9932 3.1240
# 6 -2.3236 -19.8095 -9.0764 -2.6022 3.1240 23.4854
#
#
#
# Elastic Compliance Matrix: (Units=1/GPa)
#
#
# Indices 1 2 3 4 5 6 
#
# 1 0.048975 -0.003045 -0.000616 0.009509 0.002856 0.002713
# 2 -0.003045 0.009400 -0.001121 0.000652 -0.003683 0.007757
# 3 -0.000616 -0.001121 0.010782 0.000203 -0.004869 0.003831
# 4 0.009509 0.000652 0.000203 0.032453 0.010901 0.003715
# 5 0.002856 -0.003683 -0.004869 0.010901 0.038834 -0.008664
# 6 0.002713 0.007757 0.003831 0.003715 -0.008664 0.052435
#
#
# Mechanical properties :
#
#
# Convention : Reuss Voigt Hill
#
# Bulk Modulus (GPa) = 16.78007 38.81292 27.79650
# Shear Modulus (GPa) = 22.49130 33.55977 28.02554
#
# Velocity S-wave (km/s) = 3.04110 3.71478 3.39469
# Velocity P-wave (km/s) = 4.38531 5.86167 5.17639
#
# Compressibility (1/GPa) = 0.05959450
#
# Stress axis : x y z
#
# Youngs Moduli (GPa) = 20.41846 106.37922 92.74719
#
# Poissons Ratio (x) = 0.32388 0.05716
# Poissons Ratio (y) = 0.06217 0.10394
# Poissons Ratio (z) = 0.01258 0.11922
#
# Static dielectric constant tensor:
#      x y z
#    x 4.100410 -0.066250 0.186090 
#    y -0.066250 4.622320 -0.076310 
#    z 0.186090 -0.076310 4.326380 
# 
# 
# High freq. dielectric constant tensor:
#      x y z
#    x 1.941760 -0.002990 0.004140 
#    y -0.002990 1.974730 -0.004300 
#    z 0.004140 -0.004300 1.973570 
# 
# From -- ./inp_files/113124.got.cif
#   From: 2010.06.25/outbox.cif.g09.slc.cpg/sg2_57_cif.got.tgz:113124.got - 2010.06.27 13:26:56.
