data_PCOD8013734
_publ_section_title
;
Structure prediction by ZEFSAII (Michael W. Deem and Ramdas Pophale) SiO2 
 PCOD8013734
Probable space group: P -1
;
_chemical_formula_sum "Si O2"
_cell_formula_units_Z 14
_cell_length_a 11.330541
_cell_length_b 9.377175
_cell_length_c 7.196540
_cell_angle_alpha 78.336249
_cell_angle_beta 118.930957
_cell_angle_gamma 93.109946
_cell_volume 654.534345
_symmetry_space_group_name_H-M "P -1"
_symmetry_group_IT_number 2
_symmetry_cell_setting 'triclinic'
loop_
_space_group_symop_operation_xyz
x,y,z
-x,-y,-z
loop_
_atom_site_type_symbol
_atom_site_label
_atom_site_fract_x
_atom_site_fract_y
_atom_site_fract_z
Si Si1 0.387944 0.784349 0.422596
Si Si2 0.793248 0.990102 0.557680
Si Si3 0.568278 0.867430 0.195115
Si Si4 0.849743 0.414692 0.704110
Si Si5 0.050984 0.298762 0.177249
Si Si6 0.535026 0.334347 0.105939
Si Si7 0.842916 0.278973 0.349981
O O1 0.310073 0.934285 0.392128
O O2 0.520750 0.286672 0.322343
O O3 0.483903 0.822658 0.320599
O O4 0.282043 0.666630 0.306087
O O5 0.716475 0.907337 0.358517
O O6 0.888929 0.865794 0.760131
O O7 0.880327 0.116024 0.500059
O O8 0.576992 0.738134 0.086905
O O9 0.500000 0.000000 0.000000
O O10 0.836981 0.586056 0.708088
O O11 0.863564 0.397478 0.496714
O O12 0.985283 0.342490 0.918823
O O13 0.934570 0.312559 0.238831
O O14 0.686413 0.287115 0.164938
O O15 0.500000 0.500000 0.000000
#
# Coordination Sequence:
#
# PCOD8013734 Si02
#       7
#     2   2   2   2   2   2   2
#     4  10  23  43  61  90 128 158 204 260 300 365
#     4  10  23  38  63  93 120 158 208 245 302 371
#     4  12  22  42  64  90 124 165 199 258 310 357
#     4   9  22  39  60  84 121 162 196 248 304 355
#     4  11  21  41  60  90 119 159 206 245 302 361
#     4  10  23  41  63  95 123 163 205 245 313 365
#     4  10  21  41  60  87 125 157 198 256 294 360
#
# _framework density 21.389251000000002
#
# number of rings (size 3 to 8) (size 9 to 14) (size 15 to 20)
#    0.000    2.000    2.857    2.143    4.000    2.857 
#    7.714    0.000    0.000    0.000    0.000    0.000 
#    0.000    0.000    0.000    0.000    0.000    0.000 
#
# Total GULP energy -173569.611220 kJ/mol
# GULP energy per Si atom -12397.829373 kJ/mol
# Density = 2.134057 g / cm^3
# Si number density = 21.389251 Si / 1000 Ang^3
#
#
#
# Elastic Constant Matrix: (Units=GPa)
#
#
# Indices 1 2 3 4 5 6 
#
# 1 33.3924 8.5292 16.7650 -7.7272 -13.8216 12.3761
# 2 8.5292 122.5820 23.8226 -1.5466 -3.4604 -5.4955
# 3 16.7650 23.8226 66.1867 2.1497 -12.2007 -0.0466
# 4 -7.7272 -1.5466 2.1497 53.0598 -0.2424 7.8944
# 5 -13.8216 -3.4604 -12.2007 -0.2424 21.8437 -4.5382
# 6 12.3761 -5.4955 -0.0466 7.8944 -4.5382 24.7524
#
#
#
# Elastic Compliance Matrix: (Units=1/GPa)
#
#
# Indices 1 2 3 4 5 6 
#
# 1 0.061429 -0.002763 -0.010161 0.014004 0.026480 -0.030959
# 2 -0.002763 0.008990 -0.002731 -0.000530 -0.001164 0.003328
# 3 -0.010161 -0.002731 0.019796 -0.003315 0.005526 0.006582
# 4 0.014004 -0.000530 -0.003315 0.023061 0.004338 -0.013686
# 5 0.026480 -0.001164 0.005526 0.004338 0.064866 -0.002979
# 6 -0.030959 0.003328 0.006582 -0.013686 -0.002979 0.060449
#
#
# Mechanical properties :
#
#
# Convention : Reuss Voigt Hill
#
# Bulk Modulus (GPa) = 16.97617 35.59940 26.28779
# Shear Modulus (GPa) = 17.26884 31.46745 24.36815
#
# Velocity S-wave (km/s) = 2.84449 3.83976 3.37897
# Velocity P-wave (km/s) = 4.32923 6.02810 5.24787
#
# Compressibility (1/GPa) = 0.05890609
#
# Stress axis : x y z
#
# Youngs Moduli (GPa) = 16.27886 111.22874 50.51418
#
# Poissons Ratio (x) = 0.30736 0.51326
# Poissons Ratio (y) = 0.04498 0.13796
# Poissons Ratio (z) = 0.16541 0.30377
#
# Static dielectric constant tensor:
#      x y z
#    x 3.809980 0.231830 0.043110 
#    y 0.231830 4.204820 0.117970 
#    z 0.043110 0.117970 3.959750 
# 
# 
# High freq. dielectric constant tensor:
#      x y z
#    x 1.804110 0.009020 -0.009550 
#    y 0.009020 1.860560 0.005310 
#    z -0.009550 0.005310 1.846770 
# 
# From -- ./inp_files/238043.got.cif
#   From: 2010.06.25/outbox.cif.g09.slc.cpg/sg2_120_cif.got.tgz:238043.got - 2010.06.27 13:26:56.
