data_PCOD8013651
_publ_section_title
;
Structure prediction by ZEFSAII (Michael W. Deem and Ramdas Pophale) SiO2 
 PCOD8013651
Probable space group: P -1
;
_chemical_formula_sum "Si O2"
_cell_formula_units_Z 14
_cell_length_a 21.751571
_cell_length_b 9.239800
_cell_length_c 15.617245
_cell_angle_alpha 151.573264
_cell_angle_beta 154.712133
_cell_angle_gamma 41.760265
_cell_volume 619.277626
_symmetry_space_group_name_H-M "P -1"
_symmetry_group_IT_number 2
_symmetry_cell_setting 'triclinic'
loop_
_space_group_symop_operation_xyz
x,y,z
-x,-y,-z
loop_
_atom_site_type_symbol
_atom_site_label
_atom_site_fract_x
_atom_site_fract_y
_atom_site_fract_z
Si Si1 0.219466 0.782564 0.152165
Si Si2 0.442690 0.238530 0.919279
Si Si3 0.748838 0.436337 0.629140
Si Si4 0.506774 0.323602 0.630252
Si Si5 0.998125 0.703179 0.687057
Si Si6 0.291282 0.441567 0.674129
Si Si7 0.971964 0.390197 0.021238
O O1 0.357842 0.619441 0.238164
O O2 0.284994 0.136177 0.449311
O O3 0.154764 0.777039 0.971782
O O4 0.086469 0.600963 0.951340
O O5 0.460831 0.394502 0.115677
O O6 0.603798 0.266760 0.092233
O O7 0.351887 0.405442 0.827196
O O8 0.363217 0.882324 0.650565
O O9 0.649302 0.685925 0.618708
O O10 0.854221 0.421283 0.670451
O O11 0.867543 0.549841 0.913759
O O12 0.500000 0.000000 0.500000
O O13 0.872346 0.505709 0.490400
O O14 0.000000 0.500000 0.500000
O O15 0.956189 0.030924 0.782850
#
# Coordination Sequence:
#
# PCOD8013651 Si02
#       7
#     2   2   2   2   2   2   2
#     4  11  22  41  69 100 133 175 229 279 330 401
#     4  11  22  43  65  98 134 177 225 272 341 397
#     4  11  24  44  70  91 141 181 224 280 338 402
#     4  12  25  41  67 102 134 176 229 282 336 403
#     4  11  22  41  72 100 133 176 231 277 329 407
#     4  10  21  40  70  96 133 179 225 278 331 407
#     4  10  23  45  67  96 133 185 223 275 347 393
#
# _framework density 22.606987
#
# number of rings (size 3 to 8) (size 9 to 14) (size 15 to 20)
#    0.000    1.143    4.286    3.857    2.000    0.571 
#    0.000    2.143    0.000    0.000    0.000    0.000 
#    0.000    0.000    0.000    0.000    0.000    0.000 
#
# Total GULP energy -173530.151368 kJ/mol
# GULP energy per Si atom -12395.010812 kJ/mol
# Density = 2.255553 g / cm^3
# Si number density = 22.606987 Si / 1000 Ang^3
#
#
#
# Elastic Constant Matrix: (Units=GPa)
#
#
# Indices 1 2 3 4 5 6 
#
# 1 146.4808 49.0630 51.2212 -4.2774 28.0656 -12.5921
# 2 49.0630 121.0355 32.0809 -27.1405 11.9018 -10.1173
# 3 51.2212 32.0809 81.9082 -13.5529 31.6849 -2.3540
# 4 -4.2774 -27.1405 -13.5529 36.8629 10.9833 9.0437
# 5 28.0656 11.9018 31.6849 10.9833 59.8817 -3.0073
# 6 -12.5921 -10.1173 -2.3540 9.0437 -3.0073 28.1617
#
#
#
# Elastic Compliance Matrix: (Units=1/GPa)
#
#
# Indices 1 2 3 4 5 6 
#
# 1 0.010129 -0.003201 -0.005598 -0.004236 -0.000159 0.004254
# 2 -0.003201 0.011865 -0.000207 0.009105 -0.002437 -0.000370
# 3 -0.005598 -0.000207 0.022124 0.012228 -0.011580 -0.005891
# 4 -0.004236 0.009105 0.012228 0.045853 -0.015407 -0.013971
# 5 -0.000159 -0.002437 -0.011580 -0.015407 0.026506 0.005864
# 6 0.004254 -0.000370 -0.005891 -0.013971 0.005864 0.041899
#
#
# Mechanical properties :
#
#
# Convention : Reuss Voigt Hill
#
# Bulk Modulus (GPa) = 38.30357 68.23942 53.27150
# Shear Modulus (GPa) = 27.01416 39.45189 33.23302
#
# Velocity S-wave (km/s) = 3.46055 4.18199 3.83826
# Velocity P-wave (km/s) = 5.73997 7.31911 6.57711
#
# Compressibility (1/GPa) = 0.02610723
#
# Stress axis : x y z
#
# Youngs Moduli (GPa) = 98.72961 84.28388 45.19999
#
# Poissons Ratio (x) = 0.26977 0.25301
# Poissons Ratio (y) = 0.31600 0.00934
# Poissons Ratio (z) = 0.55265 0.01742
#
# Static dielectric constant tensor:
#      x y z
#    x 4.462690 -0.018160 0.428090 
#    y -0.018160 4.067010 -0.396530 
#    z 0.428090 -0.396530 4.223490 
# 
# 
# High freq. dielectric constant tensor:
#      x y z
#    x 1.902700 0.006580 0.029040 
#    y 0.006580 1.866920 -0.029730 
#    z 0.029040 -0.029730 1.889800 
# 
# From -- ./inp_files/540610.got.cif
#   From: 2010.06.25/outbox.cif.g09.slc.cpg/sg2_271_cif.got.tgz:540610.got - 2010.06.27 13:26:56.
