data_PCOD8013060
_publ_section_title
;
Structure prediction by ZEFSAII (Michael W. Deem and Ramdas Pophale) SiO2 
 PCOD8013060
Probable space group: P -1
;
_chemical_formula_sum "Si O2"
_cell_formula_units_Z 16
_cell_length_a 15.294535
_cell_length_b 11.861784
_cell_length_c 9.248218
_cell_angle_alpha 43.210496
_cell_angle_beta 45.617405
_cell_angle_gamma 52.026179
_cell_volume 801.693419
_symmetry_space_group_name_H-M "P -1"
_symmetry_group_IT_number 2
_symmetry_cell_setting 'triclinic'
loop_
_space_group_symop_operation_xyz
x,y,z
-x,-y,-z
loop_
_atom_site_type_symbol
_atom_site_label
_atom_site_fract_x
_atom_site_fract_y
_atom_site_fract_z
Si Si1 0.231700 0.704182 0.772782
Si Si2 0.136287 0.902104 0.970131
Si Si3 0.834740 0.384965 0.584174
Si Si4 0.314452 0.779271 0.304489
Si Si5 0.975650 0.613271 0.063277
Si Si6 0.255574 0.098133 0.882196
Si Si7 0.599672 0.660212 0.658972
Si Si8 0.445122 0.441957 0.895457
O O1 0.218683 0.835733 0.796496
O O2 0.289717 0.793153 0.491098
O O3 0.317508 0.519380 0.883507
O O4 0.094971 0.679392 0.913066
O O5 0.210780 0.014447 0.870982
O O6 0.108026 0.749377 0.237953
O O7 0.000000 0.000000 0.000000
O O8 0.797021 0.298669 0.562184
O O9 0.939788 0.492090 0.340241
O O10 0.710679 0.497471 0.688067
O O11 0.450303 0.657284 0.241282
O O12 0.312718 0.961495 0.065593
O O13 0.857711 0.770607 0.032713
O O14 0.000000 0.500000 0.000000
O O15 0.364725 0.186009 0.613760
O O16 0.482793 0.608765 0.762772
O O17 0.569162 0.692363 0.835249
#
# Coordination Sequence:
#
# PCOD8013060 Si02
#       8
#     2   2   2   2   2   2   2   2
#     4  12  23  39  63  93 130 160 207 249 311 368
#     4  11  22  38  59  94 128 161 197 261 312 359
#     4   9  19  38  62  87 118 160 209 245 306 367
#     4  10  22  40  62  88 126 165 201 254 303 368
#     4  11  22  39  66  92 119 163 206 253 308 371
#     4  10  23  41  65  90 122 162 209 251 313 365
#     4   9  19  39  66  87 117 159 212 253 295 365
#     4  10  21  40  65  91 118 167 210 252 304 355
#
# _framework density 19.957753
#
# number of rings (size 3 to 8) (size 9 to 14) (size 15 to 20)
#    0.000    1.750    3.750    0.375    1.750    3.500 
#    0.000    0.625    0.000    0.000    0.000    0.000 
#    0.000    0.000    0.000    0.000    0.000    0.000 
#
# Total GULP energy -198379.933690 kJ/mol
# GULP energy per Si atom -12398.745856 kJ/mol
# Density = 1.991233 g / cm^3
# Si number density = 19.957753 Si / 1000 Ang^3
#
#
#
# Elastic Constant Matrix: (Units=GPa)
#
#
# Indices 1 2 3 4 5 6 
#
# 1 41.1252 27.2211 29.1667 6.7620 8.4504 -3.2172
# 2 27.2211 106.1184 46.5592 9.5443 17.3758 6.6823
# 3 29.1667 46.5592 106.4275 -0.7539 4.4347 -9.9812
# 4 6.7620 9.5443 -0.7539 35.3750 3.1759 4.9010
# 5 8.4504 17.3758 4.4347 3.1759 29.6244 0.0602
# 6 -3.2172 6.6823 -9.9812 4.9010 0.0602 31.6460
#
#
#
# Elastic Compliance Matrix: (Units=1/GPa)
#
#
# Indices 1 2 3 4 5 6 
#
# 1 0.034600 -0.004615 -0.006976 -0.005456 -0.005540 0.003147
# 2 -0.004615 0.014386 -0.005242 -0.001888 -0.006124 -0.004856
# 3 -0.006976 -0.005242 0.013919 0.002183 0.002738 0.004445
# 4 -0.005456 -0.001888 0.002183 0.030532 -0.000928 -0.004194
# 5 -0.005540 -0.006124 0.002738 -0.000928 0.038614 0.001664
# 6 0.003147 -0.004856 0.004445 -0.004194 0.001664 0.034993
#
#
# Mechanical properties :
#
#
# Convention : Reuss Voigt Hill
#
# Bulk Modulus (GPa) = 34.20142 51.06280 42.63211
# Shear Modulus (GPa) = 23.75785 29.37735 26.56760
#
# Velocity S-wave (km/s) = 3.45397 3.84080 3.65251
# Velocity P-wave (km/s) = 5.75158 6.73127 6.26062
#
# Compressibility (1/GPa) = 0.02923855
#
# Stress axis : x y z
#
# Youngs Moduli (GPa) = 28.90189 69.51353 71.84255
#
# Poissons Ratio (x) = 0.32082 0.50116
# Poissons Ratio (y) = 0.13339 0.37661
# Poissons Ratio (z) = 0.20161 0.36440
#
# Static dielectric constant tensor:
#      x y z
#    x 3.901180 -0.087920 -0.398670 
#    y -0.087920 3.748140 0.158160 
#    z -0.398670 0.158160 3.985120 
# 
# 
# High freq. dielectric constant tensor:
#      x y z
#    x 1.763840 -0.009010 0.004900 
#    y -0.009010 1.783550 0.010060 
#    z 0.004900 0.010060 1.785430 
# 
# From -- ./inp_files/200855.got.cif
#   From: 2010.06.25/outbox.cif.g09.slc.cpg/sg2_101_cif.got.tgz:200855.got - 2010.06.27 13:26:56.
