data_PCOD8013135
_publ_section_title
;
Structure prediction by ZEFSAII (Michael W. Deem and Ramdas Pophale) SiO2 
 PCOD8013135
Probable space group: P -1
;
_chemical_formula_sum "Si O2"
_cell_formula_units_Z 16
_cell_length_a 14.489953
_cell_length_b 8.552158
_cell_length_c 9.328202
_cell_angle_alpha 114.049212
_cell_angle_beta 94.316442
_cell_angle_gamma 125.050704
_cell_volume 786.737015
_symmetry_space_group_name_H-M "P -1"
_symmetry_group_IT_number 2
_symmetry_cell_setting 'triclinic'
loop_
_space_group_symop_operation_xyz
x,y,z
-x,-y,-z
loop_
_atom_site_type_symbol
_atom_site_label
_atom_site_fract_x
_atom_site_fract_y
_atom_site_fract_z
Si Si1 0.891493 0.559271 0.643262
Si Si2 0.741857 0.038602 0.401315
Si Si3 0.009679 0.813294 0.454349
Si Si4 0.532274 0.857918 0.515457
Si Si5 0.934632 0.428188 0.117074
Si Si6 0.321462 0.044249 0.158823
Si Si7 0.712737 0.628076 0.742650
Si Si8 0.379901 0.290733 0.991330
O O1 0.830057 0.649705 0.743549
O O2 0.960339 0.696951 0.559316
O O3 0.995006 0.612495 0.781318
O O4 0.785256 0.290102 0.492362
O O5 0.618631 0.865534 0.415913
O O6 0.716262 0.927481 0.201713
O O7 0.847067 0.058379 0.497853
O O8 0.935509 0.622161 0.250661
O O9 0.000000 0.000000 0.500000
O O10 0.603466 0.965321 0.714829
O O11 0.408283 0.599848 0.431462
O O12 0.500000 0.000000 0.500000
O O13 0.000000 0.500000 0.000000
O O14 0.791426 0.208750 0.002066
O O15 0.266567 0.160787 0.252051
O O16 0.412202 0.197894 0.090892
O O17 0.688562 0.629223 0.911918
O O18 0.500000 0.500000 0.000000
#
# Coordination Sequence:
#
# PCOD8013135 Si02
#       8
#     2   2   2   2   2   2   2   2
#     4  11  23  43  69  95 135 175 223 266 334 401
#     4  11  21  43  68  90 137 175 212 276 332 390
#     4  11  26  43  66 101 131 178 221 269 334 402
#     4  12  23  43  69  98 131 179 224 267 333 397
#     4  11  24  44  70  98 134 175 219 277 337 388
#     4  10  23  42  67  96 134 167 225 272 330 385
#     4  10  24  39  71  95 131 176 225 264 334 392
#     4  10  21  40  65  95 128 170 216 276 329 379
#
# _framework density 20.337164999999999
#
# number of rings (size 3 to 8) (size 9 to 14) (size 15 to 20)
#    0.750    0.500    2.500    4.875    3.500    1.500 
#    0.000    0.625    0.000    0.000    0.000    0.000 
#    0.000    0.000    0.000    0.000    0.000    0.000 
#
# Total GULP energy -198341.498431 kJ/mol
# GULP energy per Si atom -12396.343652 kJ/mol
# Density = 2.029088 g / cm^3
# Si number density = 20.337165 Si / 1000 Ang^3
#
#
#
# Elastic Constant Matrix: (Units=GPa)
#
#
# Indices 1 2 3 4 5 6 
#
# 1 106.5170 41.2757 51.6348 5.1909 -8.2851 -11.3286
# 2 41.2757 97.2169 53.1302 -8.4200 2.6294 -11.7263
# 3 51.6348 53.1302 155.2061 4.0260 3.2969 -10.9577
# 4 5.1909 -8.4200 4.0260 37.1253 3.8082 -6.4854
# 5 -8.2851 2.6294 3.2969 3.8082 31.1569 -3.0388
# 6 -11.3286 -11.7263 -10.9577 -6.4854 -3.0388 35.8914
#
#
#
# Elastic Compliance Matrix: (Units=1/GPa)
#
#
# Indices 1 2 3 4 5 6 
#
# 1 0.013035 -0.004119 -0.002828 -0.002604 0.004609 0.001825
# 2 -0.004119 0.014887 -0.003584 0.005135 -0.002287 0.003204
# 3 -0.002828 -0.003584 0.008686 -0.001189 -0.001197 0.000272
# 4 -0.002604 0.005135 -0.001189 0.029988 -0.004123 0.005562
# 5 0.004609 -0.002287 -0.001197 -0.004123 0.034390 0.002509
# 6 0.001825 0.003204 0.000272 0.005562 0.002509 0.030785
#
#
# Mechanical properties :
#
#
# Convention : Reuss Voigt Hill
#
# Bulk Modulus (GPa) = 64.32597 72.33573 68.33085
# Shear Modulus (GPa) = 31.64267 35.02800 33.33533
#
# Velocity S-wave (km/s) = 3.94877 4.15464 4.05301
# Velocity P-wave (km/s) = 7.24492 7.65899 7.45483
#
# Compressibility (1/GPa) = 0.01554582
#
# Stress axis : x y z
#
# Youngs Moduli (GPa) = 76.71915 67.17327 115.12307
#
# Poissons Ratio (x) = 0.27666 0.32557
# Poissons Ratio (y) = 0.31598 0.41264
# Poissons Ratio (z) = 0.21696 0.24077
#
# Static dielectric constant tensor:
#      x y z
#    x 3.021920 0.443280 -0.754330 
#    y 0.443280 3.397560 0.522960 
#    z -0.754330 0.522960 3.267110 
# 
# 
# High freq. dielectric constant tensor:
#      x y z
#    x 1.778460 0.005760 -0.007480 
#    y 0.005760 1.803210 0.006090 
#    z -0.007480 0.006090 1.805600 
# 
# From -- ./inp_files/296130.got.cif
#   From: 2010.06.25/outbox.cif.g09.slc.cpg/sg2_149_cif.got.tgz:296130.got - 2010.06.27 13:26:56.
