data_PCOD8013030
_publ_section_title
;
Structure prediction by ZEFSAII (Michael W. Deem and Ramdas Pophale) SiO2 
 PCOD8013030
Probable space group: P -1
;
_chemical_formula_sum "Si O2"
_cell_formula_units_Z 14
_cell_length_a 8.708393
_cell_length_b 11.313237
_cell_length_c 9.706714
_cell_angle_alpha 98.517540
_cell_angle_beta 85.108084
_cell_angle_gamma 38.906450
_cell_volume 562.175702
_symmetry_space_group_name_H-M "P -1"
_symmetry_group_IT_number 2
_symmetry_cell_setting 'triclinic'
loop_
_space_group_symop_operation_xyz
x,y,z
-x,-y,-z
loop_
_atom_site_type_symbol
_atom_site_label
_atom_site_fract_x
_atom_site_fract_y
_atom_site_fract_z
Si Si1 0.862337 0.585995 0.183166
Si Si2 0.080273 0.711439 0.821208
Si Si3 0.393485 0.022700 0.293502
Si Si4 0.145851 0.802731 0.103463
Si Si5 0.339609 0.753843 0.692389
Si Si6 0.648317 0.571930 0.902245
Si Si7 0.455365 0.199408 0.506912
O O1 0.816763 0.471995 0.140670
O O2 0.822100 0.625027 0.360610
O O3 0.143013 0.452985 0.081478
O O4 0.645997 0.804996 0.165169
O O5 0.288539 0.642276 0.688099
O O6 0.823839 0.839571 0.780879
O O7 0.037657 0.837931 0.964606
O O8 0.448040 0.124112 0.356254
O O9 0.331230 0.985554 0.432161
O O10 0.204491 0.646279 0.157631
O O11 0.413407 0.711721 0.054321
O O12 0.939309 0.008343 0.236006
O O13 0.537609 0.673925 0.779754
O O14 0.462913 0.717624 0.530938
#
# Coordination Sequence:
#
# PCOD8013030 Si02
#       7
#     2   2   2   2   2   2   2
#     4  10  22  40  62  95 123 157 207 258 299 374
#     4  11  23  38  63  95 127 158 209 253 315 350
#     4   9  21  41  62  93 124 159 203 259 302 369
#     4  10  24  43  62  93 121 168 210 248 306 374
#     4  11  23  42  64  90 126 169 202 254 302 378
#     4  10  21  40  65  86 121 165 204 250 309 353
#     4   9  21  44  64  91 124 163 210 239 324 364
#
# _framework density 24.903244999999998
#
# number of rings (size 3 to 8) (size 9 to 14) (size 15 to 20)
#    0.857    1.143    0.000    3.429    0.000    8.571 
#    0.000   10.000    0.000    0.000    0.000    0.000 
#    0.000    0.000    0.000    0.000    0.000    0.000 
#
# Total GULP energy -173484.899730 kJ/mol
# GULP energy per Si atom -12391.778552 kJ/mol
# Density = 2.484656 g / cm^3
# Si number density = 24.903245 Si / 1000 Ang^3
#
#
#
# Elastic Constant Matrix: (Units=GPa)
#
#
# Indices 1 2 3 4 5 6 
#
# 1 120.4429 35.3778 32.2664 6.7625 -18.0197 4.5022
# 2 35.3778 62.3969 14.4800 -7.5638 -4.4844 -8.3150
# 3 32.2664 14.4800 64.1121 -3.6323 -18.5601 6.3968
# 4 6.7625 -7.5638 -3.6323 23.0906 9.5902 1.1629
# 5 -18.0197 -4.4844 -18.5601 9.5902 44.7919 -13.8324
# 6 4.5022 -8.3150 6.3968 1.1629 -13.8324 41.6794
#
#
#
# Elastic Compliance Matrix: (Units=1/GPa)
#
#
# Indices 1 2 3 4 5 6 
#
# 1 0.012533 -0.006962 -0.003895 -0.008359 0.004379 -0.000458
# 2 -0.006962 0.022045 -0.001983 0.009585 -0.002079 0.004497
# 3 -0.003895 -0.001983 0.019885 0.001240 0.005864 -0.001115
# 4 -0.008359 0.009585 0.001240 0.055507 -0.014977 -0.003894
# 5 0.004379 -0.002079 0.005864 -0.014977 0.032415 0.009388
# 6 -0.000458 0.004497 -0.001115 -0.003894 0.009388 0.028335
#
#
# Mechanical properties :
#
#
# Convention : Reuss Voigt Hill
#
# Bulk Modulus (GPa) = 34.74163 45.68892 40.21527
# Shear Modulus (GPa) = 24.27256 32.90087 28.58672
#
# Velocity S-wave (km/s) = 3.12536 3.63870 3.39176
# Velocity P-wave (km/s) = 5.19661 6.00333 5.61448
#
# Compressibility (1/GPa) = 0.02878391
#
# Stress axis : x y z
#
# Youngs Moduli (GPa) = 79.79123 45.36082 50.28885
#
# Poissons Ratio (x) = 0.31578 0.19589
# Poissons Ratio (y) = 0.55547 0.09972
# Poissons Ratio (z) = 0.31081 0.08994
#
# Static dielectric constant tensor:
#      x y z
#    x 4.371520 0.208720 -0.172450 
#    y 0.208720 4.436090 -0.151490 
#    z -0.172450 -0.151490 4.139800 
# 
# 
# High freq. dielectric constant tensor:
#      x y z
#    x 1.986090 0.014890 -0.009890 
#    y 0.014890 1.993320 -0.019410 
#    z -0.009890 -0.019410 1.976990 
# 
# From -- ./inp_files/387538.got.cif
#   From: 2010.06.25/outbox.cif.g09.slc.cpg/sg2_194_cif.got.tgz:387538.got - 2010.06.27 13:26:56.
