data_PCOD8013783
_publ_section_title
;
Structure prediction by ZEFSAII (Michael W. Deem and Ramdas Pophale) SiO2 
 PCOD8013783
Probable space group: P -1
;
_chemical_formula_sum "Si O2"
_cell_formula_units_Z 16
_cell_length_a 11.536667
_cell_length_b 6.879400
_cell_length_c 11.905192
_cell_angle_alpha 63.834998
_cell_angle_beta 70.466041
_cell_angle_gamma 72.241046
_cell_volume 785.238050
_symmetry_space_group_name_H-M "P -1"
_symmetry_group_IT_number 2
_symmetry_cell_setting 'triclinic'
loop_
_space_group_symop_operation_xyz
x,y,z
-x,-y,-z
loop_
_atom_site_type_symbol
_atom_site_label
_atom_site_fract_x
_atom_site_fract_y
_atom_site_fract_z
Si Si1 0.264529 0.912965 0.689343
Si Si2 0.897751 0.751843 0.636335
Si Si3 0.959317 0.155171 0.078716
Si Si4 0.176638 0.757467 0.528194
Si Si5 0.507953 0.660794 0.789536
Si Si6 0.160650 0.358367 0.079102
Si Si7 0.719761 0.651860 0.539891
Si Si8 0.556899 0.769028 0.989880
O O1 0.132471 0.957881 0.785971
O O2 0.249847 0.783424 0.612270
O O3 0.368875 0.766813 0.768827
O O4 0.303959 0.147360 0.592198
O O5 0.836047 0.646517 0.786290
O O6 0.848725 0.656597 0.562931
O O7 0.047142 0.675492 0.616231
O O8 0.855059 0.015762 0.588319
O O9 0.081086 0.181588 0.103918
O O10 0.891034 0.394467 0.003031
O O11 0.000000 0.000000 0.000000
O O12 0.267883 0.578006 0.470769
O O13 0.603224 0.680030 0.654103
O O14 0.542583 0.789580 0.854800
O O15 0.517313 0.407747 0.887312
O O16 0.299433 0.291306 0.003514
O O17 0.500000 0.000000 0.000000
#
# Coordination Sequence:
#
# PCOD8013783 Si02
#       8
#     2   2   2   2   2   2   2   2
#     4  11  24  43  60  93 130 159 213 261 309 381
#     4  10  21  41  61  93 128 153 210 258 312 375
#     4  11  26  41  69  97 128 169 206 265 326 375
#     4  10  23  40  62  92 125 164 202 263 311 377
#     4  11  25  45  61  94 128 164 219 262 302 384
#     4  11  23  44  66  96 129 162 216 264 311 387
#     4  11  24  39  68  89 122 171 207 254 319 370
#     4  11  26  43  68  93 128 172 213 264 315 371
#
# _framework density 20.375986999999999
#
# number of rings (size 3 to 8) (size 9 to 14) (size 15 to 20)
#    0.000    1.250    3.750    0.750    5.250    2.500 
#    0.000    0.000    0.000    0.000    0.000    0.000 
#    0.000    0.000    0.000    0.000    0.000    0.000 
#
# Total GULP energy -198501.360496 kJ/mol
# GULP energy per Si atom -12406.335031 kJ/mol
# Density = 2.032961 g / cm^3
# Si number density = 20.375987 Si / 1000 Ang^3
#
#
#
# Elastic Constant Matrix: (Units=GPa)
#
#
# Indices 1 2 3 4 5 6 
#
# 1 99.5669 40.3862 21.3922 5.8797 -0.4718 -2.8133
# 2 40.3862 118.9757 46.1767 26.0033 0.5059 1.0810
# 3 21.3922 46.1767 113.9264 4.3360 -12.6281 2.8622
# 4 5.8797 26.0033 4.3360 26.0339 -1.0729 0.8382
# 5 -0.4718 0.5059 -12.6281 -1.0729 38.9909 -0.7292
# 6 -2.8133 1.0810 2.8622 0.8382 -0.7292 18.7181
#
#
#
# Elastic Compliance Matrix: (Units=1/GPa)
#
#
# Indices 1 2 3 4 5 6 
#
# 1 0.011818 -0.004095 -0.000660 0.001468 0.000061 0.002050
# 2 -0.004095 0.014492 -0.004851 -0.012824 -0.002166 -0.000221
# 3 -0.000660 -0.004851 0.011195 0.003334 0.003744 -0.001534
# 4 0.001468 -0.012824 0.003334 0.050497 0.002622 -0.001708
# 5 0.000061 -0.002166 0.003744 0.002622 0.026970 0.000495
# 6 0.002050 -0.000221 -0.001534 -0.001708 0.000495 0.054075
#
#
# Mechanical properties :
#
#
# Convention : Reuss Voigt Hill
#
# Bulk Modulus (GPa) = 54.66948 60.93100 57.80024
# Shear Modulus (GPa) = 25.72585 31.71617 28.72101
#
# Velocity S-wave (km/s) = 3.55710 3.94959 3.75847
# Velocity P-wave (km/s) = 6.61508 7.12511 6.87483
#
# Compressibility (1/GPa) = 0.01829174
#
# Stress axis : x y z
#
# Youngs Moduli (GPa) = 84.61754 69.00241 89.32949
#
# Poissons Ratio (x) = 0.28258 0.05894
# Poissons Ratio (y) = 0.34652 0.43338
# Poissons Ratio (z) = 0.05583 0.33476
#
# Static dielectric constant tensor:
#      x y z
#    x 3.805290 0.119790 0.024540 
#    y 0.119790 3.518160 -0.056630 
#    z 0.024540 -0.056630 3.763090 
# 
# 
# High freq. dielectric constant tensor:
#      x y z
#    x 1.805360 0.003120 -0.000780 
#    y 0.003120 1.788500 -0.003020 
#    z -0.000780 -0.003020 1.807770 
# 
# From -- ./inp_files/71793.got.cif
#   From: 2010.06.25/outbox.cif.g09.slc.cpg/sg2_36_cif.got.tgz:71793.got - 2010.06.27 13:26:56.
