data_PCOD8013286
_publ_section_title
;
Structure prediction by ZEFSAII (Michael W. Deem and Ramdas Pophale) SiO2 
 PCOD8013286
Probable space group: P -1
;
_chemical_formula_sum "Si O2"
_cell_formula_units_Z 16
_cell_length_a 12.697315
_cell_length_b 20.458154
_cell_length_c 8.672669
_cell_angle_alpha 50.917014
_cell_angle_beta 39.485331
_cell_angle_gamma 32.907356
_cell_volume 777.273247
_symmetry_space_group_name_H-M "P -1"
_symmetry_group_IT_number 2
_symmetry_cell_setting 'triclinic'
loop_
_space_group_symop_operation_xyz
x,y,z
-x,-y,-z
loop_
_atom_site_type_symbol
_atom_site_label
_atom_site_fract_x
_atom_site_fract_y
_atom_site_fract_z
Si Si1 0.911962 0.620071 0.858358
Si Si2 0.819495 0.248647 0.236090
Si Si3 0.269389 0.556893 0.771735
Si Si4 0.263257 0.035560 0.205172
Si Si5 0.191828 0.417084 0.270489
Si Si6 0.005790 0.067570 0.714868
Si Si7 0.708012 0.197915 0.133299
Si Si8 0.376773 0.826847 0.241460
O O1 0.926330 0.610175 0.669537
O O2 0.070368 0.631968 0.749590
O O3 0.645035 0.739245 0.022740
O O4 0.000000 0.500000 0.000000
O O5 0.776735 0.360697 0.160994
O O6 0.735606 0.257769 0.145580
O O7 0.665209 0.249723 0.527419
O O8 0.100202 0.127494 0.112858
O O9 0.500000 0.500000 0.500000
O O10 0.267416 0.469304 0.998774
O O11 0.313319 0.918280 0.306396
O O12 0.120031 0.098255 0.433221
O O13 0.500000 0.000000 0.000000
O O14 0.432916 0.294130 0.254404
O O15 0.000000 0.500000 0.500000
O O16 0.792355 0.095767 0.828640
O O17 0.211182 0.926460 0.734127
O O18 0.888046 0.161048 0.849877
#
# Coordination Sequence:
#
# PCOD8013286 Si02
#       8
#     2   2   2   2   2   2   2   2
#     4  10  22  41  65  91 126 174 222 270 325 389
#     4  11  22  39  65  95 127 174 219 271 329 394
#     4  11  26  44  66  95 130 176 228 276 327 394
#     4  11  22  38  64  97 129 169 226 272 318 390
#     4  11  26  44  68  99 131 178 224 277 339 397
#     4  10  21  40  66  96 126 175 215 267 336 401
#     4  11  22  40  69  92 136 168 215 265 344 397
#     4  11  19  41  65  95 126 171 231 264 320 398
#
# _framework density 20.584782000000001
#
# number of rings (size 3 to 8) (size 9 to 14) (size 15 to 20)
#    0.000    1.250    3.750    3.000    7.000    1.500 
#    0.000    0.625    0.000    0.000    0.000    0.000 
#    0.000    0.000    0.000    0.000    0.000    0.000 
#
# Total GULP energy -198274.874531 kJ/mol
# GULP energy per Si atom -12392.179658 kJ/mol
# Density = 2.053793 g / cm^3
# Si number density = 20.584782 Si / 1000 Ang^3
#
#
#
# Elastic Constant Matrix: (Units=GPa)
#
#
# Indices 1 2 3 4 5 6 
#
# 1 161.0243 48.2981 46.5124 16.9480 12.1223 -11.8642
# 2 48.2981 102.6530 33.4818 23.6615 1.4836 -16.3858
# 3 46.5124 33.4818 102.1609 24.5298 4.4874 -14.1362
# 4 16.9480 23.6615 24.5298 32.8186 1.9197 -5.2613
# 5 12.1223 1.4836 4.4874 1.9197 36.5612 6.5869
# 6 -11.8642 -16.3858 -14.1362 -5.2613 6.5869 40.8101
#
#
#
# Elastic Compliance Matrix: (Units=1/GPa)
#
#
# Indices 1 2 3 4 5 6 
#
# 1 0.008009 -0.002801 -0.002533 0.000029 -0.002361 0.000711
# 2 -0.002801 0.013541 -0.001027 -0.007033 0.000277 0.003315
# 3 -0.002533 -0.001027 0.013505 -0.007563 -0.000864 0.002694
# 4 0.000029 -0.007033 -0.007563 0.041242 -0.000968 0.000038
# 5 -0.002361 0.000277 -0.000864 -0.000968 0.029312 -0.005730
# 6 0.000711 0.003315 0.002694 0.000038 -0.005730 0.027904
#
#
# Mechanical properties :
#
#
# Convention : Reuss Voigt Hill
#
# Bulk Modulus (GPa) = 44.77935 69.15810 56.96873
# Shear Modulus (GPa) = 32.53498 37.87439 35.20468
#
# Velocity S-wave (km/s) = 3.97991 4.29408 4.13998
# Velocity P-wave (km/s) = 6.55137 7.63251 7.11251
#
# Compressibility (1/GPa) = 0.02233172
#
# Stress axis : x y z
#
# Youngs Moduli (GPa) = 124.85601 73.85071 74.04577
#
# Poissons Ratio (x) = 0.20687 0.18759
# Poissons Ratio (y) = 0.34974 0.07606
# Poissons Ratio (z) = 0.31631 0.07586
#
# Static dielectric constant tensor:
#      x y z
#    x 4.260410 -0.053150 0.089590 
#    y -0.053150 4.162230 -0.024010 
#    z 0.089590 -0.024010 3.612470 
# 
# 
# High freq. dielectric constant tensor:
#      x y z
#    x 1.819750 -0.005690 0.010190 
#    y -0.005690 1.811460 0.021310 
#    z 0.010190 0.021310 1.785170 
# 
# From -- ./inp_files/282847.got.cif
#   From: 2010.06.25/outbox.cif.g09.slc.cpg/sg2_142_cif.got.tgz:282847.got - 2010.06.27 13:26:56.
