data_PCOD8013252
_publ_section_title
;
Structure prediction by ZEFSAII (Michael W. Deem and Ramdas Pophale) SiO2 
 PCOD8013252
Probable space group: P -1
;
_chemical_formula_sum "Si O2"
_cell_formula_units_Z 16
_cell_length_a 11.644391
_cell_length_b 11.551660
_cell_length_c 23.811621
_cell_angle_alpha 41.692086
_cell_angle_beta 21.478666
_cell_angle_gamma 39.860258
_cell_volume 744.441456
_symmetry_space_group_name_H-M "P -1"
_symmetry_group_IT_number 2
_symmetry_cell_setting 'triclinic'
loop_
_space_group_symop_operation_xyz
x,y,z
-x,-y,-z
loop_
_atom_site_type_symbol
_atom_site_label
_atom_site_fract_x
_atom_site_fract_y
_atom_site_fract_z
Si Si1 0.269859 0.874593 0.035823
Si Si2 0.668754 0.450536 0.672625
Si Si3 0.128153 0.879385 0.539388
Si Si4 0.987761 0.840424 0.296634
Si Si5 0.767121 0.792779 0.221701
Si Si6 0.615668 0.131739 0.743690
Si Si7 0.695455 0.224130 0.341154
Si Si8 0.072726 0.379298 0.205649
O O1 0.082243 0.861898 0.182570
O O2 0.008257 0.904859 0.092865
O O3 0.555315 0.686308 0.962536
O O4 0.428872 0.041037 0.906853
O O5 0.609370 0.333988 0.688609
O O6 0.378446 0.642863 0.729629
O O7 0.000000 0.500000 0.500000
O O8 0.705472 0.321030 0.757685
O O9 0.519831 0.793895 0.386106
O O10 0.967353 0.715055 0.682037
O O11 0.000000 0.000000 0.500000
O O12 0.001896 0.011827 0.603618
O O13 0.646341 0.793702 0.472451
O O14 0.948166 0.029587 0.279645
O O15 0.562181 0.885099 0.227686
O O16 0.980562 0.591858 0.180506
O O17 0.837556 0.325306 0.287234
#
# Coordination Sequence:
#
# PCOD8013252 Si02
#       8
#     2   2   2   2   2   2   2   2
#     4  11  24  39  60  90 131 169 199 248 319 384
#     4  10  21  40  66  94 122 156 212 268 309 367
#     4   9  20  35  60  90 116 163 209 253 307 364
#     4  10  22  41  64  93 126 162 209 263 317 370
#     4  11  21  39  62  90 126 162 212 251 306 376
#     4  10  21  41  63  89 126 163 204 258 313 372
#     4  10  21  41  68  90 120 165 214 267 311 362
#     4  11  21  38  61  87 127 165 206 257 313 364
#
# _framework density 21.492623999999999
#
# number of rings (size 3 to 8) (size 9 to 14) (size 15 to 20)
#    0.000    1.750    1.250    3.375    0.000    4.000 
#    4.500    1.250    0.000    0.000    0.000    0.000 
#    0.000    0.000    0.000    0.000    0.000    0.000 
#
# Total GULP energy -198211.462262 kJ/mol
# GULP energy per Si atom -12388.216391 kJ/mol
# Density = 2.144371 g / cm^3
# Si number density = 21.492624 Si / 1000 Ang^3
#
#
#
# Elastic Constant Matrix: (Units=GPa)
#
#
# Indices 1 2 3 4 5 6 
#
# 1 92.4817 11.2940 38.6465 -7.8383 -4.0305 1.5669
# 2 11.2940 80.0807 33.5827 -5.3983 4.1389 -0.9251
# 3 38.6465 33.5827 92.7433 10.7293 2.9452 11.9330
# 4 -7.8383 -5.3983 10.7293 27.9144 2.2277 -0.4285
# 5 -4.0305 4.1389 2.9452 2.2277 26.1257 -9.6120
# 6 1.5669 -0.9251 11.9330 -0.4285 -9.6120 30.2303
#
#
#
# Elastic Compliance Matrix: (Units=1/GPa)
#
#
# Indices 1 2 3 4 5 6 
#
# 1 0.014776 0.001729 -0.008252 0.007418 0.003712 0.003830
# 2 0.001729 0.015987 -0.007676 0.006639 -0.000759 0.003282
# 3 -0.008252 -0.007676 0.019620 -0.011108 -0.004709 -0.009206
# 4 0.007418 0.006639 -0.011108 0.043585 -0.000677 0.004606
# 5 0.003712 -0.000759 -0.004709 -0.000677 0.045479 0.016094
# 6 0.003830 0.003282 -0.009206 0.004606 0.016094 0.041798
#
#
# Mechanical properties :
#
#
# Convention : Reuss Voigt Hill
#
# Bulk Modulus (GPa) = 45.48504 48.03913 46.76208
# Shear Modulus (GPa) = 23.04459 28.97290 26.00875
#
# Velocity S-wave (km/s) = 3.27801 3.67555 3.48246
# Velocity P-wave (km/s) = 5.96122 6.35711 6.16235
#
# Compressibility (1/GPa) = 0.02198525
#
# Stress axis : x y z
#
# Youngs Moduli (GPa) = 67.67828 62.55038 50.96905
#
# Poissons Ratio (x) = -0.10816 0.42060
# Poissons Ratio (y) = -0.11703 0.39123
# Poissons Ratio (z) = 0.55849 0.48012
#
# Static dielectric constant tensor:
#      x y z
#    x 3.918050 -0.338640 -0.005800 
#    y -0.338640 4.247000 0.021770 
#    z -0.005800 0.021770 4.014430 
# 
# 
# High freq. dielectric constant tensor:
#      x y z
#    x 1.840320 -0.016170 -0.007000 
#    y -0.016170 1.849390 -0.002960 
#    z -0.007000 -0.002960 1.835300 
# 
# From -- ./inp_files/314232.got.cif
#   From: 2010.06.25/outbox.cif.g09.slc.cpg/sg2_158_cif.got.tgz:314232.got - 2010.06.27 13:26:56.
