data_PCOD8013386
_publ_section_title
;
Structure prediction by ZEFSAII (Michael W. Deem and Ramdas Pophale) SiO2 
 PCOD8013386
Probable space group: P -1
;
_chemical_formula_sum "Si O2"
_cell_formula_units_Z 16
_cell_length_a 9.155188
_cell_length_b 14.761196
_cell_length_c 9.091414
_cell_angle_alpha 108.429221
_cell_angle_beta 136.576100
_cell_angle_gamma 64.786348
_cell_volume 764.038369
_symmetry_space_group_name_H-M "P -1"
_symmetry_group_IT_number 2
_symmetry_cell_setting 'triclinic'
loop_
_space_group_symop_operation_xyz
x,y,z
-x,-y,-z
loop_
_atom_site_type_symbol
_atom_site_label
_atom_site_fract_x
_atom_site_fract_y
_atom_site_fract_z
Si Si1 0.946267 0.399016 0.437652
Si Si2 0.800737 0.689372 0.160422
Si Si3 0.821438 0.355500 0.792720
Si Si4 0.425165 0.805209 0.509246
Si Si5 0.621171 0.893241 0.960433
Si Si6 0.927898 0.734970 0.798232
Si Si7 0.465209 0.465389 0.123647
Si Si8 0.968770 0.094392 0.927823
O O1 0.707078 0.425667 0.354674
O O2 0.000000 0.500000 0.500000
O O3 0.135131 0.315808 0.622667
O O4 0.929910 0.355170 0.242416
O O5 0.708554 0.804941 0.101047
O O6 0.035665 0.621671 0.225452
O O7 0.623440 0.629813 0.982327
O O8 0.669969 0.288939 0.587498
O O9 0.676995 0.449601 0.827301
O O10 0.028369 0.292723 0.012286
O O11 0.665724 0.764383 0.586765
O O12 0.259542 0.884402 0.320483
O O13 0.451701 0.859676 0.709901
O O14 0.825832 0.912336 0.033597
O O15 0.500000 0.000000 0.000000
O O16 0.036001 0.824828 0.905763
O O17 0.500000 0.500000 0.000000
O O18 0.000000 0.000000 0.000000
#
# Coordination Sequence:
#
# PCOD8013386 Si02
#       8
#     2   2   2   2   2   2   2   2
#     4  12  25  41  64 104 141 179 231 279 345 407
#     4  12  26  44  67 102 141 181 233 282 346 409
#     4  11  22  45  68  98 135 179 230 280 334 421
#     4  10  21  42  72  89 134 179 228 269 353 395
#     4  11  26  47  67 102 139 175 233 293 339 408
#     4  10  21  40  67  94 135 172 225 280 332 406
#     4  12  25  42  69  99 141 182 228 282 338 406
#     4  10  23  43  67  99 127 173 234 280 343 410
#
# _framework density 20.941358999999999
#
# number of rings (size 3 to 8) (size 9 to 14) (size 15 to 20)
#    0.000    1.000    6.250    1.125    1.750    6.000 
#    0.000    0.000    0.000    0.000    0.000    0.000 
#    0.000    0.000    0.000    0.000    0.000    0.000 
#
# Total GULP energy -198241.966859 kJ/mol
# GULP energy per Si atom -12390.122929 kJ/mol
# Density = 2.089370 g / cm^3
# Si number density = 20.941359 Si / 1000 Ang^3
#
#
#
# Elastic Constant Matrix: (Units=GPa)
#
#
# Indices 1 2 3 4 5 6 
#
# 1 80.3201 54.8170 41.5035 4.6339 7.9034 -1.8782
# 2 54.8170 137.7569 55.1092 5.8187 -0.8312 5.0315
# 3 41.5035 55.1092 137.0367 -3.0681 22.8209 3.2297
# 4 4.6339 5.8187 -3.0681 33.6210 -6.8370 -5.1686
# 5 7.9034 -0.8312 22.8209 -6.8370 29.0181 2.7657
# 6 -1.8782 5.0315 3.2297 -5.1686 2.7657 43.7437
#
#
#
# Elastic Compliance Matrix: (Units=1/GPa)
#
#
# Indices 1 2 3 4 5 6 
#
# 1 0.018694 -0.006431 -0.002500 -0.002242 -0.004001 0.001715
# 2 -0.006431 0.011276 -0.003346 -0.000675 0.004709 -0.001704
# 3 -0.002500 -0.003346 0.010698 0.000326 -0.007753 0.000016
# 4 -0.002242 -0.000675 0.000326 0.032254 0.007621 0.003286
# 5 -0.004001 0.004709 -0.007753 0.007621 0.043771 -0.002008
# 6 0.001715 -0.001704 0.000016 0.003286 -0.002008 0.023644
#
#
# Mechanical properties :
#
#
# Convention : Reuss Voigt Hill
#
# Bulk Modulus (GPa) = 62.05635 73.10813 67.58224
# Shear Modulus (GPa) = 29.36654 34.85548 32.11101
#
# Velocity S-wave (km/s) = 3.74882 4.08417 3.92008
# Velocity P-wave (km/s) = 6.95959 7.56487 7.26854
#
# Compressibility (1/GPa) = 0.01611439
#
# Stress axis : x y z
#
# Youngs Moduli (GPa) = 53.49301 88.68442 93.47422
#
# Poissons Ratio (x) = 0.57032 0.23367
# Poissons Ratio (y) = 0.34401 0.31278
# Poissons Ratio (z) = 0.13372 0.29675
#
# Static dielectric constant tensor:
#      x y z
#    x 3.782180 0.017430 0.125060 
#    y 0.017430 4.101840 -0.066180 
#    z 0.125060 -0.066180 4.021580 
# 
# 
# High freq. dielectric constant tensor:
#      x y z
#    x 1.817810 -0.002260 0.008210 
#    y -0.002260 1.820600 -0.000170 
#    z 0.008210 -0.000170 1.838920 
# 
# From -- ./inp_files/208574.got.cif
#   From: 2010.06.25/outbox.cif.g09.slc.cpg/sg2_105_cif.got.tgz:208574.got - 2010.06.27 13:26:56.
