data_PCOD8013635
_publ_section_title
;
Structure prediction by ZEFSAII (Michael W. Deem and Ramdas Pophale) SiO2 
 PCOD8013635
Probable space group: P -1
;
_chemical_formula_sum "Si O2"
_cell_formula_units_Z 16
_cell_length_a 12.130136
_cell_length_b 16.197819
_cell_length_c 8.001092
_cell_angle_alpha 116.855339
_cell_angle_beta 64.411657
_cell_angle_gamma 62.991583
_cell_volume 747.288216
_symmetry_space_group_name_H-M "P -1"
_symmetry_group_IT_number 2
_symmetry_cell_setting 'triclinic'
loop_
_space_group_symop_operation_xyz
x,y,z
-x,-y,-z
loop_
_atom_site_type_symbol
_atom_site_label
_atom_site_fract_x
_atom_site_fract_y
_atom_site_fract_z
Si Si1 0.513942 0.947131 0.124149
Si Si2 0.635405 0.138983 0.708282
Si Si3 0.087971 0.357124 0.230557
Si Si4 0.987432 0.037459 0.233014
Si Si5 0.448654 0.737632 0.627004
Si Si6 0.593617 0.809053 0.394664
Si Si7 0.341556 0.462418 0.374570
Si Si8 0.646660 0.363102 0.647887
O O1 0.380052 0.932621 0.205554
O O2 0.432819 0.068736 0.424889
O O3 0.750111 0.784129 0.872689
O O4 0.500000 0.000000 0.000000
O O5 0.579098 0.120886 0.557600
O O6 0.475714 0.319900 0.023568
O O7 0.865768 0.040037 0.438593
O O8 0.000000 0.500000 0.500000
O O9 0.901979 0.402138 0.360156
O O10 0.184713 0.329705 0.965677
O O11 0.226659 0.897959 0.007347
O O12 0.863545 0.210986 0.465583
O O13 0.000000 0.000000 0.000000
O O14 0.574332 0.754490 0.518621
O O15 0.585353 0.599749 0.543296
O O16 0.429706 0.688651 0.424373
O O17 0.348579 0.568257 0.444007
O O18 0.500000 0.500000 0.000000
#
# Coordination Sequence:
#
# PCOD8013635 Si02
#       8
#     2   2   2   2   2   2   2   2
#     4  11  25  44  67 100 131 168 225 276 325 396
#     4  11  20  43  67  95 131 171 215 270 329 384
#     4  11  24  43  70  94 129 180 218 265 343 388
#     4  10  21  40  70  90 126 171 222 258 329 382
#     4  11  25  42  65  99 134 171 221 271 323 390
#     4  11  22  42  69  93 131 173 218 270 325 396
#     4  12  24  42  66  96 139 168 217 277 323 390
#     4  11  22  43  66  94 129 174 219 267 326 385
#
# _framework density 21.410748999999999
#
# number of rings (size 3 to 8) (size 9 to 14) (size 15 to 20)
#    0.000    1.000    6.250    2.625    1.750    3.000 
#    0.000    0.000    0.000    0.000    0.000    0.000 
#    0.000    0.000    0.000    0.000    0.000    0.000 
#
# Total GULP energy -198276.883330 kJ/mol
# GULP energy per Si atom -12392.305208 kJ/mol
# Density = 2.136202 g / cm^3
# Si number density = 21.410749 Si / 1000 Ang^3
#
#
#
# Elastic Constant Matrix: (Units=GPa)
#
#
# Indices 1 2 3 4 5 6 
#
# 1 51.1688 23.2864 36.9783 7.5724 -0.1995 7.6235
# 2 23.2864 143.7049 48.6567 5.1054 -16.8349 14.4646
# 3 36.9783 48.6567 146.8245 3.2515 -5.6474 7.5100
# 4 7.5724 5.1054 3.2515 36.0282 8.2121 1.0096
# 5 -0.1995 -16.8349 -5.6474 8.2121 33.2156 4.8246
# 6 7.6235 14.4646 7.5100 1.0096 4.8246 37.5899
#
#
#
# Elastic Compliance Matrix: (Units=1/GPa)
#
#
# Indices 1 2 3 4 5 6 
#
# 1 0.025532 -0.001774 -0.005581 -0.004495 -0.000112 -0.003245
# 2 -0.001774 0.008949 -0.002117 -0.001770 0.005077 -0.003265
# 3 -0.005581 -0.002117 0.008908 0.000611 0.000239 0.000120
# 4 -0.004495 -0.001770 0.000611 0.030830 -0.008698 0.001759
# 5 -0.000112 0.005077 0.000239 -0.008698 0.035791 -0.006339
# 6 -0.003245 -0.003265 0.000120 0.001759 -0.006339 0.029260
#
#
# Mechanical properties :
#
#
# Convention : Reuss Voigt Hill
#
# Bulk Modulus (GPa) = 40.91087 62.17123 51.54105
# Shear Modulus (GPa) = 30.05473 36.88520 33.46996
#
# Velocity S-wave (km/s) = 3.75069 4.15510 3.95806
# Velocity P-wave (km/s) = 6.15679 7.21943 6.70918
#
# Compressibility (1/GPa) = 0.02444338
#
# Stress axis : x y z
#
# Youngs Moduli (GPa) = 39.16618 111.73864 112.26230
#
# Poissons Ratio (x) = 0.19828 0.62655
# Poissons Ratio (y) = 0.06950 0.23771
# Poissons Ratio (z) = 0.21859 0.23660
#
# Static dielectric constant tensor:
#      x y z
#    x 3.976470 0.858590 0.107680 
#    y 0.858590 38.036630 15.987320 
#    z 0.107680 15.987320 11.637670 
# 
# 
# High freq. dielectric constant tensor:
#      x y z
#    x 1.826310 0.015110 0.007880 
#    y 0.015110 1.850970 -0.005490 
#    z 0.007880 -0.005490 1.846380 
# 
# From -- ./inp_files/274029.got.cif
#   From: 2010.06.25/outbox.cif.g09.slc.cpg/sg2_138_cif.got.tgz:274029.got - 2010.06.27 13:26:56.
