data_PCOD8013163
_publ_section_title
;
Structure prediction by ZEFSAII (Michael W. Deem and Ramdas Pophale) SiO2 
 PCOD8013163
Probable space group: P -1
;
_chemical_formula_sum "Si O2"
_cell_formula_units_Z 14
_cell_length_a 14.514050
_cell_length_b 17.096198
_cell_length_c 15.313484
_cell_angle_alpha 25.402953
_cell_angle_beta 151.920184
_cell_angle_gamma 158.009506
_cell_volume 586.268862
_symmetry_space_group_name_H-M "P -1"
_symmetry_group_IT_number 2
_symmetry_cell_setting 'triclinic'
loop_
_space_group_symop_operation_xyz
x,y,z
-x,-y,-z
loop_
_atom_site_type_symbol
_atom_site_label
_atom_site_fract_x
_atom_site_fract_y
_atom_site_fract_z
Si Si1 0.314331 0.509763 0.113558
Si Si2 0.292385 0.910932 0.701354
Si Si3 0.787201 0.795518 0.326653
Si Si4 0.844574 0.061262 0.261441
Si Si5 0.383561 0.729849 0.533085
Si Si6 0.180803 0.234424 0.106480
Si Si7 0.007835 0.223565 0.795007
O O1 0.536224 0.553626 0.316990
O O2 0.323515 0.424167 0.112910
O O3 0.040552 0.322767 0.119286
O O4 0.361506 0.749646 0.894719
O O5 0.329200 0.949305 0.798736
O O6 0.001371 0.784825 0.554095
O O7 0.501843 0.167221 0.572224
O O8 0.823101 0.561725 0.350298
O O9 0.684150 0.867367 0.245515
O O10 0.000000 0.000000 0.500000
O O11 0.625736 0.813700 0.710700
O O12 0.269893 0.846682 0.362489
O O13 0.136213 0.337215 0.882728
O O14 0.910027 0.991878 0.154900
O O15 0.000000 0.000000 0.000000
#
# Coordination Sequence:
#
# PCOD8013163 Si02
#       7
#     2   2   2   2   2   2   2
#     4  11  22  39  69  93 135 181 213 263 331 380
#     4  10  21  40  65  97 134 171 224 269 322 388
#     4   9  21  40  63  94 133 176 216 266 324 381
#     4   9  20  40  60  96 136 170 224 270 308 391
#     4  10  24  45  66 101 132 168 218 278 325 397
#     4  10  23  43  65 100 135 166 221 275 317 401
#     4  11  25  46  72  97 129 172 221 272 344 395
#
# _framework density 23.879828
#
# number of rings (size 3 to 8) (size 9 to 14) (size 15 to 20)
#    0.000    2.000    0.000    2.571    4.000    4.571 
#    7.714    8.571    0.000    0.000    0.000    0.000 
#    0.000    0.000    0.000    0.000    0.000    0.000 
#
# Total GULP energy -173480.843096 kJ/mol
# GULP energy per Si atom -12391.488793 kJ/mol
# Density = 2.382548 g / cm^3
# Si number density = 23.879828 Si / 1000 Ang^3
#
#
#
# Elastic Constant Matrix: (Units=GPa)
#
#
# Indices 1 2 3 4 5 6 
#
# 1 114.4736 35.5600 37.2259 4.3729 -3.7690 -0.1112
# 2 35.5600 70.4070 16.5219 -0.8536 -0.7931 -16.6565
# 3 37.2259 16.5219 106.3982 -10.2822 7.2025 -4.8915
# 4 4.3729 -0.8536 -10.2822 35.1094 -1.9649 -2.1465
# 5 -3.7690 -0.7931 7.2025 -1.9649 29.0863 -2.4149
# 6 -0.1112 -16.6565 -4.8915 -2.1465 -2.4149 22.6834
#
#
#
# Elastic Compliance Matrix: (Units=1/GPa)
#
#
# Indices 1 2 3 4 5 6 
#
# 1 0.012249 -0.006651 -0.003933 -0.003098 0.001690 -0.005785
# 2 -0.006651 0.021425 -0.000119 0.002364 0.001242 0.016030
# 3 -0.003933 -0.000119 0.011471 0.003832 -0.002893 0.002422
# 4 -0.003098 0.002364 0.003832 0.030457 0.001233 0.005561
# 5 0.001690 0.001242 -0.002893 0.001233 0.035784 0.004223
# 6 -0.005785 0.016030 0.002422 0.005561 0.004223 0.057326
#
#
# Mechanical properties :
#
#
# Convention : Reuss Voigt Hill
#
# Bulk Modulus (GPa) = 42.12224 52.21050 47.16637
# Shear Modulus (GPa) = 25.24896 30.84056 28.04476
#
# Velocity S-wave (km/s) = 3.25519 3.59763 3.43069
# Velocity P-wave (km/s) = 5.63968 6.25848 5.95712
#
# Compressibility (1/GPa) = 0.02374043
#
# Stress axis : x y z
#
# Youngs Moduli (GPa) = 81.64078 46.67451 87.17995
#
# Poissons Ratio (x) = 0.31042 0.34284
# Poissons Ratio (y) = 0.54296 0.01035
# Poissons Ratio (z) = 0.32106 0.00554
#
# Static dielectric constant tensor:
#      x y z
#    x 0.215820 -0.284590 -0.154620 
#    y -0.284590 4.029950 0.057700 
#    z -0.154620 0.057700 4.351680 
# 
# 
# High freq. dielectric constant tensor:
#      x y z
#    x 1.956850 0.006920 -0.002740 
#    y 0.006920 1.918240 0.003020 
#    z -0.002740 0.003020 1.952430 
# 
# From -- ./inp_files/534185.got.cif
#   From: 2010.06.25/outbox.cif.g09.slc.cpg/sg2_268_cif.got.tgz:534185.got - 2010.06.27 13:26:56.
