data_PCOD8013615
_publ_section_title
;
Structure prediction by ZEFSAII (Michael W. Deem and Ramdas Pophale) SiO2 
 PCOD8013615
Probable space group: P -1
;
_chemical_formula_sum "Si O2"
_cell_formula_units_Z 14
_cell_length_a 9.812299
_cell_length_b 17.389699
_cell_length_c 9.053638
_cell_angle_alpha 34.619764
_cell_angle_beta 58.592305
_cell_angle_gamma 44.190137
_cell_volume 602.429326
_symmetry_space_group_name_H-M "P -1"
_symmetry_group_IT_number 2
_symmetry_cell_setting 'triclinic'
loop_
_space_group_symop_operation_xyz
x,y,z
-x,-y,-z
loop_
_atom_site_type_symbol
_atom_site_label
_atom_site_fract_x
_atom_site_fract_y
_atom_site_fract_z
Si Si1 0.417715 0.177084 0.188237
Si Si2 0.652047 0.570617 0.702429
Si Si3 0.761877 0.987794 0.097846
Si Si4 0.290558 0.178067 0.843538
Si Si5 0.015201 0.052078 0.672701
Si Si6 0.385888 0.711016 0.896057
Si Si7 0.031573 0.289920 0.090261
O O1 0.526744 0.128000 0.043709
O O2 0.500000 0.000000 0.500000
O O3 0.465569 0.288695 0.075705
O O4 0.180814 0.292893 0.113176
O O5 0.693345 0.667492 0.407739
O O6 0.617378 0.449407 0.822618
O O7 0.838972 0.470988 0.866870
O O8 0.458533 0.703640 0.699634
O O9 0.809535 0.820051 0.258301
O O10 0.874620 0.933306 0.275159
O O11 0.822835 0.074643 0.810734
O O12 0.158478 0.187744 0.035661
O O13 0.500000 0.000000 0.000000
O O14 0.948707 0.197138 0.362925
O O15 0.162849 0.875257 0.785003
#
# Coordination Sequence:
#
# PCOD8013615 Si02
#       7
#     2   2   2   2   2   2   2
#     4  11  20  43  71 103 133 182 228 277 330 406
#     4  11  26  42  64 102 140 180 222 287 342 401
#     4  10  21  40  70 100 131 171 235 272 334 396
#     4  12  24  42  70  95 131 179 228 281 336 409
#     4  10  22  42  71  99 131 182 223 280 328 413
#     4  10  22  44  67  91 145 179 221 270 346 402
#     4  12  24  41  70 106 136 172 237 275 340 394
#
# _framework density 23.239241
#
# number of rings (size 3 to 8) (size 9 to 14) (size 15 to 20)
#    0.000    1.143    4.286    3.000    0.000    5.143 
#    0.000    0.714    0.000    0.000    0.000    0.000 
#    0.000    0.000    0.000    0.000    0.000    0.000 
#
# Total GULP energy -173567.741818 kJ/mol
# GULP energy per Si atom -12397.695844 kJ/mol
# Density = 2.318635 g / cm^3
# Si number density = 23.239241 Si / 1000 Ang^3
#
#
#
# Elastic Constant Matrix: (Units=GPa)
#
#
# Indices 1 2 3 4 5 6 
#
# 1 97.6254 21.5635 41.4047 -8.7017 -21.6419 3.7311
# 2 21.5635 89.9337 47.6345 21.3738 -7.3069 -5.4231
# 3 41.4047 47.6345 155.0845 13.0411 -16.6976 -0.0476
# 4 -8.7017 21.3738 13.0411 34.7949 -3.3855 -7.5502
# 5 -21.6419 -7.3069 -16.6976 -3.3855 33.7698 -3.5419
# 6 3.7311 -5.4231 -0.0476 -7.5502 -3.5419 39.5470
#
#
#
# Elastic Compliance Matrix: (Units=1/GPa)
#
#
# Indices 1 2 3 4 5 6 
#
# 1 0.014508 -0.003159 -0.002657 0.007423 0.008080 0.000336
# 2 -0.003159 0.015785 -0.003352 -0.009210 -0.001127 0.000599
# 3 -0.002657 -0.003352 0.008500 -0.001724 0.001561 -0.000388
# 4 0.007423 -0.009210 -0.001724 0.038834 0.006438 0.006025
# 5 0.008080 -0.001127 0.001561 0.006438 0.036338 0.003569
# 6 0.000336 0.000599 -0.000388 0.006025 0.003569 0.026806
#
#
# Mechanical properties :
#
#
# Convention : Reuss Voigt Hill
#
# Bulk Modulus (GPa) = 48.88163 62.64990 55.76576
# Shear Modulus (GPa) = 30.13384 37.09173 33.61279
#
# Velocity S-wave (km/s) = 3.60485 3.99943 3.80726
# Velocity P-wave (km/s) = 6.19728 6.95302 6.58600
#
# Compressibility (1/GPa) = 0.02045758
#
# Stress axis : x y z
#
# Youngs Moduli (GPa) = 68.92781 63.34933 117.64692
#
# Poissons Ratio (x) = 0.20010 0.31263
# Poissons Ratio (y) = 0.21772 0.39434
# Poissons Ratio (z) = 0.18317 0.21234
#
# Static dielectric constant tensor:
#      x y z
#    x 4.687330 0.038360 -0.352940 
#    y 0.038360 4.407790 0.275670 
#    z -0.352940 0.275670 3.952640 
# 
# 
# High freq. dielectric constant tensor:
#      x y z
#    x 1.936660 0.000890 -0.017180 
#    y 0.000890 1.920880 0.023960 
#    z -0.017180 0.023960 1.899020 
# 
# From -- ./inp_files/278633.got.cif
#   From: 2010.06.25/outbox.cif.g09.slc.cpg/sg2_140_cif.got.tgz:278633.got - 2010.06.27 13:26:56.
