data_PCOD8013426
_publ_section_title
;
Structure prediction by ZEFSAII (Michael W. Deem and Ramdas Pophale) SiO2 
 PCOD8013426
Probable space group: P -1
;
_chemical_formula_sum "Si O2"
_cell_formula_units_Z 14
_cell_length_a 11.870430
_cell_length_b 8.989216
_cell_length_c 16.667901
_cell_angle_alpha 142.597552
_cell_angle_beta 36.341301
_cell_angle_gamma 128.008755
_cell_volume 638.752507
_symmetry_space_group_name_H-M "P -1"
_symmetry_group_IT_number 2
_symmetry_cell_setting 'triclinic'
loop_
_space_group_symop_operation_xyz
x,y,z
-x,-y,-z
loop_
_atom_site_type_symbol
_atom_site_label
_atom_site_fract_x
_atom_site_fract_y
_atom_site_fract_z
Si Si1 0.834422 0.050966 0.962785
Si Si2 0.511086 0.241118 0.926880
Si Si3 0.585781 0.972091 0.615172
Si Si4 0.756867 0.344427 0.980192
Si Si5 0.547772 0.264710 0.619087
Si Si6 0.858377 0.499877 0.245478
Si Si7 0.213070 0.768021 0.675395
O O1 0.830413 0.126104 0.903684
O O2 0.766469 0.283854 0.156382
O O3 0.699702 0.829743 0.959438
O O4 0.047717 0.965929 0.828991
O O5 0.609886 0.040172 0.723361
O O6 0.500000 0.500000 0.000000
O O7 0.633271 0.232134 0.933493
O O8 0.726132 0.744260 0.412007
O O9 0.368161 0.913100 0.697386
O O10 0.633573 0.210232 0.635701
O O11 0.635545 0.546272 0.189085
O O12 0.931061 0.470938 0.894707
O O13 0.698591 0.367204 0.513429
O O14 0.500000 0.000000 0.500000
O O15 0.866872 0.436341 0.307990
#
# Coordination Sequence:
#
# PCOD8013426 Si02
#       7
#     2   2   2   2   2   2   2
#     4  12  25  44  72 104 140 182 234 286 343 411
#     4  12  26  46  71  99 146 187 227 279 351 422
#     4  11  23  43  71 103 140 179 230 290 347 402
#     4  12  26  46  70 104 142 185 228 281 353 415
#     4  10  21  40  67  98 138 173 225 285 340 397
#     4  12  24  43  76 107 134 178 240 291 340 400
#     4  11  23  41  71 106 135 173 233 294 337 397
#
# _framework density 21.917721
#
# number of rings (size 3 to 8) (size 9 to 14) (size 15 to 20)
#    0.000    0.571    2.857    6.857    2.000    0.571 
#    0.000    0.714    0.000    0.000    0.000    0.000 
#    0.000    0.000    0.000    0.000    0.000    0.000 
#
# Total GULP energy -173623.596316 kJ/mol
# GULP energy per Si atom -12401.685451 kJ/mol
# Density = 2.186784 g / cm^3
# Si number density = 21.917721 Si / 1000 Ang^3
#
#
#
# Elastic Constant Matrix: (Units=GPa)
#
#
# Indices 1 2 3 4 5 6 
#
# 1 119.5661 39.4270 62.5578 -8.9787 -0.7516 -9.4546
# 2 39.4270 124.0738 65.5904 -25.0779 0.9383 -18.7157
# 3 62.5578 65.5904 119.0482 -8.3938 -6.6418 -10.4539
# 4 -8.9787 -25.0779 -8.3938 30.6002 -14.3456 7.6861
# 5 -0.7516 0.9383 -6.6418 -14.3456 32.5834 0.5350
# 6 -9.4546 -18.7157 -10.4539 7.6861 0.5350 45.7537
#
#
#
# Elastic Compliance Matrix: (Units=1/GPa)
#
#
# Indices 1 2 3 4 5 6 
#
# 1 0.011661 -0.000234 -0.005865 0.001249 -0.000383 0.000769
# 2 -0.000234 0.013996 -0.006494 0.010306 0.002766 0.002429
# 3 -0.005865 -0.006494 0.015051 -0.001777 0.002340 -0.000158
# 4 0.001249 0.010306 -0.001777 0.052959 0.022770 -0.005095
# 5 -0.000383 0.002766 0.002340 0.022770 0.041149 -0.002719
# 6 0.000769 0.002429 -0.000158 -0.005095 -0.002719 0.023860
#
#
# Mechanical properties :
#
#
# Convention : Reuss Voigt Hill
#
# Bulk Modulus (GPa) = 64.42120 77.53762 70.97941
# Shear Modulus (GPa) = 26.45017 34.79499 30.62258
#
# Velocity S-wave (km/s) = 3.47766 3.98870 3.74192
# Velocity P-wave (km/s) = 6.75142 7.52771 7.15011
#
# Compressibility (1/GPa) = 0.01552284
#
# Stress axis : x y z
#
# Youngs Moduli (GPa) = 85.75339 71.45150 66.44175
#
# Poissons Ratio (x) = 0.01673 0.38966
# Poissons Ratio (y) = 0.02008 0.43145
# Poissons Ratio (z) = 0.50291 0.46398
#
# Static dielectric constant tensor:
#      x y z
#    x 4.404000 -0.465900 0.315060 
#    y -0.465900 4.141530 -0.287010 
#    z 0.315060 -0.287010 4.021950 
# 
# 
# High freq. dielectric constant tensor:
#      x y z
#    x 1.863960 -0.031540 0.007490 
#    y -0.031540 1.859180 -0.009420 
#    z 0.007490 -0.009420 1.866210 
# 
# From -- ./inp_files/205059.got.cif
#   From: 2010.06.25/outbox.cif.g09.slc.cpg/sg2_103_cif.got.tgz:205059.got - 2010.06.27 13:26:56.
