data_PCOD8013321
_publ_section_title
;
Structure prediction by ZEFSAII (Michael W. Deem and Ramdas Pophale) SiO2 
 PCOD8013321
Probable space group: P -1
;
_chemical_formula_sum "Si O2"
_cell_formula_units_Z 16
_cell_length_a 12.945470
_cell_length_b 11.758720
_cell_length_c 10.303218
_cell_angle_alpha 65.459551
_cell_angle_beta 78.759069
_cell_angle_gamma 133.610491
_cell_volume 704.984207
_symmetry_space_group_name_H-M "P -1"
_symmetry_group_IT_number 2
_symmetry_cell_setting 'triclinic'
loop_
_space_group_symop_operation_xyz
x,y,z
-x,-y,-z
loop_
_atom_site_type_symbol
_atom_site_label
_atom_site_fract_x
_atom_site_fract_y
_atom_site_fract_z
Si Si1 0.722213 0.101891 0.418558
Si Si2 0.219819 0.871775 0.321535
Si Si3 0.236292 0.613337 0.379378
Si Si4 0.586445 0.793134 0.111612
Si Si5 0.270850 0.614097 0.668884
Si Si6 0.339672 0.366489 0.215657
Si Si7 0.953031 0.102230 0.333384
Si Si8 0.955207 0.077988 0.056212
O O1 0.659897 0.015923 0.625166
O O2 0.787708 0.314046 0.280440
O O3 0.520643 0.854139 0.502240
O O4 0.915041 0.212137 0.275335
O O5 0.254562 0.780377 0.274573
O O6 0.974677 0.647925 0.517862
O O7 0.308010 0.072930 0.116933
O O8 0.440168 0.757353 0.205124
O O9 0.200897 0.544642 0.570633
O O10 0.453097 0.531915 0.240092
O O11 0.754467 0.942840 0.111768
O O12 0.152142 0.374699 0.874239
O O13 0.208204 0.111541 0.415186
O O14 0.500000 0.500000 0.000000
O O15 0.187317 0.317940 0.221114
O O16 0.912364 0.994029 0.255282
O O17 0.000000 0.000000 0.000000
#
# Coordination Sequence:
#
# PCOD8013321 Si02
#       8
#     2   2   2   2   2   2   2   2
#     4  10  22  43  71  98 132 178 225 277 338 391
#     4  10  21  40  66  99 133 169 215 277 333 391
#     4  10  21  41  66  94 136 173 214 271 333 400
#     4  12  24  40  67  98 129 178 220 271 330 404
#     4  10  23  44  68  97 138 175 220 283 331 395
#     4  11  26  46  69  99 135 172 227 280 331 397
#     4  11  26  46  70 102 130 180 227 272 337 403
#     4  12  28  44  67  99 139 180 225 278 333 401
#
# _framework density 22.695543000000001
#
# number of rings (size 3 to 8) (size 9 to 14) (size 15 to 20)
#    0.000    1.250    1.250    3.375    7.000    3.000 
#    2.250    0.000    0.000    0.000    0.000    0.000 
#    0.000    0.000    0.000    0.000    0.000    0.000 
#
# Total GULP energy -198440.688691 kJ/mol
# GULP energy per Si atom -12402.543043 kJ/mol
# Density = 2.264389 g / cm^3
# Si number density = 22.695543 Si / 1000 Ang^3
#
#
#
# Elastic Constant Matrix: (Units=GPa)
#
#
# Indices 1 2 3 4 5 6 
#
# 1 118.6610 21.5245 38.4604 -10.4385 -19.0360 -10.6744
# 2 21.5245 78.1180 24.0484 -8.2903 -3.2063 -2.2958
# 3 38.4604 24.0484 86.6020 -0.7761 -6.4382 -8.6136
# 4 -10.4385 -8.2903 -0.7761 36.2486 -0.0562 1.5228
# 5 -19.0360 -3.2063 -6.4382 -0.0562 35.0587 5.4766
# 6 -10.6744 -2.2958 -8.6136 1.5228 5.4766 35.3168
#
#
#
# Elastic Compliance Matrix: (Units=1/GPa)
#
#
# Indices 1 2 3 4 5 6 
#
# 1 0.011144 -0.001281 -0.004059 0.002778 0.004973 0.001404
# 2 -0.001281 0.014521 -0.003475 0.002896 0.000066 -0.000426
# 3 -0.004059 -0.003475 0.014502 -0.001746 -0.000204 0.002191
# 4 0.002778 0.002896 -0.001746 0.029053 0.001641 -0.000905
# 5 0.004973 0.000066 -0.000204 0.001641 0.031748 -0.003536
# 6 0.001404 -0.000426 0.002191 -0.000905 -0.003536 0.029834
#
#
# Mechanical properties :
#
#
# Convention : Reuss Voigt Hill
#
# Bulk Modulus (GPa) = 44.37133 50.16084 47.26609
# Shear Modulus (GPa) = 32.06288 34.61464 33.33876
#
# Velocity S-wave (km/s) = 3.76272 3.90958 3.83685
# Velocity P-wave (km/s) = 6.20246 6.52146 6.36396
#
# Compressibility (1/GPa) = 0.02253707
#
# Stress axis : x y z
#
# Youngs Moduli (GPa) = 89.73551 68.86402 68.95648
#
# Poissons Ratio (x) = 0.08820 0.27990
# Poissons Ratio (y) = 0.11493 0.23963
# Poissons Ratio (z) = 0.36425 0.23931
#
# Static dielectric constant tensor:
#      x y z
#    x 4.184980 0.087330 -0.015130 
#    y 0.087330 4.127960 -0.064060 
#    z -0.015130 -0.064060 3.810870 
# 
# 
# High freq. dielectric constant tensor:
#      x y z
#    x 1.906160 0.004840 -0.004890 
#    y 0.004840 1.906430 -0.002730 
#    z -0.004890 -0.002730 1.875470 
# 
# From -- ./inp_files/427811.got.cif
#   From: 2010.06.25/outbox.cif.g09.slc.cpg/sg2_214_cif.got.tgz:427811.got - 2010.06.27 13:26:56.
