data_PCOD8013910
_publ_section_title
;
Structure prediction by ZEFSAII (Michael W. Deem and Ramdas Pophale) SiO2 
 PCOD8013910
Probable space group: P -1
;
_chemical_formula_sum "Si O2"
_cell_formula_units_Z 14
_cell_length_a 11.839481
_cell_length_b 18.870583
_cell_length_c 8.760168
_cell_angle_alpha 122.299968
_cell_angle_beta 37.058569
_cell_angle_gamma 145.827544
_cell_volume 614.960854
_symmetry_space_group_name_H-M "P -1"
_symmetry_group_IT_number 2
_symmetry_cell_setting 'triclinic'
loop_
_space_group_symop_operation_xyz
x,y,z
-x,-y,-z
loop_
_atom_site_type_symbol
_atom_site_label
_atom_site_fract_x
_atom_site_fract_y
_atom_site_fract_z
Si Si1 0.700729 0.561002 0.582122
Si Si2 0.643156 0.087657 0.295121
Si Si3 0.752894 0.486697 0.122508
Si Si4 0.334418 0.287577 0.784595
Si Si5 0.353415 0.140259 0.786882
Si Si6 0.610839 0.158981 0.837040
Si Si7 0.598213 0.280392 0.237553
O O1 0.700012 0.519495 0.370896
O O2 0.458117 0.552182 0.830432
O O3 0.586940 0.450145 0.696733
O O4 0.029696 0.713690 0.443039
O O5 0.523914 0.141523 0.476878
O O6 0.500000 0.000000 0.500000
O O7 0.514123 0.980664 0.179192
O O8 0.006377 0.215387 0.058785
O O9 0.675101 0.362827 0.098520
O O10 0.108962 0.621181 0.851774
O O11 0.407708 0.256490 0.817339
O O12 0.331937 0.226973 0.565333
O O13 0.456872 0.158544 0.868114
O O14 0.000000 0.000000 0.000000
O O15 0.524872 0.165382 0.105179
#
# Coordination Sequence:
#
# PCOD8013910 Si02
#       7
#     2   2   2   2   2   2   2
#     4   9  19  35  62  94 122 159 203 259 298 366
#     4  10  22  43  61  82 126 170 204 240 318 370
#     4   8  16  36  57  88 137 163 180 242 345 362
#     4  11  22  40  66  93 124 162 209 251 308 365
#     4  11  23  44  66  81 124 180 198 247 317 372
#     4  10  21  41  63  91 126 160 210 250 309 366
#     4   9  19  35  65  96 120 160 205 255 300 371
#
# _framework density 22.765677
#
# number of rings (size 3 to 8) (size 9 to 14) (size 15 to 20)
#    0.000    2.286    2.857    0.857    2.000    2.286 
#    0.000    3.571    0.000    0.000    0.000    0.000 
#    0.000    0.000    0.000    0.000    0.000    0.000 
#
# Total GULP energy -173501.137222 kJ/mol
# GULP energy per Si atom -12392.938373 kJ/mol
# Density = 2.271386 g / cm^3
# Si number density = 22.765677 Si / 1000 Ang^3
#
#
#
# Elastic Constant Matrix: (Units=GPa)
#
#
# Indices 1 2 3 4 5 6 
#
# 1 80.5588 -4.6652 14.4354 -13.0528 -32.7026 -2.8269
# 2 -4.6652 30.1477 -0.0771 0.5932 -13.6534 6.7215
# 3 14.4354 -0.0771 106.1248 0.1678 -24.6337 7.1574
# 4 -13.0528 0.5932 0.1678 33.3518 0.9045 -0.2565
# 5 -32.7026 -13.6534 -24.6337 0.9045 38.3749 0.6205
# 6 -2.8269 6.7215 7.1574 -0.2565 0.6205 27.3649
#
#
#
# Elastic Compliance Matrix: (Units=1/GPa)
#
#
# Indices 1 2 3 4 5 6 
#
# 1 0.027781 0.020091 0.004226 0.009559 0.033372 -0.003837
# 2 0.020091 0.059613 0.008568 0.005446 0.043957 -0.015754
# 3 0.004226 0.008568 0.012654 0.000995 0.014835 -0.005305
# 4 0.009559 0.005446 0.000995 0.033349 0.009945 -0.000523
# 5 0.033372 0.043957 0.014835 0.009945 0.079635 -0.012942
# 6 -0.003837 -0.015754 -0.005305 -0.000523 -0.012942 0.041692
#
#
# Mechanical properties :
#
#
# Convention : Reuss Voigt Hill
#
# Bulk Modulus (GPa) = 6.03075 26.24639 16.13857
# Shear Modulus (GPa) = 20.47266 33.62754 27.05010
#
# Velocity S-wave (km/s) = 3.00205 3.84750 3.45076
# Velocity P-wave (km/s) = 3.83030 5.59389 4.79389
#
# Compressibility (1/GPa) = 0.16581673
#
# Stress axis : x y z
#
# Youngs Moduli (GPa) = 35.99579 16.77477 79.02710
#
# Poissons Ratio (x) = -0.33702 -0.33395
# Poissons Ratio (y) = -0.72318 -0.67708
# Poissons Ratio (z) = -0.15211 -0.14372
#
# Static dielectric constant tensor:
#      x y z
#    x 3.362310 -0.851330 -0.109060 
#    y -0.851330 4.212540 0.472170 
#    z -0.109060 0.472170 4.257890 
# 
# 
# High freq. dielectric constant tensor:
#      x y z
#    x 1.879470 -0.016310 -0.019930 
#    y -0.016310 1.885680 0.002470 
#    z -0.019930 0.002470 1.904220 
# 
# From -- ./inp_files/261003.got.cif
#   From: 2010.06.25/outbox.cif.g09.slc.cpg/sg2_131_cif.got.tgz:261003.got - 2010.06.27 13:26:56.
