data_PCOD8013384
_publ_section_title
;
Structure prediction by ZEFSAII (Michael W. Deem and Ramdas Pophale) SiO2 
 PCOD8013384
Probable space group: P -1
;
_chemical_formula_sum "Si O2"
_cell_formula_units_Z 16
_cell_length_a 7.912387
_cell_length_b 15.740103
_cell_length_c 21.598622
_cell_angle_alpha 162.404691
_cell_angle_beta 115.786921
_cell_angle_gamma 71.408110
_cell_volume 685.273069
_symmetry_space_group_name_H-M "P -1"
_symmetry_group_IT_number 2
_symmetry_cell_setting 'triclinic'
loop_
_space_group_symop_operation_xyz
x,y,z
-x,-y,-z
loop_
_atom_site_type_symbol
_atom_site_label
_atom_site_fract_x
_atom_site_fract_y
_atom_site_fract_z
Si Si1 0.882595 0.090938 0.249784
Si Si2 0.818161 0.441628 0.811212
Si Si3 0.189656 0.636639 0.379320
Si Si4 0.546272 0.433215 0.871085
Si Si5 0.180145 0.229470 0.749222
Si Si6 0.455525 0.941083 0.737604
Si Si7 0.109816 0.738080 0.765171
Si Si8 0.824645 0.053849 0.955000
O O1 0.693398 0.131781 0.279470
O O2 0.830032 0.058652 0.145712
O O3 0.075434 0.391188 0.503442
O O4 0.924973 0.805083 0.086702
O O5 0.717136 0.388658 0.690536
O O6 0.644307 0.313332 0.746104
O O7 0.983822 0.282438 0.729208
O O8 0.366883 0.693272 0.497424
O O9 0.116402 0.924808 0.567590
O O10 0.995669 0.352850 0.165471
O O11 0.327779 0.201356 0.696667
O O12 0.699927 0.490523 0.993118
O O13 0.503504 0.730551 0.054052
O O14 0.662126 0.930717 0.789733
O O15 0.261112 0.865983 0.936850
O O16 0.906602 0.780683 0.788462
#
# Coordination Sequence:
#
# PCOD8013384 Si02
#       8
#     2   2   2   2   2   2   2   2
#     4  10  21  41  63  94 133 163 217 277 318 391
#     4  11  21  38  68  93 135 177 212 270 331 384
#     4  11  22  41  65  98 132 169 219 266 320 398
#     4   9  21  39  62  98 131 168 225 267 312 407
#     4  10  21  40  67  94 134 177 212 268 332 384
#     4  10  22  40  66  92 132 169 210 278 322 381
#     4  10  22  41  66  95 125 169 222 271 324 401
#     4  11  22  42  69  92 125 176 217 265 338 387
#
# _framework density 23.348355999999999
#
# number of rings (size 3 to 8) (size 9 to 14) (size 15 to 20)
#    0.000    1.750    2.500    1.500    0.000    1.500 
#    0.000    6.250    0.000    0.000    0.000    0.000 
#    0.000    0.000    0.000    0.000    0.000    0.000 
#
# Total GULP energy -198293.256739 kJ/mol
# GULP energy per Si atom -12393.328546 kJ/mol
# Density = 2.329521 g / cm^3
# Si number density = 23.348356 Si / 1000 Ang^3
#
#
#
# Elastic Constant Matrix: (Units=GPa)
#
#
# Indices 1 2 3 4 5 6 
#
# 1 85.7600 41.1321 24.6142 -15.4783 -8.7827 15.8448
# 2 41.1321 108.8470 33.2795 -31.5813 -0.2903 13.1298
# 3 24.6142 33.2795 70.4251 -9.3248 -0.5369 -6.9564
# 4 -15.4783 -31.5813 -9.3248 54.7492 3.9921 -6.0818
# 5 -8.7827 -0.2903 -0.5369 3.9921 25.3937 -7.6039
# 6 15.8448 13.1298 -6.9564 -6.0818 -7.6039 43.9519
#
#
#
# Elastic Compliance Matrix: (Units=1/GPa)
#
#
# Indices 1 2 3 4 5 6 
#
# 1 0.016147 -0.004123 -0.004007 0.000720 0.004013 -0.004430
# 2 -0.004123 0.014439 -0.004915 0.006200 -0.003335 -0.003324
# 3 -0.004007 -0.004915 0.018487 -0.000215 0.000761 0.005941
# 4 0.000720 0.006200 -0.000215 0.022277 -0.003065 0.000407
# 5 0.004013 -0.003335 0.000761 -0.003065 0.043242 0.006727
# 6 -0.004430 -0.003324 0.005941 0.000407 0.006727 0.027502
#
#
# Mechanical properties :
#
#
# Convention : Reuss Voigt Hill
#
# Bulk Modulus (GPa) = 43.51019 51.45375 47.48197
# Shear Modulus (GPa) = 28.43411 35.88605 32.16008
#
# Velocity S-wave (km/s) = 3.49351 3.92469 3.71536
# Velocity P-wave (km/s) = 5.91173 6.52862 6.22782
#
# Compressibility (1/GPa) = 0.02298312
#
# Stress axis : x y z
#
# Youngs Moduli (GPa) = 61.93002 69.25721 54.09292
#
# Poissons Ratio (x) = 0.28554 0.21675
# Poissons Ratio (y) = 0.25533 0.26587
# Poissons Ratio (z) = 0.24815 0.34040
#
# Static dielectric constant tensor:
#      x y z
#    x 3.911100 0.384200 -0.199340 
#    y 0.384200 4.467160 -0.099700 
#    z -0.199340 -0.099700 4.430770 
# 
# 
# High freq. dielectric constant tensor:
#      x y z
#    x 1.885720 0.029480 -0.012100 
#    y 0.029480 1.935900 0.001770 
#    z -0.012100 0.001770 1.931900 
# 
# From -- ./inp_files/590561.got.cif
#   From: 2010.06.25/outbox.cif.g09.slc.cpg/sg2_296_cif.got.tgz:590561.got - 2010.06.27 13:26:56.
