data_PCOD8013032
_publ_section_title
;
Structure prediction by ZEFSAII (Michael W. Deem and Ramdas Pophale) SiO2 
 PCOD8013032
Probable space group: P -1
;
_chemical_formula_sum "Si O2"
_cell_formula_units_Z 14
_cell_length_a 12.938973
_cell_length_b 11.980182
_cell_length_c 11.885143
_cell_angle_alpha 33.532183
_cell_angle_beta 46.635941
_cell_angle_gamma 42.143829
_cell_volume 671.094094
_symmetry_space_group_name_H-M "P -1"
_symmetry_group_IT_number 2
_symmetry_cell_setting 'triclinic'
loop_
_space_group_symop_operation_xyz
x,y,z
-x,-y,-z
loop_
_atom_site_type_symbol
_atom_site_label
_atom_site_fract_x
_atom_site_fract_y
_atom_site_fract_z
Si Si1 0.418322 0.094493 0.600832
Si Si2 0.343273 0.944851 0.383781
Si Si3 0.513512 0.751582 0.209993
Si Si4 0.386089 0.585537 0.246543
Si Si5 0.816166 0.107179 0.040668
Si Si6 0.169273 0.392633 0.018423
Si Si7 0.720493 0.346540 0.141047
O O1 0.544390 0.958278 0.718268
O O2 0.375308 0.350158 0.448228
O O3 0.500000 0.000000 0.500000
O O4 0.255499 0.074044 0.749914
O O5 0.453225 0.737828 0.393524
O O6 0.266296 0.849414 0.616815
O O7 0.212279 0.143071 0.242804
O O8 0.395035 0.691487 0.271702
O O9 0.697559 0.597906 0.174924
O O10 0.500000 0.000000 0.000000
O O11 0.547611 0.546890 0.096340
O O12 0.234951 0.758985 0.149485
O O13 0.753982 0.269292 0.054861
O O14 0.000000 0.000000 0.000000
O O15 0.157948 0.553603 0.996262
O O16 0.000000 0.500000 0.000000
#
# Coordination Sequence:
#
# PCOD8013032 Si02
#       7
#     2   2   2   2   2   2   2
#     4  11  22  40  68  93 119 173 222 255 313 379
#     4  10  21  40  65  87 123 157 217 261 293 382
#     4   9  19  39  65  91 121 161 217 256 310 372
#     4  10  22  40  68  90 123 175 219 257 314 386
#     4  12  25  40  61  96 134 162 210 276 324 373
#     4  10  22  37  60  92 124 162 197 258 326 370
#     4  10  22  39  62  88 115 173 213 247 314 377
#
# _framework density 20.861456
#
# number of rings (size 3 to 8) (size 9 to 14) (size 15 to 20)
#    0.000    1.714    2.857    3.000    2.000    9.714 
#    0.000    2.857    0.000    0.000    0.000    0.000 
#    0.000    0.000    0.000    0.000    0.000    0.000 
#
# Total GULP energy -173456.841547 kJ/mol
# GULP energy per Si atom -12389.774396 kJ/mol
# Density = 2.081397 g / cm^3
# Si number density = 20.861456 Si / 1000 Ang^3
#
#
#
# Elastic Constant Matrix: (Units=GPa)
#
#
# Indices 1 2 3 4 5 6 
#
# 1 165.2352 69.3041 27.2021 -9.8419 -2.6216 -2.6467
# 2 69.3041 65.2730 20.3499 -4.8340 3.2368 1.0440
# 3 27.2021 20.3499 54.8461 -10.8714 -3.0939 -5.5978
# 4 -9.8419 -4.8340 -10.8714 27.5883 5.6924 4.2597
# 5 -2.6216 3.2368 -3.0939 5.6924 38.3474 -6.2984
# 6 -2.6467 1.0440 -5.5978 4.2597 -6.2984 55.7044
#
#
#
# Elastic Compliance Matrix: (Units=1/GPa)
#
#
# Indices 1 2 3 4 5 6 
#
# 1 0.011160 -0.011596 -0.000832 0.001169 0.001626 0.000758
# 2 -0.011596 0.029647 -0.005701 -0.000011 -0.004106 -0.002143
# 3 -0.000832 -0.005701 0.022419 0.006920 0.001528 0.001964
# 4 0.001169 -0.000011 0.006920 0.041093 -0.005964 -0.003066
# 5 0.001626 -0.004106 0.001528 -0.005964 0.028193 0.003952
# 6 0.000758 -0.002143 0.001964 -0.003066 0.003952 0.018907
#
#
# Mechanical properties :
#
#
# Convention : Reuss Voigt Hill
#
# Bulk Modulus (GPa) = 37.08075 57.67405 47.37740
# Shear Modulus (GPa) = 25.42362 35.56123 30.49243
#
# Velocity S-wave (km/s) = 3.49476 4.13321 3.82732
# Velocity P-wave (km/s) = 5.83933 7.10522 6.50315
#
# Compressibility (1/GPa) = 0.02696817
#
# Stress axis : x y z
#
# Youngs Moduli (GPa) = 89.60304 33.72977 44.60505
#
# Poissons Ratio (x) = 0.39115 0.03710
# Poissons Ratio (y) = 1.03908 0.25430
# Poissons Ratio (z) = 0.07452 0.19230
#
# Static dielectric constant tensor:
#      x y z
#    x 4.148210 0.242610 0.008250 
#    y 0.242610 3.271390 -0.288530 
#    z 0.008250 -0.288530 3.606610 
# 
# 
# High freq. dielectric constant tensor:
#      x y z
#    x 1.832890 0.027420 -0.002070 
#    y 0.027420 1.798930 -0.012070 
#    z -0.002070 -0.012070 1.812620 
# 
# From -- ./inp_files/424882.got.cif
#   From: 2010.06.25/outbox.cif.g09.slc.cpg/sg2_213_cif.got.tgz:424882.got - 2010.06.27 13:26:56.
