data_PCOD8013767
_publ_section_title
;
Structure prediction by ZEFSAII (Michael W. Deem and Ramdas Pophale) SiO2 
 PCOD8013767
Probable space group: P -1
;
_chemical_formula_sum "Si O2"
_cell_formula_units_Z 14
_cell_length_a 11.488449
_cell_length_b 10.059938
_cell_length_c 8.260267
_cell_angle_alpha 119.871494
_cell_angle_beta 113.881698
_cell_angle_gamma 102.668845
_cell_volume 641.469648
_symmetry_space_group_name_H-M "P -1"
_symmetry_group_IT_number 2
_symmetry_cell_setting 'triclinic'
loop_
_space_group_symop_operation_xyz
x,y,z
-x,-y,-z
loop_
_atom_site_type_symbol
_atom_site_label
_atom_site_fract_x
_atom_site_fract_y
_atom_site_fract_z
Si Si1 0.709508 0.481183 0.840483
Si Si2 0.357789 0.310075 0.844844
Si Si3 0.145124 0.981045 0.932226
Si Si4 0.623634 0.801162 0.545448
Si Si5 0.020730 0.215833 0.978291
Si Si6 0.279131 0.849275 0.343570
Si Si7 0.632516 0.002819 0.175030
O O1 0.537148 0.380248 0.618959
O O2 0.726011 0.325359 0.838980
O O3 0.750579 0.644095 0.089370
O O4 0.831329 0.581631 0.827369
O O5 0.291879 0.214974 0.576221
O O6 0.407205 0.195431 0.911003
O O7 0.500000 0.500000 0.000000
O O8 0.274040 0.153442 0.212726
O O9 0.053279 0.061061 0.847905
O O10 0.219201 0.914391 0.803859
O O11 0.037313 0.813272 0.886395
O O12 0.610443 0.975813 0.600995
O O13 0.889369 0.191389 0.772928
O O14 0.333170 0.871206 0.573370
O O15 0.500000 0.000000 0.000000
#
# Coordination Sequence:
#
# PCOD8013767 Si02
#       7
#     2   2   2   2   2   2   2
#     4  11  19  38  64  88 120 157 208 255 293 363
#     4   9  20  38  60  92 121 156 201 255 305 357
#     4  10  21  41  61  90 123 161 204 254 298 366
#     4   9  20  38  64  90 118 162 207 249 310 360
#     4  10  22  39  61  85 127 166 200 242 310 366
#     4  10  22  39  61  90 121 166 202 239 317 370
#     4  11  22  41  65  93 120 162 208 257 304 363
#
# _framework density 21.824883
#
# number of rings (size 3 to 8) (size 9 to 14) (size 15 to 20)
#    0.000    2.000    1.429    1.714    0.000    6.857 
#   10.286    0.714    0.000    0.000    0.000    0.000 
#    0.000    0.000    0.000    0.000    0.000    0.000 
#
# Total GULP energy -173497.399241 kJ/mol
# GULP energy per Si atom -12392.671374 kJ/mol
# Density = 2.177521 g / cm^3
# Si number density = 21.824883 Si / 1000 Ang^3
#
#
#
# Elastic Constant Matrix: (Units=GPa)
#
#
# Indices 1 2 3 4 5 6 
#
# 1 76.7881 26.8805 12.0506 -1.7761 2.2251 -0.2221
# 2 26.8805 90.3052 24.3370 11.5067 0.4370 2.4639
# 3 12.0506 24.3370 63.7558 -7.5805 5.2837 -4.0606
# 4 -1.7761 11.5067 -7.5805 36.1996 0.5608 10.8221
# 5 2.2251 0.4370 5.2837 0.5608 30.5713 9.7854
# 6 -0.2221 2.4639 -4.0606 10.8221 9.7854 54.5141
#
#
#
# Elastic Compliance Matrix: (Units=1/GPa)
#
#
# Indices 1 2 3 4 5 6 
#
# 1 0.014771 -0.004432 -0.000791 0.001991 -0.000901 -0.000032
# 2 -0.004432 0.014664 -0.005586 -0.006032 0.001228 -0.000120
# 3 -0.000791 -0.005586 0.018990 0.005398 -0.003642 0.001246
# 4 0.001991 -0.006032 0.005398 0.032505 0.000275 -0.005819
# 5 -0.000901 0.001228 -0.003642 0.000275 0.035549 -0.006766
# 6 -0.000032 -0.000120 0.001246 -0.005819 -0.006766 0.020812
#
#
# Mechanical properties :
#
#
# Convention : Reuss Voigt Hill
#
# Bulk Modulus (GPa) = 37.30467 39.70948 38.50707
# Shear Modulus (GPa) = 29.78955 35.42907 32.60931
#
# Velocity S-wave (km/s) = 3.69851 4.03343 3.86960
# Velocity P-wave (km/s) = 5.94714 6.31866 6.13572
#
# Compressibility (1/GPa) = 0.02680629
#
# Stress axis : x y z
#
# Youngs Moduli (GPa) = 67.70243 68.19290 52.66001
#
# Poissons Ratio (x) = 0.30224 0.04163
# Poissons Ratio (y) = 0.30007 0.29418
# Poissons Ratio (z) = 0.05352 0.38096
#
# Static dielectric constant tensor:
#      x y z
#    x 4.791520 -0.038450 -0.420720 
#    y -0.038450 3.982940 0.131130 
#    z -0.420720 0.131130 3.972810 
# 
# 
# High freq. dielectric constant tensor:
#      x y z
#    x 1.868320 0.003210 0.003560 
#    y 0.003210 1.861400 0.004270 
#    z 0.003560 0.004270 1.823080 
# 
# From -- ./inp_files/240700.got.cif
#   From: 2010.06.25/outbox.cif.g09.slc.cpg/sg2_121_cif.got.tgz:240700.got - 2010.06.27 13:26:56.
