data_PCOD8013452
_publ_section_title
;
Structure prediction by ZEFSAII (Michael W. Deem and Ramdas Pophale) SiO2 
 PCOD8013452
Probable space group: P -1
;
_chemical_formula_sum "Si O2"
_cell_formula_units_Z 16
_cell_length_a 8.905785
_cell_length_b 14.060343
_cell_length_c 23.561074
_cell_angle_alpha 19.019635
_cell_angle_beta 48.609423
_cell_angle_gamma 50.634290
_cell_volume 720.807976
_symmetry_space_group_name_H-M "P -1"
_symmetry_group_IT_number 2
_symmetry_cell_setting 'triclinic'
loop_
_space_group_symop_operation_xyz
x,y,z
-x,-y,-z
loop_
_atom_site_type_symbol
_atom_site_label
_atom_site_fract_x
_atom_site_fract_y
_atom_site_fract_z
Si Si1 0.228367 0.217795 0.711308
Si Si2 0.879324 0.877977 0.651490
Si Si3 0.174383 0.730652 0.825845
Si Si4 0.094856 0.264654 0.955168
Si Si5 0.378691 0.230553 0.009134
Si Si6 0.455324 0.808997 0.809175
Si Si7 0.858187 0.127894 0.638600
Si Si8 0.778862 0.898638 0.098851
O O1 0.174180 0.539483 0.520325
O O2 0.289399 0.266054 0.734650
O O3 0.423866 0.070505 0.715230
O O4 0.045814 0.005585 0.867732
O O5 0.653675 0.858349 0.694437
O O6 0.971187 0.567265 0.826757
O O7 0.852809 0.086851 0.595066
O O8 0.000000 0.000000 0.500000
O O9 0.249869 0.804273 0.828110
O O10 0.358150 0.579766 0.829571
O O11 0.087489 0.031954 0.651592
O O12 0.000000 0.500000 0.000000
O O13 0.217274 0.307768 0.841229
O O14 0.244920 0.168586 0.022241
O O15 0.298806 0.060642 0.180423
O O16 0.613672 0.159740 0.980313
O O17 0.500000 0.500000 0.000000
O O18 0.000000 0.000000 0.000000
#
# Coordination Sequence:
#
# PCOD8013452 Si02
#       8
#     2   2   2   2   2   2   2   2
#     4  11  23  42  68 101 136 179 230 289 341 411
#     4  12  26  45  68 102 144 182 233 291 345 416
#     4  10  21  40  68 102 135 176 231 289 343 405
#     4  11  23  43  69  96 138 182 228 282 351 414
#     4  11  22  41  71  98 133 183 233 281 345 412
#     4  12  23  41  73 104 134 187 237 279 350 416
#     4  11  24  43  68 101 141 175 231 295 342 405
#     4  10  23  40  63  98 135 175 226 280 345 408
#
# _framework density 22.197313000000001
#
# number of rings (size 3 to 8) (size 9 to 14) (size 15 to 20)
#    0.000    1.000    2.500    5.625    1.750    5.000 
#    0.000    3.125    0.000    0.000    0.000    0.000 
#    0.000    0.000    0.000    0.000    0.000    0.000 
#
# Total GULP energy -198254.489679 kJ/mol
# GULP energy per Si atom -12390.905605 kJ/mol
# Density = 2.214679 g / cm^3
# Si number density = 22.197313 Si / 1000 Ang^3
#
#
#
# Elastic Constant Matrix: (Units=GPa)
#
#
# Indices 1 2 3 4 5 6 
#
# 1 117.1810 54.5811 37.8385 8.8700 17.6469 -9.0094
# 2 54.5811 158.6235 54.4406 -12.6689 5.5553 -6.6400
# 3 37.8385 54.4406 94.2575 -17.7102 6.9991 -6.7141
# 4 8.8700 -12.6689 -17.7102 50.7584 -2.6121 10.8538
# 5 17.6469 5.5553 6.9991 -2.6121 23.2463 -1.7005
# 6 -9.0094 -6.6400 -6.7141 10.8538 -1.7005 49.3868
#
#
#
# Elastic Compliance Matrix: (Units=1/GPa)
#
#
# Indices 1 2 3 4 5 6 
#
# 1 0.013075 -0.003314 -0.003530 -0.005278 -0.008494 0.002327
# 2 -0.003314 0.008723 -0.003536 0.001655 0.001666 -0.000219
# 3 -0.003530 -0.003536 0.015027 0.004995 -0.000452 -0.000190
# 4 -0.005278 0.001655 0.004995 0.024122 0.004437 -0.005210
# 5 -0.008494 0.001666 -0.000452 0.004437 0.049654 -0.000652
# 6 0.002327 -0.000219 -0.000190 -0.005210 -0.000652 0.021740
#
#
# Mechanical properties :
#
#
# Convention : Reuss Voigt Hill
#
# Bulk Modulus (GPa) = 62.24788 73.75359 68.00074
# Shear Modulus (GPa) = 31.55450 39.55843 35.55647
#
# Velocity S-wave (km/s) = 3.77443 4.22610 4.00664
# Velocity P-wave (km/s) = 6.86287 7.55723 7.21840
#
# Compressibility (1/GPa) = 0.01606480
#
# Stress axis : x y z
#
# Youngs Moduli (GPa) = 76.48253 114.64113 66.54656
#
# Poissons Ratio (x) = 0.37994 0.23490
# Poissons Ratio (y) = 0.25348 0.23531
# Poissons Ratio (z) = 0.26997 0.40537
#
# Static dielectric constant tensor:
#      x y z
#    x 4.388910 -0.135930 0.179960 
#    y -0.135930 4.889980 -0.133190 
#    z 0.179960 -0.133190 3.782370 
# 
# 
# High freq. dielectric constant tensor:
#      x y z
#    x 1.881550 -0.003630 0.018310 
#    y -0.003630 1.902090 -0.012510 
#    z 0.018310 -0.012510 1.834280 
# 
# From -- ./inp_files/500371.got.cif
#   From: 2010.06.25/outbox.cif.g09.slc.cpg/sg2_251_cif.got.tgz:500371.got - 2010.06.27 13:26:56.
