data_PCOD8013123
_publ_section_title
;
Structure prediction by ZEFSAII (Michael W. Deem and Ramdas Pophale) SiO2 
 PCOD8013123
Probable space group: P -1
;
_chemical_formula_sum "Si O2"
_cell_formula_units_Z 16
_cell_length_a 18.342752
_cell_length_b 6.401167
_cell_length_c 11.339534
_cell_angle_alpha 98.224813
_cell_angle_beta 45.407207
_cell_angle_gamma 124.799139
_cell_volume 698.943030
_symmetry_space_group_name_H-M "P -1"
_symmetry_group_IT_number 2
_symmetry_cell_setting 'triclinic'
loop_
_space_group_symop_operation_xyz
x,y,z
-x,-y,-z
loop_
_atom_site_type_symbol
_atom_site_label
_atom_site_fract_x
_atom_site_fract_y
_atom_site_fract_z
Si Si1 0.891946 0.280309 0.931459
Si Si2 0.487743 0.775842 0.849319
Si Si3 0.808749 0.795824 0.825731
Si Si4 0.982846 0.635425 0.637849
Si Si5 0.627705 0.331586 0.627128
Si Si6 0.422136 0.371588 0.459443
Si Si7 0.737175 0.861495 0.671766
Si Si8 0.196432 0.761750 0.718454
O O1 0.883444 0.421883 0.839126
O O2 0.047376 0.501113 0.818501
O O3 0.842089 0.977794 0.921079
O O4 0.799573 0.235800 0.141838
O O5 0.498062 0.706626 0.700032
O O6 0.597857 0.806542 0.811699
O O7 0.524542 0.074376 0.816643
O O8 0.333334 0.529891 0.045195
O O9 0.927571 0.786790 0.669566
O O10 0.796401 0.945163 0.744426
O O11 0.000000 0.500000 0.500000
O O12 0.140253 0.872927 0.526716
O O13 0.551652 0.385448 0.629048
O O14 0.722542 0.599375 0.627137
O O15 0.708802 0.288754 0.445962
O O16 0.500000 0.500000 0.500000
O O17 0.261114 0.080122 0.633438
#
# Coordination Sequence:
#
# PCOD8013123 Si02
#       8
#     2   2   2   2   2   2   2   2
#     4  11  24  43  66  97 139 170 229 278 333 397
#     4  10  24  42  65 101 133 176 225 277 339 398
#     4  12  26  42  69 100 134 179 226 280 338 395
#     4  12  26  43  68 100 132 177 228 275 336 406
#     4  10  22  41  68  93 136 174 222 271 346 392
#     4  10  21  40  65  94 134 175 224 273 333 403
#     4  11  24  44  69  96 135 181 224 277 336 405
#     4  10  23  41  67  98 132 181 220 279 330 405
#
# _framework density 22.891707
#
# number of rings (size 3 to 8) (size 9 to 14) (size 15 to 20)
#    0.000    1.250    1.250    4.500    3.500    7.500 
#    0.000    3.125    0.000    0.000    0.000    0.000 
#    0.000    0.000    0.000    0.000    0.000    0.000 
#
# Total GULP energy -198219.227389 kJ/mol
# GULP energy per Si atom -12388.701712 kJ/mol
# Density = 2.283960 g / cm^3
# Si number density = 22.891707 Si / 1000 Ang^3
#
#
#
# Elastic Constant Matrix: (Units=GPa)
#
#
# Indices 1 2 3 4 5 6 
#
# 1 94.0324 44.6567 14.7198 -5.0343 6.2090 14.1405
# 2 44.6567 134.3038 33.3907 -11.4243 -1.5116 4.3596
# 3 14.7198 33.3907 76.8636 -14.4887 -0.4421 0.1367
# 4 -5.0343 -11.4243 -14.4887 40.2667 6.8880 11.9300
# 5 6.2090 -1.5116 -0.4421 6.8880 36.8929 -6.9979
# 6 14.1405 4.3596 0.1367 11.9300 -6.9979 32.1084
#
#
#
# Elastic Compliance Matrix: (Units=1/GPa)
#
#
# Indices 1 2 3 4 5 6 
#
# 1 0.014438 -0.004205 -0.000233 0.003814 -0.004885 -0.008268
# 2 -0.004205 0.009715 -0.003272 0.000730 0.001025 0.000499
# 3 -0.000233 -0.003272 0.015481 0.005353 -0.001246 -0.001780
# 4 0.003814 0.000730 0.005353 0.034108 -0.010078 -0.016671
# 5 -0.004885 0.001025 -0.001246 -0.010078 0.032263 0.012794
# 6 -0.008268 0.000499 -0.001780 -0.016671 0.012794 0.043708
#
#
# Mechanical properties :
#
#
# Convention : Reuss Voigt Hill
#
# Bulk Modulus (GPa) = 41.29834 54.52599 47.91217
# Shear Modulus (GPa) = 28.86742 36.01576 32.44159
#
# Velocity S-wave (km/s) = 3.55497 3.97080 3.76862
# Velocity P-wave (km/s) = 5.91019 6.70029 6.31760
#
# Compressibility (1/GPa) = 0.02421405
#
# Stress axis : x y z
#
# Youngs Moduli (GPa) = 69.26035 102.93297 64.59384
#
# Poissons Ratio (x) = 0.43284 0.01503
# Poissons Ratio (y) = 0.29125 0.21138
# Poissons Ratio (z) = 0.01612 0.33684
#
# Static dielectric constant tensor:
#      x y z
#    x 4.101970 0.202690 0.414790 
#    y 0.202690 4.639300 -0.250590 
#    z 0.414790 -0.250590 4.526890 
# 
# 
# High freq. dielectric constant tensor:
#      x y z
#    x 1.890340 0.016540 0.013980 
#    y 0.016540 1.922530 -0.013390 
#    z 0.013980 -0.013390 1.909470 
# 
# From -- ./inp_files/109740.got.cif
#   From: 2010.06.25/outbox.cif.g09.slc.cpg/sg2_55_cif.got.tgz:109740.got - 2010.06.27 13:26:56.
