data_PCOD8013894
_publ_section_title
;
Structure prediction by ZEFSAII (Michael W. Deem and Ramdas Pophale) SiO2 
 PCOD8013894
Probable space group: P -1
;
_chemical_formula_sum "Si O2"
_cell_formula_units_Z 16
_cell_length_a 15.458609
_cell_length_b 13.674747
_cell_length_c 6.775081
_cell_angle_alpha 60.814372
_cell_angle_beta 83.037405
_cell_angle_gamma 43.920626
_cell_volume 802.333895
_symmetry_space_group_name_H-M "P -1"
_symmetry_group_IT_number 2
_symmetry_cell_setting 'triclinic'
loop_
_space_group_symop_operation_xyz
x,y,z
-x,-y,-z
loop_
_atom_site_type_symbol
_atom_site_label
_atom_site_fract_x
_atom_site_fract_y
_atom_site_fract_z
Si Si1 0.182101 0.333049 0.429302
Si Si2 0.314228 0.835953 0.795271
Si Si3 0.928314 0.726015 0.164150
Si Si4 0.278087 0.085928 0.317465
Si Si5 0.450195 0.152291 0.737338
Si Si6 0.895121 0.008463 0.971039
Si Si7 0.477373 0.349418 0.752711
Si Si8 0.675157 0.287706 0.481373
O O1 0.123046 0.287876 0.614724
O O2 0.231138 0.242880 0.291023
O O3 0.307229 0.268294 0.564849
O O4 0.064420 0.539051 0.223407
O O5 0.343943 0.711635 0.747246
O O6 0.250494 0.006801 0.541351
O O7 0.212191 0.882786 0.931549
O O8 0.449049 0.737676 0.971832
O O9 0.806761 0.841712 0.929189
O O10 0.962434 0.820282 0.119037
O O11 0.436921 0.933764 0.374086
O O12 0.424703 0.281177 0.763749
O O13 0.500000 0.000000 0.000000
O O14 0.825816 0.109537 0.683162
O O15 0.000000 0.000000 0.000000
O O16 0.574225 0.302528 0.603902
O O17 0.352419 0.555891 0.613257
#
# Coordination Sequence:
#
# PCOD8013894 Si02
#       8
#     2   2   2   2   2   2   2   2
#     4  11  25  40  67  93 130 169 210 264 311 373
#     4  11  20  40  67  90 122 168 208 253 318 380
#     4  11  23  45  63  93 129 170 211 256 322 376
#     4  12  21  43  68  92 127 169 215 253 315 383
#     4  12  23  41  65  97 131 163 212 264 314 370
#     4  11  24  41  66  90 123 164 210 261 313 373
#     4  10  22  38  62  94 126 159 205 257 317 367
#     4  10  21  41  63  89 125 165 204 256 314 377
#
# _framework density 19.941822999999999
#
# number of rings (size 3 to 8) (size 9 to 14) (size 15 to 20)
#    0.000    1.000    5.000    2.625    1.750    0.500 
#    0.000    1.250    0.000    0.000    0.000    0.000 
#    0.000    0.000    0.000    0.000    0.000    0.000 
#
# Total GULP energy -198459.933753 kJ/mol
# GULP energy per Si atom -12403.745860 kJ/mol
# Density = 1.989643 g / cm^3
# Si number density = 19.941823 Si / 1000 Ang^3
#
#
#
# Elastic Constant Matrix: (Units=GPa)
#
#
# Indices 1 2 3 4 5 6 
#
# 1 108.9914 49.9307 17.0595 -7.6230 6.8892 21.1243
# 2 49.9307 118.9108 26.4340 -4.9733 3.1018 24.7761
# 3 17.0595 26.4340 65.7816 -1.6888 -1.0802 7.5199
# 4 -7.6230 -4.9733 -1.6888 38.0004 4.1481 2.5136
# 5 6.8892 3.1018 -1.0802 4.1481 20.3123 -3.8592
# 6 21.1243 24.7761 7.5199 2.5136 -3.8592 40.1070
#
#
#
# Elastic Compliance Matrix: (Units=1/GPa)
#
#
# Indices 1 2 3 4 5 6 
#
# 1 0.012531 -0.003749 -0.001214 0.002853 -0.005225 -0.004738
# 2 -0.003749 0.011838 -0.003215 0.001192 -0.001899 -0.004993
# 3 -0.001214 -0.003215 0.016877 -0.000081 0.001747 -0.000366
# 4 0.002853 0.001192 -0.000081 0.028207 -0.007815 -0.004744
# 5 -0.005225 -0.001899 0.001747 -0.007815 0.054760 0.009356
# 6 -0.004738 -0.004993 -0.000366 -0.004744 0.009356 0.031779
#
#
# Mechanical properties :
#
#
# Convention : Reuss Voigt Hill
#
# Bulk Modulus (GPa) = 40.17621 53.39247 46.78434
# Shear Modulus (GPa) = 27.67869 33.03457 30.35663
#
# Velocity S-wave (km/s) = 3.72959 4.07449 3.90585
# Velocity P-wave (km/s) = 6.22390 6.99768 6.62210
#
# Compressibility (1/GPa) = 0.02489035
#
# Stress axis : x y z
#
# Youngs Moduli (GPa) = 79.80499 84.47188 59.25252
#
# Poissons Ratio (x) = 0.31668 0.07194
# Poissons Ratio (y) = 0.29918 0.19048
# Poissons Ratio (z) = 0.09689 0.27155
#
# Static dielectric constant tensor:
#      x y z
#    x 3.555230 0.088550 0.059340 
#    y 0.088550 3.838050 -0.038480 
#    z 0.059340 -0.038480 3.763340 
# 
# 
# High freq. dielectric constant tensor:
#      x y z
#    x 1.765690 0.014650 0.005020 
#    y 0.014650 1.790350 -0.001010 
#    z 0.005020 -0.001010 1.784440 
# 
# From -- ./inp_files/69365.got.cif
#   From: 2010.06.25/outbox.cif.g09.slc.cpg/sg2_35_cif.got.tgz:69365.got - 2010.06.27 13:26:56.
