data_PCOD8013322
_publ_section_title
;
Structure prediction by ZEFSAII (Michael W. Deem and Ramdas Pophale) SiO2 
 PCOD8013322
Probable space group: P -1
;
_chemical_formula_sum "Si O2"
_cell_formula_units_Z 16
_cell_length_a 15.335122
_cell_length_b 9.651610
_cell_length_c 8.475667
_cell_angle_alpha 88.122510
_cell_angle_beta 75.454909
_cell_angle_gamma 37.711272
_cell_volume 712.986563
_symmetry_space_group_name_H-M "P -1"
_symmetry_group_IT_number 2
_symmetry_cell_setting 'triclinic'
loop_
_space_group_symop_operation_xyz
x,y,z
-x,-y,-z
loop_
_atom_site_type_symbol
_atom_site_label
_atom_site_fract_x
_atom_site_fract_y
_atom_site_fract_z
Si Si1 0.868185 0.292578 0.712671
Si Si2 0.709037 0.504290 0.275990
Si Si3 0.097794 0.301579 0.138030
Si Si4 0.374262 0.144688 0.918169
Si Si5 0.925360 0.775083 0.189707
Si Si6 0.026552 0.128271 0.322398
Si Si7 0.442949 0.290965 0.328187
Si Si8 0.622485 0.311440 0.318960
O O1 0.700430 0.550791 0.728642
O O2 0.928256 0.312763 0.826710
O O3 0.987240 0.162301 0.521414
O O4 0.865542 0.134049 0.769000
O O5 0.675447 0.645984 0.138678
O O6 0.596461 0.666318 0.470213
O O7 0.687232 0.375703 0.219221
O O8 0.879498 0.313862 0.268924
O O9 0.118308 0.160276 0.269450
O O10 0.950731 0.582336 0.239279
O O11 0.237562 0.231693 0.058940
O O12 0.072329 0.236075 0.999800
O O13 0.438126 0.979820 0.746658
O O14 0.500000 0.000000 0.000000
O O15 0.768920 0.036475 0.320869
O O16 0.526831 0.332484 0.241884
O O17 0.500000 0.500000 0.500000
#
# Coordination Sequence:
#
# PCOD8013322 Si02
#       8
#     2   2   2   2   2   2   2   2
#     4  10  22  42  68  98 131 167 227 279 309 379
#     4  10  21  42  69  93 123 176 224 267 326 383
#     4  11  25  42  63  96 133 177 215 263 333 397
#     4  12  25  45  61  95 139 171 218 269 327 397
#     4  11  21  43  66  95 132 173 220 265 318 396
#     4  10  22  41  67  98 130 168 224 272 324 382
#     4  10  22  42  66  96 132 173 215 274 328 378
#     4  10  21  40  67 100 126 172 223 270 323 382
#
# _framework density 22.440818
#
# number of rings (size 3 to 8) (size 9 to 14) (size 15 to 20)
#    0.000    1.500    2.500    2.625    1.750    2.000 
#    9.000    1.250    0.000    0.000    0.000    0.000 
#    0.000    0.000    0.000    0.000    0.000    0.000 
#
# Total GULP energy -198276.004719 kJ/mol
# GULP energy per Si atom -12392.250295 kJ/mol
# Density = 2.238974 g / cm^3
# Si number density = 22.440818 Si / 1000 Ang^3
#
#
#
# Elastic Constant Matrix: (Units=GPa)
#
#
# Indices 1 2 3 4 5 6 
#
# 1 140.0754 45.9787 39.2228 -6.9298 -7.1269 11.2450
# 2 45.9787 122.9699 45.8369 3.9149 -9.8658 23.0532
# 3 39.2228 45.8369 46.2631 -0.7013 -7.4571 8.9484
# 4 -6.9298 3.9149 -0.7013 34.4174 3.8256 0.0724
# 5 -7.1269 -9.8658 -7.4571 3.8256 33.9775 -9.7046
# 6 11.2450 23.0532 8.9484 0.0724 -9.7046 43.3326
#
#
#
# Elastic Compliance Matrix: (Units=1/GPa)
#
#
# Indices 1 2 3 4 5 6 
#
# 1 0.009552 -0.000889 -0.007107 0.001903 -0.000196 -0.000585
# 2 -0.000889 0.013949 -0.012184 -0.002014 0.000088 -0.004651
# 3 -0.007107 -0.012184 0.040186 0.000325 0.004020 0.000927
# 4 0.001903 -0.002014 0.000325 0.030075 -0.003599 -0.000346
# 5 -0.000196 0.000088 0.004020 -0.003599 0.032551 0.006470
# 6 -0.000585 -0.004651 0.000927 -0.000346 0.006470 0.026962
#
#
# Mechanical properties :
#
#
# Convention : Reuss Voigt Hill
#
# Bulk Modulus (GPa) = 42.86751 63.48723 53.17737
# Shear Modulus (GPa) = 24.82504 34.23019 29.52761
#
# Velocity S-wave (km/s) = 3.32963 3.90981 3.63133
# Velocity P-wave (km/s) = 5.82459 6.98102 6.42886
#
# Compressibility (1/GPa) = 0.02332769
#
# Stress axis : x y z
#
# Youngs Moduli (GPa) = 104.68966 71.68996 24.88430
#
# Poissons Ratio (x) = 0.06372 0.17686
# Poissons Ratio (y) = 0.09305 0.30318
# Poissons Ratio (z) = 0.74406 0.87344
#
# Static dielectric constant tensor:
#      x y z
#    x 4.491620 0.283490 0.023920 
#    y 0.283490 4.298130 0.287530 
#    z 0.023920 0.287530 3.808640 
# 
# 
# High freq. dielectric constant tensor:
#      x y z
#    x 1.899450 0.012070 0.004750 
#    y 0.012070 1.891460 0.021590 
#    z 0.004750 0.021590 1.858850 
# 
# From -- ./inp_files/298521.got.cif
#   From: 2010.06.25/outbox.cif.g09.slc.cpg/sg2_150_cif.got.tgz:298521.got - 2010.06.27 13:26:56.
