data_PCOD8013719
_publ_section_title
;
Structure prediction by ZEFSAII (Michael W. Deem and Ramdas Pophale) SiO2 
 PCOD8013719
Probable space group: P -1
;
_chemical_formula_sum "Si O2"
_cell_formula_units_Z 16
_cell_length_a 12.074108
_cell_length_b 9.071715
_cell_length_c 15.212220
_cell_angle_alpha 74.538176
_cell_angle_beta 57.921905
_cell_angle_gamma 36.177435
_cell_volume 788.422273
_symmetry_space_group_name_H-M "P -1"
_symmetry_group_IT_number 2
_symmetry_cell_setting 'triclinic'
loop_
_space_group_symop_operation_xyz
x,y,z
-x,-y,-z
loop_
_atom_site_type_symbol
_atom_site_label
_atom_site_fract_x
_atom_site_fract_y
_atom_site_fract_z
Si Si1 0.263004 0.589937 0.402951
Si Si2 0.780705 0.142650 0.303811
Si Si3 0.149179 0.550803 0.284656
Si Si4 0.477976 0.694791 0.956723
Si Si5 0.224402 0.206184 0.188317
Si Si6 0.982420 0.140855 0.060824
Si Si7 0.690443 0.681796 0.020966
Si Si8 0.998089 0.122096 0.360217
O O1 0.525622 0.340438 0.357333
O O2 0.193492 0.519585 0.376049
O O3 0.118271 0.696155 0.534032
O O4 0.197884 0.814888 0.351364
O O5 0.884107 0.148350 0.184042
O O6 0.804503 0.219075 0.370930
O O7 0.920498 0.852960 0.302326
O O8 0.366359 0.426528 0.173215
O O9 0.134430 0.392240 0.279161
O O10 0.500000 0.500000 0.000000
O O11 0.546290 0.722851 0.007419
O O12 0.224463 0.983622 0.998026
O O13 0.111467 0.147840 0.250992
O O14 0.499862 0.942095 0.121719
O O15 0.162007 0.339988 0.097405
O O16 0.840031 0.427197 0.055290
O O17 0.000000 0.000000 0.000000
#
# Coordination Sequence:
#
# PCOD8013719 Si02
#       8
#     2   2   2   2   2   2   2   2
#     4  10  22  40  64  88 109 147 205 253 287 346
#     4  11  21  37  61  88 115 149 197 249 289 339
#     4  10  22  38  57  86 121 155 192 241 291 348
#     4  11  19  34  55  86 120 150 188 240 287 335
#     4  10  21  41  58  81 128 162 185 237 301 347
#     4  12  20  31  58  89 115 152 193 232 287 348
#     4  10  22  37  55  85 122 158 191 234 284 360
#     4  10  22  41  63  85 115 151 194 249 303 341
#
# _framework density 20.293693000000001
#
# number of rings (size 3 to 8) (size 9 to 14) (size 15 to 20)
#    0.000    1.500    2.500    3.375    1.750    0.500 
#    0.000   16.875    0.000    0.000    0.000    0.000 
#    0.000    0.000    0.000    0.000    0.000    0.000 
#
# Total GULP energy -198350.512957 kJ/mol
# GULP energy per Si atom -12396.907060 kJ/mol
# Density = 2.024750 g / cm^3
# Si number density = 20.293693 Si / 1000 Ang^3
#
#
#
# Elastic Constant Matrix: (Units=GPa)
#
#
# Indices 1 2 3 4 5 6 
#
# 1 60.9725 45.8631 29.5706 3.5110 3.6202 -9.0486
# 2 45.8631 112.2545 18.2419 11.2717 8.8675 -15.3872
# 3 29.5706 18.2419 60.4967 9.1475 14.7507 -4.1105
# 4 3.5110 11.2717 9.1475 30.0484 2.7843 -3.5087
# 5 3.6202 8.8675 14.7507 2.7843 35.3312 2.7622
# 6 -9.0486 -15.3872 -4.1105 -3.5087 2.7622 39.4402
#
#
#
# Elastic Compliance Matrix: (Units=1/GPa)
#
#
# Indices 1 2 3 4 5 6 
#
# 1 0.030972 -0.011078 -0.013534 0.004379 0.004801 0.001427
# 2 -0.011078 0.014095 0.002866 -0.004174 -0.003515 0.003131
# 3 -0.013534 0.002866 0.025630 -0.006314 -0.009597 0.000795
# 4 0.004379 -0.004174 -0.006314 0.036464 0.000209 0.001947
# 5 0.004801 -0.003515 -0.009597 0.000209 0.032963 -0.003560
# 6 0.001427 0.003131 0.000795 0.001947 -0.003560 0.027409
#
#
# Mechanical properties :
#
#
# Convention : Reuss Voigt Hill
#
# Bulk Modulus (GPa) = 36.76017 46.78613 41.77315
# Shear Modulus (GPa) = 22.71765 30.30052 26.50909
#
# Velocity S-wave (km/s) = 3.34944 3.86826 3.61816
# Velocity P-wave (km/s) = 5.75428 6.56169 6.17120
#
# Compressibility (1/GPa) = 0.02720335
#
# Stress axis : x y z
#
# Youngs Moduli (GPa) = 32.28712 70.94915 39.01670
#
# Poissons Ratio (x) = 0.78598 0.52807
# Poissons Ratio (y) = 0.35768 -0.11181
# Poissons Ratio (z) = 0.43699 -0.20332
#
# Static dielectric constant tensor:
#      x y z
#    x 3.627340 -0.030820 0.157630 
#    y -0.030820 3.807470 0.140620 
#    z 0.157630 0.140620 3.748120 
# 
# 
# High freq. dielectric constant tensor:
#      x y z
#    x 1.790270 0.004710 0.012590 
#    y 0.004710 1.797530 0.008090 
#    z 0.012590 0.008090 1.792060 
# 
# From -- ./inp_files/306235.got.cif
#   From: 2010.06.25/outbox.cif.g09.slc.cpg/sg2_154_cif.got.tgz:306235.got - 2010.06.27 13:26:56.
