data_PCOD8013373
_publ_section_title
;
Structure prediction by ZEFSAII (Michael W. Deem and Ramdas Pophale) SiO2 
 PCOD8013373
Probable space group: P -1
;
_chemical_formula_sum "Si O2"
_cell_formula_units_Z 16
_cell_length_a 18.699502
_cell_length_b 9.693851
_cell_length_c 11.356747
_cell_angle_alpha 100.461855
_cell_angle_beta 136.098190
_cell_angle_gamma 45.502379
_cell_volume 770.360443
_symmetry_space_group_name_H-M "P -1"
_symmetry_group_IT_number 2
_symmetry_cell_setting 'triclinic'
loop_
_space_group_symop_operation_xyz
x,y,z
-x,-y,-z
loop_
_atom_site_type_symbol
_atom_site_label
_atom_site_fract_x
_atom_site_fract_y
_atom_site_fract_z
Si Si1 0.082963 0.189272 0.601374
Si Si2 0.142543 0.502059 0.938307
Si Si3 0.851141 0.015167 0.099780
Si Si4 0.285264 0.251156 0.828972
Si Si5 0.972124 0.447047 0.841809
Si Si6 0.116216 0.971760 0.382235
Si Si7 0.363647 0.281744 0.403112
Si Si8 0.480455 0.462384 0.602343
O O1 0.144201 0.047188 0.772162
O O2 0.208911 0.181031 0.724343
O O3 0.859238 0.485381 0.377561
O O4 0.141343 0.007678 0.546442
O O5 0.286914 0.313554 0.972803
O O6 0.017174 0.501073 0.795945
O O7 0.245709 0.429591 0.167363
O O8 0.004360 0.786952 0.801260
O O9 0.882885 0.845847 0.027279
O O10 0.017256 0.935366 0.268859
O O11 0.655851 0.304088 0.869524
O O12 0.500000 0.000000 0.000000
O O13 0.762832 0.619362 0.618380
O O14 0.000000 0.500000 0.000000
O O15 0.309127 0.731615 0.505210
O O16 0.464847 0.311762 0.556710
O O17 0.500000 0.000000 0.500000
O O18 0.500000 0.500000 0.500000
#
# Coordination Sequence:
#
# PCOD8013373 Si02
#       8
#     2   2   2   2   2   2   2   2
#     4  10  24  44  68  99 133 176 225 274 338 392
#     4  10  22  43  66  93 135 174 214 281 340 391
#     4  12  24  46  68  95 136 174 226 275 331 396
#     4  10  22  42  70 103 132 169 223 281 332 394
#     4  10  21  40  67  93 131 172 213 285 331 389
#     4  11  26  45  66  96 135 180 219 272 341 395
#     4  11  24  40  65 102 128 171 229 267 337 402
#     4  12  28  42  66 100 134 178 224 270 331 407
#
# _framework density 20.769499
#
# number of rings (size 3 to 8) (size 9 to 14) (size 15 to 20)
#    0.000    1.250    2.500    2.625    5.250    6.500 
#    0.000    0.000    0.000    0.000    0.000    0.000 
#    0.000    0.000    0.000    0.000    0.000    0.000 
#
# Total GULP energy -198327.078373 kJ/mol
# GULP energy per Si atom -12395.442398 kJ/mol
# Density = 2.072223 g / cm^3
# Si number density = 20.769499 Si / 1000 Ang^3
#
#
#
# Elastic Constant Matrix: (Units=GPa)
#
#
# Indices 1 2 3 4 5 6 
#
# 1 119.4662 50.0491 56.9512 -18.9929 0.4649 -8.4827
# 2 50.0491 142.0250 34.6653 -14.3720 -1.7245 -14.3446
# 3 56.9512 34.6653 88.8023 -10.4908 -15.0138 -22.6477
# 4 -18.9929 -14.3720 -10.4908 34.9478 0.1595 8.1760
# 5 0.4649 -1.7245 -15.0138 0.1595 30.4167 -5.3172
# 6 -8.4827 -14.3446 -22.6477 8.1760 -5.3172 37.3778
#
#
#
# Elastic Compliance Matrix: (Units=1/GPa)
#
#
# Indices 1 2 3 4 5 6 
#
# 1 0.015096 -0.002894 -0.010674 0.005310 -0.006789 -0.006279
# 2 -0.002894 0.008579 -0.000757 0.001265 0.000495 0.001970
# 3 -0.010674 -0.000757 0.024351 -0.002294 0.014710 0.014636
# 4 0.005310 0.001265 -0.002294 0.033050 -0.002591 -0.007297
# 5 -0.006789 0.000495 0.014710 -0.002591 0.042768 0.014213
# 6 -0.006279 0.001970 0.014636 -0.007297 0.014213 0.038571
#
#
# Mechanical properties :
#
#
# Convention : Reuss Voigt Hill
#
# Bulk Modulus (GPa) = 51.61178 70.40277 61.00727
# Shear Modulus (GPa) = 25.31354 34.45699 29.88526
#
# Velocity S-wave (km/s) = 3.49490 4.07752 3.79740
# Velocity P-wave (km/s) = 6.41790 7.49260 6.97598
#
# Compressibility (1/GPa) = 0.01937542
#
# Stress axis : x y z
#
# Youngs Moduli (GPa) = 66.24290 116.56857 41.06662
#
# Poissons Ratio (x) = 0.33733 0.43833
# Poissons Ratio (y) = 0.19170 0.03110
# Poissons Ratio (z) = 0.70706 0.08829
#
# Static dielectric constant tensor:
#      x y z
#    x 4.480250 0.007280 0.085280 
#    y 0.007280 3.916270 -0.048820 
#    z 0.085280 -0.048820 3.847690 
# 
# 
# High freq. dielectric constant tensor:
#      x y z
#    x 1.821820 0.002770 0.001860 
#    y 0.002770 1.833360 0.002900 
#    z 0.001860 0.002900 1.807180 
# 
# From -- ./inp_files/462248.got.cif
#   From: 2010.06.25/outbox.cif.g09.slc.cpg/sg2_232_cif.got.tgz:462248.got - 2010.06.27 13:26:56.
