data_PCOD8013138
_publ_section_title
;
Structure prediction by ZEFSAII (Michael W. Deem and Ramdas Pophale) SiO2 
 PCOD8013138
Probable space group: P -1
;
_chemical_formula_sum "Si O2"
_cell_formula_units_Z 16
_cell_length_a 12.158722
_cell_length_b 14.755285
_cell_length_c 9.130258
_cell_angle_alpha 76.291160
_cell_angle_beta 130.864639
_cell_angle_gamma 136.346604
_cell_volume 762.411776
_symmetry_space_group_name_H-M "P -1"
_symmetry_group_IT_number 2
_symmetry_cell_setting 'triclinic'
loop_
_space_group_symop_operation_xyz
x,y,z
-x,-y,-z
loop_
_atom_site_type_symbol
_atom_site_label
_atom_site_fract_x
_atom_site_fract_y
_atom_site_fract_z
Si Si1 0.846779 0.222612 0.118348
Si Si2 0.171643 0.799444 0.556670
Si Si3 0.265810 0.650458 0.151780
Si Si4 0.920831 0.929054 0.116007
Si Si5 0.732652 0.632253 0.066271
Si Si6 0.383812 0.056947 0.148303
Si Si7 0.681945 0.531087 0.738301
Si Si8 0.630473 0.931238 0.527038
O O1 0.897399 0.216051 0.330246
O O2 0.084814 0.350157 0.193318
O O3 0.716637 0.259627 0.991670
O O4 0.693618 0.071310 0.960922
O O5 0.339375 0.791748 0.691991
O O6 0.940700 0.678355 0.306307
O O7 0.350276 0.965247 0.588525
O O8 0.391262 0.613946 0.242830
O O9 0.389159 0.757864 0.360904
O O10 0.000000 0.500000 0.000000
O O11 0.775063 0.762720 0.051443
O O12 0.758188 0.926236 0.048556
O O13 0.161978 0.031149 0.370106
O O14 0.000000 0.000000 0.000000
O O15 0.500000 0.500000 0.000000
O O16 0.712866 0.591356 0.898996
O O17 0.330607 0.021903 0.288063
O O18 0.500000 0.500000 0.500000
#
# Coordination Sequence:
#
# PCOD8013138 Si02
#       8
#     2   2   2   2   2   2   2   2
#     4  11  23  43  62  98 130 168 221 267 328 387
#     4  11  23  41  67  94 132 172 213 277 321 392
#     4  10  24  39  63  94 135 167 220 271 320 394
#     4   9  21  40  66  97 125 168 223 274 320 393
#     4  11  25  47  65  98 136 170 221 273 331 396
#     4  11  22  37  70  94 127 172 222 273 328 386
#     4  11  25  43  70  90 130 180 214 262 334 389
#     4  10  21  40  65  95 129 170 221 271 328 383
#
# _framework density 20.986035000000001
#
# number of rings (size 3 to 8) (size 9 to 14) (size 15 to 20)
#    0.000    1.500    1.250    3.750    8.750    1.000 
#    0.000    2.500    0.000    0.000    0.000    0.000 
#    0.000    0.000    0.000    0.000    0.000    0.000 
#
# Total GULP energy -198219.310282 kJ/mol
# GULP energy per Si atom -12388.706893 kJ/mol
# Density = 2.093827 g / cm^3
# Si number density = 20.986035 Si / 1000 Ang^3
#
#
#
# Elastic Constant Matrix: (Units=GPa)
#
#
# Indices 1 2 3 4 5 6 
#
# 1 108.2773 38.9469 69.5015 -3.6352 15.0243 5.9148
# 2 38.9469 76.8308 37.3958 7.6746 -7.1616 -0.5020
# 3 69.5015 37.3958 153.0542 6.0998 -1.4204 -5.4787
# 4 -3.6352 7.6746 6.0998 32.1004 2.6429 3.5211
# 5 15.0243 -7.1616 -1.4204 2.6429 39.8728 -4.3201
# 6 5.9148 -0.5020 -5.4787 3.5211 -4.3201 32.2916
#
#
#
# Elastic Compliance Matrix: (Units=1/GPa)
#
#
# Indices 1 2 3 4 5 6 
#
# 1 0.018489 -0.007519 -0.007162 0.006798 -0.009756 -0.006765
# 2 -0.007519 0.018415 -0.000669 -0.006034 0.006855 0.003125
# 3 -0.007162 -0.000669 0.010254 -0.003321 0.003585 0.003883
# 4 0.006798 -0.006034 -0.003321 0.035288 -0.006824 -0.006663
# 5 -0.009756 0.006855 0.003585 -0.006824 0.031374 0.007443
# 6 -0.006765 0.003125 0.003883 -0.006663 0.007443 0.034637
#
#
# Mechanical properties :
#
#
# Convention : Reuss Voigt Hill
#
# Bulk Modulus (GPa) = 60.76265 69.98340 65.37303
# Shear Modulus (GPa) = 27.07934 33.67416 30.37675
#
# Velocity S-wave (km/s) = 3.59604 4.01009 3.80870
# Velocity P-wave (km/s) = 6.80138 7.40683 7.11055
#
# Compressibility (1/GPa) = 0.01645748
#
# Stress axis : x y z
#
# Youngs Moduli (GPa) = 54.08663 54.30396 97.52217
#
# Poissons Ratio (x) = 0.40830 0.69848
# Poissons Ratio (y) = 0.40667 0.06525
# Poissons Ratio (z) = 0.38738 0.03633
#
# Static dielectric constant tensor:
#      x y z
#    x 4.315630 -0.297640 0.728920 
#    y -0.297640 3.976390 -0.249930 
#    z 0.728920 -0.249930 4.311340 
# 
# 
# High freq. dielectric constant tensor:
#      x y z
#    x 1.813340 -0.004610 0.024760 
#    y -0.004610 1.815560 -0.003150 
#    z 0.024760 -0.003150 1.842330 
# 
# From -- ./inp_files/273012.got.cif
#   From: 2010.06.25/outbox.cif.g09.slc.cpg/sg2_137_cif.got.tgz:273012.got - 2010.06.27 13:26:56.
