data_PCOD8013010
_publ_section_title
;
Structure prediction by ZEFSAII (Michael W. Deem and Ramdas Pophale) SiO2 
 PCOD8013010
Probable space group: P -1
;
_chemical_formula_sum "Si O2"
_cell_formula_units_Z 14
_cell_length_a 11.722953
_cell_length_b 8.640528
_cell_length_c 14.908398
_cell_angle_alpha 58.557476
_cell_angle_beta 29.944339
_cell_angle_gamma 63.911359
_cell_volume 642.834944
_symmetry_space_group_name_H-M "P -1"
_symmetry_group_IT_number 2
_symmetry_cell_setting 'triclinic'
loop_
_space_group_symop_operation_xyz
x,y,z
-x,-y,-z
loop_
_atom_site_type_symbol
_atom_site_label
_atom_site_fract_x
_atom_site_fract_y
_atom_site_fract_z
Si Si1 0.837230 0.224168 0.900982
Si Si2 0.456377 0.679230 0.774361
Si Si3 0.501110 0.356726 0.963867
Si Si4 0.968043 0.868505 0.644897
Si Si5 0.646703 0.339695 0.339467
Si Si6 0.178602 0.033447 0.621100
Si Si7 0.823642 0.483555 0.350116
O O1 0.725689 0.244807 0.871082
O O2 0.944910 0.410527 0.812476
O O3 0.647823 0.185565 0.119554
O O4 0.025461 0.071588 0.803740
O O5 0.523784 0.477567 0.822065
O O6 0.285040 0.643054 0.817204
O O7 0.683589 0.781853 0.552399
O O8 0.500000 0.500000 0.000000
O O9 0.285545 0.218802 0.150970
O O10 0.006083 0.983547 0.673862
O O11 0.159289 0.713650 0.555181
O O12 0.000000 0.000000 0.500000
O O13 0.648516 0.126674 0.427761
O O14 0.814044 0.455702 0.256376
O O15 0.391520 0.409663 0.501978
#
# Coordination Sequence:
#
# PCOD8013010 Si02
#       7
#     2   2   2   2   2   2   2
#     4  11  23  41  67  96 132 171 218 263 331 383
#     4  11  22  41  69  95 132 175 216 266 322 390
#     4  10  21  40  64  99 129 162 222 265 315 402
#     4  11  22  42  69  98 133 171 212 273 331 383
#     4  10  23  43  65  95 134 170 228 260 317 394
#     4  11  25  42  65 100 135 170 216 274 320 378
#     4  10  21  42  67  95 129 174 213 269 322 385
#
# _framework density 21.778528000000001
#
# number of rings (size 3 to 8) (size 9 to 14) (size 15 to 20)
#    0.000    1.429    4.286    2.143    0.000    3.429 
#    0.000    2.857    0.000    0.000    0.000    0.000 
#    0.000    0.000    0.000    0.000    0.000    0.000 
#
# Total GULP energy -173462.347913 kJ/mol
# GULP energy per Si atom -12390.167708 kJ/mol
# Density = 2.172896 g / cm^3
# Si number density = 21.778528 Si / 1000 Ang^3
#
#
#
# Elastic Constant Matrix: (Units=GPa)
#
#
# Indices 1 2 3 4 5 6 
#
# 1 161.0409 56.5475 56.8960 -13.7953 8.1195 -4.2138
# 2 56.5475 107.1447 36.6971 9.5775 0.8680 -2.7144
# 3 56.8960 36.6971 71.1884 -3.5148 -4.6214 -1.1010
# 4 -13.7953 9.5775 -3.5148 35.6833 3.0306 1.2799
# 5 8.1195 0.8680 -4.6214 3.0306 32.7859 1.0540
# 6 -4.2138 -2.7144 -1.1010 1.2799 1.0540 33.5456
#
#
#
# Elastic Compliance Matrix: (Units=1/GPa)
#
#
# Indices 1 2 3 4 5 6 
#
# 1 0.010365 -0.003639 -0.006415 0.004650 -0.003828 0.000740
# 2 -0.003639 0.013154 -0.004100 -0.005403 0.000453 0.000665
# 3 -0.006415 -0.004100 0.021604 0.000368 0.004728 -0.000591
# 4 0.004650 -0.005403 0.000368 0.031669 -0.003854 -0.000928
# 5 -0.003828 0.000453 0.004728 -0.003854 0.032497 -0.001163
# 6 0.000740 0.000665 -0.000591 -0.000928 -0.001163 0.030009
#
#
# Mechanical properties :
#
#
# Convention : Reuss Voigt Hill
#
# Bulk Modulus (GPa) = 59.47157 71.07279 65.27218
# Shear Modulus (GPa) = 28.86654 33.01853 30.94253
#
# Velocity S-wave (km/s) = 3.64463 3.89794 3.77342
# Velocity P-wave (km/s) = 6.71401 7.27762 7.00149
#
# Compressibility (1/GPa) = 0.01681476
#
# Stress axis : x y z
#
# Youngs Moduli (GPa) = 96.48173 76.02329 46.28787
#
# Poissons Ratio (x) = 0.27663 0.29696
# Poissons Ratio (y) = 0.35107 0.18976
# Poissons Ratio (z) = 0.61898 0.31167
#
# Static dielectric constant tensor:
#      x y z
#    x 5.081040 -0.406620 -0.063340 
#    y -0.406620 4.458640 -0.002260 
#    z -0.063340 -0.002260 3.584780 
# 
# 
# High freq. dielectric constant tensor:
#      x y z
#    x 1.883440 0.002010 -0.010200 
#    y 0.002010 1.858190 0.002880 
#    z -0.010200 0.002880 1.823840 
# 
# From -- ./inp_files/225789.got.cif
#   From: 2010.06.25/outbox.cif.g09.slc.cpg/sg2_113_cif.got.tgz:225789.got - 2010.06.27 13:26:56.
