data_PCOD8013329
_publ_section_title
;
Structure prediction by ZEFSAII (Michael W. Deem and Ramdas Pophale) SiO2 
 PCOD8013329
Probable space group: P -1
;
_chemical_formula_sum "Si O2"
_cell_formula_units_Z 16
_cell_length_a 11.496830
_cell_length_b 11.446999
_cell_length_c 13.647280
_cell_angle_alpha 108.353502
_cell_angle_beta 46.866891
_cell_angle_gamma 70.902339
_cell_volume 773.536751
_symmetry_space_group_name_H-M "P -1"
_symmetry_group_IT_number 2
_symmetry_cell_setting 'triclinic'
loop_
_space_group_symop_operation_xyz
x,y,z
-x,-y,-z
loop_
_atom_site_type_symbol
_atom_site_label
_atom_site_fract_x
_atom_site_fract_y
_atom_site_fract_z
Si Si1 0.978516 0.343272 0.315369
Si Si2 0.792105 0.566517 0.875673
Si Si3 0.874531 0.671610 0.191825
Si Si4 0.071601 0.001692 0.171921
Si Si5 0.119180 0.271461 0.437146
Si Si6 0.486231 0.777070 0.725551
Si Si7 0.684685 0.043028 0.334477
Si Si8 0.786822 0.068981 0.708231
O O1 0.021038 0.175589 0.226029
O O2 0.686505 0.554410 0.511925
O O3 0.168066 0.310355 0.129789
O O4 0.021277 0.357035 0.406936
O O5 0.949806 0.421181 0.838460
O O6 0.890838 0.437016 0.687901
O O7 0.494897 0.714469 0.103611
O O8 0.594355 0.794863 0.414602
O O9 0.852299 0.819039 0.194676
O O10 0.000000 0.500000 0.000000
O O11 0.816979 0.078575 0.319957
O O12 0.163322 0.920805 0.207028
O O13 0.292971 0.825576 0.923357
O O14 0.368687 0.201829 0.295644
O O15 0.205680 0.080243 0.348756
O O16 0.329298 0.928239 0.765738
O O17 0.000000 0.000000 0.500000
#
# Coordination Sequence:
#
# PCOD8013329 Si02
#       8
#     2   2   2   2   2   2   2   2
#     4  10  21  40  67 101 125 166 214 264 325 381
#     4  11  22  43  68  94 124 172 221 263 316 383
#     4  11  27  44  69  93 126 180 224 262 310 384
#     4  11  25  41  64  98 138 165 206 271 326 386
#     4  10  21  40  68  95 129 163 216 270 311 389
#     4  11  21  41  68  94 127 171 215 268 320 378
#     4  11  26  45  65  98 132 171 218 267 320 378
#     4  11  26  40  64  97 133 172 209 265 326 384
#
# _framework density 20.684214999999998
#
# number of rings (size 3 to 8) (size 9 to 14) (size 15 to 20)
#    0.000    1.250    2.500    4.125    7.000    4.000 
#    2.250    0.000    0.000    0.000    0.000    0.000 
#    0.000    0.000    0.000    0.000    0.000    0.000 
#
# Total GULP energy -198477.449173 kJ/mol
# GULP energy per Si atom -12404.840573 kJ/mol
# Density = 2.063714 g / cm^3
# Si number density = 20.684215 Si / 1000 Ang^3
#
#
#
# Elastic Constant Matrix: (Units=GPa)
#
#
# Indices 1 2 3 4 5 6 
#
# 1 96.9811 38.9453 41.2442 10.3851 -16.6247 -6.2315
# 2 38.9453 104.4607 45.9560 4.3019 -8.8186 -29.2802
# 3 41.2442 45.9560 123.9785 -5.7823 -17.4639 -10.7944
# 4 10.3851 4.3019 -5.7823 28.7290 -1.9137 -2.4777
# 5 -16.6247 -8.8186 -17.4639 -1.9137 34.2613 4.3882
# 6 -6.2315 -29.2802 -10.7944 -2.4777 4.3882 12.6838
#
#
#
# Elastic Compliance Matrix: (Units=1/GPa)
#
#
# Indices 1 2 3 4 5 6 
#
# 1 0.015690 -0.009217 -0.002945 -0.006159 0.005869 -0.019309
# 2 -0.009217 0.036147 -0.004378 0.003312 -0.007250 0.078345
# 3 -0.002945 -0.004378 0.011150 0.003989 0.003678 -0.002558
# 4 -0.006159 0.003312 0.003989 0.038687 0.000067 0.015549
# 5 0.005869 -0.007250 0.003678 0.000067 0.034969 -0.022807
# 6 -0.019309 0.078345 -0.002558 0.015549 -0.022807 0.258963
#
#
# Mechanical properties :
#
#
# Convention : Reuss Voigt Hill
#
# Bulk Modulus (GPa) = 33.43719 64.19014 48.81366
# Shear Modulus (GPa) = 11.39850 28.41980 19.90915
#
# Velocity S-wave (km/s) = 2.35004 3.71075 3.10583
# Velocity P-wave (km/s) = 4.85430 7.03280 6.04254
#
# Compressibility (1/GPa) = 0.02990682
#
# Stress axis : x y z
#
# Youngs Moduli (GPa) = 63.73534 27.66474 89.68785
#
# Poissons Ratio (x) = 0.25499 0.26410
# Poissons Ratio (y) = 0.58747 0.39266
# Poissons Ratio (z) = 0.18768 0.12112
#
# Static dielectric constant tensor:
#      x y z
#    x 3.680770 -0.084320 -0.032240 
#    y -0.084320 3.847730 0.009550 
#    z -0.032240 0.009550 3.763820 
# 
# 
# High freq. dielectric constant tensor:
#      x y z
#    x 1.806120 -0.007810 -0.000960 
#    y -0.007810 1.820650 0.002350 
#    z -0.000960 0.002350 1.816390 
# 
# From -- ./inp_files/428333.got.cif
#   From: 2010.06.25/outbox.cif.g09.slc.cpg/sg2_215_cif.got.tgz:428333.got - 2010.06.27 13:26:56.
