data_PCOD8013220
_publ_section_title
;
Structure prediction by ZEFSAII (Michael W. Deem and Ramdas Pophale) SiO2 
 PCOD8013220
Probable space group: P -1
;
_chemical_formula_sum "Si O2"
_cell_formula_units_Z 14
_cell_length_a 17.804319
_cell_length_b 11.724852
_cell_length_c 8.383424
_cell_angle_alpha 80.911755
_cell_angle_beta 50.691344
_cell_angle_gamma 39.267682
_cell_volume 629.265441
_symmetry_space_group_name_H-M "P -1"
_symmetry_group_IT_number 2
_symmetry_cell_setting 'triclinic'
loop_
_space_group_symop_operation_xyz
x,y,z
-x,-y,-z
loop_
_atom_site_type_symbol
_atom_site_label
_atom_site_fract_x
_atom_site_fract_y
_atom_site_fract_z
Si Si1 0.804179 0.134726 0.293749
Si Si2 0.843896 0.906483 0.769415
Si Si3 0.622762 0.321241 0.170708
Si Si4 0.757689 0.810880 0.648565
Si Si5 0.118851 0.715973 0.194945
Si Si6 0.903662 0.626581 0.932966
Si Si7 0.362671 0.237492 0.921096
O O1 0.694023 0.192730 0.274610
O O2 0.624334 0.399710 0.562090
O O3 0.904265 0.943083 0.330284
O O4 0.000000 0.000000 0.000000
O O5 0.744885 0.930822 0.760828
O O6 0.906607 0.760739 0.868702
O O7 0.046102 0.760439 0.462695
O O8 0.673282 0.177440 0.995800
O O9 0.751630 0.302690 0.970543
O O10 0.981766 0.560232 0.325941
O O11 0.608837 0.992445 0.658017
O O12 0.705298 0.746099 0.821329
O O13 0.263728 0.466885 0.978618
O O14 0.680850 0.800003 0.166418
O O15 0.000000 0.500000 0.000000
#
# Coordination Sequence:
#
# PCOD8013220 Si02
#       7
#     2   2   2   2   2   2   2
#     4   9  22  45  62  88 132 172 212 268 320 388
#     4  11  22  41  65  97 133 170 220 272 319 383
#     4  10  23  41  65  98 129 170 219 260 331 391
#     4  10  21  43  64  88 134 168 216 268 320 382
#     4  11  21  39  66  95 130 172 216 268 323 382
#     4  11  23  42  66  94 131 169 216 271 326 383
#     4  10  21  40  66  92 121 174 216 265 324 377
#
# _framework density 22.248163000000002
#
# number of rings (size 3 to 8) (size 9 to 14) (size 15 to 20)
#    0.000    1.714    2.857    1.286    4.000    1.143 
#   10.286    0.000    0.000    0.000    0.000    0.000 
#    0.000    0.000    0.000    0.000    0.000    0.000 
#
# Total GULP energy -173516.565120 kJ/mol
# GULP energy per Si atom -12394.040366 kJ/mol
# Density = 2.219752 g / cm^3
# Si number density = 22.248163 Si / 1000 Ang^3
#
#
#
# Elastic Constant Matrix: (Units=GPa)
#
#
# Indices 1 2 3 4 5 6 
#
# 1 87.9764 45.2782 25.2947 4.7126 -3.6926 8.9406
# 2 45.2782 135.4267 28.0226 9.9756 -12.9487 -0.4132
# 3 25.2947 28.0226 76.3864 12.0637 -7.6908 13.9236
# 4 4.7126 9.9756 12.0637 36.8665 -3.1834 -1.4964
# 5 -3.6926 -12.9487 -7.6908 -3.1834 24.6912 10.4019
# 6 8.9406 -0.4132 13.9236 -1.4964 10.4019 38.7181
#
#
#
# Elastic Compliance Matrix: (Units=1/GPa)
#
#
# Indices 1 2 3 4 5 6 
#
# 1 0.014648 -0.004320 -0.002837 0.000133 0.000080 -0.002425
# 2 -0.004320 0.009592 -0.001702 -0.001163 0.003385 0.000758
# 3 -0.002837 -0.001702 0.017453 -0.004616 0.006738 -0.007628
# 4 0.000133 -0.001163 -0.004616 0.029093 0.000641 0.002569
# 5 0.000080 0.003385 0.006738 0.000641 0.051275 -0.016156
# 6 -0.002425 0.000758 -0.007628 0.002569 -0.016156 0.033579
#
#
# Mechanical properties :
#
#
# Convention : Reuss Voigt Hill
#
# Bulk Modulus (GPa) = 41.70866 55.22006 48.46436
# Shear Modulus (GPa) = 27.57110 33.46808 30.51959
#
# Velocity S-wave (km/s) = 3.52412 3.88275 3.70777
# Velocity P-wave (km/s) = 5.94533 6.70633 6.33727
#
# Compressibility (1/GPa) = 0.02397584
#
# Stress axis : x y z
#
# Youngs Moduli (GPa) = 68.26718 104.25084 57.29732
#
# Poissons Ratio (x) = 0.45037 0.16254
# Poissons Ratio (y) = 0.29492 0.09752
# Poissons Ratio (z) = 0.19366 0.17743
#
# Static dielectric constant tensor:
#      x y z
#    x 3.732230 -0.190970 -0.126580 
#    y -0.190970 4.473130 0.030960 
#    z -0.126580 0.030960 4.065240 
# 
# 
# High freq. dielectric constant tensor:
#      x y z
#    x 1.857060 -0.004770 -0.009300 
#    y -0.004770 1.888110 0.004150 
#    z -0.009300 0.004150 1.871870 
# 
# From -- ./inp_files/267610.got.cif
#   From: 2010.06.25/outbox.cif.g09.slc.cpg/sg2_134_cif.got.tgz:267610.got - 2010.06.27 13:26:56.
