data_PCOD8013121
_publ_section_title
;
Structure prediction by ZEFSAII (Michael W. Deem and Ramdas Pophale) SiO2 
 PCOD8013121
Probable space group: P -1
;
_chemical_formula_sum "Si O2"
_cell_formula_units_Z 14
_cell_length_a 14.814963
_cell_length_b 15.850188
_cell_length_c 6.665812
_cell_angle_alpha 85.146484
_cell_angle_beta 96.814431
_cell_angle_gamma 27.358412
_cell_volume 649.389273
_symmetry_space_group_name_H-M "P -1"
_symmetry_group_IT_number 2
_symmetry_cell_setting 'triclinic'
loop_
_space_group_symop_operation_xyz
x,y,z
-x,-y,-z
loop_
_atom_site_type_symbol
_atom_site_label
_atom_site_fract_x
_atom_site_fract_y
_atom_site_fract_z
Si Si1 0.757959 0.342175 0.412645
Si Si2 0.037379 0.703632 0.266125
Si Si3 0.251961 0.373971 0.585294
Si Si4 0.092967 0.793137 0.950318
Si Si5 0.902507 0.632993 0.760397
Si Si6 0.715928 0.232276 0.697992
Si Si7 0.364013 0.041832 0.067456
O O1 0.763058 0.343502 0.177792
O O2 0.765121 0.237166 0.498509
O O3 0.538320 0.572975 0.388499
O O4 0.963055 0.220196 0.585164
O O5 0.229815 0.476337 0.422893
O O6 0.812699 0.841579 0.164761
O O7 0.081556 0.710326 0.063245
O O8 0.221376 0.320603 0.440302
O O9 0.087617 0.521573 0.700166
O O10 0.487094 0.163676 0.790314
O O11 0.220491 0.754223 0.118605
O O12 0.851254 0.031270 0.788053
O O13 0.742246 0.836482 0.777050
O O14 0.000000 0.500000 0.000000
O O15 0.500000 0.000000 0.000000
#
# Coordination Sequence:
#
# PCOD8013121 Si02
#       7
#     2   2   2   2   2   2   2
#     4  10  21  40  65  94 132 165 205 264 316 369
#     4  11  26  40  60 103 130 162 221 262 314 393
#     4  11  24  42  65  91 128 164 214 275 323 377
#     4  10  21  41  64  95 132 164 208 261 311 383
#     4  11  21  44  68  90 118 165 224 271 317 390
#     4   9  20  40  68  94 123 168 216 247 312 391
#     4  12  24  45  68  90 125 177 221 264 327 379
#
# _framework density 21.558717999999999
#
# number of rings (size 3 to 8) (size 9 to 14) (size 15 to 20)
#    0.000    1.429    2.857    2.143    4.000    0.000 
#    0.000    2.857    0.000    0.000    0.000    0.000 
#    0.000    0.000    0.000    0.000    0.000    0.000 
#
# Total GULP energy -173556.444356 kJ/mol
# GULP energy per Si atom -12396.888883 kJ/mol
# Density = 2.150965 g / cm^3
# Si number density = 21.558718 Si / 1000 Ang^3
#
#
#
# Elastic Constant Matrix: (Units=GPa)
#
#
# Indices 1 2 3 4 5 6 
#
# 1 95.6140 41.9315 39.0752 -5.9061 -12.5929 -3.0576
# 2 41.9315 106.1996 47.0846 -9.7566 -21.6615 0.9745
# 3 39.0752 47.0846 102.9594 -17.2132 -30.0617 -5.3776
# 4 -5.9061 -9.7566 -17.2132 46.6352 5.2618 -9.2771
# 5 -12.5929 -21.6615 -30.0617 5.2618 39.5548 -10.9348
# 6 -3.0576 0.9745 -5.3776 -9.2771 -10.9348 18.7891
#
#
#
# Elastic Compliance Matrix: (Units=1/GPa)
#
#
# Indices 1 2 3 4 5 6 
#
# 1 0.013564 -0.003904 -0.003233 0.000004 0.000160 0.001579
# 2 -0.003904 0.013237 -0.003571 0.000555 0.003154 -0.000234
# 3 -0.003233 -0.003571 0.019475 0.007895 0.015839 0.018349
# 4 0.000004 0.000555 0.007895 0.027659 0.008364 0.020756
# 5 0.000160 0.003154 0.015839 0.008364 0.048076 0.036504
# 6 0.001579 -0.000234 0.018349 0.020756 0.036504 0.090236
#
#
# Mechanical properties :
#
#
# Convention : Reuss Voigt Hill
#
# Bulk Modulus (GPa) = 40.22200 62.32840 51.27520
# Shear Modulus (GPa) = 20.66561 32.77460 26.72011
#
# Velocity S-wave (km/s) = 3.09944 3.90327 3.52435
# Velocity P-wave (km/s) = 5.61304 7.02052 6.35586
#
# Compressibility (1/GPa) = 0.02486202
#
# Stress axis : x y z
#
# Youngs Moduli (GPa) = 73.72678 75.54563 51.34736
#
# Poissons Ratio (x) = 0.29491 0.16599
# Poissons Ratio (y) = 0.28781 0.18334
# Poissons Ratio (z) = 0.23833 0.26974
#
# Static dielectric constant tensor:
#      x y z
#    x 3.820260 -0.034210 -0.047110 
#    y -0.034210 3.888780 -0.077520 
#    z -0.047110 -0.077520 4.226090 
# 
# 
# High freq. dielectric constant tensor:
#      x y z
#    x 1.837150 0.001010 -0.004050 
#    y 0.001010 1.830770 -0.010770 
#    z -0.004050 -0.010770 1.865340 
# 
# From -- ./inp_files/97914.got.cif
#   From: 2010.06.25/outbox.cif.g09.slc.cpg/sg2_49_cif.got.tgz:97914.got - 2010.06.27 13:26:56.
