data_PCOD8013848
_publ_section_title
;
Structure prediction by ZEFSAII (Michael W. Deem and Ramdas Pophale) SiO2 
 PCOD8013848
Probable space group: P -1
;
_chemical_formula_sum "Si O2"
_cell_formula_units_Z 10
_cell_length_a 15.540332
_cell_length_b 5.303994
_cell_length_c 7.339104
_cell_angle_alpha 87.576550
_cell_angle_beta 49.456477
_cell_angle_gamma 85.399175
_cell_volume 458.175067
_symmetry_space_group_name_H-M "P -1"
_symmetry_group_IT_number 2
_symmetry_cell_setting 'triclinic'
loop_
_space_group_symop_operation_xyz
x,y,z
-x,-y,-z
loop_
_atom_site_type_symbol
_atom_site_label
_atom_site_fract_x
_atom_site_fract_y
_atom_site_fract_z
Si Si1 0.903569 0.215015 0.145235
Si Si2 0.523228 0.740859 0.081535
Si Si3 0.710159 0.759529 0.089390
Si Si4 0.666738 0.242206 0.363155
Si Si5 0.046050 0.428500 0.241527
O O1 0.773910 0.143628 0.349088
O O2 0.937102 0.364138 0.274373
O O3 0.901168 0.347357 0.947161
O O4 0.000000 0.000000 0.000000
O O5 0.654077 0.719001 0.969846
O O6 0.447042 0.744252 0.365833
O O7 0.500000 0.500000 0.000000
O O8 0.500000 0.000000 0.000000
O O9 0.680481 0.525684 0.264711
O O10 0.657667 0.029900 0.227113
O O11 0.847056 0.779895 0.879626
O O12 0.000000 0.500000 0.500000
#
# Coordination Sequence:
#
# PCOD8013848 Si02
#       5
#     2   2   2   2   2
#     4  10  21  41  62  94 128 169 212 254 327 377
#     4  12  26  42  65  98 126 161 216 271 318 373
#     4  11  23  44  65  92 125 174 213 250 329 382
#     4  11  23  43  68  88 130 171 208 262 315 390
#     4  10  23  39  64  94 130 168 212 265 312 384
#
# _framework density 21.825718999999999
#
# number of rings (size 3 to 8) (size 9 to 14) (size 15 to 20)
#    0.000    1.200    2.000    3.600    2.800    2.400 
#    0.000    0.000    0.000    0.000    0.000    0.000 
#    0.000    0.000    0.000    0.000    0.000    0.000 
#
# Total GULP energy -123920.073974 kJ/mol
# GULP energy per Si atom -12392.007397 kJ/mol
# Density = 2.177604 g / cm^3
# Si number density = 21.825719 Si / 1000 Ang^3
#
#
#
# Elastic Constant Matrix: (Units=GPa)
#
#
# Indices 1 2 3 4 5 6 
#
# 1 131.9449 13.3216 21.7930 -6.1160 12.4232 -5.4111
# 2 13.3216 87.8700 16.6603 13.5656 10.0642 7.4045
# 3 21.7930 16.6603 115.5515 13.2208 17.8832 2.9472
# 4 -6.1160 13.5656 13.2208 30.5246 -2.5513 4.6765
# 5 12.4232 10.0642 17.8832 -2.5513 28.8846 4.7449
# 6 -5.4111 7.4045 2.9472 4.6765 4.7449 35.7302
#
#
#
# Elastic Compliance Matrix: (Units=1/GPa)
#
#
# Indices 1 2 3 4 5 6 
#
# 1 0.008324 -0.001236 -0.001332 0.002344 -0.002387 0.001637
# 2 -0.001236 0.013169 -0.000285 -0.006088 -0.004165 -0.001543
# 3 -0.001332 -0.000285 0.010533 -0.005320 -0.006407 0.000536
# 4 0.002344 -0.006088 -0.005320 0.039614 0.008608 -0.004272
# 5 -0.002387 -0.004165 -0.006407 0.008608 0.042774 -0.005777
# 6 0.001637 -0.001543 0.000536 -0.004272 -0.005777 0.029837
#
#
# Mechanical properties :
#
#
# Convention : Reuss Voigt Hill
#
# Bulk Modulus (GPa) = 37.99466 48.76847 43.38156
# Shear Modulus (GPa) = 31.49985 37.93398 34.71691
#
# Velocity S-wave (km/s) = 3.80313 4.17350 3.99261
# Velocity P-wave (km/s) = 6.06061 6.75405 6.41671
#
# Compressibility (1/GPa) = 0.02631949
#
# Stress axis : x y z
#
# Youngs Moduli (GPa) = 120.13110 75.93713 94.93897
#
# Poissons Ratio (x) = 0.09385 0.12649
# Poissons Ratio (y) = 0.14846 0.02707
# Poissons Ratio (z) = 0.16006 0.02165
#
# Static dielectric constant tensor:
#      x y z
#    x -1.416470 -1.447130 -1.281410 
#    y -1.447130 2.864700 -0.942360 
#    z -1.281410 -0.942360 2.762140 
# 
# 
# High freq. dielectric constant tensor:
#      x y z
#    x 1.891050 -0.004820 -0.001640 
#    y -0.004820 1.856520 0.011530 
#    z -0.001640 0.011530 1.838670 
# 
# From -- ./inp_files/4766.got.cif
#   From: 2010.06.25/outbox.cif.g09.slc.cpg/sg2_3_cif.got.tgz:4766.got - 2010.06.27 13:26:56.
