data_PCOD8013926
_publ_section_title
;
Structure prediction by ZEFSAII (Michael W. Deem and Ramdas Pophale) SiO2 
 PCOD8013926
Probable space group: P -1
;
_chemical_formula_sum "Si O2"
_cell_formula_units_Z 16
_cell_length_a 15.809065
_cell_length_b 6.752957
_cell_length_c 11.427737
_cell_angle_alpha 94.706186
_cell_angle_beta 56.267217
_cell_angle_gamma 58.596130
_cell_volume 737.969910
_symmetry_space_group_name_H-M "P -1"
_symmetry_group_IT_number 2
_symmetry_cell_setting 'triclinic'
loop_
_space_group_symop_operation_xyz
x,y,z
-x,-y,-z
loop_
_atom_site_type_symbol
_atom_site_label
_atom_site_fract_x
_atom_site_fract_y
_atom_site_fract_z
Si Si1 0.010806 0.216033 0.025625
Si Si2 0.467344 0.527689 0.718418
Si Si3 0.518817 0.202261 0.464340
Si Si4 0.272845 0.008353 0.393742
Si Si5 0.331418 0.199771 0.141865
Si Si6 0.847871 0.164290 0.674472
Si Si7 0.826574 0.770267 0.277373
Si Si8 0.783447 0.997178 0.931592
O O1 0.052506 0.253133 0.870606
O O2 0.860027 0.498884 0.197907
O O3 0.119329 0.149294 0.037079
O O4 0.000000 0.000000 0.000000
O O5 0.418913 0.468881 0.637288
O O6 0.513516 0.686549 0.640522
O O7 0.581327 0.234417 0.672167
O O8 0.351188 0.696734 0.914032
O O9 0.500000 0.000000 0.500000
O O10 0.680322 0.039335 0.353087
O O11 0.227032 0.863312 0.367443
O O12 0.288620 0.162130 0.296178
O O13 0.165935 0.224404 0.586814
O O14 0.248942 0.516430 0.210661
O O15 0.272790 0.140066 0.078930
O O16 0.500000 0.000000 0.000000
O O17 0.864756 0.012405 0.771472
O O18 0.000000 0.000000 0.500000
#
# Coordination Sequence:
#
# PCOD8013926 Si02
#       8
#     2   2   2   2   2   2   2   2
#     4  11  26  42  67  93 135 181 217 270 328 393
#     4  10  21  41  63  93 133 167 218 273 326 389
#     4  10  22  38  63  95 132 170 213 268 328 390
#     4  10  24  43  69  97 134 170 223 280 326 405
#     4  11  25  46  72 101 134 173 226 282 341 392
#     4  11  27  43  69 100 132 179 223 272 346 395
#     4  10  24  43  62  99 131 168 228 268 323 405
#     4  11  25  43  68  99 135 172 225 276 325 405
#
# _framework density 21.681099
#
# number of rings (size 3 to 8) (size 9 to 14) (size 15 to 20)
#    0.000    1.500    1.250    1.500    7.000    9.000 
#    0.000    0.000    0.000    0.000    0.000    0.000 
#    0.000    0.000    0.000    0.000    0.000    0.000 
#
# Total GULP energy -198292.301652 kJ/mol
# GULP energy per Si atom -12393.268853 kJ/mol
# Density = 2.163175 g / cm^3
# Si number density = 21.681099 Si / 1000 Ang^3
#
#
#
# Elastic Constant Matrix: (Units=GPa)
#
#
# Indices 1 2 3 4 5 6 
#
# 1 84.5790 28.4517 36.5393 -1.5358 11.3510 12.1701
# 2 28.4517 94.1522 28.7658 9.6304 7.1902 20.4331
# 3 36.5393 28.7658 144.1244 7.4324 15.9421 16.2696
# 4 -1.5358 9.6304 7.4324 40.9828 -0.5183 5.5402
# 5 11.3510 7.1902 15.9421 -0.5183 28.1037 -0.5292
# 6 12.1701 20.4331 16.2696 5.5402 -0.5292 34.0704
#
#
#
# Elastic Compliance Matrix: (Units=1/GPa)
#
#
# Indices 1 2 3 4 5 6 
#
# 1 0.014883 -0.003063 -0.002548 0.002050 -0.003794 -0.002655
# 2 -0.003063 0.013560 -0.000895 -0.002316 -0.001885 -0.006264
# 3 -0.002548 -0.000895 0.008504 -0.001137 -0.003634 -0.002486
# 4 0.002050 -0.002316 -0.001137 0.025638 0.000827 -0.002956
# 5 -0.003794 -0.001885 -0.003634 0.000827 0.039762 0.004704
# 6 -0.002655 -0.006264 -0.002486 -0.002956 0.004704 0.035797
#
#
# Mechanical properties :
#
#
# Convention : Reuss Voigt Hill
#
# Bulk Modulus (GPa) = 41.77862 56.70769 49.24316
# Shear Modulus (GPa) = 31.41987 35.90462 33.66225
#
# Velocity S-wave (km/s) = 3.81094 4.07385 3.94459
# Velocity P-wave (km/s) = 6.21899 6.95273 6.59607
#
# Compressibility (1/GPa) = 0.02393569
#
# Stress axis : x y z
#
# Youngs Moduli (GPa) = 67.19141 73.74467 117.58750
#
# Poissons Ratio (x) = 0.22586 0.29964
# Poissons Ratio (y) = 0.20579 0.10524
# Poissons Ratio (z) = 0.17122 0.06600
#
# Static dielectric constant tensor:
#      x y z
#    x 3.730120 -0.057490 0.211640 
#    y -0.057490 4.004730 0.026020 
#    z 0.211640 0.026020 4.442370 
# 
# 
# High freq. dielectric constant tensor:
#      x y z
#    x 1.832290 -0.000360 0.012640 
#    y -0.000360 1.866720 0.003260 
#    z 0.012640 0.003260 1.873400 
# 
# From -- ./inp_files/371050.got.cif
#   From: 2010.06.25/outbox.cif.g09.slc.cpg/sg2_186_cif.got.tgz:371050.got - 2010.06.27 13:26:56.
