data_PCOD8013226
_publ_section_title
;
Structure prediction by ZEFSAII (Michael W. Deem and Ramdas Pophale) SiO2 
 PCOD8013226
Probable space group: P -1
;
_chemical_formula_sum "Si O2"
_cell_formula_units_Z 16
_cell_length_a 8.735425
_cell_length_b 10.989703
_cell_length_c 9.826719
_cell_angle_alpha 77.776830
_cell_angle_beta 88.806751
_cell_angle_gamma 128.543475
_cell_volume 706.566719
_symmetry_space_group_name_H-M "P -1"
_symmetry_group_IT_number 2
_symmetry_cell_setting 'triclinic'
loop_
_space_group_symop_operation_xyz
x,y,z
-x,-y,-z
loop_
_atom_site_type_symbol
_atom_site_label
_atom_site_fract_x
_atom_site_fract_y
_atom_site_fract_z
Si Si1 0.273886 0.646453 0.666657
Si Si2 0.418649 0.142345 0.610653
Si Si3 0.939118 0.224185 0.302209
Si Si4 0.887704 0.829347 0.469753
Si Si5 0.180466 0.288121 0.027817
Si Si6 0.015486 0.272197 0.759109
Si Si7 0.453876 0.670520 0.929430
Si Si8 0.601360 0.165767 0.881136
O O1 0.381103 0.760362 0.505859
O O2 0.097455 0.647531 0.716686
O O3 0.180113 0.463572 0.676851
O O4 0.433681 0.721333 0.768927
O O5 0.326404 0.232535 0.563662
O O6 0.465533 0.149777 0.766853
O O7 0.264828 0.954512 0.611827
O O8 0.120564 0.283770 0.388781
O O9 0.000088 0.213069 0.153628
O O10 0.008302 0.836440 0.338251
O O11 0.000000 0.000000 0.500000
O O12 0.310967 0.233432 0.072192
O O13 0.081002 0.223089 0.897873
O O14 0.324603 0.480172 0.984749
O O15 0.807657 0.230572 0.797726
O O16 0.361896 0.709387 0.037839
O O17 0.500000 0.000000 0.000000
#
# Coordination Sequence:
#
# PCOD8013226 Si02
#       8
#     2   2   2   2   2   2   2   2
#     4  11  23  40  65  92 126 163 205 256 304 365
#     4  11  24  41  61  90 124 165 207 253 305 361
#     4  11  22  40  64  93 126 163 206 252 308 362
#     4  10  24  43  63  89 123 162 206 254 307 368
#     4  10  21  40  66  92 126 163 204 254 302 365
#     4  11  24  42  63  92 124 163 208 253 309 364
#     4  10  22  40  63  94 125 163 206 250 307 361
#     4  12  25  40  63  92 126 162 204 254 305 366
#
# _framework density 22.644712999999999
#
# number of rings (size 3 to 8) (size 9 to 14) (size 15 to 20)
#    0.000    1.250    0.000    5.625    0.000   10.500 
#    0.000    4.375    0.000    0.000    0.000    0.000 
#    0.000    0.000    0.000    0.000    0.000    0.000 
#
# Total GULP energy -198434.228807 kJ/mol
# GULP energy per Si atom -12402.139300 kJ/mol
# Density = 2.259317 g / cm^3
# Si number density = 22.644713 Si / 1000 Ang^3
#
#
#
# Elastic Constant Matrix: (Units=GPa)
#
#
# Indices 1 2 3 4 5 6 
#
# 1 111.2388 29.8411 39.6607 8.3584 3.2770 -10.2685
# 2 29.8411 40.6062 47.4976 18.4751 -0.4367 0.8141
# 3 39.6607 47.4976 150.1827 11.3165 4.0492 -6.5710
# 4 8.3584 18.4751 11.3165 37.1705 -0.8827 -9.8088
# 5 3.2770 -0.4367 4.0492 -0.8827 58.0900 5.1576
# 6 -10.2685 0.8141 -6.5710 -9.8088 5.1576 29.4360
#
#
#
# Elastic Compliance Matrix: (Units=1/GPa)
#
#
# Indices 1 2 3 4 5 6 
#
# 1 0.012290 -0.011853 0.000472 0.004670 -0.001322 0.006508
# 2 -0.011853 0.067987 -0.017024 -0.031377 0.003748 -0.020928
# 3 0.000472 -0.017024 0.011730 0.006221 -0.001372 0.005567
# 4 0.004670 -0.031377 0.006221 0.044540 -0.001949 0.019069
# 5 -0.001322 0.003748 -0.001372 -0.001949 0.017795 -0.004639
# 6 0.006508 -0.020928 0.005567 0.019069 -0.004639 0.045231
#
#
# Mechanical properties :
#
#
# Convention : Reuss Voigt Hill
#
# Bulk Modulus (GPa) = 28.41261 59.55850 43.98555
# Shear Modulus (GPa) = 18.64864 37.27450 27.96157
#
# Velocity S-wave (km/s) = 2.87284 4.06157 3.51778
# Velocity P-wave (km/s) = 4.85578 6.95367 5.99717
#
# Compressibility (1/GPa) = 0.03519564
#
# Stress axis : x y z
#
# Youngs Moduli (GPa) = 81.36648 14.70877 85.25206
#
# Poissons Ratio (x) = 0.17435 -0.04021
# Poissons Ratio (y) = 0.96445 1.45133
# Poissons Ratio (z) = -0.03837 0.25040
#
# Static dielectric constant tensor:
#      x y z
#    x 4.437450 -0.074860 0.485640 
#    y -0.074860 3.804340 0.138720 
#    z 0.485640 0.138720 4.167700 
# 
# 
# High freq. dielectric constant tensor:
#      x y z
#    x 1.910490 -0.005380 0.010560 
#    y -0.005380 1.871380 0.007680 
#    z 0.010560 0.007680 1.906300 
# 
# From -- ./inp_files/186772.got.cif
#   From: 2010.06.25/outbox.cif.g09.slc.cpg/sg2_94_cif.got.tgz:186772.got - 2010.06.27 13:26:56.
