data_PCOD8013834
_publ_section_title
;
Structure prediction by ZEFSAII (Michael W. Deem and Ramdas Pophale) SiO2 
 PCOD8013834
Probable space group: P -1
;
_chemical_formula_sum "Si O2"
_cell_formula_units_Z 14
_cell_length_a 18.485878
_cell_length_b 7.093182
_cell_length_c 6.717372
_cell_angle_alpha 119.162078
_cell_angle_beta 74.201463
_cell_angle_gamma 125.627997
_cell_volume 625.102132
_symmetry_space_group_name_H-M "P -1"
_symmetry_group_IT_number 2
_symmetry_cell_setting 'triclinic'
loop_
_space_group_symop_operation_xyz
x,y,z
-x,-y,-z
loop_
_atom_site_type_symbol
_atom_site_label
_atom_site_fract_x
_atom_site_fract_y
_atom_site_fract_z
Si Si1 0.269073 0.957110 0.756914
Si Si2 0.999841 0.534884 0.285394
Si Si3 0.606140 0.637416 0.846682
Si Si4 0.546436 0.296697 0.074419
Si Si5 0.842960 0.613732 0.451926
Si Si6 0.293206 0.319178 0.593101
Si Si7 0.886752 0.077824 0.893747
O O1 0.240561 0.670305 0.579615
O O2 0.277216 0.074039 0.594662
O O3 0.199371 0.972558 0.956336
O O4 0.360205 0.125181 0.900154
O O5 0.926695 0.603325 0.311378
O O6 0.000000 0.500000 0.500000
O O7 0.094781 0.766298 0.250747
O O8 0.972898 0.266049 0.063574
O O9 0.521895 0.611149 0.780930
O O10 0.681157 0.688600 0.658724
O O11 0.579369 0.382728 0.864773
O O12 0.630209 0.426432 0.226162
O O13 0.500000 0.000000 0.000000
O O14 0.801757 0.701033 0.353027
O O15 0.874818 0.805196 0.716559
#
# Coordination Sequence:
#
# PCOD8013834 Si02
#       7
#     2   2   2   2   2   2   2
#     4  10  23  42  61  94 133 165 213 264 309 371
#     4  10  24  44  66  93 127 165 212 267 317 374
#     4  10  21  41  62  91 135 161 212 270 296 375
#     4  10  22  39  64  94 125 171 212 253 319 371
#     4  11  23  41  66  93 127 168 213 259 316 383
#     4  11  23  41  63  94 130 169 211 258 320 372
#     4  10  22  44  62  95 127 161 214 262 307 383
#
# _framework density 22.396339999999999
#
# number of rings (size 3 to 8) (size 9 to 14) (size 15 to 20)
#    0.000    1.714    1.429    1.714    4.000    2.286 
#   10.286    0.000    0.000    0.000    0.000    0.000 
#    0.000    0.000    0.000    0.000    0.000    0.000 
#
# Total GULP energy -173484.038232 kJ/mol
# GULP energy per Si atom -12391.717017 kJ/mol
# Density = 2.234536 g / cm^3
# Si number density = 22.396340 Si / 1000 Ang^3
#
#
#
# Elastic Constant Matrix: (Units=GPa)
#
#
# Indices 1 2 3 4 5 6 
#
# 1 68.6979 0.3709 20.8605 -0.3491 9.7556 -2.9134
# 2 0.3709 130.3399 68.1737 4.9769 9.5763 8.4686
# 3 20.8605 68.1737 118.0731 -1.3853 11.2946 -3.3314
# 4 -0.3491 4.9769 -1.3853 51.5647 7.4745 -0.0728
# 5 9.7556 9.5763 11.2946 7.4745 27.9305 -4.7221
# 6 -2.9134 8.4686 -3.3314 -0.0728 -4.7221 25.6763
#
#
#
# Elastic Compliance Matrix: (Units=1/GPa)
#
#
# Indices 1 2 3 4 5 6 
#
# 1 0.016402 0.002283 -0.003721 0.000545 -0.005209 -0.000331
# 2 0.002283 0.012019 -0.007251 -0.000971 -0.002593 -0.005125
# 3 -0.003721 -0.007251 0.013564 0.001254 -0.001449 0.003466
# 4 0.000545 -0.000971 0.001254 0.020379 -0.005900 -0.000482
# 5 -0.005209 -0.002593 -0.001449 -0.005900 0.041992 0.007782
# 6 -0.000331 -0.005125 0.003466 -0.000482 0.007782 0.042479
#
#
# Mechanical properties :
#
#
# Convention : Reuss Voigt Hill
#
# Bulk Modulus (GPa) = 40.63665 55.10235 47.86950
# Shear Modulus (GPa) = 28.99979 36.21470 32.60724
#
# Velocity S-wave (km/s) = 3.60230 4.02555 3.81979
# Velocity P-wave (km/s) = 5.95700 6.80172 6.39332
#
# Compressibility (1/GPa) = 0.02460833
#
# Stress axis : x y z
#
# Youngs Moduli (GPa) = 60.96669 83.20293 73.72301
#
# Poissons Ratio (x) = -0.18993 0.27429
# Poissons Ratio (y) = -0.13917 0.53455
# Poissons Ratio (z) = 0.22683 0.60329
#
# Static dielectric constant tensor:
#      x y z
#    x 4.033720 0.296480 0.197490 
#    y 0.296480 4.282300 0.135340 
#    z 0.197490 0.135340 3.951840 
# 
# 
# High freq. dielectric constant tensor:
#      x y z
#    x 1.875500 0.022110 0.014190 
#    y 0.022110 1.891530 0.002830 
#    z 0.014190 0.002830 1.873610 
# 
# From -- ./inp_files/114440.got.cif
#   From: 2010.06.25/outbox.cif.g09.slc.cpg/sg2_58_cif.got.tgz:114440.got - 2010.06.27 13:26:56.
