data_PCOD8013781
_publ_section_title
;
Structure prediction by ZEFSAII (Michael W. Deem and Ramdas Pophale) SiO2 
 PCOD8013781
Probable space group: P -1
;
_chemical_formula_sum "Si O2"
_cell_formula_units_Z 12
_cell_length_a 12.814665
_cell_length_b 16.148995
_cell_length_c 9.079735
_cell_angle_alpha 137.016302
_cell_angle_beta 131.105149
_cell_angle_gamma 24.560563
_cell_volume 532.279911
_symmetry_space_group_name_H-M "P -1"
_symmetry_group_IT_number 2
_symmetry_cell_setting 'triclinic'
loop_
_space_group_symop_operation_xyz
x,y,z
-x,-y,-z
loop_
_atom_site_type_symbol
_atom_site_label
_atom_site_fract_x
_atom_site_fract_y
_atom_site_fract_z
Si Si1 0.565153 0.260271 0.172315
Si Si2 0.306484 0.971311 0.277039
Si Si3 0.632352 0.773597 0.819069
Si Si4 0.274270 0.894366 0.456861
Si Si5 0.121730 0.374798 0.604326
Si Si6 0.776245 0.285462 0.642576
O O1 0.420816 0.260166 0.124923
O O2 0.713793 0.242310 0.391618
O O3 0.364929 0.484821 0.186407
O O4 0.751030 0.063314 0.969224
O O5 0.204451 0.972399 0.325088
O O6 0.606435 0.766273 0.301692
O O7 0.150558 0.208818 0.429093
O O8 0.531187 0.774204 0.582841
O O9 0.933019 0.562170 0.800066
O O10 0.500000 0.000000 0.000000
O O11 0.287374 0.739145 0.296351
O O12 0.070452 0.097990 0.649209
O O13 0.000000 0.500000 0.500000
#
# Coordination Sequence:
#
# PCOD8013781 Si02
#       6
#     2   2   2   2   2   2
#     4  10  22  40  62  93 120 170 212 259 312 370
#     4  11  24  39  66  94 128 169 206 258 322 372
#     4  11  23  39  66  93 129 167 209 260 319 372
#     4  10  21  41  61  92 123 169 209 259 313 370
#     4  11  23  42  60  95 137 163 204 257 319 384
#     4   9  21  42  63  85 130 164 216 261 300 375
#
# _framework density 22.544530999999999
#
# number of rings (size 3 to 8) (size 9 to 14) (size 15 to 20)
#    0.000    1.667    1.667    2.000    4.667    2.000 
#    3.000    0.000    0.000    0.000    0.000    0.000 
#    0.000    0.000    0.000    0.000    0.000    0.000 
#
# Total GULP energy -148782.390360 kJ/mol
# GULP energy per Si atom -12398.532530 kJ/mol
# Density = 2.249322 g / cm^3
# Si number density = 22.544531 Si / 1000 Ang^3
#
#
#
# Elastic Constant Matrix: (Units=GPa)
#
#
# Indices 1 2 3 4 5 6 
#
# 1 143.3300 42.5253 44.7410 15.2813 -6.9626 35.4611
# 2 42.5253 98.7503 19.7214 30.8001 4.7894 18.5220
# 3 44.7410 19.7214 86.7747 24.5909 -7.1407 17.9441
# 4 15.2813 30.8001 24.5909 39.7554 8.2129 0.9665
# 5 -6.9626 4.7894 -7.1407 8.2129 28.5395 1.1320
# 6 35.4611 18.5220 17.9441 0.9665 1.1320 50.8294
#
#
#
# Elastic Compliance Matrix: (Units=1/GPa)
#
#
# Indices 1 2 3 4 5 6 
#
# 1 0.010238 -0.002952 -0.003441 0.000126 0.002291 -0.004906
# 2 -0.002952 0.015584 0.002541 -0.012635 0.001107 -0.004301
# 3 -0.003441 0.002541 0.018047 -0.013187 0.007235 -0.004807
# 4 0.000126 -0.012635 -0.013187 0.045877 -0.014693 0.008627
# 5 0.002291 0.001107 0.007235 -0.014693 0.041657 -0.005204
# 6 -0.004906 -0.004301 -0.004807 0.008627 -0.005204 0.026312
#
#
# Mechanical properties :
#
#
# Convention : Reuss Voigt Hill
#
# Bulk Modulus (GPa) = 27.64968 60.31449 43.98208
# Shear Modulus (GPa) = 28.17308 38.61603 33.39455
#
# Velocity S-wave (km/s) = 3.53889 4.14318 3.85290
# Velocity P-wave (km/s) = 5.38419 7.04979 6.27252
#
# Compressibility (1/GPa) = 0.03616678
#
# Stress axis : x y z
#
# Youngs Moduli (GPa) = 97.67157 64.16777 55.41045
#
# Poissons Ratio (x) = 0.18943 0.19065
# Poissons Ratio (y) = 0.28834 -0.14082
# Poissons Ratio (z) = 0.33606 -0.16307
#
# Static dielectric constant tensor:
#      x y z
#    x 4.201690 0.157610 -0.039390 
#    y 0.157610 4.228860 0.143100 
#    z -0.039390 0.143100 3.785530 
# 
# 
# High freq. dielectric constant tensor:
#      x y z
#    x 1.903140 0.011880 -0.000670 
#    y 0.011880 1.896910 0.007650 
#    z -0.000670 0.007650 1.864220 
# 
# From -- ./inp_files/183196.got.cif
#   From: 2010.06.25/outbox.cif.g09.slc.cpg/sg2_92_cif.got.tgz:183196.got - 2010.06.27 13:26:56.
