data_PCOD8013449
_publ_section_title
;
Structure prediction by ZEFSAII (Michael W. Deem and Ramdas Pophale) SiO2 
 PCOD8013449
Probable space group: P -1
;
_chemical_formula_sum "Si O2"
_cell_formula_units_Z 16
_cell_length_a 9.312145
_cell_length_b 5.258366
_cell_length_c 23.914871
_cell_angle_alpha 97.673947
_cell_angle_beta 129.884464
_cell_angle_gamma 53.973571
_cell_volume 668.384657
_symmetry_space_group_name_H-M "P -1"
_symmetry_group_IT_number 2
_symmetry_cell_setting 'triclinic'
loop_
_space_group_symop_operation_xyz
x,y,z
-x,-y,-z
loop_
_atom_site_type_symbol
_atom_site_label
_atom_site_fract_x
_atom_site_fract_y
_atom_site_fract_z
Si Si1 0.574864 0.158814 0.983990
Si Si2 0.261035 0.374558 0.282421
Si Si3 0.849789 0.365207 0.180138
Si Si4 0.913271 0.202648 0.862073
Si Si5 0.460857 0.653567 0.555162
Si Si6 0.732331 0.820290 0.318330
Si Si7 0.178065 0.418935 0.493887
Si Si8 0.624554 0.377025 0.226564
O O1 0.500000 0.500000 0.000000
O O2 0.419789 0.258079 0.890451
O O3 0.876931 0.866768 0.046363
O O4 0.500000 0.000000 0.000000
O O5 0.155233 0.570026 0.203003
O O6 0.309065 0.542117 0.348524
O O7 0.055911 0.369099 0.257647
O O8 0.533977 0.003225 0.325898
O O9 0.776230 0.203397 0.200837
O O10 0.973897 0.158086 0.147110
O O11 0.674846 0.374428 0.847058
O O12 0.500000 0.500000 0.500000
O O13 0.267861 0.629298 0.534717
O O14 0.391761 0.010315 0.534580
O O15 0.679709 0.620091 0.262810
O O16 0.018059 0.554157 0.401221
O O17 0.717232 0.093116 0.286712
O O18 0.000000 0.500000 0.500000
#
# Coordination Sequence:
#
# PCOD8013449 Si02
#       8
#     2   2   2   2   2   2   2   2
#     4  10  21  40  68 101 137 182 227 277 346 412
#     4  11  24  43  73  93 140 184 232 283 357 413
#     4  11  24  43  70 101 139 185 229 284 349 415
#     4  10  23  43  69 100 142 179 231 286 343 414
#     4  12  29  46  68 106 141 181 235 295 355 416
#     4  11  25  46  68  99 135 180 235 291 341 423
#     4  12  26  48  71  96 132 186 232 287 356 419
#     4  11  26  41  70 105 136 181 236 282 348 409
#
# _framework density 23.938310000000001
#
# number of rings (size 3 to 8) (size 9 to 14) (size 15 to 20)
#    0.000    1.000    3.750    1.500    8.750    1.500 
#    0.000    0.000    0.000    5.250    0.000    0.000 
#    0.000    0.000    0.000    0.000    0.000    0.000 
#
# Total GULP energy -198224.890699 kJ/mol
# GULP energy per Si atom -12389.055669 kJ/mol
# Density = 2.388383 g / cm^3
# Si number density = 23.938310 Si / 1000 Ang^3
#
#
#
# Elastic Constant Matrix: (Units=GPa)
#
#
# Indices 1 2 3 4 5 6 
#
# 1 151.3539 16.3916 50.0530 -2.5705 14.4289 17.5021
# 2 16.3916 56.4994 17.3953 -5.0929 2.0590 17.2057
# 3 50.0530 17.3953 132.2952 -13.1546 29.6363 7.8945
# 4 -2.5705 -5.0929 -13.1546 31.2003 3.5144 -3.9955
# 5 14.4289 2.0590 29.6363 3.5144 40.2033 4.9596
# 6 17.5021 17.2057 7.8945 -3.9955 4.9596 29.9559
#
#
#
# Elastic Compliance Matrix: (Units=1/GPa)
#
#
# Indices 1 2 3 4 5 6 
#
# 1 0.008025 -0.000382 -0.002812 -0.001052 -0.000223 -0.003831
# 2 -0.000382 0.022274 -0.002493 0.000736 0.002274 -0.012191
# 3 -0.002812 -0.002493 0.011072 0.005174 -0.007740 0.002128
# 4 -0.001052 0.000736 0.005174 0.035687 -0.007183 0.004778
# 5 -0.000223 0.002274 -0.007740 -0.007183 0.031832 -0.005364
# 6 -0.003831 -0.012191 0.002128 0.004778 -0.005364 0.043588
#
#
# Mechanical properties :
#
#
# Convention : Reuss Voigt Hill
#
# Bulk Modulus (GPa) = 33.33746 56.42539 44.88143
# Shear Modulus (GPa) = 28.76049 37.35913 33.05981
#
# Velocity S-wave (km/s) = 3.46994 3.95478 3.72027
# Velocity P-wave (km/s) = 5.47820 6.66904 6.10273
#
# Compressibility (1/GPa) = 0.02999629
#
# Stress axis : x y z
#
# Youngs Moduli (GPa) = 124.61408 44.89581 90.32008
#
# Poissons Ratio (x) = 0.01717 0.25397
# Poissons Ratio (y) = 0.04765 0.22514
# Poissons Ratio (z) = 0.35040 0.11191
#
# Static dielectric constant tensor:
#      x y z
#    x 4.158720 -0.631780 -0.038700 
#    y -0.631780 2.765930 -0.397520 
#    z -0.038700 -0.397520 4.592980 
# 
# 
# High freq. dielectric constant tensor:
#      x y z
#    x 1.956120 0.012280 0.013110 
#    y 0.012280 1.929580 -0.011540 
#    z 0.013110 -0.011540 1.966270 
# 
# From -- ./inp_files/605866.got.cif
#   From: 2010.06.25/outbox.cif.g09.slc.cpg/sg2_303_cif.got.tgz:605866.got - 2010.06.27 13:26:56.
