data_PCOD8013093
_publ_section_title
;
Structure prediction by ZEFSAII (Michael W. Deem and Ramdas Pophale) SiO2 
 PCOD8013093
Probable space group: P -1
;
_chemical_formula_sum "Si O2"
_cell_formula_units_Z 16
_cell_length_a 17.474400
_cell_length_b 9.076312
_cell_length_c 11.927339
_cell_angle_alpha 143.229073
_cell_angle_beta 50.153746
_cell_angle_gamma 103.837162
_cell_volume 697.907867
_symmetry_space_group_name_H-M "P -1"
_symmetry_group_IT_number 2
_symmetry_cell_setting 'triclinic'
loop_
_space_group_symop_operation_xyz
x,y,z
-x,-y,-z
loop_
_atom_site_type_symbol
_atom_site_label
_atom_site_fract_x
_atom_site_fract_y
_atom_site_fract_z
Si Si1 0.365538 0.312158 0.800454
Si Si2 0.047426 0.612959 0.793108
Si Si3 0.165585 0.309012 0.092404
Si Si4 0.847034 0.288054 0.449777
Si Si5 0.267973 0.212797 0.478093
Si Si6 0.597635 0.301367 0.140131
Si Si7 0.646401 0.299710 0.756175
Si Si8 0.321377 0.698211 0.701680
O O1 0.360798 0.479006 0.793724
O O2 0.500000 0.000000 0.500000
O O3 0.262856 0.249077 0.867512
O O4 0.327392 0.553979 0.080130
O O5 0.150165 0.580626 0.592687
O O6 0.127469 0.354639 0.655781
O O7 0.964308 0.546408 0.759349
O O8 0.966772 0.936372 0.129162
O O9 0.142880 0.539421 0.351497
O O10 0.214610 0.983169 0.902055
O O11 0.721686 0.303075 0.581782
O O12 0.280201 0.486421 0.644468
O O13 0.297837 0.048339 0.471588
O O14 0.361490 0.965951 0.148053
O O15 0.449441 0.504345 0.396029
O O16 0.654579 0.169126 0.128995
O O17 0.500000 0.500000 0.000000
#
# Coordination Sequence:
#
# PCOD8013093 Si02
#       8
#     2   2   2   2   2   2   2   2
#     4  10  21  40  65  93 126 161 210 260 322 385
#     4  11  24  41  66  90 132 176 213 263 312 376
#     4  11  23  41  67  95 126 169 218 264 314 382
#     4  10  23  43  65  97 126 169 222 259 313 382
#     4  11  25  42  59  96 129 167 215 262 317 381
#     4  10  23  40  60  94 130 164 211 266 323 378
#     4  10  25  42  68  94 127 168 208 273 326 377
#     4  11  22  37  66  94 127 171 206 267 325 375
#
# _framework density 22.925661000000002
#
# number of rings (size 3 to 8) (size 9 to 14) (size 15 to 20)
#    0.000    1.500    1.250    3.000    3.500    5.500 
#    0.000    6.875    0.000    0.000    0.000    2.625 
#    0.000    0.000    0.000    0.000    0.000    0.000 
#
# Total GULP energy -198364.608136 kJ/mol
# GULP energy per Si atom -12397.788009 kJ/mol
# Density = 2.287348 g / cm^3
# Si number density = 22.925661 Si / 1000 Ang^3
#
#
#
# Elastic Constant Matrix: (Units=GPa)
#
#
# Indices 1 2 3 4 5 6 
#
# 1 90.7718 41.1492 31.7899 4.4967 -23.5712 11.1383
# 2 41.1492 104.0140 31.5734 -1.0890 -33.1458 20.3489
# 3 31.7899 31.5734 81.8715 -5.9684 -19.0497 6.3409
# 4 4.4967 -1.0890 -5.9684 35.7190 6.2849 -6.9723
# 5 -23.5712 -33.1458 -19.0497 6.2849 43.2158 7.0526
# 6 11.1383 20.3489 6.3409 -6.9723 7.0526 33.9514
#
#
#
# Elastic Compliance Matrix: (Units=1/GPa)
#
#
# Indices 1 2 3 4 5 6 
#
# 1 0.016083 -0.001598 -0.003734 -0.005283 0.007698 -0.006305
# 2 -0.001598 0.018694 -0.002201 -0.005194 0.015631 -0.014583
# 3 -0.003734 -0.002201 0.015363 0.002405 0.002763 -0.000405
# 4 -0.005283 -0.005194 0.002405 0.033947 -0.013039 0.014077
# 5 0.007698 0.015631 0.002763 -0.013039 0.046480 -0.024743
# 6 -0.006305 -0.014583 -0.000405 0.014077 -0.024743 0.048369
#
#
# Mechanical properties :
#
#
# Convention : Reuss Voigt Hill
#
# Bulk Modulus (GPa) = 28.51157 53.96471 41.23814
# Shear Modulus (GPa) = 24.30810 34.05357 29.18083
#
# Velocity S-wave (km/s) = 3.25976 3.85826 3.57157
# Velocity P-wave (km/s) = 5.16058 6.59077 5.91903
#
# Compressibility (1/GPa) = 0.03507349
#
# Stress axis : x y z
#
# Youngs Moduli (GPa) = 62.17704 53.49274 65.09258
#
# Poissons Ratio (x) = 0.08548 0.24308
# Poissons Ratio (y) = 0.09935 0.14326
# Poissons Ratio (z) = 0.23219 0.11773
#
# Static dielectric constant tensor:
#      x y z
#    x 4.033960 0.158340 0.073980 
#    y 0.158340 4.607750 -0.136050 
#    z 0.073980 -0.136050 4.198900 
# 
# 
# High freq. dielectric constant tensor:
#      x y z
#    x 1.903340 0.006270 0.007040 
#    y 0.006270 1.904300 -0.003930 
#    z 0.007040 -0.003930 1.913820 
# 
# From -- ./inp_files/462567.got.cif
#   From: 2010.06.25/outbox.cif.g09.slc.cpg/sg2_232_cif.got.tgz:462567.got - 2010.06.27 13:26:56.
