data_PCOD8013158
_publ_section_title
;
Structure prediction by ZEFSAII (Michael W. Deem and Ramdas Pophale) SiO2 
 PCOD8013158
Probable space group: P -1
;
_chemical_formula_sum "Si O2"
_cell_formula_units_Z 16
_cell_length_a 9.541695
_cell_length_b 12.122727
_cell_length_c 8.818029
_cell_angle_alpha 77.313308
_cell_angle_beta 91.546662
_cell_angle_gamma 52.799767
_cell_volume 775.682590
_symmetry_space_group_name_H-M "P -1"
_symmetry_group_IT_number 2
_symmetry_cell_setting 'triclinic'
loop_
_space_group_symop_operation_xyz
x,y,z
-x,-y,-z
loop_
_atom_site_type_symbol
_atom_site_label
_atom_site_fract_x
_atom_site_fract_y
_atom_site_fract_z
Si Si1 0.367544 0.166583 0.259450
Si Si2 0.707887 0.388806 0.573961
Si Si3 0.795965 0.134267 0.478905
Si Si4 0.445179 0.711724 0.850764
Si Si5 0.175138 0.449475 0.608037
Si Si6 0.712193 0.382377 0.911379
Si Si7 0.509381 0.855115 0.394125
Si Si8 0.966942 0.402913 0.119531
O O1 0.433212 0.237202 0.130624
O O2 0.397542 0.185476 0.427867
O O3 0.156854 0.250308 0.208443
O O4 0.471397 0.997492 0.277587
O O5 0.500000 0.500000 0.500000
O O6 0.803268 0.258217 0.498541
O O7 0.772921 0.480594 0.526360
O O8 0.775355 0.318092 0.764739
O O9 0.710220 0.169109 0.300697
O O10 0.679908 0.117317 0.600625
O O11 0.000000 0.000000 0.500000
O O12 0.557291 0.553376 0.826699
O O13 0.360451 0.701130 0.003134
O O14 0.343171 0.277051 0.671968
O O15 0.142368 0.510454 0.758527
O O16 0.000000 0.500000 0.500000
O O17 0.860925 0.362597 0.031060
O O18 0.000000 0.500000 0.000000
#
# Coordination Sequence:
#
# PCOD8013158 Si02
#       8
#     2   2   2   2   2   2   2   2
#     4  10  21  41  66  95 135 176 211 272 330 401
#     4  12  23  43  69  96 129 171 229 277 319 393
#     4  11  24  41  69 100 131 175 224 272 333 399
#     4  10  21  40  65  97 130 172 217 267 338 389
#     4  12  24  41  70 102 129 171 229 276 320 394
#     4  11  23  39  67  98 131 169 221 280 328 386
#     4  10  22  41  67  98 135 168 227 275 326 386
#     4  12  24  40  68 101 134 174 220 271 337 399
#
# _framework density 20.626994
#
# number of rings (size 3 to 8) (size 9 to 14) (size 15 to 20)
#    0.000    1.000    5.000    2.250    5.250    1.000 
#    0.000    1.250    2.750    0.000    0.000    0.000 
#    0.000    0.000    0.000    0.000    0.000    0.000 
#
# Total GULP energy -198320.624470 kJ/mol
# GULP energy per Si atom -12395.039029 kJ/mol
# Density = 2.058005 g / cm^3
# Si number density = 20.626994 Si / 1000 Ang^3
#
#
#
# Elastic Constant Matrix: (Units=GPa)
#
#
# Indices 1 2 3 4 5 6 
#
# 1 133.0648 55.9801 43.4449 -6.4018 -5.2849 -9.6195
# 2 55.9801 132.1784 36.2544 -4.8661 -1.3870 -13.5708
# 3 43.4449 36.2544 88.3722 4.7033 -5.0056 -6.2034
# 4 -6.4018 -4.8661 4.7033 28.6555 6.6658 -1.7674
# 5 -5.2849 -1.3870 -5.0056 6.6658 43.0601 -11.9686
# 6 -9.6195 -13.5708 -6.2034 -1.7674 -11.9686 37.8052
#
#
#
# Elastic Compliance Matrix: (Units=1/GPa)
#
#
# Indices 1 2 3 4 5 6 
#
# 1 0.010280 -0.003100 -0.003779 0.002302 0.000703 0.001213
# 2 -0.003100 0.009850 -0.002419 0.001504 0.000105 0.002454
# 3 -0.003779 -0.002419 0.014571 -0.004064 0.002066 0.001025
# 4 0.002302 0.001504 -0.004064 0.037724 -0.005881 0.000360
# 5 0.000703 0.000105 0.002066 -0.005881 0.026910 0.008800
# 6 0.001213 0.002454 0.001025 0.000360 0.008800 0.030612
#
#
# Mechanical properties :
#
#
# Convention : Reuss Voigt Hill
#
# Bulk Modulus (GPa) = 62.09412 69.44157 65.76784
# Shear Modulus (GPa) = 32.48611 36.43324 34.45967
#
# Velocity S-wave (km/s) = 3.97285 4.20728 4.09174
# Velocity P-wave (km/s) = 7.15635 7.57233 7.36727
#
# Compressibility (1/GPa) = 0.01610458
#
# Stress axis : x y z
#
# Youngs Moduli (GPa) = 97.27888 101.51821 68.62820
#
# Poissons Ratio (x) = 0.31475 0.25936
# Poissons Ratio (y) = 0.30161 0.16600
# Poissons Ratio (z) = 0.36764 0.24555
#
# Static dielectric constant tensor:
#      x y z
#    x 3.976460 -0.008660 -0.073140 
#    y -0.008660 3.524480 -0.049530 
#    z -0.073140 -0.049530 3.692360 
# 
# 
# High freq. dielectric constant tensor:
#      x y z
#    x 1.825600 0.001570 -0.001730 
#    y 0.001570 1.795060 -0.010810 
#    z -0.001730 -0.010810 1.799860 
# 
# From -- ./inp_files/186734.got.cif
#   From: 2010.06.25/outbox.cif.g09.slc.cpg/sg2_94_cif.got.tgz:186734.got - 2010.06.27 13:26:56.
