data_PCOD8013270
_publ_section_title
;
Structure prediction by ZEFSAII (Michael W. Deem and Ramdas Pophale) SiO2 
 PCOD8013270
Probable space group: P -1
;
_chemical_formula_sum "Si O2"
_cell_formula_units_Z 12
_cell_length_a 18.289584
_cell_length_b 7.484639
_cell_length_c 4.782890
_cell_angle_alpha 79.407427
_cell_angle_beta 98.390691
_cell_angle_gamma 54.719164
_cell_volume 498.770533
_symmetry_space_group_name_H-M "P -1"
_symmetry_group_IT_number 2
_symmetry_cell_setting 'triclinic'
loop_
_space_group_symop_operation_xyz
x,y,z
-x,-y,-z
loop_
_atom_site_type_symbol
_atom_site_label
_atom_site_fract_x
_atom_site_fract_y
_atom_site_fract_z
Si Si1 0.897185 0.025893 0.697728
Si Si2 0.893865 0.285416 0.099800
Si Si3 0.272371 0.222786 0.944322
Si Si4 0.569575 0.519919 0.352217
Si Si5 0.268336 0.982926 0.493140
Si Si6 0.430149 0.240338 0.224022
O O1 0.002534 0.797817 0.910820
O O2 0.905703 0.142691 0.410835
O O3 0.834506 0.947767 0.610970
O O4 0.849972 0.221503 0.856334
O O5 0.827397 0.556405 0.054496
O O6 0.384015 0.424896 0.397897
O O7 0.262918 0.164836 0.641540
O O8 0.303425 0.003757 0.208915
O O9 0.500000 0.500000 0.500000
O O10 0.652440 0.285451 0.303967
O O11 0.520290 0.709976 0.010151
O O12 0.350085 0.260773 0.997142
O O13 0.500000 0.000000 0.500000
#
# Coordination Sequence:
#
# PCOD8013270 Si02
#       6
#     2   2   2   2   2   2
#     4  10  21  40  66  95 129 172 218 263 320 387
#     4  10  21  40  66  95 129 172 218 263 320 387
#     4  12  25  42  65  97 134 171 216 268 328 390
#     4  12  26  46  70  96 130 172 222 275 334 395
#     4  12  25  42  65  97 134 171 216 268 328 390
#     4  12  26  46  70  96 130 172 222 275 334 395
#
# _framework density 24.059162000000001
#
# number of rings (size 3 to 8) (size 9 to 14) (size 15 to 20)
#    0.000    0.667    0.000    8.000    0.000    4.000 
#    0.000    0.000    0.000    0.000    0.000    0.000 
#    0.000    0.000    0.000    0.000    0.000    0.000 
#
# Total GULP energy -148746.854123 kJ/mol
# GULP energy per Si atom -12395.571177 kJ/mol
# Density = 2.400440 g / cm^3
# Si number density = 24.059162 Si / 1000 Ang^3
#
#
#
# Elastic Constant Matrix: (Units=GPa)
#
#
# Indices 1 2 3 4 5 6 
#
# 1 122.0391 61.0498 28.3400 2.8405 9.9106 10.2250
# 2 61.0498 146.3037 24.7278 12.4259 16.0265 7.4377
# 3 28.3400 24.7278 130.7345 0.0144 -8.1483 -1.1837
# 4 2.8405 12.4259 0.0144 39.4341 7.9068 5.5920
# 5 9.9106 16.0265 -8.1483 7.9068 37.8398 7.1151
# 6 10.2250 7.4377 -1.1837 5.5920 7.1151 30.0924
#
#
#
# Elastic Compliance Matrix: (Units=1/GPa)
#
#
# Indices 1 2 3 4 5 6 
#
# 1 0.010939 -0.004103 -0.001696 0.001132 -0.001223 -0.002691
# 2 -0.004103 0.009176 -0.001008 -0.002085 -0.002610 0.000091
# 3 -0.001696 -0.001008 0.008375 -0.000166 0.002602 0.000570
# 4 0.001132 -0.002085 -0.000166 0.027378 -0.004434 -0.003915
# 5 -0.001223 -0.002610 0.002602 -0.004434 0.030314 -0.005181
# 6 -0.002691 0.000091 0.000570 -0.003915 -0.005181 0.036098
#
#
# Mechanical properties :
#
#
# Convention : Reuss Voigt Hill
#
# Bulk Modulus (GPa) = 67.22368 69.70139 68.46254
# Shear Modulus (GPa) = 35.49817 40.47058 37.98437
#
# Velocity S-wave (km/s) = 3.84533 4.10582 3.97771
# Velocity P-wave (km/s) = 6.90775 7.17710 7.04372
#
# Compressibility (1/GPa) = 0.01487571
#
# Stress axis : x y z
#
# Youngs Moduli (GPa) = 91.41552 108.97896 119.40779
#
# Poissons Ratio (x) = 0.44719 0.20250
# Poissons Ratio (y) = 0.37512 0.12033
# Poissons Ratio (z) = 0.15503 0.10982
#
# Static dielectric constant tensor:
#      x y z
#    x 4.451060 0.064890 0.091820 
#    y 0.064890 4.475190 0.027790 
#    z 0.091820 0.027790 4.512700 
# 
# 
# High freq. dielectric constant tensor:
#      x y z
#    x 1.949820 0.009520 0.003710 
#    y 0.009520 1.961440 0.010820 
#    z 0.003710 0.010820 1.968580 
# 
# From -- ./inp_files/106051.got.cif
#   From: 2010.06.25/outbox.cif.g09.slc.cpg/sg2_54_cif.got.tgz:106051.got - 2010.06.27 13:26:56.
