data_PCOD8013269
_publ_section_title
;
Structure prediction by ZEFSAII (Michael W. Deem and Ramdas Pophale) SiO2 
 PCOD8013269
Probable space group: P -1
;
_chemical_formula_sum "Si O2"
_cell_formula_units_Z 16
_cell_length_a 9.173111
_cell_length_b 16.152107
_cell_length_c 10.060340
_cell_angle_alpha 35.987558
_cell_angle_beta 124.320344
_cell_angle_gamma 126.337558
_cell_volume 694.262991
_symmetry_space_group_name_H-M "P -1"
_symmetry_group_IT_number 2
_symmetry_cell_setting 'triclinic'
loop_
_space_group_symop_operation_xyz
x,y,z
-x,-y,-z
loop_
_atom_site_type_symbol
_atom_site_label
_atom_site_fract_x
_atom_site_fract_y
_atom_site_fract_z
Si Si1 0.469555 0.832054 0.880686
Si Si2 0.862685 0.850286 0.164612
Si Si3 0.806956 0.434202 0.815497
Si Si4 0.081605 0.115247 0.550736
Si Si5 0.445546 0.363762 0.044996
Si Si6 0.707574 0.923922 0.515256
Si Si7 0.809927 0.576228 0.902444
Si Si8 0.843865 0.567430 0.387394
O O1 0.448773 0.995628 0.636671
O O2 0.655068 0.846033 0.036457
O O3 0.293355 0.738752 0.995563
O O4 0.475299 0.749225 0.853274
O O5 0.868523 0.820946 0.361501
O O6 0.933112 0.732559 0.269910
O O7 0.000000 0.000000 0.000000
O O8 0.739773 0.516670 0.796553
O O9 0.744955 0.478915 0.581739
O O10 0.029285 0.483289 0.874743
O O11 0.230965 0.044684 0.649510
O O12 0.094746 0.250452 0.280876
O O13 0.881799 0.998372 0.602915
O O14 0.625136 0.506068 0.991929
O O15 0.302071 0.429427 0.806203
O O16 0.355359 0.253322 0.263008
O O17 0.000000 0.500000 0.500000
#
# Coordination Sequence:
#
# PCOD8013269 Si02
#       8
#     2   2   2   2   2   2   2   2
#     4  10  22  41  69  93 129 176 216 274 332 397
#     4  11  25  45  67  99 133 175 227 274 335 400
#     4  10  21  40  67  95 125 173 223 264 335 394
#     4  11  23  41  68  93 135 174 216 273 329 391
#     4  10  24  41  66  98 132 176 216 278 333 391
#     4  11  24  43  66  99 136 174 222 268 336 398
#     4  10  21  40  66  95 127 170 222 271 320 395
#     4  11  25  43  67  95 137 176 217 278 341 392
#
# _framework density 23.046022000000001
#
# number of rings (size 3 to 8) (size 9 to 14) (size 15 to 20)
#    0.000    1.500    2.500    1.875    3.500    4.500 
#    2.250    0.000    0.000    0.000    0.000    0.000 
#    0.000    0.000    0.000    0.000    0.000    0.000 
#
# Total GULP energy -198324.751857 kJ/mol
# GULP energy per Si atom -12395.296991 kJ/mol
# Density = 2.299357 g / cm^3
# Si number density = 23.046022 Si / 1000 Ang^3
#
#
#
# Elastic Constant Matrix: (Units=GPa)
#
#
# Indices 1 2 3 4 5 6 
#
# 1 115.6552 49.3249 48.2544 4.1099 4.3422 11.6540
# 2 49.3249 124.8051 49.1278 -18.9193 2.3994 5.3779
# 3 48.2544 49.1278 119.7447 -11.7986 2.6388 5.6966
# 4 4.1099 -18.9193 -11.7986 31.8490 1.9674 -10.0457
# 5 4.3422 2.3994 2.6388 1.9674 39.0062 -2.9078
# 6 11.6540 5.3779 5.6966 -10.0457 -2.9078 35.8368
#
#
#
# Elastic Compliance Matrix: (Units=1/GPa)
#
#
# Indices 1 2 3 4 5 6 
#
# 1 0.012964 -0.004481 -0.003844 -0.007296 -0.000916 -0.005052
# 2 -0.004481 0.011752 -0.002385 0.007360 -0.000276 0.002113
# 3 -0.003844 -0.002385 0.011192 0.003491 -0.000300 0.000783
# 4 -0.007296 0.007360 0.003491 0.041980 -0.001070 0.012394
# 5 -0.000916 -0.000276 -0.000300 -0.001070 0.025994 0.002196
# 6 -0.005052 0.002113 0.000783 0.012394 0.002196 0.032758
#
#
# Mechanical properties :
#
#
# Convention : Reuss Voigt Hill
#
# Bulk Modulus (GPa) = 69.02399 72.62436 70.82418
# Shear Modulus (GPa) = 30.69553 35.57159 33.13356
#
# Velocity S-wave (km/s) = 3.65351 3.93301 3.79583
# Velocity P-wave (km/s) = 6.91470 7.22536 7.07174
#
# Compressibility (1/GPa) = 0.01448772
#
# Stress axis : x y z
#
# Youngs Moduli (GPa) = 77.13648 85.09018 89.34911
#
# Poissons Ratio (x) = 0.38130 0.34347
# Poissons Ratio (y) = 0.34565 0.21311
# Poissons Ratio (z) = 0.29652 0.20295
#
# Static dielectric constant tensor:
#      x y z
#    x 4.708290 -0.186680 -0.011020 
#    y -0.186680 4.082520 -0.308100 
#    z -0.011020 -0.308100 4.133470 
# 
# 
# High freq. dielectric constant tensor:
#      x y z
#    x 1.934760 -0.010150 -0.002830 
#    y -0.010150 1.913090 -0.022210 
#    z -0.002830 -0.022210 1.903990 
# 
# From -- ./inp_files/402739.got.cif
#   From: 2010.06.25/outbox.cif.g09.slc.cpg/sg2_202_cif.got.tgz:402739.got - 2010.06.27 13:26:56.
