data_PCOD8013182
_publ_section_title
;
Structure prediction by ZEFSAII (Michael W. Deem and Ramdas Pophale) SiO2 
 PCOD8013182
Probable space group: P -1
;
_chemical_formula_sum "Si O2"
_cell_formula_units_Z 16
_cell_length_a 12.211017
_cell_length_b 18.059035
_cell_length_c 9.405368
_cell_angle_alpha 112.775178
_cell_angle_beta 110.150148
_cell_angle_gamma 127.337855
_cell_volume 931.834312
_symmetry_space_group_name_H-M "P -1"
_symmetry_group_IT_number 2
_symmetry_cell_setting 'triclinic'
loop_
_space_group_symop_operation_xyz
x,y,z
-x,-y,-z
loop_
_atom_site_type_symbol
_atom_site_label
_atom_site_fract_x
_atom_site_fract_y
_atom_site_fract_z
Si Si1 0.580222 0.615585 0.424432
Si Si2 0.206277 0.178839 0.746663
Si Si3 0.900817 0.554892 0.579095
Si Si4 0.370498 0.578174 0.058937
Si Si5 0.015624 0.465021 0.685129
Si Si6 0.568369 0.639583 0.743433
Si Si7 0.240854 0.826703 0.741533
Si Si8 0.127554 0.282438 0.610116
O O1 0.670520 0.707969 0.680662
O O2 0.424838 0.448384 0.268865
O O3 0.787736 0.713365 0.489905
O O4 0.419814 0.584862 0.248984
O O5 0.133100 0.225674 0.703390
O O6 0.403645 0.259848 0.796740
O O7 0.280802 0.220572 0.976353
O O8 0.000000 0.000000 0.500000
O O9 0.842288 0.468011 0.347284
O O10 0.690619 0.485206 0.473768
O O11 0.952688 0.522297 0.706563
O O12 0.117330 0.739155 0.775000
O O13 0.182005 0.537557 0.942359
O O14 0.291053 0.453677 0.840374
O O15 0.795523 0.276593 0.445098
O O16 0.123724 0.833105 0.614819
O O17 0.500000 0.000000 0.000000
#
# Coordination Sequence:
#
# PCOD8013182 Si02
#       8
#     2   2   2   2   2   2   2   2
#     4  10  18  29  55  72  95 129 167 204 234 285
#     4  11  20  29  48  75 103 126 156 206 248 287
#     4   9  16  29  45  72  97 121 159 207 238 280
#     4  10  16  34  50  70  95 131 171 199 237 285
#     4   8  16  28  49  63  96 126 157 201 240 277
#     4  11  18  31  49  79  97 125 167 200 244 288
#     4   9  16  26  45  72  95 117 161 203 244 270
#     4  10  17  33  49  72  99 127 169 203 231 291
#
# _framework density 17.170435000000001
#
# number of rings (size 3 to 8) (size 9 to 14) (size 15 to 20)
#    0.750    1.500    5.000    0.750    0.000    2.000 
#    0.000    3.125    0.000    0.000    0.000    7.875 
#    0.000    0.000    0.000    0.000    0.000    0.000 
#
# Total GULP energy -198252.379489 kJ/mol
# GULP energy per Si atom -12390.773718 kJ/mol
# Density = 1.713135 g / cm^3
# Si number density = 17.170435 Si / 1000 Ang^3
#
#
#
# Elastic Constant Matrix: (Units=GPa)
#
#
# Indices 1 2 3 4 5 6 
#
# 1 41.9912 36.8244 35.2750 -6.7818 11.5254 -9.1637
# 2 36.8244 73.8976 60.5995 -9.8891 9.0426 -7.5995
# 3 35.2750 60.5995 112.2723 -0.7381 15.6292 -1.9989
# 4 -6.7818 -9.8891 -0.7381 35.0764 0.9218 2.4075
# 5 11.5254 9.0426 15.6292 0.9218 23.1246 -11.4724
# 6 -9.1637 -7.5995 -1.9989 2.4075 -11.4724 27.1639
#
#
#
# Elastic Compliance Matrix: (Units=1/GPa)
#
#
# Indices 1 2 3 4 5 6 
#
# 1 0.048039 -0.018836 -0.003139 0.003862 -0.011978 0.005304
# 2 -0.018836 0.034275 -0.013477 0.005212 0.007299 0.004864
# 3 -0.003139 -0.013477 0.018247 -0.003318 -0.008792 -0.006906
# 4 0.003862 0.005212 -0.003318 0.030885 -0.003873 -0.001856
# 5 -0.011978 0.007299 -0.008792 -0.003873 0.064915 0.025114
# 6 0.005304 0.004864 -0.006906 -0.001856 0.025114 0.050227
#
#
# Mechanical properties :
#
#
# Convention : Reuss Voigt Hill
#
# Bulk Modulus (GPa) = 33.72068 54.83988 44.28028
# Shear Modulus (GPa) = 15.27285 23.43712 19.35498
#
# Velocity S-wave (km/s) = 2.98566 3.69856 3.36106
# Velocity P-wave (km/s) = 5.61845 7.08851 6.39586
#
# Compressibility (1/GPa) = 0.02965539
#
# Stress axis : x y z
#
# Youngs Moduli (GPa) = 20.81635 29.17572 54.80444
#
# Poissons Ratio (x) = 0.54956 0.17205
# Poissons Ratio (y) = 0.39210 0.73861
# Poissons Ratio (z) = 0.06535 0.39321
#
# Static dielectric constant tensor:
#      x y z
#    x 3.089090 -0.301510 0.223950 
#    y -0.301510 3.241990 -0.335110 
#    z 0.223950 -0.335110 3.071740 
# 
# 
# High freq. dielectric constant tensor:
#      x y z
#    x 1.640430 -0.021760 0.023190 
#    y -0.021760 1.649580 -0.019070 
#    z 0.023190 -0.019070 1.638420 
# 
# From -- ./inp_files/279651.got.cif
#   From: 2010.06.25/outbox.cif.g09.slc.cpg/sg2_140_cif.got.tgz:279651.got - 2010.06.27 13:26:56.
