data_PCOD8013096
_publ_section_title
;
Structure prediction by ZEFSAII (Michael W. Deem and Ramdas Pophale) SiO2 
 PCOD8013096
Probable space group: P -1
;
_chemical_formula_sum "Si O2"
_cell_formula_units_Z 12
_cell_length_a 8.503197
_cell_length_b 8.458067
_cell_length_c 11.395074
_cell_angle_alpha 120.033740
_cell_angle_beta 125.747501
_cell_angle_gamma 55.187066
_cell_volume 528.667502
_symmetry_space_group_name_H-M "P -1"
_symmetry_group_IT_number 2
_symmetry_cell_setting 'triclinic'
loop_
_space_group_symop_operation_xyz
x,y,z
-x,-y,-z
loop_
_atom_site_type_symbol
_atom_site_label
_atom_site_fract_x
_atom_site_fract_y
_atom_site_fract_z
Si Si1 0.329091 0.315049 0.115177
Si Si2 0.096302 0.160081 0.578008
Si Si3 0.418221 0.038016 0.261122
Si Si4 0.039051 0.735984 0.193927
Si Si5 0.956458 0.839812 0.695442
Si Si6 0.630953 0.286345 0.032250
O O1 0.429020 0.197824 0.232439
O O2 0.257757 0.550524 0.193261
O O3 0.507231 0.237309 0.065727
O O4 0.132794 0.263029 0.974681
O O5 0.002278 0.273832 0.455779
O O6 0.037308 0.296686 0.719925
O O7 0.345890 0.068755 0.628915
O O8 0.000000 0.000000 0.500000
O O9 0.259360 0.153102 0.338697
O O10 0.330544 0.880973 0.111197
O O11 0.073366 0.936028 0.265051
O O12 0.146099 0.724865 0.824937
O O13 0.500000 0.500000 0.000000
#
# Coordination Sequence:
#
# PCOD8013096 Si02
#       6
#     2   2   2   2   2   2
#     4  11  22  38  66  95 125 164 218 258 314 371
#     4  10  22  43  66  92 130 172 211 257 321 382
#     4  12  23  41  68  96 129 169 213 262 320 376
#     4  10  21  40  65  93 127 169 209 261 312 377
#     4  11  24  42  63  97 133 166 210 264 319 379
#     4  12  25  41  65  97 129 168 217 265 316 375
#
# _framework density 22.698577
#
# number of rings (size 3 to 8) (size 9 to 14) (size 15 to 20)
#    0.000    1.000    3.333    4.500    4.667    0.000 
#    0.000   12.500    0.000    0.000    0.000    0.000 
#    0.000    0.000    0.000    0.000    0.000    0.000 
#
# Total GULP energy -148814.664926 kJ/mol
# GULP energy per Si atom -12401.222077 kJ/mol
# Density = 2.264691 g / cm^3
# Si number density = 22.698577 Si / 1000 Ang^3
#
#
#
# Elastic Constant Matrix: (Units=GPa)
#
#
# Indices 1 2 3 4 5 6 
#
# 1 99.6543 -1.6759 16.6498 -11.7971 -12.2002 -3.6950
# 2 -1.6759 53.6424 13.3731 -9.2646 -4.8499 3.2874
# 3 16.6498 13.3731 91.0693 -26.8892 -8.2346 -4.1308
# 4 -11.7971 -9.2646 -26.8892 20.7563 -6.8138 -0.7567
# 5 -12.2002 -4.8499 -8.2346 -6.8138 40.3228 -7.1490
# 6 -3.6950 3.2874 -4.1308 -0.7567 -7.1490 33.5795
#
#
#
# Elastic Compliance Matrix: (Units=1/GPa)
#
#
# Indices 1 2 3 4 5 6 
#
# 1 0.012340 0.002650 0.002160 0.013526 0.007352 0.003234
# 2 0.002650 0.021516 0.001273 0.014775 0.006143 -0.000017
# 3 0.002160 0.001273 0.021970 0.034494 0.012220 0.006195
# 4 0.013526 0.014775 0.034494 0.119388 0.035672 0.014570
# 5 0.007352 0.006143 0.012220 0.035672 0.038173 0.010642
# 6 0.003234 -0.000017 0.006195 0.014570 0.010642 0.033494
#
#
# Mechanical properties :
#
#
# Convention : Reuss Voigt Hill
#
# Bulk Modulus (GPa) = 14.70793 33.45110 24.07952
# Shear Modulus (GPa) = 19.42669 33.33301 26.37985
#
# Velocity S-wave (km/s) = 2.92867 3.83627 3.41278
# Velocity P-wave (km/s) = 4.23437 5.86444 5.11476
#
# Compressibility (1/GPa) = 0.06799053
#
# Stress axis : x y z
#
# Youngs Moduli (GPa) = 81.04008 46.47802 45.51746
#
# Poissons Ratio (x) = -0.12315 -0.09832
# Poissons Ratio (y) = -0.21472 -0.05795
# Poissons Ratio (z) = -0.17505 -0.05918
#
# Static dielectric constant tensor:
#      x y z
#    x 4.232860 -0.128410 -0.437410 
#    y -0.128410 3.941570 -0.073050 
#    z -0.437410 -0.073050 4.491400 
# 
# 
# High freq. dielectric constant tensor:
#      x y z
#    x 1.906420 -0.004690 -0.014800 
#    y -0.004690 1.876860 -0.011310 
#    z -0.014800 -0.011310 1.898640 
# 
# From -- ./inp_files/144952.got.cif
#   From: 2010.06.25/outbox.cif.g09.slc.cpg/sg2_73_cif.got.tgz:144952.got - 2010.06.27 13:26:56.
