data_PCOD8013038
_publ_section_title
;
Structure prediction by ZEFSAII (Michael W. Deem and Ramdas Pophale) SiO2 
 PCOD8013038
Probable space group: P -1
;
_chemical_formula_sum "Si O2"
_cell_formula_units_Z 16
_cell_length_a 10.166148
_cell_length_b 13.716306
_cell_length_c 12.034063
_cell_angle_alpha 41.753044
_cell_angle_beta 118.740807
_cell_angle_gamma 138.556145
_cell_volume 727.839033
_symmetry_space_group_name_H-M "P -1"
_symmetry_group_IT_number 2
_symmetry_cell_setting 'triclinic'
loop_
_space_group_symop_operation_xyz
x,y,z
-x,-y,-z
loop_
_atom_site_type_symbol
_atom_site_label
_atom_site_fract_x
_atom_site_fract_y
_atom_site_fract_z
Si Si1 0.709975 0.001556 0.872832
Si Si2 0.694019 0.693959 0.208822
Si Si3 0.849438 0.347537 0.774620
Si Si4 0.265216 0.808023 0.909260
Si Si5 0.572994 0.787381 0.291555
Si Si6 0.092673 0.853856 0.610786
Si Si7 0.959719 0.260373 0.564987
Si Si8 0.683920 0.722246 0.604867
O O1 0.844958 0.181159 0.864069
O O2 0.751920 0.095035 0.687285
O O3 0.476143 0.865123 0.926477
O O4 0.778228 0.874249 0.005339
O O5 0.595368 0.738747 0.220291
O O6 0.515472 0.487280 0.247457
O O7 0.863337 0.697947 0.324070
O O8 0.652560 0.309954 0.692362
O O9 0.023244 0.553237 0.606930
O O10 0.865865 0.362506 0.904026
O O11 0.156946 0.750373 0.793887
O O12 0.285351 0.980389 0.827480
O O13 0.632260 0.694978 0.476307
O O14 0.045099 0.808524 0.501172
O O15 0.891203 0.770336 0.665853
O O16 0.279095 0.090869 0.491413
#
# Coordination Sequence:
#
# PCOD8013038 Si02
#       8
#     2   2   2   2   2   2   2   2
#     4  11  24  40  62  93 128 159 199 259 306 360
#     4  12  20  38  65  93 117 155 210 255 305 349
#     4  11  20  40  64  93 118 156 209 257 301 349
#     4  10  21  38  63  85 126 160 201 249 303 357
#     4  10  16  33  63  92 112 147 201 261 301 332
#     4  10  23  38  59  92 129 160 201 248 311 361
#     4  12  25  39  63  92 128 163 202 245 311 374
#     4  10  20  36  62  93 120 156 206 261 299 353
#
# _framework density 21.982882
#
# number of rings (size 3 to 8) (size 9 to 14) (size 15 to 20)
#    0.000    1.250    5.000    2.625    0.000    1.000 
#    0.000    0.625    0.000    0.000    0.000    0.000 
#    0.000    0.000    0.000    0.000    0.000    0.000 
#
# Total GULP energy -198229.073568 kJ/mol
# GULP energy per Si atom -12389.317098 kJ/mol
# Density = 2.193285 g / cm^3
# Si number density = 21.982882 Si / 1000 Ang^3
#
#
#
# Elastic Constant Matrix: (Units=GPa)
#
#
# Indices 1 2 3 4 5 6 
#
# 1 33.4351 4.8681 27.6241 2.5804 2.8120 0.9430
# 2 4.8681 75.6454 31.1578 0.6923 8.7357 6.8802
# 3 27.6241 31.1578 155.8296 -2.4196 -4.9364 10.0773
# 4 2.5804 0.6923 -2.4196 25.1935 -1.4470 -1.9685
# 5 2.8120 8.7357 -4.9364 -1.4470 31.4978 3.2539
# 6 0.9430 6.8802 10.0773 -1.9685 3.2539 8.9290
#
#
#
# Elastic Compliance Matrix: (Units=1/GPa)
#
#
# Indices 1 2 3 4 5 6 
#
# 1 0.036335 0.000837 -0.007136 -0.004379 -0.005263 0.004524
# 2 0.000837 0.015555 -0.002921 -0.001627 -0.004133 -0.007630
# 3 -0.007136 -0.002921 0.008933 0.001246 0.003748 -0.008168
# 4 -0.004379 -0.001627 0.001246 0.041097 0.002034 0.008629
# 5 -0.005263 -0.004133 0.003748 0.002034 0.035382 -0.012935
# 6 0.004524 -0.007630 -0.008168 0.008629 -0.012935 0.133231
#
#
# Mechanical properties :
#
#
# Convention : Reuss Voigt Hill
#
# Bulk Modulus (GPa) = 23.59425 43.57890 33.58658
# Shear Modulus (GPa) = 16.49620 26.54138 21.51879
#
# Velocity S-wave (km/s) = 2.74234 3.47849 3.13211
# Velocity P-wave (km/s) = 4.55889 6.00002 5.32840
#
# Compressibility (1/GPa) = 0.04238320
#
# Stress axis : x y z
#
# Youngs Moduli (GPa) = 27.52135 64.28719 111.94830
#
# Poissons Ratio (x) = -0.05383 0.79885
# Poissons Ratio (y) = -0.02304 0.32705
# Poissons Ratio (z) = 0.19639 0.18781
#
# Static dielectric constant tensor:
#      x y z
#    x 3.599620 -0.030570 0.075610 
#    y -0.030570 3.928150 -0.168830 
#    z 0.075610 -0.168830 4.476260 
# 
# 
# High freq. dielectric constant tensor:
#      x y z
#    x 1.831570 0.001020 0.012780 
#    y 0.001020 1.845530 -0.009270 
#    z 0.012780 -0.009270 1.882670 
# 
# From -- ./inp_files/307475.got.cif
#   From: 2010.06.25/outbox.cif.g09.slc.cpg/sg2_154_cif.got.tgz:307475.got - 2010.06.27 13:26:56.
