data_PCOD8013311
_publ_section_title
;
Structure prediction by ZEFSAII (Michael W. Deem and Ramdas Pophale) SiO2 
 PCOD8013311
Probable space group: P -1
;
_chemical_formula_sum "Si O2"
_cell_formula_units_Z 16
_cell_length_a 5.932503
_cell_length_b 18.533563
_cell_length_c 21.201862
_cell_angle_alpha 20.807469
_cell_angle_beta 110.518435
_cell_angle_gamma 100.003095
_cell_volume 687.531879
_symmetry_space_group_name_H-M "P -1"
_symmetry_group_IT_number 2
_symmetry_cell_setting 'triclinic'
loop_
_space_group_symop_operation_xyz
x,y,z
-x,-y,-z
loop_
_atom_site_type_symbol
_atom_site_label
_atom_site_fract_x
_atom_site_fract_y
_atom_site_fract_z
Si Si1 0.077160 0.631967 0.347691
Si Si2 0.458344 0.467949 0.921719
Si Si3 0.003148 0.562556 0.159209
Si Si4 0.034936 0.109740 0.223616
Si Si5 0.723347 0.751644 0.100854
Si Si6 0.559377 0.228249 0.657761
Si Si7 0.406552 0.658807 0.573240
Si Si8 0.710392 0.680920 0.846312
O O1 0.298947 0.454290 0.467730
O O2 0.177938 0.797408 0.256111
O O3 0.000000 0.500000 0.500000
O O4 0.822964 0.778365 0.158282
O O5 0.205244 0.545621 0.785120
O O6 0.515651 0.687568 0.762977
O O7 0.384139 0.400032 0.035718
O O8 0.719820 0.242861 0.104015
O O9 0.963667 0.655179 0.151295
O O10 0.317819 0.372513 0.339167
O O11 0.924756 0.765491 0.935827
O O12 0.243358 0.102523 0.306040
O O13 0.139584 0.842928 0.434232
O O14 0.578967 0.590443 0.222779
O O15 0.511960 0.007940 0.848293
O O16 0.612857 0.240483 0.579978
O O17 0.000000 0.500000 0.000000
#
# Coordination Sequence:
#
# PCOD8013311 Si02
#       8
#     2   2   2   2   2   2   2   2
#     4  11  24  46  70  98 130 178 228 281 337 407
#     4   9  18  36  65  98 133 182 228 279 344 397
#     4  11  23  41  63  98 137 179 225 281 341 408
#     4  10  21  40  66  97 137 180 227 285 341 400
#     4  12  25  42  69  97 133 182 222 279 344 404
#     4  11  25  46  67  96 136 174 226 280 339 407
#     4  12  25  42  67 101 137 178 229 277 343 412
#     4   8  16  34  64  96 133 182 227 278 340 397
#
# _framework density 23.271647000000002
#
# number of rings (size 3 to 8) (size 9 to 14) (size 15 to 20)
#    0.000    1.500    3.750    1.125    0.000    5.500 
#    0.000    0.625    0.000   30.750    0.000    0.000 
#    0.000    0.000    0.000    0.000    0.000    0.000 
#
# Total GULP energy -198224.983946 kJ/mol
# GULP energy per Si atom -12389.061497 kJ/mol
# Density = 2.321868 g / cm^3
# Si number density = 23.271647 Si / 1000 Ang^3
#
#
#
# Elastic Constant Matrix: (Units=GPa)
#
#
# Indices 1 2 3 4 5 6 
#
# 1 97.0379 40.3944 31.7566 3.1843 6.9758 13.3444
# 2 40.3944 115.6511 55.4813 -1.9814 5.6012 19.5590
# 3 31.7566 55.4813 92.4217 -1.1069 -9.4837 11.7467
# 4 3.1843 -1.9814 -1.1069 21.4320 0.8585 0.2216
# 5 6.9758 5.6012 -9.4837 0.8585 34.7073 2.7709
# 6 13.3444 19.5590 11.7467 0.2216 2.7709 37.1496
#
#
#
# Elastic Compliance Matrix: (Units=1/GPa)
#
#
# Indices 1 2 3 4 5 6 
#
# 1 0.012918 -0.002688 -0.002863 -0.002185 -0.002723 -0.002103
# 2 -0.002688 0.013913 -0.007278 0.001486 -0.003426 -0.003812
# 3 -0.002863 -0.007278 0.016965 0.000380 0.006455 -0.000988
# 4 -0.002185 0.001486 0.000380 0.047178 -0.000837 -0.000337
# 5 -0.002723 -0.003426 0.006455 -0.000837 0.031827 -0.001628
# 6 -0.002103 -0.003812 -0.000988 -0.000337 -0.001628 0.030116
#
#
# Mechanical properties :
#
#
# Convention : Reuss Voigt Hill
#
# Bulk Modulus (GPa) = 55.13305 62.26392 58.69848
# Shear Modulus (GPa) = 27.08243 30.48968 28.78605
#
# Velocity S-wave (km/s) = 3.41508 3.62355 3.52086
# Velocity P-wave (km/s) = 6.26840 6.65734 6.46580
#
# Compressibility (1/GPa) = 0.01813794
#
# Stress axis : x y z
#
# Youngs Moduli (GPa) = 77.41142 71.87539 58.94459
#
# Poissons Ratio (x) = 0.19322 0.16877
# Poissons Ratio (y) = 0.20810 0.42898
# Poissons Ratio (z) = 0.22164 0.52308
#
# Static dielectric constant tensor:
#      x y z
#    x 4.265460 0.240290 0.004850 
#    y 0.240290 5.049410 -0.064700 
#    z 0.004850 -0.064700 3.774250 
# 
# 
# High freq. dielectric constant tensor:
#      x y z
#    x 1.926780 -0.003830 -0.003790 
#    y -0.003830 1.946910 0.003690 
#    z -0.003790 0.003690 1.881410 
# 
# From -- ./inp_files/605123.got.cif
#   From: 2010.06.25/outbox.cif.g09.slc.cpg/sg2_303_cif.got.tgz:605123.got - 2010.06.27 13:26:56.
