data_PCOD8013787
_publ_section_title
;
Structure prediction by ZEFSAII (Michael W. Deem and Ramdas Pophale) SiO2 
 PCOD8013787
Probable space group: P -1
;
_chemical_formula_sum "Si O2"
_cell_formula_units_Z 14
_cell_length_a 21.346919
_cell_length_b 9.976838
_cell_length_c 7.468559
_cell_angle_alpha 96.555487
_cell_angle_beta 63.405653
_cell_angle_gamma 43.000506
_cell_volume 669.063704
_symmetry_space_group_name_H-M "P -1"
_symmetry_group_IT_number 2
_symmetry_cell_setting 'triclinic'
loop_
_space_group_symop_operation_xyz
x,y,z
-x,-y,-z
loop_
_atom_site_type_symbol
_atom_site_label
_atom_site_fract_x
_atom_site_fract_y
_atom_site_fract_z
Si Si1 0.326963 0.783667 0.599930
Si Si2 0.274667 0.249146 0.311682
Si Si3 0.546838 0.167778 0.667025
Si Si4 0.944572 0.149069 0.840029
Si Si5 0.019588 0.187103 0.075055
Si Si6 0.757170 0.428670 0.794658
Si Si7 0.581961 0.169401 0.238567
O O1 0.393008 0.780896 0.373504
O O2 0.418872 0.487831 0.422509
O O3 0.340808 0.821976 0.790496
O O4 0.154553 0.052247 0.820126
O O5 0.305796 0.347632 0.219022
O O6 0.098781 0.527620 0.613075
O O7 0.362862 0.085183 0.359344
O O8 0.324427 0.055522 0.072778
O O9 0.567850 0.092740 0.417416
O O10 0.373440 0.454282 0.979060
O O11 0.822798 0.388630 0.882619
O O12 0.914181 0.049175 0.932538
O O13 0.112117 0.877870 0.511401
O O14 0.927700 0.287434 0.038205
#
# Coordination Sequence:
#
# PCOD8013787 Si02
#       7
#     2   2   2   2   2   2   2
#     4   9  21  43  64  89 124 163 208 251 306 361
#     4  11  24  38  62  95 126 164 202 250 319 355
#     4  10  22  41  62  91 128 158 205 254 307 365
#     4   9  21  38  65  90 122 167 208 249 307 361
#     4  10  21  41  63  92 126 159 210 256 297 377
#     4  10  21  41  61  94 124 162 208 253 308 366
#     4   9  22  42  61  95 120 161 209 247 311 363
#
# _framework density 20.924764
#
# number of rings (size 3 to 8) (size 9 to 14) (size 15 to 20)
#    0.857    1.429    0.000    1.286    4.000    2.286 
#    5.143    0.000    0.000    0.000    0.000    0.000 
#    0.000    0.000    0.000    0.000    0.000    0.000 
#
# Total GULP energy -173541.827841 kJ/mol
# GULP energy per Si atom -12395.844846 kJ/mol
# Density = 2.087714 g / cm^3
# Si number density = 20.924764 Si / 1000 Ang^3
#
#
#
# Elastic Constant Matrix: (Units=GPa)
#
#
# Indices 1 2 3 4 5 6 
#
# 1 52.5278 31.7840 67.6330 -0.8622 -13.7233 6.3839
# 2 31.7840 115.4879 58.1628 -10.3815 -5.7138 -15.5726
# 3 67.6330 58.1628 140.1222 1.2553 -13.7321 12.6891
# 4 -0.8622 -10.3815 1.2553 25.4943 4.0216 1.0667
# 5 -13.7233 -5.7138 -13.7321 4.0216 42.7576 -3.8910
# 6 6.3839 -15.5726 12.6891 1.0667 -3.8910 20.1413
#
#
#
# Elastic Compliance Matrix: (Units=1/GPa)
#
#
# Indices 1 2 3 4 5 6 
#
# 1 0.054101 -0.002686 -0.023894 0.000587 0.009053 -0.002453
# 2 -0.002686 0.015609 -0.006760 0.005887 0.000035 0.016873
# 3 -0.023894 -0.006760 0.022386 -0.003830 -0.002111 -0.011962
# 4 0.000587 0.005887 -0.003830 0.042285 -0.003887 0.003788
# 5 0.009053 0.000035 -0.002111 -0.003887 0.026329 0.003780
# 6 -0.002453 0.016873 -0.011962 0.003788 0.003780 0.071538
#
#
# Mechanical properties :
#
#
# Convention : Reuss Voigt Hill
#
# Bulk Modulus (GPa) = 39.34510 69.25529 54.30020
# Shear Modulus (GPa) = 16.26553 27.71584 21.99068
#
# Velocity S-wave (km/s) = 2.79110 3.64338 3.24534
# Velocity P-wave (km/s) = 5.40656 7.13219 6.32847
#
# Compressibility (1/GPa) = 0.02541612
#
# Stress axis : x y z
#
# Youngs Moduli (GPa) = 18.48409 64.06729 44.67047
#
# Poissons Ratio (x) = 0.17207 1.06735
# Poissons Ratio (y) = 0.04964 0.30197
# Poissons Ratio (z) = 0.44166 0.43309
#
# Static dielectric constant tensor:
#      x y z
#    x 3.343250 -0.169570 -0.019740 
#    y -0.169570 3.763310 -0.132770 
#    z -0.019740 -0.132770 3.744300 
# 
# 
# High freq. dielectric constant tensor:
#      x y z
#    x 1.789910 -0.014230 -0.005630 
#    y -0.014230 1.817640 -0.003960 
#    z -0.005630 -0.003960 1.821940 
# 
# From -- ./inp_files/343634.got.cif
#   From: 2010.06.25/outbox.cif.g09.slc.cpg/sg2_172_cif.got.tgz:343634.got - 2010.06.27 13:26:56.
