data_PCOD8013090
_publ_section_title
;
Structure prediction by ZEFSAII (Michael W. Deem and Ramdas Pophale) SiO2 
 PCOD8013090
Probable space group: P -1
;
_chemical_formula_sum "Si O2"
_cell_formula_units_Z 16
_cell_length_a 15.965377
_cell_length_b 11.638249
_cell_length_c 11.273085
_cell_angle_alpha 141.193588
_cell_angle_beta 120.320722
_cell_angle_gamma 38.235165
_cell_volume 780.730815
_symmetry_space_group_name_H-M "P -1"
_symmetry_group_IT_number 2
_symmetry_cell_setting 'triclinic'
loop_
_space_group_symop_operation_xyz
x,y,z
-x,-y,-z
loop_
_atom_site_type_symbol
_atom_site_label
_atom_site_fract_x
_atom_site_fract_y
_atom_site_fract_z
Si Si1 0.899322 0.011850 0.282503
Si Si2 0.461757 0.817933 0.633071
Si Si3 0.180343 0.250735 0.647962
Si Si4 0.402179 0.732512 0.764704
Si Si5 0.160428 0.228370 0.362590
Si Si6 0.941800 0.351427 0.689829
Si Si7 0.323114 0.147940 0.205408
Si Si8 0.018513 0.146612 0.049064
O O1 0.006980 0.729510 0.202305
O O2 0.746501 0.134657 0.283228
O O3 0.901742 0.206149 0.498952
O O4 0.943189 0.976632 0.151331
O O5 0.467011 0.772415 0.740616
O O6 0.500974 0.579342 0.396418
O O7 0.570034 0.831403 0.695518
O O8 0.308070 0.093659 0.703760
O O9 0.236009 0.091542 0.433292
O O10 0.119464 0.536571 0.805835
O O11 0.060331 0.282157 0.637836
O O12 0.398836 0.854903 0.982935
O O13 0.251233 0.247515 0.364934
O O14 0.000000 0.500000 0.500000
O O15 0.152114 0.066186 0.138499
O O16 0.798882 0.664073 0.830947
O O17 0.000000 0.000000 0.000000
#
# Coordination Sequence:
#
# PCOD8013090 Si02
#       8
#     2   2   2   2   2   2   2   2
#     4  11  22  38  68 102 129 171 225 282 333 393
#     4  11  26  44  65  95 140 181 213 274 337 397
#     4  11  23  43  64  97 133 173 222 276 330 395
#     4  11  23  43  66  97 135 178 222 268 338 402
#     4  10  21  40  65  93 124 169 215 273 335 383
#     4  11  22  39  69 100 132 167 223 285 337 387
#     4  12  23  43  69  95 134 178 222 270 336 402
#     4  11  23  39  65  98 130 169 221 281 334 392
#
# _framework density 20.49362
#
# number of rings (size 3 to 8) (size 9 to 14) (size 15 to 20)
#    0.000    1.000    6.250    1.125    3.500    1.500 
#    4.500    0.625    0.000    0.000    0.000    0.000 
#    0.000    0.000    0.000    0.000    0.000    0.000 
#
# Total GULP energy -198343.043392 kJ/mol
# GULP energy per Si atom -12396.440212 kJ/mol
# Density = 2.044698 g / cm^3
# Si number density = 20.493620 Si / 1000 Ang^3
#
#
#
# Elastic Constant Matrix: (Units=GPa)
#
#
# Indices 1 2 3 4 5 6 
#
# 1 142.1419 25.8038 39.6792 -2.3258 12.4093 -5.4106
# 2 25.8038 51.8586 7.1943 2.5792 8.1793 -4.7781
# 3 39.6792 7.1943 69.2286 0.8144 -8.1820 7.5374
# 4 -2.3258 2.5792 0.8144 25.1969 3.8124 -1.2560
# 5 12.4093 8.1793 -8.1820 3.8124 27.3017 -1.7707
# 6 -5.4106 -4.7781 7.5374 -1.2560 -1.7707 31.9353
#
#
#
# Elastic Compliance Matrix: (Units=1/GPa)
#
#
# Indices 1 2 3 4 5 6 
#
# 1 0.010018 -0.003082 -0.006402 0.002439 -0.005725 0.002526
# 2 -0.003082 0.022185 -0.001448 -0.001571 -0.005279 0.002784
# 3 -0.006402 -0.001448 0.020016 -0.002787 0.009367 -0.005616
# 4 0.002439 -0.001571 -0.002787 0.041343 -0.007112 0.002068
# 5 -0.005725 -0.005279 0.009367 -0.007112 0.044496 -0.001783
# 6 0.002526 0.002784 -0.005616 0.002068 -0.001783 0.033466
#
#
# Mechanical properties :
#
#
# Convention : Reuss Voigt Hill
#
# Bulk Modulus (GPa) = 32.94284 45.39818 39.17051
# Shear Modulus (GPa) = 24.56950 29.59024 27.07987
#
# Velocity S-wave (km/s) = 3.46625 3.80396 3.63902
# Velocity P-wave (km/s) = 5.66828 6.44158 6.06726
#
# Compressibility (1/GPa) = 0.03035561
#
# Stress axis : x y z
#
# Youngs Moduli (GPa) = 99.82354 45.07559 49.96044
#
# Poissons Ratio (x) = 0.13893 0.31984
# Poissons Ratio (y) = 0.30767 0.07232
# Poissons Ratio (z) = 0.63905 0.06525
#
# Static dielectric constant tensor:
#      x y z
#    x 3.986150 0.146950 0.009400 
#    y 0.146950 4.004040 -0.126440 
#    z 0.009400 -0.126440 3.895230 
# 
# 
# High freq. dielectric constant tensor:
#      x y z
#    x 1.814610 0.004340 0.002440 
#    y 0.004340 1.785320 -0.009080 
#    z 0.002440 -0.009080 1.801830 
# 
# From -- ./inp_files/452141.got.cif
#   From: 2010.06.25/outbox.cif.g09.slc.cpg/sg2_227_cif.got.tgz:452141.got - 2010.06.27 13:26:56.
