data_PCOD8013189
_publ_section_title
;
Structure prediction by ZEFSAII (Michael W. Deem and Ramdas Pophale) SiO2 
 PCOD8013189
Probable space group: P -1
;
_chemical_formula_sum "Si O2"
_cell_formula_units_Z 16
_cell_length_a 23.924890
_cell_length_b 9.039539
_cell_length_c 21.398269
_cell_angle_alpha 40.951809
_cell_angle_beta 161.190864
_cell_angle_gamma 148.901808
_cell_volume 726.945098
_symmetry_space_group_name_H-M "P -1"
_symmetry_group_IT_number 2
_symmetry_cell_setting 'triclinic'
loop_
_space_group_symop_operation_xyz
x,y,z
-x,-y,-z
loop_
_atom_site_type_symbol
_atom_site_label
_atom_site_fract_x
_atom_site_fract_y
_atom_site_fract_z
Si Si1 0.631878 0.675466 0.319849
Si Si2 0.271469 0.776091 0.688671
Si Si3 0.366903 0.014672 0.241980
Si Si4 0.222823 0.926853 0.309342
Si Si5 0.940538 0.240277 0.249838
Si Si6 0.605916 0.064915 0.843709
Si Si7 0.432146 0.145967 0.924794
Si Si8 0.058325 0.254951 0.052229
O O1 0.459220 0.327626 0.272303
O O2 0.579274 0.649493 0.198141
O O3 0.894796 0.829982 0.561435
O O4 0.609958 0.890764 0.265286
O O5 0.000000 0.500000 0.500000
O O6 0.350100 0.846102 0.676557
O O7 0.384958 0.670032 0.882867
O O8 0.504209 0.913014 0.447617
O O9 0.416779 0.079500 0.200128
O O10 0.086564 0.759707 0.038680
O O11 0.075685 0.592401 0.286786
O O12 0.159833 0.096538 0.228571
O O13 0.146616 0.924809 0.159416
O O14 0.818848 0.112400 0.228400
O O15 0.774587 0.083208 0.064161
O O16 0.715133 0.406306 0.836240
O O17 0.500000 0.000000 0.000000
#
# Coordination Sequence:
#
# PCOD8013189 Si02
#       8
#     2   2   2   2   2   2   2   2
#     4  10  22  38  62  92 113 163 209 250 307 366
#     4  10  23  42  62  87 127 163 203 254 313 367
#     4  11  23  39  63  97 127 159 210 255 304 373
#     4   9  21  37  63  94 118 166 209 253 304 372
#     4   9  19  38  59  87 126 155 203 259 305 369
#     4  10  23  42  58  92 129 160 201 254 312 370
#     4   9  19  34  60  85 118 156 205 252 299 364
#     4  10  21  40  66  87 129 165 204 254 314 359
#
# _framework density 22.009916
#
# number of rings (size 3 to 8) (size 9 to 14) (size 15 to 20)
#    0.000    2.250    0.000    1.125    8.750    6.500 
#    2.250    2.500    0.000    0.000    0.000    0.000 
#    0.000    0.000    0.000    0.000    0.000    0.000 
#
# Total GULP energy -198220.711629 kJ/mol
# GULP energy per Si atom -12388.794477 kJ/mol
# Density = 2.195982 g / cm^3
# Si number density = 22.009916 Si / 1000 Ang^3
#
#
#
# Elastic Constant Matrix: (Units=GPa)
#
#
# Indices 1 2 3 4 5 6 
#
# 1 99.0452 26.6606 17.9014 6.1431 12.0219 17.2454
# 2 26.6606 62.9779 37.9079 -6.8028 6.4907 3.4351
# 3 17.9014 37.9079 77.1090 -8.9958 13.5948 9.6124
# 4 6.1431 -6.8028 -8.9958 34.3091 6.0613 3.3191
# 5 12.0219 6.4907 13.5948 6.0613 31.2741 6.9737
# 6 17.2454 3.4351 9.6124 3.3191 6.9737 31.4911
#
#
#
# Elastic Compliance Matrix: (Units=1/GPa)
#
#
# Indices 1 2 3 4 5 6 
#
# 1 0.012923 -0.005509 0.000589 -0.002270 -0.002324 -0.005902
# 2 -0.005509 0.025009 -0.011229 0.002579 0.000568 0.003319
# 3 0.000589 -0.011229 0.020649 0.004709 -0.006806 -0.004390
# 4 -0.002270 0.002579 0.004709 0.032856 -0.007573 -0.002261
# 5 -0.002324 0.000568 -0.006806 -0.007573 0.038150 -0.004362
# 6 -0.005902 0.003319 -0.004390 -0.002261 -0.004362 0.037169
#
#
# Mechanical properties :
#
#
# Convention : Reuss Voigt Hill
#
# Bulk Modulus (GPa) = 38.04780 44.89691 41.47235
# Shear Modulus (GPa) = 24.05992 29.85901 26.95946
#
# Velocity S-wave (km/s) = 3.30985 3.68722 3.50362
# Velocity P-wave (km/s) = 5.65075 6.21050 5.93723
#
# Compressibility (1/GPa) = 0.02628273
#
# Stress axis : x y z
#
# Youngs Moduli (GPa) = 77.37863 39.98635 48.42942
#
# Poissons Ratio (x) = 0.22029 -0.02851
# Poissons Ratio (y) = 0.42628 0.54379
# Poissons Ratio (z) = -0.04555 0.44899
#
# Static dielectric constant tensor:
#      x y z
#    x 3.863680 0.198170 -0.035080 
#    y 0.198170 3.794750 -0.253740 
#    z -0.035080 -0.253740 4.238330 
# 
# 
# High freq. dielectric constant tensor:
#      x y z
#    x 1.861540 0.012520 0.005860 
#    y 0.012520 1.855740 -0.009110 
#    z 0.005860 -0.009110 1.867270 
# 
# From -- ./inp_files/222972.got.cif
#   From: 2010.06.25/outbox.cif.g09.slc.cpg/sg2_112_cif.got.tgz:222972.got - 2010.06.27 13:26:56.
