data_PCOD8013415
_publ_section_title
;
Structure prediction by ZEFSAII (Michael W. Deem and Ramdas Pophale) SiO2 
 PCOD8013415
Probable space group: P -1
;
_chemical_formula_sum "Si O2"
_cell_formula_units_Z 16
_cell_length_a 11.744598
_cell_length_b 18.446604
_cell_length_c 8.641272
_cell_angle_alpha 43.871628
_cell_angle_beta 140.879091
_cell_angle_gamma 133.632944
_cell_volume 781.189103
_symmetry_space_group_name_H-M "P -1"
_symmetry_group_IT_number 2
_symmetry_cell_setting 'triclinic'
loop_
_space_group_symop_operation_xyz
x,y,z
-x,-y,-z
loop_
_atom_site_type_symbol
_atom_site_label
_atom_site_fract_x
_atom_site_fract_y
_atom_site_fract_z
Si Si1 0.554513 0.619876 0.803637
Si Si2 0.362857 0.782173 0.863434
Si Si3 0.663881 0.230909 0.497982
Si Si4 0.068721 0.231957 0.537775
Si Si5 0.465372 0.007550 0.770354
Si Si6 0.945713 0.993106 0.773355
Si Si7 0.934097 0.760420 0.120275
Si Si8 0.433574 0.380343 0.545171
O O1 0.421028 0.686738 0.626877
O O2 0.534045 0.609448 0.616868
O O3 0.500000 0.500000 0.000000
O O4 0.770475 0.682554 0.967661
O O5 0.414086 0.789557 0.725891
O O6 0.141847 0.756913 0.710457
O O7 0.488402 0.897109 0.890265
O O8 0.428017 0.684213 0.149145
O O9 0.626848 0.114229 0.720987
O O10 0.889245 0.285908 0.643518
O O11 0.134681 0.243854 0.767753
O O12 0.214626 0.322865 0.448645
O O13 0.066143 0.112250 0.650649
O O14 0.270886 0.023570 0.477350
O O15 0.500000 0.000000 0.000000
O O16 0.991665 0.885846 0.921933
O O17 0.000000 0.000000 0.000000
O O18 0.500000 0.500000 0.500000
#
# Coordination Sequence:
#
# PCOD8013415 Si02
#       8
#     2   2   2   2   2   2   2   2
#     4  12  26  45  66  93 133 174 222 276 328 398
#     4  10  23  40  66  97 130 172 216 268 332 394
#     4  11  23  42  67  95 133 176 218 268 335 404
#     4   9  21  41  64  96 129 166 218 269 323 393
#     4  11  22  38  63  99 142 175 221 279 332 396
#     4   9  19  37  64  96 134 178 217 267 331 398
#     4  10  21  40  67  97 128 171 218 269 330 392
#     4  12  26  43  68  94 124 174 221 274 330 388
#
# _framework density 20.481597000000001
#
# number of rings (size 3 to 8) (size 9 to 14) (size 15 to 20)
#    0.000    1.500    1.250    4.125    3.500    4.000 
#    0.000    1.250    0.000    0.000    0.000    0.000 
#    0.000    0.000    0.000    0.000    0.000    0.000 
#
# Total GULP energy -198324.622306 kJ/mol
# GULP energy per Si atom -12395.288894 kJ/mol
# Density = 2.043498 g / cm^3
# Si number density = 20.481597 Si / 1000 Ang^3
#
#
#
# Elastic Constant Matrix: (Units=GPa)
#
#
# Indices 1 2 3 4 5 6 
#
# 1 132.0737 70.0896 62.1905 -8.0645 -12.9964 -11.0717
# 2 70.0896 149.3071 62.5653 -23.3945 0.2319 -15.6413
# 3 62.1905 62.5653 133.4393 -6.6798 -11.2690 -12.8668
# 4 -8.0645 -23.3945 -6.6798 42.5688 0.1808 -4.0746
# 5 -12.9964 0.2319 -11.2690 0.1808 33.8223 0.1194
# 6 -11.0717 -15.6413 -12.8668 -4.0746 0.1194 35.3266
#
#
#
# Elastic Compliance Matrix: (Units=1/GPa)
#
#
# Indices 1 2 3 4 5 6 
#
# 1 0.011616 -0.004167 -0.003140 -0.000541 0.003447 0.000578
# 2 -0.004167 0.010991 -0.002882 0.005108 -0.002675 0.003109
# 3 -0.003140 -0.002882 0.010640 -0.000369 0.002355 0.001565
# 4 -0.000541 0.005108 -0.000369 0.026622 -0.000526 0.005030
# 5 0.003447 -0.002675 0.002355 -0.000526 0.031694 0.000586
# 6 0.000578 0.003109 0.001565 0.005030 0.000586 0.031013
#
#
# Mechanical properties :
#
#
# Convention : Reuss Voigt Hill
#
# Bulk Modulus (GPa) = 77.70358 89.39011 83.54685
# Shear Modulus (GPa) = 33.95707 37.00851 35.48279
#
# Velocity S-wave (km/s) = 4.07619 4.25539 4.16675
# Velocity P-wave (km/s) = 7.75721 8.23914 8.00180
#
# Compressibility (1/GPa) = 0.01286942
#
# Stress axis : x y z
#
# Youngs Moduli (GPa) = 86.08817 90.97977 93.98320
#
# Poissons Ratio (x) = 0.37908 0.29515
# Poissons Ratio (y) = 0.35869 0.27086
# Poissons Ratio (z) = 0.27036 0.26221
#
# Static dielectric constant tensor:
#      x y z
#    x 3.589410 -0.047350 0.007450 
#    y -0.047350 3.871580 -0.057360 
#    z 0.007450 -0.057360 3.859330 
# 
# 
# High freq. dielectric constant tensor:
#      x y z
#    x 1.789700 -0.002060 0.004550 
#    y -0.002060 1.810620 0.002390 
#    z 0.004550 0.002390 1.813870 
# 
# From -- ./inp_files/278880.got.cif
#   From: 2010.06.25/outbox.cif.g09.slc.cpg/sg2_140_cif.got.tgz:278880.got - 2010.06.27 13:26:56.
