data_PCOD8013933
_publ_section_title
;
Structure prediction by ZEFSAII (Michael W. Deem and Ramdas Pophale) SiO2 
 PCOD8013933
Probable space group: P -1
;
_chemical_formula_sum "Si O2"
_cell_formula_units_Z 14
_cell_length_a 13.762329
_cell_length_b 12.135976
_cell_length_c 18.466249
_cell_angle_alpha 152.841308
_cell_angle_beta 27.147726
_cell_angle_gamma 150.425971
_cell_volume 595.625197
_symmetry_space_group_name_H-M "P -1"
_symmetry_group_IT_number 2
_symmetry_cell_setting 'triclinic'
loop_
_space_group_symop_operation_xyz
x,y,z
-x,-y,-z
loop_
_atom_site_type_symbol
_atom_site_label
_atom_site_fract_x
_atom_site_fract_y
_atom_site_fract_z
Si Si1 0.624849 0.275562 0.367796
Si Si2 0.816644 0.937087 0.234979
Si Si3 0.820043 0.990194 0.423139
Si Si4 0.982731 0.433209 0.333283
Si Si5 0.326990 0.245447 0.928157
Si Si6 0.234359 0.826611 0.069403
Si Si7 0.901416 0.392461 0.117705
O O1 0.771324 0.458885 0.443124
O O2 0.719885 0.420214 0.313007
O O3 0.351894 0.212063 0.523588
O O4 0.648840 0.997542 0.190440
O O5 0.642671 0.778319 0.193377
O O6 0.704703 0.894229 0.364389
O O7 0.901006 0.248986 0.349853
O O8 0.034134 0.849570 0.041995
O O9 0.835232 0.284046 0.599979
O O10 0.077338 0.996764 0.261483
O O11 0.080717 0.266778 0.117134
O O12 0.500000 0.500000 0.000000
O O13 0.138240 0.649507 0.101793
O O14 0.217076 0.646178 0.905206
O O15 0.500000 0.000000 0.000000
#
# Coordination Sequence:
#
# PCOD8013933 Si02
#       7
#     2   2   2   2   2   2   2
#     4  11  22  40  66  97 136 168 217 265 322 390
#     4  10  21  41  63  94 135 175 215 257 318 387
#     4  11  25  41  64 101 133 169 217 276 326 374
#     4  11  21  39  63  99 137 172 215 258 322 387
#     4  11  20  37  66  97 135 182 214 250 317 404
#     4  10  25  46  67  92 123 169 226 271 327 387
#     4  10  21  43  70  89 124 176 219 261 322 390
#
# _framework density 23.504714
#
# number of rings (size 3 to 8) (size 9 to 14) (size 15 to 20)
#    0.000    1.429    4.286    1.286    0.000    8.571 
#    2.571    1.429    0.000    0.000    0.000    0.000 
#    0.000    0.000    0.000    0.000    0.000    0.000 
#
# Total GULP energy -173480.967124 kJ/mol
# GULP energy per Si atom -12391.497652 kJ/mol
# Density = 2.345122 g / cm^3
# Si number density = 23.504714 Si / 1000 Ang^3
#
#
#
# Elastic Constant Matrix: (Units=GPa)
#
#
# Indices 1 2 3 4 5 6 
#
# 1 90.9862 61.8320 32.1170 -16.1964 20.1093 -2.4249
# 2 61.8320 143.1719 41.2899 -35.3869 21.9601 1.0630
# 3 32.1170 41.2899 85.3132 -19.8044 18.2079 0.5063
# 4 -16.1964 -35.3869 -19.8044 43.3608 1.6036 2.6379
# 5 20.1093 21.9601 18.2079 1.6036 29.8941 -6.2345
# 6 -2.4249 1.0630 0.5063 2.6379 -6.2345 40.4495
#
#
#
# Elastic Compliance Matrix: (Units=1/GPa)
#
#
# Indices 1 2 3 4 5 6 
#
# 1 0.017075 -0.005545 -0.002199 0.001063 -0.006092 0.000189
# 2 -0.005545 0.012540 -0.000837 0.008123 -0.005842 -0.002082
# 3 -0.002199 -0.000837 0.016280 0.006374 -0.008592 -0.002054
# 4 0.001063 0.008123 0.006374 0.033765 -0.013311 -0.004483
# 5 -0.006092 -0.005842 -0.008592 -0.013311 0.049540 0.008400
# 6 0.000189 -0.002082 -0.002054 -0.004483 0.008400 0.026401
#
#
# Mechanical properties :
#
#
# Convention : Reuss Voigt Hill
#
# Bulk Modulus (GPa) = 34.80175 65.54988 50.17581
# Shear Modulus (GPa) = 27.42132 35.02302 31.22217
#
# Velocity S-wave (km/s) = 3.41930 3.86429 3.64859
# Velocity P-wave (km/s) = 5.51609 6.91801 6.25644
#
# Compressibility (1/GPa) = 0.02873419
#
# Stress axis : x y z
#
# Youngs Moduli (GPa) = 58.56369 79.74594 61.42518
#
# Poissons Ratio (x) = 0.44216 0.13508
# Poissons Ratio (y) = 0.32472 0.05140
# Poissons Ratio (z) = 0.12879 0.06673
#
# Static dielectric constant tensor:
#      x y z
#    x 4.043080 -0.079050 0.062130 
#    y -0.079050 4.227050 -0.198520 
#    z 0.062130 -0.198520 4.369800 
# 
# 
# High freq. dielectric constant tensor:
#      x y z
#    x 1.917650 -0.004960 0.001290 
#    y -0.004960 1.923420 -0.005670 
#    z 0.001290 -0.005670 1.932980 
# 
# From -- ./inp_files/573502.got.cif
#   From: 2010.06.25/outbox.cif.g09.slc.cpg/sg2_287_cif.got.tgz:573502.got - 2010.06.27 13:26:56.
