data_PCOD8013144
_publ_section_title
;
Structure prediction by ZEFSAII (Michael W. Deem and Ramdas Pophale) SiO2 
 PCOD8013144
Probable space group: P -1
;
_chemical_formula_sum "Si O2"
_cell_formula_units_Z 14
_cell_length_a 12.637341
_cell_length_b 11.741161
_cell_length_c 12.019345
_cell_angle_alpha 49.994642
_cell_angle_beta 46.944887
_cell_angle_gamma 30.854712
_cell_volume 660.607003
_symmetry_space_group_name_H-M "P -1"
_symmetry_group_IT_number 2
_symmetry_cell_setting 'triclinic'
loop_
_space_group_symop_operation_xyz
x,y,z
-x,-y,-z
loop_
_atom_site_type_symbol
_atom_site_label
_atom_site_fract_x
_atom_site_fract_y
_atom_site_fract_z
Si Si1 0.357524 0.421702 0.157890
Si Si2 0.777218 0.788849 0.687350
Si Si3 0.054389 0.604106 0.823180
Si Si4 0.111636 0.881281 0.685022
Si Si5 0.159706 0.635184 0.398382
Si Si6 0.228386 0.807804 0.897229
Si Si7 0.523395 0.714091 0.424117
O O1 0.276875 0.340887 0.201763
O O2 0.208294 0.591205 0.260824
O O3 0.604509 0.201749 0.162156
O O4 0.343507 0.559559 0.988028
O O5 0.880966 0.743889 0.760878
O O6 0.951165 0.690042 0.528831
O O7 0.560273 0.052144 0.657095
O O8 0.026707 0.777550 0.804440
O O9 0.304876 0.418425 0.717450
O O10 0.000000 0.500000 0.000000
O O11 0.207278 0.849216 0.756350
O O12 0.309624 0.770006 0.525583
O O13 0.902911 0.150410 0.647647
O O14 0.363255 0.418653 0.458647
O O15 0.000000 0.000000 0.000000
#
# Coordination Sequence:
#
# PCOD8013144 Si02
#       7
#     2   2   2   2   2   2   2
#     4  11  22  40  62  95 131 164 212 257 316 377
#     4  10  24  41  63  95 127 166 208 261 315 379
#     4  11  25  44  65  95 127 166 212 265 319 373
#     4  11  22  42  67  93 129 166 215 261 312 381
#     4  10  21  40  65  96 123 167 211 259 320 370
#     4  11  23  39  64  95 126 168 210 260 316 369
#     4  10  23  43  63  95 125 173 214 254 320 371
#
# _framework density 21.192629
#
# number of rings (size 3 to 8) (size 9 to 14) (size 15 to 20)
#    0.000    1.429    2.857    1.714    0.000   10.857 
#    0.000    0.000    0.000    0.000    0.000    0.000 
#    0.000    0.000    0.000    0.000    0.000    0.000 
#
# Total GULP energy -173565.404235 kJ/mol
# GULP energy per Si atom -12397.528874 kJ/mol
# Density = 2.114439 g / cm^3
# Si number density = 21.192629 Si / 1000 Ang^3
#
#
#
# Elastic Constant Matrix: (Units=GPa)
#
#
# Indices 1 2 3 4 5 6 
#
# 1 89.7880 40.2568 19.5863 -2.0791 -20.3580 1.0126
# 2 40.2568 118.1657 26.2701 -7.1007 -0.3525 -13.0796
# 3 19.5863 26.2701 87.3207 -4.3457 -3.3962 -1.5900
# 4 -2.0791 -7.1007 -4.3457 35.2054 2.2323 -3.6479
# 5 -20.3580 -0.3525 -3.3962 2.2323 33.3023 -8.1879
# 6 1.0126 -13.0796 -1.5900 -3.6479 -8.1879 20.0001
#
#
#
# Elastic Compliance Matrix: (Units=1/GPa)
#
#
# Indices 1 2 3 4 5 6 
#
# 1 0.015943 -0.005149 -0.001720 -0.000972 0.009427 -0.000629
# 2 -0.005149 0.011691 -0.002152 0.002673 -0.001558 0.007585
# 3 -0.001720 -0.002152 0.012537 0.000995 0.000114 -0.000095
# 4 -0.000972 0.002673 0.000995 0.029782 -0.000738 0.007006
# 5 0.009427 -0.001558 0.000114 -0.000738 0.039403 0.014510
# 6 -0.000629 0.007585 -0.000095 0.007006 0.014510 0.062202
#
#
# Mechanical properties :
#
#
# Convention : Reuss Voigt Hill
#
# Bulk Modulus (GPa) = 45.18855 51.94453 48.56654
# Shear Modulus (GPa) = 25.38372 31.64565 28.51468
#
# Velocity S-wave (km/s) = 3.46462 3.86844 3.67209
# Velocity P-wave (km/s) = 6.11342 6.67210 6.39886
#
# Compressibility (1/GPa) = 0.02212950
#
# Stress axis : x y z
#
# Youngs Moduli (GPa) = 62.72296 85.53775 79.76125
#
# Poissons Ratio (x) = 0.44044 0.13721
# Poissons Ratio (y) = 0.32296 0.17161
# Poissons Ratio (z) = 0.10790 0.18404
#
# Static dielectric constant tensor:
#      x y z
#    x 3.603370 -0.109770 -0.048790 
#    y -0.109770 4.061400 0.025380 
#    z -0.048790 0.025380 4.007600 
# 
# 
# High freq. dielectric constant tensor:
#      x y z
#    x 1.814900 -0.010910 -0.003020 
#    y -0.010910 1.842550 -0.003000 
#    z -0.003020 -0.003000 1.841540 
# 
# From -- ./inp_files/26870.got.cif
#   From: 2010.06.25/outbox.cif.g09.slc.cpg/sg2_14_cif.got.tgz:26870.got - 2010.06.27 13:26:56.
