data_PCOD8013730
_publ_section_title
;
Structure prediction by ZEFSAII (Michael W. Deem and Ramdas Pophale) SiO2 
 PCOD8013730
Probable space group: P -1
;
_chemical_formula_sum "Si O2"
_cell_formula_units_Z 14
_cell_length_a 8.891084
_cell_length_b 23.430950
_cell_length_c 8.606035
_cell_angle_alpha 146.520824
_cell_angle_beta 129.894397
_cell_angle_gamma 41.232839
_cell_volume 651.382722
_symmetry_space_group_name_H-M "P -1"
_symmetry_group_IT_number 2
_symmetry_cell_setting 'triclinic'
loop_
_space_group_symop_operation_xyz
x,y,z
-x,-y,-z
loop_
_atom_site_type_symbol
_atom_site_label
_atom_site_fract_x
_atom_site_fract_y
_atom_site_fract_z
Si Si1 0.083401 0.622419 0.743616
Si Si2 0.549420 0.316575 0.873816
Si Si3 0.278935 0.140681 0.808649
Si Si4 0.075840 0.933327 0.562275
Si Si5 0.871014 0.490466 0.155332
Si Si6 0.336170 0.034831 0.117759
Si Si7 0.246840 0.258019 0.737051
O O1 0.172813 0.550241 0.800398
O O2 0.028211 0.549732 0.415862
O O3 0.283874 0.640235 0.849150
O O4 0.854736 0.751270 0.911932
O O5 0.694653 0.195446 0.595538
O O6 0.369844 0.415417 0.862172
O O7 0.430346 0.293854 0.888729
O O8 0.335840 0.187397 0.796983
O O9 0.126251 0.081123 0.532613
O O10 0.520181 0.042046 0.813968
O O11 0.000000 0.000000 0.500000
O O12 0.129562 0.012150 0.894934
O O13 0.000404 0.377762 0.868194
O O14 0.224430 0.176090 0.404102
O O15 0.500000 0.000000 0.000000
#
# Coordination Sequence:
#
# PCOD8013730 Si02
#       7
#     2   2   2   2   2   2   2
#     4   9  21  38  66  87 118 163 204 246 301 360
#     4  11  21  38  62  88 120 163 200 246 300 364
#     4  10  22  42  61  93 126 154 204 257 302 357
#     4  11  22  39  65  93 116 160 212 250 296 367
#     4  10  21  41  59  90 124 159 202 252 300 355
#     4  12  22  40  67  89 118 167 202 248 312 360
#     4  11  24  39  60  93 131 157 198 260 302 359
#
# _framework density 21.492743000000001
#
# number of rings (size 3 to 8) (size 9 to 14) (size 15 to 20)
#    0.000    1.429    2.857    2.143    0.000    1.143 
#    0.000    4.286    0.000    0.000    0.000    0.000 
#    0.000    0.000    0.000    0.000    0.000    0.000 
#
# Total GULP energy -173672.602472 kJ/mol
# GULP energy per Si atom -12405.185891 kJ/mol
# Density = 2.144382 g / cm^3
# Si number density = 21.492743 Si / 1000 Ang^3
#
#
#
# Elastic Constant Matrix: (Units=GPa)
#
#
# Indices 1 2 3 4 5 6 
#
# 1 61.8098 13.1905 17.3904 3.9221 9.2958 -1.2395
# 2 13.1905 93.2368 43.0415 13.9895 -1.2531 -18.9038
# 3 17.3904 43.0415 132.4226 11.8134 -1.4290 -12.8915
# 4 3.9221 13.9895 11.8134 26.4239 -1.8104 5.3640
# 5 9.2958 -1.2531 -1.4290 -1.8104 32.5967 4.3359
# 6 -1.2395 -18.9038 -12.8915 5.3640 4.3359 14.9876
#
#
#
# Elastic Compliance Matrix: (Units=1/GPa)
#
#
# Indices 1 2 3 4 5 6 
#
# 1 0.017902 -0.001574 -0.001771 -0.001399 -0.005323 0.000013
# 2 -0.001574 0.020579 -0.002049 -0.016309 -0.003882 0.031024
# 3 -0.001771 -0.002049 0.009533 -0.004388 -0.000349 0.007141
# 4 -0.001399 -0.016309 -0.004388 0.059088 0.009286 -0.048294
# 5 -0.005323 -0.003882 -0.000349 0.009286 0.035089 -0.019112
# 6 0.000013 0.031024 0.007141 -0.048294 -0.019112 0.134808
#
#
# Mechanical properties :
#
#
# Convention : Reuss Voigt Hill
#
# Bulk Modulus (GPa) = 26.86263 48.30155 37.58209
# Shear Modulus (GPa) = 16.65578 29.05811 22.85695
#
# Velocity S-wave (km/s) = 2.78681 3.68094 3.26463
# Velocity P-wave (km/s) = 4.78338 6.37087 5.63332
#
# Compressibility (1/GPa) = 0.03722644
#
# Stress axis : x y z
#
# Youngs Moduli (GPa) = 55.85849 48.59364 104.90049
#
# Poissons Ratio (x) = 0.07650 0.18575
# Poissons Ratio (y) = 0.08794 0.21492
# Poissons Ratio (z) = 0.09891 0.09956
#
# Static dielectric constant tensor:
#      x y z
#    x 3.840280 0.036210 0.243800 
#    y 0.036210 3.855790 0.253390 
#    z 0.243800 0.253390 4.167230 
# 
# 
# High freq. dielectric constant tensor:
#      x y z
#    x 1.839820 0.004940 0.013420 
#    y 0.004940 1.845160 0.017190 
#    z 0.013420 0.017190 1.848000 
# 
# From -- ./inp_files/89962.got.cif
#   From: 2010.06.25/outbox.cif.g09.slc.cpg/sg2_45_cif.got.tgz:89962.got - 2010.06.27 13:26:56.
