data_PCOD8013034
_publ_section_title
;
Structure prediction by ZEFSAII (Michael W. Deem and Ramdas Pophale) SiO2 
 PCOD8013034
Probable space group: P -1
;
_chemical_formula_sum "Si O2"
_cell_formula_units_Z 14
_cell_length_a 23.394106
_cell_length_b 13.228290
_cell_length_c 22.727309
_cell_angle_alpha 24.052904
_cell_angle_beta 17.585881
_cell_angle_gamma 17.189892
_cell_volume 627.778380
_symmetry_space_group_name_H-M "P -1"
_symmetry_group_IT_number 2
_symmetry_cell_setting 'triclinic'
loop_
_space_group_symop_operation_xyz
x,y,z
-x,-y,-z
loop_
_atom_site_type_symbol
_atom_site_label
_atom_site_fract_x
_atom_site_fract_y
_atom_site_fract_z
Si Si1 0.745594 0.801878 0.407526
Si Si2 0.872228 0.862058 0.683560
Si Si3 0.986045 0.326263 0.052208
Si Si4 0.540561 0.146384 0.237338
Si Si5 0.236389 0.599191 0.065537
Si Si6 0.617671 0.846273 0.044441
Si Si7 0.856606 0.372495 0.723477
O O1 0.644172 0.877783 0.534032
O O2 0.947688 0.404355 0.403791
O O3 0.942276 0.863223 0.184457
O O4 0.500000 0.000000 0.500000
O O5 0.577630 0.174252 0.783566
O O6 0.854090 0.702886 0.844025
O O7 0.000000 0.000000 0.500000
O O8 0.719265 0.626326 0.120486
O O9 0.984464 0.032401 0.225337
O O10 0.000000 0.500000 0.000000
O O11 0.222504 0.197024 0.846503
O O12 0.383506 0.440062 0.185685
O O13 0.656770 0.217624 0.137170
O O14 0.234128 0.514821 0.180537
O O15 0.443556 0.247441 0.014060
O O16 0.000000 0.500000 0.500000
#
# Coordination Sequence:
#
# PCOD8013034 Si02
#       7
#     2   2   2   2   2   2   2
#     4  11  23  38  61  93 122 163 221 261 309 382
#     4  10  22  39  63  89 129 169 208 263 322 377
#     4  11  23  41  66  98 131 166 214 270 322 385
#     4  11  22  40  66  87 127 170 207 261 323 383
#     4  10  21  40  65  87 127 170 208 259 322 387
#     4  10  21  41  61  92 129 166 212 262 323 376
#     4  11  22  42  68  92 128 171 214 264 326 386
#
# _framework density 22.300864000000001
#
# number of rings (size 3 to 8) (size 9 to 14) (size 15 to 20)
#    0.000    1.429    1.429    5.143    0.000    2.857 
#    2.571    1.429    0.000    0.000    0.000    0.000 
#    0.000    0.000    0.000    0.000    0.000    0.000 
#
# Total GULP energy -173437.130856 kJ/mol
# GULP energy per Si atom -12388.366490 kJ/mol
# Density = 2.225011 g / cm^3
# Si number density = 22.300864 Si / 1000 Ang^3
#
#
#
# Elastic Constant Matrix: (Units=GPa)
#
#
# Indices 1 2 3 4 5 6 
#
# 1 114.9680 34.5839 34.2122 4.8173 -20.0259 -5.9048
# 2 34.5839 83.2936 37.0424 8.6364 -6.0085 1.9744
# 3 34.2122 37.0424 112.7740 4.1041 -13.1533 10.4150
# 4 4.8173 8.6364 4.1041 28.2809 1.8941 -4.3419
# 5 -20.0259 -6.0085 -13.1533 1.8941 46.8406 8.5350
# 6 -5.9048 1.9744 10.4150 -4.3419 8.5350 48.1667
#
#
#
# Elastic Compliance Matrix: (Units=1/GPa)
#
#
# Indices 1 2 3 4 5 6 
#
# 1 0.010997 -0.003440 -0.001885 -0.000599 0.003534 0.001216
# 2 -0.003440 0.015544 -0.003926 -0.003641 -0.000345 -0.000477
# 3 -0.001885 -0.003926 0.011321 -0.000751 0.002450 -0.003020
# 4 -0.000599 -0.003641 -0.000751 0.037541 -0.003216 0.004192
# 5 0.003534 -0.000345 0.002450 -0.003216 0.024492 -0.004712
# 6 0.001216 -0.000477 -0.003020 0.004192 -0.004712 0.022796
#
#
# Mechanical properties :
#
#
# Convention : Reuss Voigt Hill
#
# Bulk Modulus (GPa) = 51.65051 58.07916 54.86483
# Shear Modulus (GPa) = 33.86527 38.33746 36.10136
#
# Velocity S-wave (km/s) = 3.90110 4.15070 4.02784
# Velocity P-wave (km/s) = 6.59564 7.00508 6.80344
#
# Compressibility (1/GPa) = 0.01936089
#
# Stress axis : x y z
#
# Youngs Moduli (GPa) = 90.93674 64.33480 88.33531
#
# Poissons Ratio (x) = 0.22128 0.16649
# Poissons Ratio (y) = 0.31278 0.34678
# Poissons Ratio (z) = 0.17139 0.25256
#
# Static dielectric constant tensor:
#      x y z
#    x 4.008720 -0.303070 -0.000370 
#    y -0.303070 3.519870 0.370270 
#    z -0.000370 0.370270 4.410950 
# 
# 
# High freq. dielectric constant tensor:
#      x y z
#    x 1.901870 0.003250 -0.011990 
#    y 0.003250 1.852810 0.017070 
#    z -0.011990 0.017070 1.885810 
# 
# From -- ./inp_files/446373.got.cif
#   From: 2010.06.25/outbox.cif.g09.slc.cpg/sg2_224_cif.got.tgz:446373.got - 2010.06.27 13:26:56.
