data_PCOD8013381
_publ_section_title
;
Structure prediction by ZEFSAII (Michael W. Deem and Ramdas Pophale) SiO2 
 PCOD8013381
Probable space group: P -1
;
_chemical_formula_sum "Si O2"
_cell_formula_units_Z 16
_cell_length_a 16.706254
_cell_length_b 19.008335
_cell_length_c 9.370005
_cell_angle_alpha 38.686142
_cell_angle_beta 59.745970
_cell_angle_gamma 29.735043
_cell_volume 763.546275
_symmetry_space_group_name_H-M "P -1"
_symmetry_group_IT_number 2
_symmetry_cell_setting 'triclinic'
loop_
_space_group_symop_operation_xyz
x,y,z
-x,-y,-z
loop_
_atom_site_type_symbol
_atom_site_label
_atom_site_fract_x
_atom_site_fract_y
_atom_site_fract_z
Si Si1 0.891747 0.701052 0.998191
Si Si2 0.043258 0.731687 0.972065
Si Si3 0.645645 0.886473 0.350766
Si Si4 0.483494 0.830862 0.220152
Si Si5 0.540642 0.604826 0.914314
Si Si6 0.364070 0.735367 0.567560
Si Si7 0.661948 0.960909 0.522076
Si Si8 0.862561 0.536582 0.472417
O O1 0.056217 0.619755 0.014712
O O2 0.701168 0.941184 0.877435
O O3 0.851389 0.748745 0.789693
O O4 0.953329 0.509153 0.300781
O O5 0.247055 0.579168 0.035332
O O6 0.004757 0.707180 0.198093
O O7 0.866741 0.006188 0.667950
O O8 0.509358 0.924951 0.429602
O O9 0.825323 0.662215 0.440440
O O10 0.725025 0.842514 0.501792
O O11 0.526654 0.113360 0.020707
O O12 0.492521 0.684864 0.436998
O O13 0.661885 0.696249 0.352047
O O14 0.404277 0.720224 0.720628
O O15 0.419881 0.825487 0.763484
O O16 0.571210 0.461592 0.212030
#
# Coordination Sequence:
#
# PCOD8013381 Si02
#       8
#     2   2   2   2   2   2   2   2
#     4  10  18  30  51  79 113 137 173 216 263 322
#     4  11  19  32  53  84 108 138 175 223 268 309
#     4  10  19  29  58  77 110 146 173 211 273 320
#     4  10  16  34  53  80 105 142 176 222 258 313
#     4  11  20  36  54  79 108 141 176 229 262 306
#     4  10  21  34  57  79 104 138 187 221 264 306
#     4  11  18  34  52  81 110 143 175 215 266 322
#     4  11  17  32  52  82 113 140 170 217 265 320
#
# _framework density 20.954853
#
# number of rings (size 3 to 8) (size 9 to 14) (size 15 to 20)
#    0.000    1.500    7.500    1.500    0.000    0.000 
#    0.000    1.250    0.000    0.000    0.000    1.750 
#    0.000    0.000    0.000    0.000    0.000    0.000 
#
# Total GULP energy -198294.506969 kJ/mol
# GULP energy per Si atom -12393.406686 kJ/mol
# Density = 2.090716 g / cm^3
# Si number density = 20.954853 Si / 1000 Ang^3
#
#
#
# Elastic Constant Matrix: (Units=GPa)
#
#
# Indices 1 2 3 4 5 6 
#
# 1 68.1983 15.2960 43.3925 18.0080 -11.7380 -11.6426
# 2 15.2960 38.5873 21.4783 -0.0895 -4.5058 1.8035
# 3 43.3925 21.4783 152.4948 18.1103 -8.2471 -10.1559
# 4 18.0080 -0.0895 18.1103 16.6661 -2.2078 15.7562
# 5 -11.7380 -4.5058 -8.2471 -2.2078 48.1612 4.6476
# 6 -11.6426 1.8035 -10.1559 15.7562 4.6476 5.3307
#
#
#
# Elastic Compliance Matrix: (Units=1/GPa)
#
#
# Indices 1 2 3 4 5 6 
#
# 1 0.013177 -0.000415 -0.006039 0.011057 0.004497 -0.019187
# 2 -0.000415 0.026551 -0.001770 -0.008672 0.000533 0.011906
# 3 -0.006039 -0.001770 0.007946 0.002370 0.000286 -0.004708
# 4 0.011057 -0.008672 0.002370 -0.006899 -0.003324 0.054888
# 5 0.004497 0.000533 0.000286 -0.003324 0.021701 0.001091
# 6 -0.019187 0.011906 -0.004708 0.054888 0.001091 -0.030497
#
#
# Mechanical properties :
#
#
# Convention : Reuss Voigt Hill
#
# Bulk Modulus (GPa) = 32.02400 46.62380 39.32390
# Shear Modulus (GPa) = 84.98395 25.97250 55.47822
#
# Velocity S-wave (km/s) = 6.37525 3.52440 5.15098
# Velocity P-wave (km/s) = 8.33710 6.23377 7.36095
#
# Compressibility (1/GPa) = 0.03122658
#
# Stress axis : x y z
#
# Youngs Moduli (GPa) = 75.88751 37.66407 125.85361
#
# Poissons Ratio (x) = 0.01562 0.76002
# Poissons Ratio (y) = 0.03147 0.22275
# Poissons Ratio (z) = 0.45828 0.06666
#
# Static dielectric constant tensor:
#      x y z
#    x 3.997500 -0.332690 -0.093540 
#    y -0.332690 3.216460 0.073390 
#    z -0.093540 0.073390 4.527490 
# 
# 
# High freq. dielectric constant tensor:
#      x y z
#    x 1.818770 -0.036120 0.012860 
#    y -0.036120 1.767130 -0.005310 
#    z 0.012860 -0.005310 1.851720 
# 
# From -- ./inp_files/308838.got.cif
#   From: 2010.06.25/outbox.cif.g09.slc.cpg/sg2_155_cif.got.tgz:308838.got - 2010.06.27 13:26:56.
