data_PCOD8013031
_publ_section_title
;
Structure prediction by ZEFSAII (Michael W. Deem and Ramdas Pophale) SiO2 
 PCOD8013031
Probable space group: P -1
;
_chemical_formula_sum "Si O2"
_cell_formula_units_Z 16
_cell_length_a 14.408388
_cell_length_b 13.769594
_cell_length_c 11.633621
_cell_angle_alpha 29.894538
_cell_angle_beta 108.664137
_cell_angle_gamma 129.843003
_cell_volume 696.335370
_symmetry_space_group_name_H-M "P -1"
_symmetry_group_IT_number 2
_symmetry_cell_setting 'triclinic'
loop_
_space_group_symop_operation_xyz
x,y,z
-x,-y,-z
loop_
_atom_site_type_symbol
_atom_site_label
_atom_site_fract_x
_atom_site_fract_y
_atom_site_fract_z
Si Si1 0.566342 0.413016 0.058467
Si Si2 0.162974 0.588062 0.236299
Si Si3 0.280464 0.710915 0.668437
Si Si4 0.812075 0.869556 0.510152
Si Si5 0.105367 0.689251 0.457807
Si Si6 0.880634 0.527153 0.917715
Si Si7 0.344451 0.127465 0.927994
Si Si8 0.331587 0.449215 0.438677
O O1 0.683443 0.465988 0.131607
O O2 0.431088 0.059499 0.331520
O O3 0.500000 0.500000 0.000000
O O4 0.654922 0.640692 0.752586
O O5 0.172888 0.655758 0.034917
O O6 0.249533 0.521622 0.368013
O O7 0.982825 0.299785 0.500434
O O8 0.237560 0.869317 0.053411
O O9 0.146836 0.553022 0.684181
O O10 0.226861 0.701197 0.784460
O O11 0.876126 0.750476 0.668623
O O12 0.775663 0.844277 0.386963
O O13 0.936490 0.225878 0.234761
O O14 0.000000 0.500000 0.500000
O O15 0.266816 0.018015 0.135668
O O16 0.368546 0.388624 0.631906
O O17 0.506516 0.261194 0.859582
#
# Coordination Sequence:
#
# PCOD8013031 Si02
#       8
#     2   2   2   2   2   2   2   2
#     4  10  22  40  62  94 125 165 208 254 322 386
#     4  10  22  40  63  93 121 162 215 259 311 382
#     4  10  22  42  64  89 130 167 204 263 320 369
#     4   9  19  37  60  93 125 156 201 266 318 367
#     4  10  23  41  61  91 129 167 207 258 311 371
#     4   9  20  37  64  92 121 159 204 261 320 373
#     4  10  22  41  62  89 124 169 212 260 310 368
#     4  10  21  40  65  86 123 167 213 261 311 369
#
# _framework density 22.977433999999999
#
# number of rings (size 3 to 8) (size 9 to 14) (size 15 to 20)
#    0.000    2.250    0.000    1.125    5.250    3.000 
#    0.000    7.500    0.000    0.000    0.000    0.000 
#    0.000    0.000    0.000    0.000    0.000    0.000 
#
# Total GULP energy -198261.583537 kJ/mol
# GULP energy per Si atom -12391.348971 kJ/mol
# Density = 2.292514 g / cm^3
# Si number density = 22.977434 Si / 1000 Ang^3
#
#
#
# Elastic Constant Matrix: (Units=GPa)
#
#
# Indices 1 2 3 4 5 6 
#
# 1 152.0729 24.7034 37.6141 22.2866 -21.4377 26.8254
# 2 24.7034 84.7466 14.7502 17.0074 -4.9424 11.3300
# 3 37.6141 14.7502 74.7684 7.9555 -27.0058 6.5826
# 4 22.2866 17.0074 7.9555 37.7488 4.6257 4.4884
# 5 -21.4377 -4.9424 -27.0058 4.6257 39.5895 5.1573
# 6 26.8254 11.3300 6.5826 4.4884 5.1573 27.9603
#
#
#
# Elastic Compliance Matrix: (Units=1/GPa)
#
#
# Indices 1 2 3 4 5 6 
#
# 1 0.010428 0.000036 -0.001377 -0.005505 0.006663 -0.010040
# 2 0.000036 0.013919 -0.000771 -0.005847 0.002569 -0.005028
# 3 -0.001377 -0.000771 0.020202 -0.004224 0.014089 -0.005044
# 4 -0.005505 -0.005847 -0.004224 0.034019 -0.011252 0.005260
# 5 0.006663 0.002569 0.014089 -0.011252 0.042295 -0.016746
# 6 -0.010040 -0.005028 -0.005044 0.005260 -0.016746 0.050867
#
#
# Mechanical properties :
#
#
# Convention : Reuss Voigt Hill
#
# Bulk Modulus (GPa) = 24.79891 51.74703 38.27297
# Shear Modulus (GPa) = 26.39982 36.69439 31.54711
#
# Velocity S-wave (km/s) = 3.39329 4.00055 3.70937
# Velocity P-wave (km/s) = 5.11553 6.62638 5.91936
#
# Compressibility (1/GPa) = 0.04032434
#
# Stress axis : x y z
#
# Youngs Moduli (GPa) = 95.89930 71.84368 49.50051
#
# Poissons Ratio (x) = -0.00256 0.06814
# Poissons Ratio (y) = -0.00342 0.03817
# Poissons Ratio (z) = 0.13201 0.05540
#
# Static dielectric constant tensor:
#      x y z
#    x 4.437250 0.302540 -0.478970 
#    y 0.302540 4.137720 0.217360 
#    z -0.478970 0.217360 4.465770 
# 
# 
# High freq. dielectric constant tensor:
#      x y z
#    x 1.916530 0.027590 -0.016420 
#    y 0.027590 1.899570 0.015720 
#    z -0.016420 0.015720 1.901400 
# 
# From -- ./inp_files/455398.got.cif
#   From: 2010.06.25/outbox.cif.g09.slc.cpg/sg2_228_cif.got.tgz:455398.got - 2010.06.27 13:26:56.
