data_PCOD8013508
_publ_section_title
;
Structure prediction by ZEFSAII (Michael W. Deem and Ramdas Pophale) SiO2 
 PCOD8013508
Probable space group: P -1
;
_chemical_formula_sum "Si O2"
_cell_formula_units_Z 16
_cell_length_a 12.466343
_cell_length_b 12.475058
_cell_length_c 9.010860
_cell_angle_alpha 86.169049
_cell_angle_beta 122.422893
_cell_angle_gamma 133.772699
_cell_volume 740.257492
_symmetry_space_group_name_H-M "P -1"
_symmetry_group_IT_number 2
_symmetry_cell_setting 'triclinic'
loop_
_space_group_symop_operation_xyz
x,y,z
-x,-y,-z
loop_
_atom_site_type_symbol
_atom_site_label
_atom_site_fract_x
_atom_site_fract_y
_atom_site_fract_z
Si Si1 0.016459 0.295632 0.210884
Si Si2 0.266215 0.877644 0.461850
Si Si3 0.380745 0.592573 0.271259
Si Si4 0.295960 0.782718 0.201247
Si Si5 0.237188 0.094012 0.303287
Si Si6 0.160114 0.051568 0.909808
Si Si7 0.072121 0.424007 0.557852
Si Si8 0.467562 0.602855 0.000673
O O1 0.207688 0.404150 0.233453
O O2 0.098719 0.400421 0.413413
O O3 0.906498 0.110839 0.171565
O O4 0.860544 0.276013 0.027071
O O5 0.231311 0.760413 0.326542
O O6 0.099830 0.761371 0.476134
O O7 0.487877 0.017315 0.688201
O O8 0.254267 0.979635 0.353553
O O9 0.297951 0.657966 0.188541
O O10 0.579940 0.718345 0.508346
O O11 0.429523 0.578957 0.148757
O O12 0.249387 0.118620 0.134616
O O13 0.031605 0.996561 0.237353
O O14 0.327699 0.198503 0.902993
O O15 0.000000 0.500000 0.500000
O O16 0.284422 0.542179 0.786054
O O17 0.500000 0.500000 0.000000
#
# Coordination Sequence:
#
# PCOD8013508 Si02
#       8
#     2   2   2   2   2   2   2   2
#     4  12  25  41  71 103 137 176 230 281 340 403
#     4  10  21  41  69  98 135 179 221 281 340 403
#     4  11  25  44  70  97 134 182 228 277 342 412
#     4  10  21  40  68  96 134 177 224 274 340 407
#     4  10  23  45  70  97 135 177 229 280 344 407
#     4  11  26  43  71 101 136 175 230 286 338 406
#     4  12  27  44  70 101 144 180 232 283 342 403
#     4  12  29  48  70  99 143 182 228 283 348 409
#
# _framework density 21.614100000000001
#
# number of rings (size 3 to 8) (size 9 to 14) (size 15 to 20)
#    0.000    1.000    1.250    4.125   10.500    1.500 
#    0.000    0.000    0.000    0.000    0.000    0.000 
#    0.000    0.000    0.000    0.000    0.000    0.000 
#
# Total GULP energy -198489.218981 kJ/mol
# GULP energy per Si atom -12405.576186 kJ/mol
# Density = 2.156491 g / cm^3
# Si number density = 21.614100 Si / 1000 Ang^3
#
#
#
# Elastic Constant Matrix: (Units=GPa)
#
#
# Indices 1 2 3 4 5 6 
#
# 1 123.9971 50.2020 51.8218 2.4103 -8.1601 7.6265
# 2 50.2020 121.3199 33.4105 14.0476 -2.0704 18.4121
# 3 51.8218 33.4105 99.2360 13.7009 9.9224 -5.5081
# 4 2.4103 14.0476 13.7009 22.2768 -0.3933 0.4772
# 5 -8.1601 -2.0704 9.9224 -0.3933 38.5070 5.3042
# 6 7.6265 18.4121 -5.5081 0.4772 5.3042 42.6457
#
#
#
# Elastic Compliance Matrix: (Units=1/GPa)
#
#
# Indices 1 2 3 4 5 6 
#
# 1 0.012641 -0.003570 -0.006686 0.005123 0.004566 -0.002208
# 2 -0.003570 0.011530 -0.001552 -0.005817 0.000835 -0.004579
# 3 -0.006686 -0.001552 0.016170 -0.008460 -0.006421 0.004848
# 4 0.005123 -0.005817 -0.008460 0.053282 0.003571 -0.000538
# 5 0.004566 0.000835 -0.006421 0.003571 0.029459 -0.005710
# 6 -0.002208 -0.004579 0.004848 -0.000538 -0.005710 0.027163
#
#
# Mechanical properties :
#
#
# Convention : Reuss Voigt Hill
#
# Bulk Modulus (GPa) = 59.78895 68.38014 64.08454
# Shear Modulus (GPa) = 27.86513 34.62714 31.24613
#
# Velocity S-wave (km/s) = 3.59445 4.00692 3.80628
# Velocity P-wave (km/s) = 6.70439 7.28785 7.00220
#
# Compressibility (1/GPa) = 0.01672550
#
# Stress axis : x y z
#
# Youngs Moduli (GPa) = 79.10867 86.73018 61.84257
#
# Poissons Ratio (x) = 0.30960 0.41346
# Poissons Ratio (y) = 0.28240 0.09599
# Poissons Ratio (z) = 0.52890 0.13463
#
# Static dielectric constant tensor:
#      x y z
#    x 4.038600 0.069540 0.157820 
#    y 0.069540 3.894050 0.080930 
#    z 0.157820 0.080930 4.083470 
# 
# 
# High freq. dielectric constant tensor:
#      x y z
#    x 1.862510 0.000420 0.006590 
#    y 0.000420 1.851780 0.007070 
#    z 0.006590 0.007070 1.860700 
# 
# From -- ./inp_files/262580.got.cif
#   From: 2010.06.25/outbox.cif.g09.slc.cpg/sg2_132_cif.got.tgz:262580.got - 2010.06.27 13:26:56.
