data_PCOD8013282
_publ_section_title
;
Structure prediction by ZEFSAII (Michael W. Deem and Ramdas Pophale) SiO2 
 PCOD8013282
Probable space group: P -1
;
_chemical_formula_sum "Si O2"
_cell_formula_units_Z 16
_cell_length_a 12.218684
_cell_length_b 11.472217
_cell_length_c 14.589866
_cell_angle_alpha 59.030333
_cell_angle_beta 30.610384
_cell_angle_gamma 48.573705
_cell_volume 772.728986
_symmetry_space_group_name_H-M "P -1"
_symmetry_group_IT_number 2
_symmetry_cell_setting 'triclinic'
loop_
_space_group_symop_operation_xyz
x,y,z
-x,-y,-z
loop_
_atom_site_type_symbol
_atom_site_label
_atom_site_fract_x
_atom_site_fract_y
_atom_site_fract_z
Si Si1 0.165780 0.209256 0.660777
Si Si2 0.106527 0.946036 0.724635
Si Si3 0.703315 0.507979 0.411534
Si Si4 0.578025 0.836369 0.329648
Si Si5 0.344529 0.529179 0.008678
Si Si6 0.481150 0.678456 0.684160
Si Si7 0.264677 0.261476 0.101120
Si Si8 0.614545 0.949239 0.063733
O O1 0.343571 0.103909 0.659547
O O2 0.326559 0.258666 0.459620
O O3 0.941741 0.365283 0.802502
O O4 0.059791 0.115366 0.720954
O O5 0.289945 0.886273 0.529147
O O6 0.219685 0.819621 0.777027
O O7 0.848424 0.970477 0.864788
O O8 0.500000 0.500000 0.500000
O O9 0.741369 0.647208 0.286194
O O10 0.604723 0.542660 0.572999
O O11 0.966630 0.348921 0.282073
O O12 0.620144 0.913233 0.180500
O O13 0.379413 0.369064 0.004947
O O14 0.500000 0.500000 0.000000
O O15 0.433146 0.613378 0.838004
O O16 0.363978 0.111436 0.157441
O O17 0.364486 0.194259 0.954113
#
# Coordination Sequence:
#
# PCOD8013282 Si02
#       8
#     2   2   2   2   2   2   2   2
#     4  10  21  41  62  97 130 162 222 277 307 387
#     4  10  21  40  66  97 127 165 222 265 323 387
#     4  10  21  42  69  96 127 168 216 266 320 384
#     4  10  21  40  66  96 123 169 219 262 325 379
#     4  12  25  41  63  94 132 178 215 259 331 389
#     4  10  22  40  64  96 128 167 219 269 319 373
#     4  11  24  46  60  95 141 162 221 272 313 398
#     4  11  25  42  64  93 132 175 208 271 330 379
#
# _framework density 20.705836000000001
#
# number of rings (size 3 to 8) (size 9 to 14) (size 15 to 20)
#    0.000    1.750    2.500    4.500    1.750    6.000 
#    4.500    1.875    0.000    0.000    0.000    0.000 
#    0.000    0.000    0.000    0.000    0.000    0.000 
#
# Total GULP energy -198395.250072 kJ/mol
# GULP energy per Si atom -12399.703130 kJ/mol
# Density = 2.065871 g / cm^3
# Si number density = 20.705836 Si / 1000 Ang^3
#
#
#
# Elastic Constant Matrix: (Units=GPa)
#
#
# Indices 1 2 3 4 5 6 
#
# 1 89.1826 38.9860 36.6539 -7.3966 -18.0891 8.7632
# 2 38.9860 104.7686 41.5049 13.4127 -6.1382 11.1555
# 3 36.6539 41.5049 84.2125 5.5005 -14.9126 -11.5680
# 4 -7.3966 13.4127 5.5005 26.5568 -1.9972 -6.0430
# 5 -18.0891 -6.1382 -14.9126 -1.9972 26.0320 -2.0081
# 6 8.7632 11.1555 -11.5680 -6.0430 -2.0081 34.5004
#
#
#
# Elastic Compliance Matrix: (Units=1/GPa)
#
#
# Indices 1 2 3 4 5 6 
#
# 1 0.018290 -0.005331 -0.004588 0.008901 0.009326 -0.002358
# 2 -0.005331 0.016299 -0.007147 -0.010574 -0.005421 -0.008480
# 3 -0.004588 -0.007147 0.020158 0.001207 0.007607 0.010889
# 4 0.008901 -0.010574 0.001207 0.048292 0.008902 0.010539
# 5 0.009326 -0.005421 0.007607 0.008902 0.049147 0.006354
# 6 -0.002358 -0.008480 0.010889 0.010539 0.006354 0.038193
#
#
# Mechanical properties :
#
#
# Convention : Reuss Voigt Hill
#
# Bulk Modulus (GPa) = 48.50463 56.93926 52.72195
# Shear Modulus (GPa) = 21.60920 28.15243 24.88081
#
# Velocity S-wave (km/s) = 3.23403 3.69133 3.47022
# Velocity P-wave (km/s) = 6.11733 6.76215 6.44781
#
# Compressibility (1/GPa) = 0.02061659
#
# Stress axis : x y z
#
# Youngs Moduli (GPa) = 54.67368 61.35411 49.60804
#
# Poissons Ratio (x) = 0.32707 0.22758
# Poissons Ratio (y) = 0.29146 0.35454
# Poissons Ratio (z) = 0.25082 0.43849
#
# Static dielectric constant tensor:
#      x y z
#    x 3.789430 0.128410 -0.175070 
#    y 0.128410 3.794400 0.155690 
#    z -0.175070 0.155690 3.660620 
# 
# 
# High freq. dielectric constant tensor:
#      x y z
#    x 1.809480 0.012390 -0.012320 
#    y 0.012390 1.812870 0.012710 
#    z -0.012320 0.012710 1.805720 
# 
# From -- ./inp_files/347229.got.cif
#   From: 2010.06.25/outbox.cif.g09.slc.cpg/sg2_174_cif.got.tgz:347229.got - 2010.06.27 13:26:56.
