data_PCOD8013231
_publ_section_title
;
Structure prediction by ZEFSAII (Michael W. Deem and Ramdas Pophale) SiO2 
 PCOD8013231
Probable space group: P -1
;
_chemical_formula_sum "Si O2"
_cell_formula_units_Z 16
_cell_length_a 14.393350
_cell_length_b 9.670660
_cell_length_c 8.960668
_cell_angle_alpha 135.004315
_cell_angle_beta 88.790247
_cell_angle_gamma 68.171059
_cell_volume 738.010774
_symmetry_space_group_name_H-M "P -1"
_symmetry_group_IT_number 2
_symmetry_cell_setting 'triclinic'
loop_
_space_group_symop_operation_xyz
x,y,z
-x,-y,-z
loop_
_atom_site_type_symbol
_atom_site_label
_atom_site_fract_x
_atom_site_fract_y
_atom_site_fract_z
Si Si1 0.473309 0.642591 0.959138
Si Si2 0.291906 0.528370 0.288038
Si Si3 0.156894 0.011354 0.800518
Si Si4 0.390723 0.085147 0.478282
Si Si5 0.794584 0.654767 0.099462
Si Si6 0.905334 0.270724 0.043836
Si Si7 0.752710 0.098125 0.965239
Si Si8 0.242899 0.357158 0.453729
O O1 0.582737 0.534389 0.772401
O O2 0.500000 0.500000 0.000000
O O3 0.370754 0.672350 0.890708
O O4 0.423954 0.904002 0.207900
O O5 0.284416 0.390143 0.321137
O O6 0.207961 0.807275 0.518989
O O7 0.263413 0.442775 0.074709
O O8 0.145646 0.246586 0.922714
O O9 0.035579 0.076080 0.899815
O O10 0.237448 0.911111 0.863549
O O11 0.299918 0.123308 0.632061
O O12 0.330560 0.318789 0.555015
O O13 0.500000 0.000000 0.500000
O O14 0.883377 0.445808 0.042158
O O15 0.870443 0.406924 0.308606
O O16 0.842134 0.138811 0.916846
O O17 0.776707 0.853206 0.714696
#
# Coordination Sequence:
#
# PCOD8013231 Si02
#       8
#     2   2   2   2   2   2   2   2
#     4  11  24  41  67  99 136 175 219 270 338 406
#     4  12  24  42  68 101 136 171 221 277 337 393
#     4  12  26  43  68 102 131 178 231 277 327 399
#     4  10  21  40  66  92 131 175 214 264 333 400
#     4  11  24  44  68 100 135 173 224 279 338 393
#     4  11  25  47  69  93 139 177 226 280 334 388
#     4  11  24  43  67 100 132 174 227 271 332 399
#     4  10  24  42  67 100 129 176 225 270 339 393
#
# _framework density 21.679898999999999
#
# number of rings (size 3 to 8) (size 9 to 14) (size 15 to 20)
#    0.000    1.000    3.750    2.250    1.750    7.500 
#    0.000    0.000    0.000    0.000    0.000    0.000 
#    0.000    0.000    0.000    0.000    0.000    0.000 
#
# Total GULP energy -198314.867237 kJ/mol
# GULP energy per Si atom -12394.679202 kJ/mol
# Density = 2.163055 g / cm^3
# Si number density = 21.679899 Si / 1000 Ang^3
#
#
#
# Elastic Constant Matrix: (Units=GPa)
#
#
# Indices 1 2 3 4 5 6 
#
# 1 121.3354 38.2195 50.2823 7.5240 -19.0865 2.5737
# 2 38.2195 111.0767 19.0922 -8.9163 -8.6045 4.9547
# 3 50.2823 19.0922 115.4104 5.7434 -21.2314 -3.5165
# 4 7.5240 -8.9163 5.7434 31.5853 3.7678 4.5047
# 5 -19.0865 -8.6045 -21.2314 3.7678 35.9486 5.1525
# 6 2.5737 4.9547 -3.5165 4.5047 5.1525 34.4060
#
#
#
# Elastic Compliance Matrix: (Units=1/GPa)
#
#
# Indices 1 2 3 4 5 6 
#
# 1 0.011620 -0.003307 -0.003701 -0.003340 0.003669 -0.000883
# 2 -0.003307 0.010675 -0.000529 0.004134 0.000331 -0.001935
# 3 -0.003701 -0.000529 0.011360 -0.002045 0.004677 0.001082
# 4 -0.003340 0.004134 -0.002045 0.035226 -0.005052 -0.004410
# 5 0.003669 0.000331 0.004677 -0.005052 0.033743 -0.004236
# 6 -0.000883 -0.001935 0.001082 -0.004410 -0.004236 0.030732
#
#
# Mechanical properties :
#
#
# Convention : Reuss Voigt Hill
#
# Bulk Modulus (GPa) = 53.81831 62.55674 58.18752
# Shear Modulus (GPa) = 32.33634 36.40320 34.36977
#
# Velocity S-wave (km/s) = 3.86623 4.10215 3.98594
# Velocity P-wave (km/s) = 6.69390 7.16619 6.93407
#
# Compressibility (1/GPa) = 0.01858104
#
# Stress axis : x y z
#
# Youngs Moduli (GPa) = 86.05858 93.67465 88.02797
#
# Poissons Ratio (x) = 0.30974 0.32583
# Poissons Ratio (y) = 0.28455 0.04658
# Poissons Ratio (z) = 0.31854 0.04957
#
# Static dielectric constant tensor:
#      x y z
#    x 2.974540 0.750340 -0.103290 
#    y 0.750340 3.230590 0.104490 
#    z -0.103290 0.104490 3.855340 
# 
# 
# High freq. dielectric constant tensor:
#      x y z
#    x 1.844770 -0.006390 -0.000270 
#    y -0.006390 1.867720 0.003650 
#    z -0.000270 0.003650 1.857120 
# 
# From -- ./inp_files/245979.got.cif
#   From: 2010.06.25/outbox.cif.g09.slc.cpg/sg2_123_cif.got.tgz:245979.got - 2010.06.27 13:26:56.
