data_PCOD8013403
_publ_section_title
;
Structure prediction by ZEFSAII (Michael W. Deem and Ramdas Pophale) SiO2 
 PCOD8013403
Probable space group: P -1
;
_chemical_formula_sum "Si O2"
_cell_formula_units_Z 16
_cell_length_a 11.625785
_cell_length_b 10.102320
_cell_length_c 11.512384
_cell_angle_alpha 124.710290
_cell_angle_beta 48.699868
_cell_angle_gamma 93.935512
_cell_volume 724.384694
_symmetry_space_group_name_H-M "P -1"
_symmetry_group_IT_number 2
_symmetry_cell_setting 'triclinic'
loop_
_space_group_symop_operation_xyz
x,y,z
-x,-y,-z
loop_
_atom_site_type_symbol
_atom_site_label
_atom_site_fract_x
_atom_site_fract_y
_atom_site_fract_z
Si Si1 0.402833 0.547142 0.966266
Si Si2 0.196757 0.701238 0.668398
Si Si3 0.042011 0.851704 0.300597
Si Si4 0.480254 0.768615 0.430841
Si Si5 0.103236 0.951947 0.063335
Si Si6 0.400168 0.040463 0.919671
Si Si7 0.377060 0.313124 0.250394
Si Si8 0.326894 0.069273 0.503762
O O1 0.430397 0.357332 0.802331
O O2 0.479671 0.644653 0.880556
O O3 0.500000 0.500000 0.000000
O O4 0.190848 0.668441 0.173625
O O5 0.388702 0.682933 0.529513
O O6 0.222284 0.499668 0.511995
O O7 0.113638 0.783094 0.892331
O O8 0.081129 0.857154 0.728467
O O9 0.126958 0.890792 0.150298
O O10 0.867418 0.842768 0.378213
O O11 0.000000 0.000000 0.500000
O O12 0.630929 0.767667 0.411055
O O13 0.339955 0.967443 0.566833
O O14 0.248762 0.005648 0.949908
O O15 0.533471 0.851512 0.800808
O O16 0.519003 0.067557 0.756568
O O17 0.306496 0.228446 0.154372
#
# Coordination Sequence:
#
# PCOD8013403 Si02
#       8
#     2   2   2   2   2   2   2   2
#     4  11  23  42  66  97 129 177 223 273 336 402
#     4  10  22  42  66  99 130 175 220 278 326 400
#     4  12  25  41  66  97 133 174 218 276 330 398
#     4  10  21  40  67  96 131 175 219 271 334 393
#     4  11  23  42  67  96 132 173 226 267 336 395
#     4  11  22  41  64  97 128 173 215 269 330 396
#     4  10  23  39  65  92 129 167 220 269 332 393
#     4  11  23  41  66  96 134 173 218 273 333 391
#
# _framework density 22.087713999999998
#
# number of rings (size 3 to 8) (size 9 to 14) (size 15 to 20)
#    0.000    1.250    3.750    2.250    3.500    2.500 
#    0.000    2.500    0.000    0.000    0.000    0.000 
#    0.000    0.000    0.000    0.000    0.000    0.000 
#
# Total GULP energy -198249.456519 kJ/mol
# GULP energy per Si atom -12390.591032 kJ/mol
# Density = 2.203744 g / cm^3
# Si number density = 22.087714 Si / 1000 Ang^3
#
#
#
# Elastic Constant Matrix: (Units=GPa)
#
#
# Indices 1 2 3 4 5 6 
#
# 1 144.9890 17.8389 56.0906 12.9722 2.7861 -3.3313
# 2 17.8389 58.0159 24.7447 -0.5351 4.3350 -3.3469
# 3 56.0906 24.7447 125.3902 22.6476 21.7773 -0.5148
# 4 12.9722 -0.5351 22.6476 38.5814 9.2509 4.8428
# 5 2.7861 4.3350 21.7773 9.2509 48.4925 -2.3560
# 6 -3.3313 -3.3469 -0.5148 4.8428 -2.3560 29.4707
#
#
#
# Elastic Compliance Matrix: (Units=1/GPa)
#
#
# Indices 1 2 3 4 5 6 
#
# 1 0.008553 -0.001143 -0.003634 -0.001265 0.001538 0.001104
# 2 -0.001143 0.019318 -0.003714 0.002749 -0.000444 0.001513
# 3 -0.003634 -0.003714 0.011884 -0.004859 -0.003876 -0.000136
# 4 -0.001265 0.002749 -0.004859 0.030897 -0.004144 -0.005324
# 5 0.001538 -0.000444 -0.003876 -0.004144 0.023230 0.002594
# 6 0.001104 0.001513 -0.000136 -0.005324 0.002594 0.035308
#
#
# Mechanical properties :
#
#
# Convention : Reuss Voigt Hill
#
# Bulk Modulus (GPa) = 43.91317 58.41597 51.16457
# Shear Modulus (GPa) = 32.51741 38.62366 35.57054
#
# Velocity S-wave (km/s) = 3.84108 4.18622 4.01736
# Velocity P-wave (km/s) = 6.29256 7.06191 6.68831
#
# Compressibility (1/GPa) = 0.02277221
#
# Stress axis : x y z
#
# Youngs Moduli (GPa) = 116.92208 51.76524 84.14627
#
# Poissons Ratio (x) = 0.05915 0.30582
# Poissons Ratio (y) = 0.13359 0.31255
# Poissons Ratio (z) = 0.42494 0.19227
#
# Static dielectric constant tensor:
#      x y z
#    x 4.047910 0.233220 0.189560 
#    y 0.233220 3.755790 -0.037190 
#    z 0.189560 -0.037190 4.178660 
# 
# 
# High freq. dielectric constant tensor:
#      x y z
#    x 1.876030 -0.001160 0.016950 
#    y -0.001160 1.852990 -0.000550 
#    z 0.016950 -0.000550 1.868330 
# 
# From -- ./inp_files/419668.got.cif
#   From: 2010.06.25/outbox.cif.g09.slc.cpg/sg2_210_cif.got.tgz:419668.got - 2010.06.27 13:26:56.
