data_PCOD8013792
_publ_section_title
;
Structure prediction by ZEFSAII (Michael W. Deem and Ramdas Pophale) SiO2 
 PCOD8013792
Probable space group: P -1
;
_chemical_formula_sum "Si O2"
_cell_formula_units_Z 14
_cell_length_a 7.959342
_cell_length_b 9.102852
_cell_length_c 13.888534
_cell_angle_alpha 60.193261
_cell_angle_beta 80.159547
_cell_angle_gamma 43.655038
_cell_volume 572.040055
_symmetry_space_group_name_H-M "P -1"
_symmetry_group_IT_number 2
_symmetry_cell_setting 'triclinic'
loop_
_space_group_symop_operation_xyz
x,y,z
-x,-y,-z
loop_
_atom_site_type_symbol
_atom_site_label
_atom_site_fract_x
_atom_site_fract_y
_atom_site_fract_z
Si Si1 0.821852 0.563450 0.609571
Si Si2 0.509508 0.740694 0.154313
Si Si3 0.366856 0.486302 0.182967
Si Si4 0.912487 0.674707 0.041258
Si Si5 0.649569 0.259412 0.632779
Si Si6 0.724500 0.971482 0.555109
Si Si7 0.853668 0.933561 0.344824
O O1 0.728476 0.474811 0.711881
O O2 0.871916 0.681835 0.639564
O O3 0.587694 0.809182 0.486482
O O4 0.075084 0.318635 0.602965
O O5 0.462855 0.611179 0.131371
O O6 0.768754 0.650031 0.134181
O O7 0.535193 0.669677 0.287705
O O8 0.271485 0.041573 0.069289
O O9 0.605329 0.184519 0.231055
O O10 0.147164 0.601775 0.091120
O O11 0.000000 0.500000 0.000000
O O12 0.500000 0.500000 0.500000
O O13 0.787185 0.014143 0.634803
O O14 0.893366 0.165031 0.688941
O O15 0.822879 0.993689 0.442082
#
# Coordination Sequence:
#
# PCOD8013792 Si02
#       7
#     2   2   2   2   2   2   2
#     4  10  21  41  62 106 145 198 251 294 380 438
#     4  11  27  52  78 110 154 198 250 314 380 449
#     4  11  25  47  77 107 149 190 252 318 380 448
#     4  11  29  53  79 113 142 198 265 311 383 446
#     4  12  23  45  73 111 154 200 246 305 372 450
#     4  10  22  38  64 102 154 197 249 306 351 447
#     4  11  22  41  69 105 149 204 246 298 379 446
#
# _framework density 24.473808999999999
#
# number of rings (size 3 to 8) (size 9 to 14) (size 15 to 20)
#    0.000    1.143    2.857    2.143    4.000    4.000 
#    5.143    0.000    0.000    0.000    0.000    0.000 
#    0.000    0.000    0.000    0.000    0.000    0.000 
#
# Total GULP energy -173486.694887 kJ/mol
# GULP energy per Si atom -12391.906778 kJ/mol
# Density = 2.441811 g / cm^3
# Si number density = 24.473809 Si / 1000 Ang^3
#
#
#
# Elastic Constant Matrix: (Units=GPa)
#
#
# Indices 1 2 3 4 5 6 
#
# 1 97.6172 51.6722 42.8453 -8.5639 -3.0861 13.6110
# 2 51.6722 189.1664 55.0580 -14.4374 2.9186 20.9644
# 3 42.8453 55.0580 102.6004 -5.9347 -4.8420 -4.2415
# 4 -8.5639 -14.4374 -5.9347 39.3027 -4.2170 -6.1573
# 5 -3.0861 2.9186 -4.8420 -4.2170 34.5740 -3.2353
# 6 13.6110 20.9644 -4.2415 -6.1573 -3.2353 48.5547
#
#
#
# Elastic Compliance Matrix: (Units=1/GPa)
#
#
# Indices 1 2 3 4 5 6 
#
# 1 0.013985 -0.001970 -0.004827 0.001137 0.000568 -0.003309
# 2 -0.001970 0.007146 -0.003122 0.001151 -0.001333 -0.002749
# 3 -0.004827 -0.003122 0.013759 0.000770 0.002242 0.004150
# 4 0.001137 0.001151 0.000770 0.027086 0.003690 0.002932
# 5 0.000568 -0.001333 0.002242 0.003690 0.030140 0.003089
# 6 -0.003309 -0.002749 0.004150 0.002932 0.003089 0.023650
#
#
# Mechanical properties :
#
#
# Convention : Reuss Voigt Hill
#
# Bulk Modulus (GPa) = 66.43657 76.50389 71.47023
# Shear Modulus (GPa) = 35.55636 40.47350 38.01493
#
# Velocity S-wave (km/s) = 3.81574 4.07104 3.94546
# Velocity P-wave (km/s) = 6.82774 7.30925 7.07260
#
# Compressibility (1/GPa) = 0.01505195
#
# Stress axis : x y z
#
# Youngs Moduli (GPa) = 71.50644 139.93235 72.67719
#
# Poissons Ratio (x) = 0.27572 0.35080
# Poissons Ratio (y) = 0.14090 0.22690
# Poissons Ratio (z) = 0.34515 0.43688
#
# Static dielectric constant tensor:
#      x y z
#    x 4.693010 0.261260 -0.278910 
#    y 0.261260 5.663420 -0.297840 
#    z -0.278910 -0.297840 4.132060 
# 
# 
# High freq. dielectric constant tensor:
#      x y z
#    x 1.975820 0.003300 -0.014920 
#    y 0.003300 2.000380 -0.010980 
#    z -0.014920 -0.010980 1.945840 
# 
# From -- ./inp_files/494480.got.cif
#   From: 2010.06.25/outbox.cif.g09.slc.cpg/sg2_248_cif.got.tgz:494480.got - 2010.06.27 13:26:56.
