data_PCOD8013693
_publ_section_title
;
Structure prediction by ZEFSAII (Michael W. Deem and Ramdas Pophale) SiO2 
 PCOD8013693
Probable space group: P -1
;
_chemical_formula_sum "Si O2"
_cell_formula_units_Z 14
_cell_length_a 9.078600
_cell_length_b 7.963283
_cell_length_c 10.805725
_cell_angle_alpha 121.927903
_cell_angle_beta 65.708825
_cell_angle_gamma 84.720375
_cell_volume 553.820165
_symmetry_space_group_name_H-M "P -1"
_symmetry_group_IT_number 2
_symmetry_cell_setting 'triclinic'
loop_
_space_group_symop_operation_xyz
x,y,z
-x,-y,-z
loop_
_atom_site_type_symbol
_atom_site_label
_atom_site_fract_x
_atom_site_fract_y
_atom_site_fract_z
Si Si1 0.216204 0.421501 0.107282
Si Si2 0.672790 0.509594 0.497692
Si Si3 0.422182 0.148599 0.729163
Si Si4 0.674787 0.852647 0.809980
Si Si5 0.853602 0.451732 0.161531
Si Si6 0.265696 0.893533 0.544694
Si Si7 0.867406 0.162315 0.821607
O O1 0.205759 0.350763 0.223446
O O2 0.237146 0.648264 0.168983
O O3 0.048672 0.451424 0.088770
O O4 0.385942 0.226252 0.913460
O O5 0.500000 0.500000 0.500000
O O6 0.635027 0.748222 0.657902
O O7 0.821245 0.427514 0.308414
O O8 0.736896 0.340332 0.523208
O O9 0.300121 0.330521 0.746700
O O10 0.627001 0.098207 0.612810
O O11 0.371417 0.944774 0.643100
O O12 0.787547 0.984342 0.780983
O O13 0.500000 0.000000 0.000000
O O14 0.852681 0.252436 0.002295
O O15 0.067181 0.065323 0.666382
#
# Coordination Sequence:
#
# PCOD8013693 Si02
#       7
#     2   2   2   2   2   2   2
#     4  11  24  47  76 109 152 190 249 302 360 443
#     4  12  27  47  73 104 142 191 253 310 363 449
#     4  10  21  40  72 116 142 193 248 292 353 437
#     4  12  31  50  72 107 149 196 248 311 380 434
#     4  11  21  44  78 108 146 196 247 295 354 444
#     4  11  22  40  75 112 146 191 251 291 364 431
#     4  11  24  48  77 113 150 195 243 304 372 429
#
# _framework density 25.278964999999999
#
# number of rings (size 3 to 8) (size 9 to 14) (size 15 to 20)
#    0.000    0.857    4.286    2.571    6.000    4.000 
#    2.571    1.429    0.000    0.000    0.000    0.000 
#    0.000    0.000    0.000    0.000    0.000    0.000 
#
# Total GULP energy -173614.683976 kJ/mol
# GULP energy per Si atom -12401.048855 kJ/mol
# Density = 2.522143 g / cm^3
# Si number density = 25.278965 Si / 1000 Ang^3
#
#
#
# Elastic Constant Matrix: (Units=GPa)
#
#
# Indices 1 2 3 4 5 6 
#
# 1 90.1606 38.7492 59.8608 -3.7395 5.1434 19.5239
# 2 38.7492 130.1236 40.6795 0.3475 18.8169 24.7259
# 3 59.8608 40.6795 131.2323 13.0470 -12.2351 25.2010
# 4 -3.7395 0.3475 13.0470 32.9751 12.1469 6.1042
# 5 5.1434 18.8169 -12.2351 12.1469 42.6239 -3.2035
# 6 19.5239 24.7259 25.2010 6.1042 -3.2035 39.7038
#
#
#
# Elastic Compliance Matrix: (Units=1/GPa)
#
#
# Indices 1 2 3 4 5 6 
#
# 1 0.019741 -0.000764 -0.009466 0.009938 -0.008000 -0.005397
# 2 -0.000764 0.011099 -0.003153 0.004921 -0.007559 -0.005902
# 3 -0.009466 -0.003153 0.014960 -0.010472 0.009777 -0.000478
# 4 0.009938 0.004921 -0.010472 0.044662 -0.019840 -0.009772
# 5 -0.008000 -0.007559 0.009777 -0.019840 0.036859 0.008460
# 6 -0.005397 -0.005902 -0.000478 -0.009772 0.008460 0.034005
#
#
# Mechanical properties :
#
#
# Convention : Reuss Voigt Hill
#
# Bulk Modulus (GPa) = 52.53165 70.01060 61.27112
# Shear Modulus (GPa) = 25.71545 37.20900 31.46223
#
# Velocity S-wave (km/s) = 3.19292 3.84074 3.53172
# Velocity P-wave (km/s) = 5.86676 6.88649 6.39698
#
# Compressibility (1/GPa) = 0.01903614
#
# Stress axis : x y z
#
# Youngs Moduli (GPa) = 50.65490 90.09439 66.84698
#
# Poissons Ratio (x) = 0.06880 0.63275
# Poissons Ratio (y) = 0.03869 0.21076
# Poissons Ratio (z) = 0.47948 0.28405
#
# Static dielectric constant tensor:
#      x y z
#    x 4.393570 0.268310 -0.115760 
#    y 0.268310 5.290760 -0.021650 
#    z -0.115760 -0.021650 4.796500 
# 
# 
# High freq. dielectric constant tensor:
#      x y z
#    x 2.000330 0.003240 -0.007400 
#    y 0.003240 2.018330 0.004350 
#    z -0.007400 0.004350 2.016290 
# 
# From -- ./inp_files/377282.got.cif
#   From: 2010.06.25/outbox.cif.g09.slc.cpg/sg2_189_cif.got.tgz:377282.got - 2010.06.27 13:26:56.
