data_PCOD8013742
_publ_section_title
;
Structure prediction by ZEFSAII (Michael W. Deem and Ramdas Pophale) SiO2 
 PCOD8013742
Probable space group: P -1
;
_chemical_formula_sum "Si O2"
_cell_formula_units_Z 14
_cell_length_a 6.719465
_cell_length_b 18.236744
_cell_length_c 5.092890
_cell_angle_alpha 86.038991
_cell_angle_beta 74.119431
_cell_angle_gamma 99.983266
_cell_volume 586.691700
_symmetry_space_group_name_H-M "P -1"
_symmetry_group_IT_number 2
_symmetry_cell_setting 'triclinic'
loop_
_space_group_symop_operation_xyz
x,y,z
-x,-y,-z
loop_
_atom_site_type_symbol
_atom_site_label
_atom_site_fract_x
_atom_site_fract_y
_atom_site_fract_z
Si Si1 0.145530 0.643199 0.914652
Si Si2 0.821650 0.964606 0.372924
Si Si3 0.902129 0.661859 0.473677
Si Si4 0.743606 0.801981 0.376246
Si Si5 0.465123 0.784772 0.981365
Si Si6 0.483477 0.549505 0.743561
Si Si7 0.403038 0.938364 0.848939
O O1 0.300710 0.711237 0.981629
O O2 0.260556 0.575364 0.822079
O O3 0.053313 0.668023 0.670579
O O4 0.972282 0.615355 0.213167
O O5 0.868006 0.887533 0.247199
O O6 0.579405 0.938710 0.562530
O O7 0.813309 0.034684 0.164975
O O8 0.000000 0.000000 0.500000
O O9 0.905404 0.745137 0.336774
O O10 0.668599 0.622992 0.658759
O O11 0.654920 0.800047 0.703284
O O12 0.559482 0.773842 0.237269
O O13 0.346233 0.855414 0.014846
O O14 0.500000 0.500000 0.500000
O O15 0.500000 0.500000 0.000000
O O16 0.500000 0.000000 0.000000
#
# Coordination Sequence:
#
# PCOD8013742 Si02
#       7
#     2   2   2   2   2   2   2
#     4  12  27  46  76 109 141 192 233 293 356 422
#     4  10  23  39  63  93 137 179 239 292 349 404
#     4  12  27  46  75 110 146 183 248 281 351 436
#     4  11  23  44  68  99 141 191 232 297 349 419
#     4  11  23  43  71  94 144 187 237 292 359 411
#     4  12  28  50  79 107 149 185 226 295 359 422
#     4  10  21  41  60  92 132 183 232 292 346 407
#
# _framework density 23.862615000000002
#
# number of rings (size 3 to 8) (size 9 to 14) (size 15 to 20)
#    0.000    0.857    2.857    3.429    4.000    5.143 
#    0.000    0.000    0.000    0.000    0.000    0.000 
#    0.000    0.000    0.000    0.000    0.000    0.000 
#
# Total GULP energy -173560.981469 kJ/mol
# GULP energy per Si atom -12397.212962 kJ/mol
# Density = 2.380830 g / cm^3
# Si number density = 23.862615 Si / 1000 Ang^3
#
#
#
# Elastic Constant Matrix: (Units=GPa)
#
#
# Indices 1 2 3 4 5 6 
#
# 1 132.9779 57.5982 42.5661 -1.4061 39.7815 -30.5219
# 2 57.5982 121.0633 40.4033 8.4372 15.2167 -30.0886
# 3 42.5661 40.4033 117.2576 7.2928 23.3178 -19.3646
# 4 -1.4061 8.4372 7.2928 37.4714 1.6320 4.0229
# 5 39.7815 15.2167 23.3178 1.6320 54.5607 -3.0770
# 6 -30.5219 -30.0886 -19.3646 4.0229 -3.0770 41.4497
#
#
#
# Elastic Compliance Matrix: (Units=1/GPa)
#
#
# Indices 1 2 3 4 5 6 
#
# 1 0.013083 -0.003499 -0.001095 0.001200 -0.007799 0.005887
# 2 -0.003499 0.012128 -0.001848 -0.003130 0.000373 0.005696
# 3 -0.001095 -0.001848 0.010758 -0.001889 -0.003068 0.002834
# 4 0.001200 -0.003130 -0.001889 0.028361 -0.000327 -0.005049
# 5 -0.007799 0.000373 -0.003068 -0.000327 0.024948 -0.005021
# 6 0.005887 0.005696 0.002834 -0.005049 -0.005021 0.034036
#
#
# Mechanical properties :
#
#
# Convention : Reuss Voigt Hill
#
# Bulk Modulus (GPa) = 43.31747 72.49265 57.90506
# Shear Modulus (GPa) = 34.74760 42.07846 38.41303
#
# Velocity S-wave (km/s) = 3.82010 4.20380 4.01653
# Velocity P-wave (km/s) = 6.13594 7.34899 6.76969
#
# Compressibility (1/GPa) = 0.02308537
#
# Stress axis : x y z
#
# Youngs Moduli (GPa) = 76.43246 82.45047 92.95426
#
# Poissons Ratio (x) = 0.28853 0.10180
# Poissons Ratio (y) = 0.26747 0.17175
# Poissons Ratio (z) = 0.08370 0.15235
#
# Static dielectric constant tensor:
#      x y z
#    x 4.226310 -0.276280 -0.106210 
#    y -0.276280 4.581240 -0.030500 
#    z -0.106210 -0.030500 4.376330 
# 
# 
# High freq. dielectric constant tensor:
#      x y z
#    x 1.949420 -0.015580 0.006130 
#    y -0.015580 1.957850 0.004430 
#    z 0.006130 0.004430 1.951410 
# 
# From -- ./inp_files/7859.got.cif
#   From: 2010.06.25/outbox.cif.g09.slc.cpg/sg2_4_cif.got.tgz:7859.got - 2010.06.27 13:26:56.
