data_PCOD8013664
_publ_section_title
;
Structure prediction by ZEFSAII (Michael W. Deem and Ramdas Pophale) SiO2 
 PCOD8013664
Probable space group: P -1
;
_chemical_formula_sum "Si O2"
_cell_formula_units_Z 16
_cell_length_a 8.793381
_cell_length_b 15.085765
_cell_length_c 19.853784
_cell_angle_alpha 159.737799
_cell_angle_beta 53.526701
_cell_angle_gamma 126.484096
_cell_volume 726.966440
_symmetry_space_group_name_H-M "P -1"
_symmetry_group_IT_number 2
_symmetry_cell_setting 'triclinic'
loop_
_space_group_symop_operation_xyz
x,y,z
-x,-y,-z
loop_
_atom_site_type_symbol
_atom_site_label
_atom_site_fract_x
_atom_site_fract_y
_atom_site_fract_z
Si Si1 0.325626 0.268535 0.942237
Si Si2 0.089208 0.277755 0.781991
Si Si3 0.591249 0.764202 0.833829
Si Si4 0.862436 0.542071 0.505615
Si Si5 0.208633 0.009768 0.924721
Si Si6 0.175768 0.878626 0.586352
Si Si7 0.445175 0.313559 0.635116
Si Si8 0.276124 0.768511 0.238899
O O1 0.558044 0.295014 0.902222
O O2 0.243496 0.199822 0.988106
O O3 0.242638 0.049730 0.755479
O O4 0.248304 0.534415 0.132594
O O5 0.293217 0.414520 0.797675
O O6 0.926590 0.179032 0.700328
O O7 0.129917 0.046751 0.655041
O O8 0.000000 0.500000 0.000000
O O9 0.720104 0.713827 0.700441
O O10 0.459487 0.493877 0.692905
O O11 0.500000 0.000000 0.000000
O O12 0.668489 0.861760 0.955337
O O13 0.753179 0.277051 0.313435
O O14 0.000000 0.500000 0.500000
O O15 0.981084 0.694742 0.523386
O O16 0.000000 0.000000 0.000000
O O17 0.344420 0.703012 0.400313
O O18 0.348692 0.026217 0.442197
#
# Coordination Sequence:
#
# PCOD8013664 Si02
#       8
#     2   2   2   2   2   2   2   2
#     4  10  21  40  70  99 137 180 229 273 344 421
#     4  12  26  40  66 102 136 175 230 285 348 402
#     4  12  29  46  72 107 142 183 234 301 352 412
#     4  12  22  47  72 105 142 180 241 286 339 427
#     4  12  24  42  74 103 139 190 233 280 354 418
#     4  11  22  43  72  98 140 183 225 288 340 414
#     4  11  25  46  66  96 140 180 232 283 345 424
#     4  10  23  43  67  98 135 184 222 287 347 408
#
# _framework density 22.009270999999998
#
# number of rings (size 3 to 8) (size 9 to 14) (size 15 to 20)
#    0.000    0.750    5.000    1.500    3.500    4.500 
#    0.000    0.000    0.000    0.000    0.000    0.000 
#    0.000    0.000    0.000    0.000    0.000    0.000 
#
# Total GULP energy -198279.749141 kJ/mol
# GULP energy per Si atom -12392.484321 kJ/mol
# Density = 2.195918 g / cm^3
# Si number density = 22.009271 Si / 1000 Ang^3
#
#
#
# Elastic Constant Matrix: (Units=GPa)
#
#
# Indices 1 2 3 4 5 6 
#
# 1 78.2486 61.8062 29.7725 -6.1812 -17.8536 -12.4594
# 2 61.8062 183.3763 47.1755 2.2588 -31.0066 5.6882
# 3 29.7725 47.1755 114.5648 -6.7783 -15.4449 2.2267
# 4 -6.1812 2.2588 -6.7783 42.5087 -0.2479 -6.7150
# 5 -17.8536 -31.0066 -15.4449 -0.2479 48.9810 3.3201
# 6 -12.4594 5.6882 2.2267 -6.7150 3.3201 23.8204
#
#
#
# Elastic Compliance Matrix: (Units=1/GPa)
#
#
# Indices 1 2 3 4 5 6 
#
# 1 0.022809 -0.007227 -0.002655 0.005697 0.001897 0.015246
# 2 -0.007227 0.009041 -0.001460 -0.002858 0.003091 -0.007039
# 3 -0.002655 -0.001460 0.010321 0.001043 0.001498 -0.001920
# 4 0.005697 -0.002858 0.001043 0.026411 -0.000017 0.011012
# 5 0.001897 0.003091 0.001498 -0.000017 0.023754 -0.003201
# 6 0.015246 -0.007039 -0.001920 0.011012 -0.003201 0.055366
#
#
# Mechanical properties :
#
#
# Convention : Reuss Voigt Hill
#
# Bulk Modulus (GPa) = 51.31859 72.63309 61.97584
# Shear Modulus (GPa) = 28.26764 38.89105 33.57935
#
# Velocity S-wave (km/s) = 3.58767 4.20817 3.91025
# Velocity P-wave (km/s) = 6.36626 7.52890 6.97186
#
# Compressibility (1/GPa) = 0.01948611
#
# Stress axis : x y z
#
# Youngs Moduli (GPa) = 43.84300 110.60764 96.89062
#
# Poissons Ratio (x) = 0.79934 0.25725
# Poissons Ratio (y) = 0.31685 0.14150
# Poissons Ratio (z) = 0.11640 0.16153
#
# Static dielectric constant tensor:
#      x y z
#    x 2.363280 0.354690 0.510550 
#    y 0.354690 4.257540 0.116350 
#    z 0.510550 0.116350 4.189660 
# 
# 
# High freq. dielectric constant tensor:
#      x y z
#    x 1.847710 0.004540 0.000510 
#    y 0.004540 1.881350 0.001850 
#    z 0.000510 0.001850 1.886090 
# 
# From -- ./inp_files/307214.got.cif
#   From: 2010.06.25/outbox.cif.g09.slc.cpg/sg2_154_cif.got.tgz:307214.got - 2010.06.27 13:26:56.
