data_PCOD8013116
_publ_section_title
;
Structure prediction by ZEFSAII (Michael W. Deem and Ramdas Pophale) SiO2 
 PCOD8013116
Probable space group: P -1
;
_chemical_formula_sum "Si O2"
_cell_formula_units_Z 12
_cell_length_a 20.203111
_cell_length_b 8.503717
_cell_length_c 8.499256
_cell_angle_alpha 34.214814
_cell_angle_beta 37.313735
_cell_angle_gamma 44.118192
_cell_volume 489.878840
_symmetry_space_group_name_H-M "P -1"
_symmetry_group_IT_number 2
_symmetry_cell_setting 'triclinic'
loop_
_space_group_symop_operation_xyz
x,y,z
-x,-y,-z
loop_
_atom_site_type_symbol
_atom_site_label
_atom_site_fract_x
_atom_site_fract_y
_atom_site_fract_z
Si Si1 0.868543 0.186762 0.709014
Si Si2 0.145721 0.413580 0.878647
Si Si3 0.512476 0.872028 0.911167
Si Si4 0.649667 0.301362 0.217489
Si Si5 0.052278 0.943951 0.777891
Si Si6 0.705873 0.275909 0.493107
O O1 0.850193 0.466578 0.406052
O O2 0.769729 0.177267 0.025575
O O3 0.981985 0.172784 0.604764
O O4 0.875993 0.907841 0.813245
O O5 0.046941 0.625082 0.984660
O O6 0.261823 0.440053 0.724148
O O7 0.563231 0.087037 0.524217
O O8 0.602244 0.585804 0.979840
O O9 0.389689 0.820250 0.137147
O O10 0.500000 0.000000 0.000000
O O11 0.659729 0.355402 0.340211
O O12 0.183368 0.973887 0.511586
O O13 0.000000 0.000000 0.000000
#
# Coordination Sequence:
#
# PCOD8013116 Si02
#       6
#     2   2   2   2   2   2
#     4  12  22  45  60 101 125 170 199 258 323 367
#     4  10  25  39  67  89 136 162 205 253 322 374
#     4  10  21  40  65  94 124 165 210 265 307 357
#     4  11  22  40  68  92 127 163 214 259 305 373
#     4  10  21  44  68  94 126 162 216 261 303 381
#     4   9  21  41  63  95 121 167 213 257 309 364
#
# _framework density 24.495850999999998
#
# number of rings (size 3 to 8) (size 9 to 14) (size 15 to 20)
#    1.000    0.667    1.667    4.000    0.000    4.000 
#    0.000    8.333    0.000    0.000    0.000    0.000 
#    0.000    0.000    0.000    0.000    0.000    0.000 
#
# Total GULP energy -148699.465053 kJ/mol
# GULP energy per Si atom -12391.622088 kJ/mol
# Density = 2.444010 g / cm^3
# Si number density = 24.495851 Si / 1000 Ang^3
#
#
#
# Elastic Constant Matrix: (Units=GPa)
#
#
# Indices 1 2 3 4 5 6 
#
# 1 94.7333 12.5858 23.2093 14.6603 -9.9343 -13.4970
# 2 12.5858 83.6042 19.4968 6.4318 3.2217 -19.7292
# 3 23.2093 19.4968 78.7368 -2.6627 -5.1821 -3.0945
# 4 14.6603 6.4318 -2.6627 32.1916 -4.4218 -7.9554
# 5 -9.9343 3.2217 -5.1821 -4.4218 17.6425 15.2829
# 6 -13.4970 -19.7292 -3.0945 -7.9554 15.2829 31.7463
#
#
#
# Elastic Compliance Matrix: (Units=1/GPa)
#
#
# Indices 1 2 3 4 5 6 
#
# 1 0.012914 -0.000317 -0.003613 -0.005158 0.003114 0.002149
# 2 -0.000317 0.020458 -0.005888 -0.002102 -0.027641 0.024785
# 3 -0.003613 -0.005888 0.015801 0.003673 0.011959 -0.008492
# 4 -0.005158 -0.002102 0.003673 0.035646 0.004246 0.003748
# 5 0.003114 -0.027641 0.011959 0.004246 0.136988 -0.079571
# 6 0.002149 0.024785 -0.008492 0.003748 -0.079571 0.086234
#
#
# Mechanical properties :
#
#
# Convention : Reuss Voigt Hill
#
# Bulk Modulus (GPa) = 33.85784 40.85090 37.35437
# Shear Modulus (GPa) = 14.81376 29.76823 22.29100
#
# Velocity S-wave (km/s) = 2.46183 3.48980 3.01988
# Velocity P-wave (km/s) = 4.68323 5.74031 5.23850
#
# Compressibility (1/GPa) = 0.02953526
#
# Stress axis : x y z
#
# Youngs Moduli (GPa) = 77.43355 48.88138 63.28635
#
# Poissons Ratio (x) = 0.01552 0.22866
# Poissons Ratio (y) = 0.02458 0.37265
# Poissons Ratio (z) = 0.27978 0.28783
#
# Static dielectric constant tensor:
#      x y z
#    x 4.569470 -0.327080 -0.493150 
#    y -0.327080 4.880510 0.623630 
#    z -0.493150 0.623630 4.745350 
# 
# 
# High freq. dielectric constant tensor:
#      x y z
#    x 1.967840 -0.014190 -0.011210 
#    y -0.014190 1.966200 0.014230 
#    z -0.011210 0.014230 1.970120 
# 
# From -- ./inp_files/30269.got.cif
#   From: 2010.06.25/outbox.cif.g09.slc.cpg/sg2_16_cif.got.tgz:30269.got - 2010.06.27 13:26:56.
