data_PCOD8013355
_publ_section_title
;
Structure prediction by ZEFSAII (Michael W. Deem and Ramdas Pophale) SiO2 
 PCOD8013355
Probable space group: P -1
;
_chemical_formula_sum "Si O2"
_cell_formula_units_Z 16
_cell_length_a 9.495424
_cell_length_b 8.895293
_cell_length_c 16.014735
_cell_angle_alpha 72.825991
_cell_angle_beta 128.989764
_cell_angle_gamma 71.860624
_cell_volume 746.230645
_symmetry_space_group_name_H-M "P -1"
_symmetry_group_IT_number 2
_symmetry_cell_setting 'triclinic'
loop_
_space_group_symop_operation_xyz
x,y,z
-x,-y,-z
loop_
_atom_site_type_symbol
_atom_site_label
_atom_site_fract_x
_atom_site_fract_y
_atom_site_fract_z
Si Si1 0.329002 0.224246 0.708148
Si Si2 0.465844 0.633508 0.717654
Si Si3 0.957777 0.342040 0.410808
Si Si4 0.235714 0.820594 0.169923
Si Si5 0.018273 0.032489 0.221651
Si Si6 0.670440 0.499991 0.002294
Si Si7 0.320859 0.985651 0.484068
Si Si8 0.450135 0.901088 0.927936
O O1 0.233264 0.402666 0.714775
O O2 0.576098 0.148133 0.775737
O O3 0.143652 0.303053 0.552475
O O4 0.374806 0.028985 0.794600
O O5 0.192440 0.720735 0.600436
O O6 0.655193 0.411661 0.776084
O O7 0.455314 0.808671 0.637217
O O8 0.549982 0.600168 0.850353
O O9 0.099554 0.218826 0.399596
O O10 0.169147 0.856322 0.236078
O O11 0.000000 0.000000 0.000000
O O12 0.932671 0.261738 0.128999
O O13 0.773484 0.077676 0.134111
O O14 0.198049 0.932025 0.384298
O O15 0.500000 0.500000 0.000000
O O16 0.687930 0.658042 0.031355
O O17 0.500000 0.000000 0.500000
O O18 0.500000 0.000000 0.000000
#
# Coordination Sequence:
#
# PCOD8013355 Si02
#       8
#     2   2   2   2   2   2   2   2
#     4  10  22  38  62  96 128 172 223 280 327 410
#     4  11  23  43  73  95 133 187 226 280 346 407
#     4  10  21  40  67  91 130 174 225 276 342 398
#     4  11  22  42  66  96 137 179 227 276 349 403
#     4  11  24  43  66  94 139 179 220 287 338 403
#     4  10  22  41  67  99 131 174 229 278 336 402
#     4  12  26  43  66 101 140 179 231 284 341 411
#     4  11  23  37  65  97 131 167 225 273 334 397
#
# _framework density 21.441092000000001
#
# number of rings (size 3 to 8) (size 9 to 14) (size 15 to 20)
#    0.000    1.250    1.250    4.875    7.000    1.500 
#    2.250    1.250    0.000    0.000    0.000    0.000 
#    0.000    0.000    0.000    0.000    0.000    0.000 
#
# Total GULP energy -198312.741790 kJ/mol
# GULP energy per Si atom -12394.546362 kJ/mol
# Density = 2.139229 g / cm^3
# Si number density = 21.441092 Si / 1000 Ang^3
#
#
#
# Elastic Constant Matrix: (Units=GPa)
#
#
# Indices 1 2 3 4 5 6 
#
# 1 110.5604 59.5804 37.0180 -10.1210 -2.2652 -13.0889
# 2 59.5804 160.1900 41.2097 1.7719 3.3651 -30.5249
# 3 37.0180 41.2097 96.2247 8.1468 0.0758 -12.7181
# 4 -10.1210 1.7719 8.1468 40.5172 -0.8811 -2.5809
# 5 -2.2652 3.3651 0.0758 -0.8811 39.2025 -4.1692
# 6 -13.0889 -30.5249 -12.7181 -2.5809 -4.1692 48.7431
#
#
#
# Elastic Compliance Matrix: (Units=1/GPa)
#
#
# Indices 1 2 3 4 5 6 
#
# 1 0.012745 -0.003814 -0.003564 0.004120 0.001209 0.000426
# 2 -0.003814 0.008894 -0.001749 -0.000747 -0.000572 0.004001
# 3 -0.003564 -0.001749 0.012947 -0.003345 -0.000034 0.001146
# 4 0.004120 -0.000747 -0.003345 0.026518 0.001039 0.001259
# 5 0.001209 -0.000572 -0.000034 0.001039 0.025888 0.002227
# 6 0.000426 0.004001 0.001146 0.001259 0.002227 0.023692
#
#
# Mechanical properties :
#
#
# Convention : Reuss Voigt Hill
#
# Bulk Modulus (GPa) = 61.22395 71.39904 66.31149
# Shear Modulus (GPa) = 37.20778 40.97039 39.08909
#
# Velocity S-wave (km/s) = 4.17027 4.37605 4.27440
# Velocity P-wave (km/s) = 7.19755 7.67499 7.44010
#
# Compressibility (1/GPa) = 0.01633348
#
# Stress axis : x y z
#
# Youngs Moduli (GPa) = 78.45925 112.44065 77.23787
#
# Poissons Ratio (x) = 0.42880 0.27524
# Poissons Ratio (y) = 0.29921 0.13511
# Poissons Ratio (z) = 0.27959 0.19669
#
# Static dielectric constant tensor:
#      x y z
#    x 3.820250 -0.112850 -0.072630 
#    y -0.112850 3.903980 -0.025340 
#    z -0.072630 -0.025340 3.826440 
# 
# 
# High freq. dielectric constant tensor:
#      x y z
#    x 1.828910 -0.007850 -0.003740 
#    y -0.007850 1.866930 0.000110 
#    z -0.003740 0.000110 1.840630 
# 
# From -- ./inp_files/180214.got.cif
#   From: 2010.06.25/outbox.cif.g09.slc.cpg/sg2_91_cif.got.tgz:180214.got - 2010.06.27 13:26:56.
