data_PCOD8013265
_publ_section_title
;
Structure prediction by ZEFSAII (Michael W. Deem and Ramdas Pophale) SiO2 
 PCOD8013265
Probable space group: P -1
;
_chemical_formula_sum "Si O2"
_cell_formula_units_Z 16
_cell_length_a 12.257548
_cell_length_b 14.712789
_cell_length_c 9.715693
_cell_angle_alpha 72.574150
_cell_angle_beta 62.294086
_cell_angle_gamma 28.468859
_cell_volume 714.255338
_symmetry_space_group_name_H-M "P -1"
_symmetry_group_IT_number 2
_symmetry_cell_setting 'triclinic'
loop_
_space_group_symop_operation_xyz
x,y,z
-x,-y,-z
loop_
_atom_site_type_symbol
_atom_site_label
_atom_site_fract_x
_atom_site_fract_y
_atom_site_fract_z
Si Si1 0.477069 0.461359 0.173069
Si Si2 0.614606 0.989196 0.320162
Si Si3 0.480220 0.260805 0.140872
Si Si4 0.280120 0.406123 0.887897
Si Si5 0.958892 0.884560 0.340714
Si Si6 0.995469 0.928183 0.846441
Si Si7 0.279738 0.187179 0.943495
Si Si8 0.789839 0.064331 0.627368
O O1 0.413482 0.393291 0.219514
O O2 0.251464 0.659857 0.305609
O O3 0.741489 0.301918 0.168311
O O4 0.500000 0.500000 0.000000
O O5 0.416626 0.205132 0.284151
O O6 0.500000 0.000000 0.500000
O O7 0.699002 0.870848 0.193815
O O8 0.858001 0.877994 0.291849
O O9 0.320825 0.377786 0.041210
O O10 0.786394 0.055624 0.029892
O O11 0.299726 0.286336 0.871401
O O12 0.511500 0.300561 0.715898
O O13 0.007612 0.639966 0.908486
O O14 0.948712 0.997929 0.237129
O O15 0.789315 0.991744 0.531965
O O16 0.881706 0.952913 0.766095
O O17 0.500000 0.000000 0.000000
O O18 0.000000 0.000000 0.500000
#
# Coordination Sequence:
#
# PCOD8013265 Si02
#       8
#     2   2   2   2   2   2   2   2
#     4  12  22  36  67  99 132 177 226 277 344 403
#     4  12  25  43  70  95 143 181 224 294 351 402
#     4  11  21  42  66 101 134 180 229 280 343 414
#     4  10  22  43  73  96 135 179 236 287 337 414
#     4  11  22  42  64  96 138 176 227 282 346 410
#     4  10  21  40  66  94 133 177 225 287 330 412
#     4  11  23  45  72 104 128 181 242 288 335 409
#     4   9  21  42  65  96 138 179 220 282 350 407
#
# _framework density 22.400953999999999
#
# number of rings (size 3 to 8) (size 9 to 14) (size 15 to 20)
#    0.000    1.250    3.750    2.625    0.000    0.500 
#    0.000    7.500    0.000    0.000    0.000    0.000 
#    0.000    0.000    0.000    0.000    0.000    0.000 
#
# Total GULP energy -198309.989451 kJ/mol
# GULP energy per Si atom -12394.374341 kJ/mol
# Density = 2.234997 g / cm^3
# Si number density = 22.400954 Si / 1000 Ang^3
#
#
#
# Elastic Constant Matrix: (Units=GPa)
#
#
# Indices 1 2 3 4 5 6 
#
# 1 83.9861 22.6435 32.6791 -1.9713 12.5241 -11.0713
# 2 22.6435 159.9495 61.9896 13.8952 -0.2189 -27.7689
# 3 32.6791 61.9896 122.7822 10.3323 4.8336 -5.3897
# 4 -1.9713 13.8952 10.3323 25.9841 -0.8449 -7.3338
# 5 12.5241 -0.2189 4.8336 -0.8449 42.5097 -2.7849
# 6 -11.0713 -27.7689 -5.3897 -7.3338 -2.7849 37.6330
#
#
#
# Elastic Compliance Matrix: (Units=1/GPa)
#
#
# Indices 1 2 3 4 5 6 
#
# 1 0.014582 -0.000235 -0.003762 0.003756 -0.003530 0.004049
# 2 -0.000235 0.009030 -0.004151 -0.001537 0.000935 0.005769
# 3 -0.003762 -0.004151 0.011416 -0.003542 -0.000495 -0.003262
# 4 0.003756 -0.001537 -0.003542 0.043264 0.000669 0.007944
# 5 -0.003530 0.000935 -0.000495 0.000669 0.024739 0.001542
# 6 0.004049 0.005769 -0.003262 0.007944 0.001542 0.033216
#
#
# Mechanical properties :
#
#
# Convention : Reuss Voigt Hill
#
# Bulk Modulus (GPa) = 53.38106 66.81580 60.09843
# Shear Modulus (GPa) = 31.48873 37.85241 34.67057
#
# Velocity S-wave (km/s) = 3.75332 4.11514 3.93838
# Velocity P-wave (km/s) = 6.53182 7.24369 6.89695
#
# Compressibility (1/GPa) = 0.01873324
#
# Stress axis : x y z
#
# Youngs Moduli (GPa) = 68.57774 110.73714 87.59741
#
# Poissons Ratio (x) = 0.02597 0.32954
# Poissons Ratio (y) = 0.01608 0.36361
# Poissons Ratio (z) = 0.25799 0.45967
#
# Static dielectric constant tensor:
#      x y z
#    x 4.428760 -0.065390 0.297040 
#    y -0.065390 4.333770 0.208240 
#    z 0.297040 0.208240 4.489240 
# 
# 
# High freq. dielectric constant tensor:
#      x y z
#    x 1.894690 -0.007670 0.014030 
#    y -0.007670 1.877760 0.005240 
#    z 0.014030 0.005240 1.870270 
# 
# From -- ./inp_files/272843.got.cif
#   From: 2010.06.25/outbox.cif.g09.slc.cpg/sg2_137_cif.got.tgz:272843.got - 2010.06.27 13:26:56.
