data_PCOD8013017
_publ_section_title
;
Structure prediction by ZEFSAII (Michael W. Deem and Ramdas Pophale) SiO2 
 PCOD8013017
Probable space group: P -1
;
_chemical_formula_sum "Si O2"
_cell_formula_units_Z 14
_cell_length_a 19.910292
_cell_length_b 14.670497
_cell_length_c 6.685504
_cell_angle_alpha 87.849108
_cell_angle_beta 92.983993
_cell_angle_gamma 163.677220
_cell_volume 547.547956
_symmetry_space_group_name_H-M "P -1"
_symmetry_group_IT_number 2
_symmetry_cell_setting 'triclinic'
loop_
_space_group_symop_operation_xyz
x,y,z
-x,-y,-z
loop_
_atom_site_type_symbol
_atom_site_label
_atom_site_fract_x
_atom_site_fract_y
_atom_site_fract_z
Si Si1 0.346402 0.424870 0.541538
Si Si2 0.647327 0.894952 0.205670
Si Si3 0.317127 0.201121 0.112037
Si Si4 0.256671 0.792345 0.975711
Si Si5 0.087881 0.537582 0.367888
Si Si6 0.057231 0.209575 0.657627
Si Si7 0.645127 0.227110 0.315902
O O1 0.420160 0.560978 0.322621
O O2 0.577016 0.682424 0.661561
O O3 0.247766 0.374955 0.680634
O O4 0.143711 0.083085 0.511669
O O5 0.719229 0.935870 0.012441
O O6 0.879828 0.189875 0.364123
O O7 0.595235 0.931959 0.125276
O O8 0.500000 0.500000 0.000000
O O9 0.070603 0.936040 0.135805
O O10 0.041979 0.525906 0.136128
O O11 0.409013 0.952495 0.181742
O O12 0.210999 0.648260 0.831914
O O13 0.340402 0.823206 0.473958
O O14 0.000000 0.500000 0.500000
O O15 0.199541 0.486399 0.602097
#
# Coordination Sequence:
#
# PCOD8013017 Si02
#       7
#     2   2   2   2   2   2   2
#     4  11  26  48  70 104 146 185 231 301 355 414
#     4  11  23  42  72 104 136 185 238 285 357 426
#     4  12  26  45  73 107 139 188 241 283 356 429
#     4  10  21  40  65 100 129 176 235 273 346 419
#     4  11  23  40  71  98 138 186 230 293 350 414
#     4  11  25  47  72 104 145 184 239 292 353 420
#     4  12  25  43  67 103 141 183 235 289 358 419
#
# _framework density 25.568538
#
# number of rings (size 3 to 8) (size 9 to 14) (size 15 to 20)
#    0.000    0.857    4.286    3.857    4.000    1.143 
#    0.000    1.429    0.000    0.000    0.000    0.000 
#    0.000    0.000    0.000    0.000    0.000    0.000 
#
# Total GULP energy -173434.142693 kJ/mol
# GULP energy per Si atom -12388.153049 kJ/mol
# Density = 2.551034 g / cm^3
# Si number density = 25.568538 Si / 1000 Ang^3
#
#
#
# Elastic Constant Matrix: (Units=GPa)
#
#
# Indices 1 2 3 4 5 6 
#
# 1 137.9208 43.7255 65.2528 0.1553 -15.6776 -5.8196
# 2 43.7255 94.3333 51.2721 8.2552 6.3540 -8.6211
# 3 65.2528 51.2721 142.0537 -3.3522 2.2229 -5.5463
# 4 0.1553 8.2552 -3.3522 46.6204 -3.2958 -8.7914
# 5 -15.6776 6.3540 2.2229 -3.2958 50.3441 9.1569
# 6 -5.8196 -8.6211 -5.5463 -8.7914 9.1569 50.4947
#
#
#
# Elastic Compliance Matrix: (Units=1/GPa)
#
#
# Indices 1 2 3 4 5 6 
#
# 1 0.010440 -0.003154 -0.003722 0.000462 0.003912 -0.000373
# 2 -0.003154 0.014765 -0.003824 -0.002758 -0.003191 0.001836
# 3 -0.003722 -0.003824 0.010200 0.001436 -0.001122 0.000492
# 4 0.000462 -0.002758 0.001436 0.022786 0.001289 0.003474
# 5 0.003912 -0.003191 -0.001122 0.001289 0.022354 -0.004047
# 6 -0.000373 0.001836 0.000492 0.003474 -0.004047 0.021467
#
#
# Mechanical properties :
#
#
# Convention : Reuss Voigt Hill
#
# Bulk Modulus (GPa) = 71.40224 77.20098 74.30161
# Shear Modulus (GPa) = 39.03778 43.76233 41.40005
#
# Velocity S-wave (km/s) = 3.91165 4.14160 4.02827
# Velocity P-wave (km/s) = 6.95614 7.28902 7.12452
#
# Compressibility (1/GPa) = 0.01400516
#
# Stress axis : x y z
#
# Youngs Moduli (GPa) = 95.78715 67.72678 98.03774
#
# Poissons Ratio (x) = 0.21362 0.36490
# Poissons Ratio (y) = 0.30212 0.37489
# Poissons Ratio (z) = 0.35652 0.25898
#
# Static dielectric constant tensor:
#      x y z
#    x 5.147070 0.357530 0.080190 
#    y 0.357530 4.800250 0.485420 
#    z 0.080190 0.485420 5.826270 
# 
# 
# High freq. dielectric constant tensor:
#      x y z
#    x 2.046080 0.019490 -0.001970 
#    y 0.019490 2.034930 0.001080 
#    z -0.001970 0.001080 2.052940 
# 
# From -- ./inp_files/119441.got.cif
#   From: 2010.06.25/outbox.cif.g09.slc.cpg/sg2_60_cif.got.tgz:119441.got - 2010.06.27 13:26:56.
