data_PCOD8013035
_publ_section_title
;
Structure prediction by ZEFSAII (Michael W. Deem and Ramdas Pophale) SiO2 
 PCOD8013035
Probable space group: P -1
;
_chemical_formula_sum "Si O2"
_cell_formula_units_Z 16
_cell_length_a 19.818101
_cell_length_b 5.433492
_cell_length_c 22.188755
_cell_angle_alpha 65.058158
_cell_angle_beta 22.161798
_cell_angle_gamma 75.547168
_cell_volume 744.619774
_symmetry_space_group_name_H-M "P -1"
_symmetry_group_IT_number 2
_symmetry_cell_setting 'triclinic'
loop_
_space_group_symop_operation_xyz
x,y,z
-x,-y,-z
loop_
_atom_site_type_symbol
_atom_site_label
_atom_site_fract_x
_atom_site_fract_y
_atom_site_fract_z
Si Si1 0.550394 0.553662 0.259018
Si Si2 0.685582 0.097662 0.456914
Si Si3 0.567538 0.463507 0.123120
Si Si4 0.717521 0.867607 0.201428
Si Si5 0.157693 0.442544 0.215894
Si Si6 0.661590 0.990994 0.912079
Si Si7 0.739023 0.148051 0.542617
Si Si8 0.054082 0.437029 0.896037
O O1 0.640951 0.485619 0.129651
O O2 0.725358 0.733513 0.142332
O O3 0.429344 0.738319 0.318872
O O4 0.402090 0.254603 0.446198
O O5 0.507267 0.200373 0.592212
O O6 0.795480 0.172187 0.422705
O O7 0.841706 0.260737 0.259015
O O8 0.556277 0.769185 0.077966
O O9 0.350750 0.196053 0.325937
O O10 0.721814 0.394525 0.960713
O O11 0.795229 0.720419 0.205224
O O12 0.855401 0.220218 0.048847
O O13 0.927443 0.337989 0.406551
O O14 0.203887 0.149468 0.220240
O O15 0.214774 0.674394 0.200231
O O16 0.500000 0.000000 0.000000
O O17 0.000000 0.500000 0.000000
#
# Coordination Sequence:
#
# PCOD8013035 Si02
#       8
#     2   2   2   2   2   2   2   2
#     4  10  21  40  65  87 128 161 211 265 327 381
#     4  10  23  40  59  87 121 164 202 267 324 382
#     4   9  22  39  66  92 130 165 209 269 318 386
#     4  10  23  41  60  85 120 160 206 264 325 390
#     4  10  23  40  68  95 132 172 218 265 319 379
#     4  10  22  43  68  97 134 176 215 264 319 381
#     4  10  22  40  61  95 125 165 216 265 322 383
#     4  11  24  40  60  87 119 159 216 260 323 391
#
# _framework density 21.487476999999998
#
# number of rings (size 3 to 8) (size 9 to 14) (size 15 to 20)
#    0.750    1.250    0.000    2.250    3.500   11.000 
#    0.000    2.500    0.000    0.000    0.000    0.000 
#    0.000    0.000    0.000    0.000    0.000    0.000 
#
# Total GULP energy -198329.771320 kJ/mol
# GULP energy per Si atom -12395.610707 kJ/mol
# Density = 2.143857 g / cm^3
# Si number density = 21.487477 Si / 1000 Ang^3
#
#
#
# Elastic Constant Matrix: (Units=GPa)
#
#
# Indices 1 2 3 4 5 6 
#
# 1 62.1049 22.1709 24.8696 -21.6194 -21.8827 13.7333
# 2 22.1709 97.6643 8.2464 -21.0655 -9.3096 18.3446
# 3 24.8696 8.2464 59.2688 -21.4023 -10.1929 9.1721
# 4 -21.6194 -21.0655 -21.4023 29.7057 3.7146 -7.6611
# 5 -21.8827 -9.3096 -10.1929 3.7146 37.1818 -8.8337
# 6 13.7333 18.3446 9.1721 -7.6611 -8.8337 39.0818
#
#
#
# Elastic Compliance Matrix: (Units=1/GPa)
#
#
# Indices 1 2 3 4 5 6 
#
# 1 0.028460 -0.001175 -0.003712 0.014855 0.013323 -0.002655
# 2 -0.001175 0.013226 0.002951 0.009352 0.001468 -0.004323
# 3 -0.003712 0.002951 0.024779 0.016332 0.003250 -0.001960
# 4 0.014855 0.009352 0.016332 0.061896 0.009581 0.000856
# 5 0.013323 0.001468 0.003250 0.009581 0.035957 0.003872
# 6 -0.002655 -0.004323 -0.001960 0.000856 0.003872 0.030052
#
#
# Mechanical properties :
#
#
# Convention : Reuss Voigt Hill
#
# Bulk Modulus (GPa) = 15.97620 36.62354 26.29987
# Shear Modulus (GPa) = 22.81990 32.11061 27.46526
#
# Velocity S-wave (km/s) = 3.26238 3.86992 3.57907
# Velocity P-wave (km/s) = 4.65211 6.08683 5.41718
#
# Compressibility (1/GPa) = 0.06259310
#
# Stress axis : x y z
#
# Youngs Moduli (GPa) = 35.13652 75.61088 40.35651
#
# Poissons Ratio (x) = 0.08882 0.14982
# Poissons Ratio (y) = 0.04127 -0.11910
# Poissons Ratio (z) = 0.13044 -0.22313
#
# Static dielectric constant tensor:
#      x y z
#    x 3.781810 0.052720 -0.115030 
#    y 0.052720 4.032630 -0.146390 
#    z -0.115030 -0.146390 3.568730 
# 
# 
# High freq. dielectric constant tensor:
#      x y z
#    x 1.831840 0.004960 -0.010040 
#    y 0.004960 1.853510 -0.009860 
#    z -0.010040 -0.009860 1.823090 
# 
# From -- ./inp_files/613393.got.cif
#   From: 2010.06.25/outbox.cif.g09.slc.cpg/sg2_307_cif.got.tgz:613393.got - 2010.06.27 13:26:56.
