data_PCOD8013129
_publ_section_title
;
Structure prediction by ZEFSAII (Michael W. Deem and Ramdas Pophale) SiO2 
 PCOD8013129
Probable space group: P -1
;
_chemical_formula_sum "Si O2"
_cell_formula_units_Z 16
_cell_length_a 12.618439
_cell_length_b 19.545299
_cell_length_c 8.700071
_cell_angle_alpha 127.371713
_cell_angle_beta 80.023491
_cell_angle_gamma 144.088685
_cell_volume 730.535560
_symmetry_space_group_name_H-M "P -1"
_symmetry_group_IT_number 2
_symmetry_cell_setting 'triclinic'
loop_
_space_group_symop_operation_xyz
x,y,z
-x,-y,-z
loop_
_atom_site_type_symbol
_atom_site_label
_atom_site_fract_x
_atom_site_fract_y
_atom_site_fract_z
Si Si1 0.637218 0.881296 0.257879
Si Si2 0.729502 0.123565 0.697105
Si Si3 0.576741 0.426274 0.596958
Si Si4 0.491860 0.799375 0.846802
Si Si5 0.272582 0.497562 0.002065
Si Si6 0.751966 0.210969 0.152533
Si Si7 0.159601 0.258278 0.534488
Si Si8 0.002768 0.241185 0.253720
O O1 0.676600 0.983040 0.515697
O O2 0.522780 0.839783 0.075493
O O3 0.455888 0.678910 0.091099
O O4 0.903796 0.032223 0.351470
O O5 0.990406 0.328602 0.822383
O O6 0.500000 0.000000 0.500000
O O7 0.765134 0.183441 0.940075
O O8 0.545323 0.327662 0.346794
O O9 0.328108 0.302443 0.494282
O O10 0.803381 0.648002 0.777609
O O11 0.636730 0.425609 0.742342
O O12 0.256354 0.689859 0.705655
O O13 0.739835 0.005555 0.972505
O O14 0.290337 0.408173 0.839387
O O15 0.968050 0.321269 0.350527
O O16 0.500000 0.000000 0.000000
O O17 0.111623 0.295025 0.464569
#
# Coordination Sequence:
#
# PCOD8013129 Si02
#       8
#     2   2   2   2   2   2   2   2
#     4  10  23  42  65  94 131 172 217 257 320 390
#     4  11  22  44  66  92 131 171 212 263 325 379
#     4  12  24  40  66  98 129 168 223 268 318 379
#     4  10  23  41  63  96 128 170 216 264 321 381
#     4  11  25  41  64  97 128 169 218 264 322 388
#     4  10  21  40  65  95 126 166 207 264 321 379
#     4  10  24  44  66  91 131 177 212 271 320 371
#     4  10  22  42  65  92 129 169 215 267 319 378
#
# _framework density 21.901741000000001
#
# number of rings (size 3 to 8) (size 9 to 14) (size 15 to 20)
#    0.000    1.500    2.500    1.500    5.250    4.500 
#    0.000    0.000    0.000    0.000    0.000    0.000 
#    0.000    0.000    0.000    0.000    0.000    0.000 
#
# Total GULP energy -198308.646699 kJ/mol
# GULP energy per Si atom -12394.290419 kJ/mol
# Density = 2.185189 g / cm^3
# Si number density = 21.901741 Si / 1000 Ang^3
#
#
#
# Elastic Constant Matrix: (Units=GPa)
#
#
# Indices 1 2 3 4 5 6 
#
# 1 127.9337 49.8498 48.4335 3.6338 3.8782 21.5425
# 2 49.8498 138.4570 33.1655 24.7604 1.3185 13.0862
# 3 48.4335 33.1655 63.9541 4.7906 -4.0178 7.7470
# 4 3.6338 24.7604 4.7906 34.4810 6.0265 0.8142
# 5 3.8782 1.3185 -4.0178 6.0265 30.6162 -1.8031
# 6 21.5425 13.0862 7.7470 0.8142 -1.8031 33.0255
#
#
#
# Elastic Compliance Matrix: (Units=1/GPa)
#
#
# Indices 1 2 3 4 5 6 
#
# 1 0.012886 -0.002530 -0.008138 0.002316 -0.003385 -0.005736
# 2 -0.002530 0.010091 -0.002578 -0.006721 0.000780 -0.001535
# 3 -0.008138 -0.002578 0.023388 -0.001361 0.004545 0.001126
# 4 0.002316 -0.006721 -0.001361 0.035001 -0.007059 0.000223
# 5 -0.003385 0.000780 0.004545 -0.007059 0.035216 0.002929
# 6 -0.005736 -0.001535 0.001126 0.000223 0.002929 0.034520
#
#
# Mechanical properties :
#
#
# Convention : Reuss Voigt Hill
#
# Bulk Modulus (GPa) = 50.32423 65.91583 58.12003
# Shear Modulus (GPa) = 27.14174 32.88429 30.01301
#
# Velocity S-wave (km/s) = 3.52412 3.87905 3.70584
# Velocity P-wave (km/s) = 6.29177 7.08691 6.70114
#
# Compressibility (1/GPa) = 0.01987114
#
# Stress axis : x y z
#
# Youngs Moduli (GPa) = 77.60362 99.10240 42.75765
#
# Poissons Ratio (x) = 0.25073 0.34797
# Poissons Ratio (y) = 0.19633 0.11025
# Poissons Ratio (z) = 0.63155 0.25553
#
# Static dielectric constant tensor:
#      x y z
#    x 4.127520 0.223450 0.182250 
#    y 0.223450 4.130270 0.054020 
#    z 0.182250 0.054020 3.761740 
# 
# 
# High freq. dielectric constant tensor:
#      x y z
#    x 1.857450 0.014110 0.011000 
#    y 0.014110 1.875760 0.005520 
#    z 0.011000 0.005520 1.848980 
# 
# From -- ./inp_files/269682.got.cif
#   From: 2010.06.25/outbox.cif.g09.slc.cpg/sg2_135_cif.got.tgz:269682.got - 2010.06.27 13:26:56.
