data_PCOD8013028
_publ_section_title
;
Structure prediction by ZEFSAII (Michael W. Deem and Ramdas Pophale) SiO2 
 PCOD8013028
Probable space group: P -1
;
_chemical_formula_sum "Si O2"
_cell_formula_units_Z 10
_cell_length_a 9.631865
_cell_length_b 9.412424
_cell_length_c 15.463154
_cell_angle_alpha 37.488933
_cell_angle_beta 58.353060
_cell_angle_gamma 39.139584
_cell_volume 523.306881
_symmetry_space_group_name_H-M "P -1"
_symmetry_group_IT_number 2
_symmetry_cell_setting 'triclinic'
loop_
_space_group_symop_operation_xyz
x,y,z
-x,-y,-z
loop_
_atom_site_type_symbol
_atom_site_label
_atom_site_fract_x
_atom_site_fract_y
_atom_site_fract_z
Si Si1 0.814490 0.256077 0.871506
Si Si2 0.968667 0.757982 0.641918
Si Si3 0.374840 0.045941 0.932259
Si Si4 0.056051 0.395592 0.628919
Si Si5 0.436853 0.123461 0.231431
O O1 0.642562 0.582311 0.825973
O O2 0.948082 0.250314 0.753282
O O3 0.707969 0.128392 0.929165
O O4 0.000000 0.000000 0.000000
O O5 0.174946 0.425708 0.786572
O O6 0.931677 0.697841 0.586926
O O7 0.732769 0.930621 0.683372
O O8 0.000000 0.000000 0.500000
O O9 0.542308 0.842035 0.894388
O O10 0.500000 0.000000 0.000000
O O11 0.000000 0.500000 0.500000
O O12 0.319958 0.173758 0.665463
#
# Coordination Sequence:
#
# PCOD8013028 Si02
#       5
#     2   2   2   2   2
#     4  11  20  41  64  89 120 159 209 249 300 367
#     4  10  23  41  57  86 128 163 201 249 311 367
#     4  11  24  38  61  97 120 159 211 254 303 364
#     4  10  23  38  62  93 117 159 211 247 302 370
#     4  10  21  40  65  81 124 165 199 255 307 351
#
# _framework density 19.109245999999999
#
# number of rings (size 3 to 8) (size 9 to 14) (size 15 to 20)
#    0.000    1.600    6.000    0.600    0.000   12.000 
#    0.000    0.000    0.000    0.000    0.000    0.000 
#    0.000    0.000    0.000    0.000    0.000    0.000 
#
# Total GULP energy -123880.957773 kJ/mol
# GULP energy per Si atom -12388.095777 kJ/mol
# Density = 1.906575 g / cm^3
# Si number density = 19.109246 Si / 1000 Ang^3
#
#
#
# Elastic Constant Matrix: (Units=GPa)
#
#
# Indices 1 2 3 4 5 6 
#
# 1 157.2026 44.1464 82.2328 21.1363 -10.7079 -5.4335
# 2 44.1464 78.1134 50.3634 14.8505 3.2166 -22.7530
# 3 82.2328 50.3634 139.4650 27.0582 -13.5678 -2.6231
# 4 21.1363 14.8505 27.0582 28.6383 10.3625 -3.3941
# 5 -10.7079 3.2166 -13.5678 10.3625 52.4269 12.8276
# 6 -5.4335 -22.7530 -2.6231 -3.3941 12.8276 28.7270
#
#
#
# Elastic Compliance Matrix: (Units=1/GPa)
#
#
# Indices 1 2 3 4 5 6 
#
# 1 0.009769 -0.003410 -0.003721 -0.003159 0.002525 -0.002694
# 2 -0.003410 0.028877 -0.010123 0.005028 -0.012842 0.027631
# 3 -0.003721 -0.010123 0.016081 -0.012218 0.009616 -0.012990
# 4 -0.003159 0.005028 -0.012218 0.055230 -0.019292 0.017409
# 5 0.002525 -0.012842 0.009616 -0.019292 0.033000 -0.025831
# 6 -0.002694 0.027631 -0.012990 0.017409 -0.025831 0.068592
#
#
# Mechanical properties :
#
#
# Convention : Reuss Voigt Hill
#
# Bulk Modulus (GPa) = 49.45507 80.91847 65.18677
# Shear Modulus (GPa) = 19.77886 35.16098 27.46992
#
# Velocity S-wave (km/s) = 3.22070 4.29417 3.79558
# Velocity P-wave (km/s) = 6.30610 8.18680 7.30721
#
# Compressibility (1/GPa) = 0.02022037
#
# Stress axis : x y z
#
# Youngs Moduli (GPa) = 102.36732 34.62958 62.18451
#
# Poissons Ratio (x) = 0.11809 0.23137
# Poissons Ratio (y) = 0.34908 0.62947
# Poissons Ratio (z) = 0.38087 0.35054
#
# Static dielectric constant tensor:
#      x y z
#    x 3.609420 -0.101900 -0.034050 
#    y -0.101900 3.810760 0.209210 
#    z -0.034050 0.209210 3.456330 
# 
# 
# High freq. dielectric constant tensor:
#      x y z
#    x 1.748210 -0.010120 -0.010160 
#    y -0.010120 1.753530 0.010080 
#    z -0.010160 0.010080 1.740930 
# 
# From -- ./inp_files/15297.got.cif
#   From: 2010.06.25/outbox.cif.g09.slc.cpg/sg2_8_cif.got.tgz:15297.got - 2010.06.27 13:26:56.
