data_PCOD8013889
_publ_section_title
;
Structure prediction by ZEFSAII (Michael W. Deem and Ramdas Pophale) SiO2 
 PCOD8013889
Probable space group: P -1
;
_chemical_formula_sum "Si O2"
_cell_formula_units_Z 16
_cell_length_a 6.323933
_cell_length_b 14.095982
_cell_length_c 9.484407
_cell_angle_alpha 112.439985
_cell_angle_beta 102.659119
_cell_angle_gamma 81.268804
_cell_volume 760.265252
_symmetry_space_group_name_H-M "P -1"
_symmetry_group_IT_number 2
_symmetry_cell_setting 'triclinic'
loop_
_space_group_symop_operation_xyz
x,y,z
-x,-y,-z
loop_
_atom_site_type_symbol
_atom_site_label
_atom_site_fract_x
_atom_site_fract_y
_atom_site_fract_z
Si Si1 0.303488 0.340767 0.654100
Si Si2 0.736548 0.220552 0.690677
Si Si3 0.186397 0.111787 0.159502
Si Si4 0.429622 0.488776 0.324714
Si Si5 0.537125 0.256969 0.192731
Si Si6 0.225837 0.883233 0.077271
Si Si7 0.045332 0.587279 0.162824
Si Si8 0.058350 0.775749 0.577194
O O1 0.483634 0.244709 0.629143
O O2 0.396871 0.449326 0.698177
O O3 0.116722 0.310511 0.500797
O O4 0.187342 0.358946 0.797435
O O5 0.759848 0.131460 0.760211
O O6 0.820644 0.323150 0.834297
O O7 0.874107 0.189531 0.551117
O O8 0.365592 0.192662 0.213411
O O9 0.049432 0.128385 0.294454
O O10 0.300785 0.996493 0.116446
O O11 0.022740 0.124639 0.010663
O O12 0.500000 0.500000 0.500000
O O13 0.434991 0.370968 0.205754
O O14 0.186057 0.539912 0.289822
O O15 0.731748 0.273047 0.338358
O O16 0.613675 0.200282 0.027637
O O17 0.000000 0.500000 0.000000
#
# Coordination Sequence:
#
# PCOD8013889 Si02
#       8
#     2   2   2   2   2   2   2   2
#     4  10  22  40  59  85 130 156 194 250 294 359
#     4  10  22  39  61  90 122 158 205 242 308 366
#     4  10  22  43  63  87 124 154 203 260 305 354
#     4  11  23  37  60  92 121 165 210 243 298 366
#     4  11  23  38  65  90 122 159 209 249 305 358
#     4  10  24  40  63  92 118 160 202 254 310 364
#     4  10  24  37  58  88 126 162 199 249 304 359
#     4  10  21  41  63  88 120 165 198 251 303 363
#
# _framework density 21.045286999999998
#
# number of rings (size 3 to 8) (size 9 to 14) (size 15 to 20)
#    0.000    1.750    0.000    4.125    5.250    5.500 
#    0.000    2.500    0.000    0.000    0.000    0.000 
#    0.000    0.000    0.000    0.000    0.000    0.000 
#
# Total GULP energy -198354.026924 kJ/mol
# GULP energy per Si atom -12397.126683 kJ/mol
# Density = 2.099739 g / cm^3
# Si number density = 21.045287 Si / 1000 Ang^3
#
#
#
# Elastic Constant Matrix: (Units=GPa)
#
#
# Indices 1 2 3 4 5 6 
#
# 1 112.9291 42.5165 31.2731 -4.2943 6.6690 4.9993
# 2 42.5165 113.8636 21.2350 -1.0562 -0.2572 2.6944
# 3 31.2731 21.2350 79.6342 -6.6587 -2.2232 2.5972
# 4 -4.2943 -1.0562 -6.6587 31.9803 3.4843 -2.3920
# 5 6.6690 -0.2572 -2.2232 3.4843 32.3788 8.0974
# 6 4.9993 2.6944 2.5972 -2.3920 8.0974 21.3505
#
#
#
# Elastic Compliance Matrix: (Units=1/GPa)
#
#
# Indices 1 2 3 4 5 6 
#
# 1 0.011385 -0.003581 -0.003487 0.000905 -0.002528 -0.000730
# 2 -0.003581 0.010388 -0.001361 -0.000583 0.000975 -0.000742
# 3 -0.003487 -0.001361 0.014565 0.002237 0.001768 -0.001203
# 4 0.000905 -0.000583 0.002237 0.032745 -0.004835 0.005092
# 5 -0.002528 0.000975 0.001768 -0.004835 0.035493 -0.013749
# 6 -0.000730 -0.000742 -0.001203 0.005092 -0.013749 0.053033
#
#
# Mechanical properties :
#
#
# Convention : Reuss Voigt Hill
#
# Bulk Modulus (GPa) = 51.33489 55.16402 53.24946
# Shear Modulus (GPa) = 27.63036 31.23540 29.43288
#
# Velocity S-wave (km/s) = 3.62733 3.85671 3.74378
# Velocity P-wave (km/s) = 6.47988 6.78979 6.63665
#
# Compressibility (1/GPa) = 0.01947993
#
# Stress axis : x y z
#
# Youngs Moduli (GPa) = 87.83524 96.26774 68.65563
#
# Poissons Ratio (x) = 0.34472 0.23942
# Poissons Ratio (y) = 0.31452 0.09344
# Poissons Ratio (z) = 0.30630 0.13103
#
# Static dielectric constant tensor:
#      x y z
#    x 4.211470 0.196960 -0.006880 
#    y 0.196960 4.546640 0.062000 
#    z -0.006880 0.062000 3.860490 
# 
# 
# High freq. dielectric constant tensor:
#      x y z
#    x 1.835070 -0.003550 0.003150 
#    y -0.003550 1.808740 0.011810 
#    z 0.003150 0.011810 1.824850 
# 
# From -- ./inp_files/81053.got.cif
#   From: 2010.06.25/outbox.cif.g09.slc.cpg/sg2_41_cif.got.tgz:81053.got - 2010.06.27 13:26:56.
