data_PCOD8013256
_publ_section_title
;
Structure prediction by ZEFSAII (Michael W. Deem and Ramdas Pophale) SiO2 
 PCOD8013256
Probable space group: P -1
;
_chemical_formula_sum "Si O2"
_cell_formula_units_Z 16
_cell_length_a 12.322708
_cell_length_b 8.498205
_cell_length_c 15.579899
_cell_angle_alpha 73.373441
_cell_angle_beta 38.530812
_cell_angle_gamma 52.627973
_cell_volume 746.724159
_symmetry_space_group_name_H-M "P -1"
_symmetry_group_IT_number 2
_symmetry_cell_setting 'triclinic'
loop_
_space_group_symop_operation_xyz
x,y,z
-x,-y,-z
loop_
_atom_site_type_symbol
_atom_site_label
_atom_site_fract_x
_atom_site_fract_y
_atom_site_fract_z
Si Si1 0.381752 0.198736 0.106196
Si Si2 0.029947 0.324407 0.449091
Si Si3 0.279958 0.129836 0.790384
Si Si4 0.982377 0.568597 0.831582
Si Si5 0.750777 0.073953 0.315592
Si Si6 0.721019 0.054795 0.527723
Si Si7 0.192660 0.007686 0.030759
Si Si8 0.313060 0.536707 0.501070
O O1 0.237329 0.203797 0.271759
O O2 0.201316 0.402619 0.125025
O O3 0.500000 0.000000 0.000000
O O4 0.578279 0.191606 0.029624
O O5 0.072597 0.141092 0.512464
O O6 0.000000 0.500000 0.500000
O O7 0.791560 0.449314 0.528040
O O8 0.060904 0.379444 0.877285
O O9 0.328217 0.017479 0.686783
O O10 0.489388 0.113396 0.695540
O O11 0.239317 0.009026 0.901608
O O12 0.193949 0.512666 0.656238
O O13 0.876099 0.777313 0.920239
O O14 0.578554 0.331918 0.374081
O O15 0.005246 0.981655 0.156199
O O16 0.752614 0.984950 0.420296
O O17 0.718210 0.251484 0.502645
#
# Coordination Sequence:
#
# PCOD8013256 Si02
#       8
#     2   2   2   2   2   2   2   2
#     4   9  21  41  67  89 131 174 210 260 330 395
#     4  11  24  42  71 102 132 166 224 278 324 384
#     4  12  24  39  64  96 129 170 220 266 330 382
#     4  10  21  40  66  94 124 171 220 262 320 395
#     4  12  25  41  65  97 134 168 215 278 329 379
#     4  12  23  42  67  96 130 174 220 263 325 396
#     4  11  22  44  63  90 131 173 214 266 328 395
#     4  11  23  42  65  98 131 168 218 268 321 388
#
# _framework density 21.426921
#
# number of rings (size 3 to 8) (size 9 to 14) (size 15 to 20)
#    0.000    1.000    3.750    3.375    3.500    0.000 
#    0.000    0.625    0.000    0.000    0.000    0.000 
#    0.000    0.000    0.000    0.000    0.000    0.000 
#
# Total GULP energy -198379.678215 kJ/mol
# GULP energy per Si atom -12398.729888 kJ/mol
# Density = 2.137815 g / cm^3
# Si number density = 21.426921 Si / 1000 Ang^3
#
#
#
# Elastic Constant Matrix: (Units=GPa)
#
#
# Indices 1 2 3 4 5 6 
#
# 1 105.5637 6.2633 31.2566 -5.7665 -1.5556 -13.1582
# 2 6.2633 43.4263 7.7315 -3.4025 -1.2272 -6.4662
# 3 31.2566 7.7315 82.5008 -1.3238 -7.1784 -9.7595
# 4 -5.7665 -3.4025 -1.3238 14.5155 2.9559 7.8568
# 5 -1.5556 -1.2272 -7.1784 2.9559 43.0865 4.6813
# 6 -13.1582 -6.4662 -9.7595 7.8568 4.6813 36.1551
#
#
#
# Elastic Compliance Matrix: (Units=1/GPa)
#
#
# Indices 1 2 3 4 5 6 
#
# 1 0.011092 -0.000347 -0.003903 0.002814 -0.000714 0.002402
# 2 -0.000347 0.024115 -0.001740 0.003819 -0.000194 0.002912
# 3 -0.003903 -0.001740 0.014183 -0.002354 0.002080 0.002339
# 4 0.002814 0.003819 -0.002354 0.080055 -0.003956 -0.015813
# 5 -0.000714 -0.000194 0.002080 -0.003956 0.024011 -0.001982
# 6 0.002402 0.002912 0.002339 -0.015813 -0.001982 0.033378
#
#
# Mechanical properties :
#
#
# Convention : Reuss Voigt Hill
#
# Bulk Modulus (GPa) = 26.73018 35.77705 31.25362
# Shear Modulus (GPa) = 23.66514 31.16738 27.41626
#
# Velocity S-wave (km/s) = 3.32694 3.81805 3.58092
# Velocity P-wave (km/s) = 5.22113 6.01416 5.63162
#
# Compressibility (1/GPa) = 0.03741090
#
# Stress axis : x y z
#
# Youngs Moduli (GPa) = 90.15783 41.46859 70.50920
#
# Poissons Ratio (x) = 0.01439 0.27516
# Poissons Ratio (y) = 0.03128 0.12265
# Poissons Ratio (z) = 0.35184 0.07214
#
# Static dielectric constant tensor:
#      x y z
#    x 4.366930 -0.426810 0.010720 
#    y -0.426810 3.783850 0.159480 
#    z 0.010720 0.159480 3.866450 
# 
# 
# High freq. dielectric constant tensor:
#      x y z
#    x 1.866340 -0.020430 0.005010 
#    y -0.020430 1.821810 0.008460 
#    z 0.005010 0.008460 1.836070 
# 
# From -- ./inp_files/514258.got.cif
#   From: 2010.06.25/outbox.cif.g09.slc.cpg/sg2_258_cif.got.tgz:514258.got - 2010.06.27 13:26:56.
