data_PCOD8013891
_publ_section_title
;
Structure prediction by ZEFSAII (Michael W. Deem and Ramdas Pophale) SiO2 
 PCOD8013891
Probable space group: P -1
;
_chemical_formula_sum "Si O2"
_cell_formula_units_Z 14
_cell_length_a 9.580318
_cell_length_b 12.720845
_cell_length_c 10.150643
_cell_angle_alpha 135.354854
_cell_angle_beta 49.671932
_cell_angle_gamma 127.635912
_cell_volume 636.127947
_symmetry_space_group_name_H-M "P -1"
_symmetry_group_IT_number 2
_symmetry_cell_setting 'triclinic'
loop_
_space_group_symop_operation_xyz
x,y,z
-x,-y,-z
loop_
_atom_site_type_symbol
_atom_site_label
_atom_site_fract_x
_atom_site_fract_y
_atom_site_fract_z
Si Si1 0.897883 0.539558 0.724793
Si Si2 0.289427 0.623561 0.862586
Si Si3 0.976437 0.335392 0.714001
Si Si4 0.361449 0.313214 0.116140
Si Si5 0.954810 0.907006 0.722960
Si Si6 0.781206 0.171174 0.120922
Si Si7 0.647420 0.985089 0.287019
O O1 0.688436 0.556877 0.830907
O O2 0.000000 0.500000 0.500000
O O3 0.864369 0.399129 0.724352
O O4 0.021340 0.698985 0.857048
O O5 0.185333 0.454356 0.715787
O O6 0.475315 0.605552 0.807327
O O7 0.348591 0.753216 0.826240
O O8 0.146332 0.684590 0.096911
O O9 0.999803 0.166760 0.508055
O O10 0.162980 0.235195 0.242196
O O11 0.432064 0.187278 0.877631
O O12 0.145891 0.996171 0.761662
O O13 0.830542 0.028177 0.886803
O O14 0.663626 0.112091 0.274000
O O15 0.500000 0.000000 0.500000
#
# Coordination Sequence:
#
# PCOD8013891 Si02
#       7
#     2   2   2   2   2   2   2
#     4  11  19  38  68  89 117 168 205 250 303 357
#     4  10  24  41  60  90 128 163 198 252 305 371
#     4  10  22  41  62  88 128 163 205 249 301 360
#     4  11  21  38  66  91 123 157 208 251 303 363
#     4  11  20  39  66  89 120 162 206 256 300 360
#     4  10  21  41  63  88 126 164 201 245 315 365
#     4  11  21  37  65  96 122 152 207 263 302 354
#
# _framework density 22.008151999999999
#
# number of rings (size 3 to 8) (size 9 to 14) (size 15 to 20)
#    0.000    1.429    4.286    1.714    0.000    4.000 
#    0.000    1.429    3.143    0.000    0.000    0.000 
#    0.000    0.000    0.000    0.000    0.000    0.000 
#
# Total GULP energy -173636.261691 kJ/mol
# GULP energy per Si atom -12402.590121 kJ/mol
# Density = 2.195806 g / cm^3
# Si number density = 22.008152 Si / 1000 Ang^3
#
#
#
# Elastic Constant Matrix: (Units=GPa)
#
#
# Indices 1 2 3 4 5 6 
#
# 1 139.5099 28.5496 11.7677 5.6974 7.0413 -5.7304
# 2 28.5496 61.8453 20.6806 -3.9821 -0.1796 -8.8360
# 3 11.7677 20.6806 83.8922 0.2627 8.1969 -13.0688
# 4 5.6974 -3.9821 0.2627 31.6939 4.0498 1.5535
# 5 7.0413 -0.1796 8.1969 4.0498 27.0626 -1.7258
# 6 -5.7304 -8.8360 -13.0688 1.5535 -1.7258 23.2429
#
#
#
# Elastic Compliance Matrix: (Units=1/GPa)
#
#
# Indices 1 2 3 4 5 6 
#
# 1 0.008131 -0.003814 0.000077 -0.001731 -0.001868 0.000575
# 2 -0.003814 0.020067 -0.003941 0.002741 0.002193 0.004452
# 3 0.000077 -0.003941 0.014239 -0.000437 -0.003894 0.006267
# 4 -0.001731 0.002741 -0.000437 0.032887 -0.004458 -0.002159
# 5 -0.001868 0.002193 -0.003894 -0.004458 0.039388 0.001406
# 6 0.000575 0.004452 0.006267 -0.002159 0.001406 0.048631
#
#
# Mechanical properties :
#
#
# Convention : Reuss Voigt Hill
#
# Bulk Modulus (GPa) = 36.92647 45.24922 41.08785
# Shear Modulus (GPa) = 26.63486 31.34983 28.99234
#
# Velocity S-wave (km/s) = 3.48261 3.77830 3.63346
# Velocity P-wave (km/s) = 5.74338 6.29595 6.02600
#
# Compressibility (1/GPa) = 0.02708084
#
# Stress axis : x y z
#
# Youngs Moduli (GPa) = 122.99341 49.83368 70.23029
#
# Poissons Ratio (x) = 0.19006 -0.00543
# Poissons Ratio (y) = 0.46908 0.27678
# Poissons Ratio (z) = -0.00950 0.19640
#
# Static dielectric constant tensor:
#      x y z
#    x 4.010230 -0.050180 0.219350 
#    y -0.050180 3.941290 0.099980 
#    z 0.219350 0.099980 3.998260 
# 
# 
# High freq. dielectric constant tensor:
#      x y z
#    x 1.858300 -0.002560 0.011650 
#    y -0.002560 1.851180 0.007670 
#    z 0.011650 0.007670 1.870680 
# 
# From -- ./inp_files/154890.got.cif
#   From: 2010.06.25/outbox.cif.g09.slc.cpg/sg2_78_cif.got.tgz:154890.got - 2010.06.27 13:26:56.
