data_PCOD8013619
_publ_section_title
;
Structure prediction by ZEFSAII (Michael W. Deem and Ramdas Pophale) SiO2 
 PCOD8013619
Probable space group: P -1
;
_chemical_formula_sum "Si O2"
_cell_formula_units_Z 14
_cell_length_a 10.176451
_cell_length_b 15.539030
_cell_length_c 11.493109
_cell_angle_alpha 151.465964
_cell_angle_beta 133.245474
_cell_angle_gamma 57.719844
_cell_volume 620.245421
_symmetry_space_group_name_H-M "P -1"
_symmetry_group_IT_number 2
_symmetry_cell_setting 'triclinic'
loop_
_space_group_symop_operation_xyz
x,y,z
-x,-y,-z
loop_
_atom_site_type_symbol
_atom_site_label
_atom_site_fract_x
_atom_site_fract_y
_atom_site_fract_z
Si Si1 0.374524 0.331228 0.789327
Si Si2 0.267125 0.170835 0.886897
Si Si3 0.955297 0.671281 0.246934
Si Si4 0.325191 0.296077 0.323245
Si Si5 0.658146 0.152038 0.334338
Si Si6 0.391652 0.695795 0.886263
Si Si7 0.788451 0.964131 0.847344
O O1 0.191899 0.383201 0.802414
O O2 0.317943 0.168028 0.471461
O O3 0.500000 0.500000 0.000000
O O4 0.500594 0.257325 0.872389
O O5 0.113905 0.192830 0.725946
O O6 0.279146 0.953164 0.639466
O O7 0.228188 0.245776 0.080106
O O8 0.465040 0.289883 0.115226
O O9 0.155726 0.774292 0.540296
O O10 0.000000 0.500000 0.000000
O O11 0.551236 0.318935 0.493334
O O12 0.276458 0.485931 0.565639
O O13 0.248025 0.124430 0.153922
O O14 0.500000 0.000000 0.000000
O O15 0.259805 0.836197 0.952319
O O16 0.000000 0.000000 0.000000
#
# Coordination Sequence:
#
# PCOD8013619 Si02
#       7
#     2   2   2   2   2   2   2
#     4  11  25  49  72 100 147 193 235 294 357 423
#     4  10  22  40  70 103 140 183 230 298 358 410
#     4  11  25  43  71 110 139 182 243 293 350 421
#     4  11  23  44  71 104 143 185 235 294 359 416
#     4  10  21  40  70 101 138 180 227 293 352 411
#     4  11  23  46  72 100 139 189 237 292 359 416
#     4  12  28  45  71 103 142 190 241 289 355 434
#
# _framework density 22.571709999999999
#
# number of rings (size 3 to 8) (size 9 to 14) (size 15 to 20)
#    0.000    1.143    2.857    3.000    4.000    2.857 
#    2.571    0.000    0.000    0.000    0.000    0.000 
#    0.000    0.000    0.000    0.000    0.000    0.000 
#
# Total GULP energy -173502.637304 kJ/mol
# GULP energy per Si atom -12393.045522 kJ/mol
# Density = 2.252034 g / cm^3
# Si number density = 22.571710 Si / 1000 Ang^3
#
#
#
# Elastic Constant Matrix: (Units=GPa)
#
#
# Indices 1 2 3 4 5 6 
#
# 1 133.2272 69.6323 47.4660 -1.6033 20.6913 -2.6735
# 2 69.6323 104.8658 55.3582 17.3105 6.0074 -7.7411
# 3 47.4660 55.3582 115.8510 5.5024 2.9529 -14.0487
# 4 -1.6033 17.3105 5.5024 41.8785 -4.7060 -6.6605
# 5 20.6913 6.0074 2.9529 -4.7060 44.9307 -4.5362
# 6 -2.6735 -7.7411 -14.0487 -6.6605 -4.5362 35.3958
#
#
#
# Elastic Compliance Matrix: (Units=1/GPa)
#
#
# Indices 1 2 3 4 5 6 
#
# 1 0.013138 -0.008247 -0.001658 0.003383 -0.004628 -0.001426
# 2 -0.008247 0.019020 -0.005366 -0.007356 0.000850 0.000132
# 3 -0.001658 -0.005366 0.012263 0.001311 0.001213 0.003971
# 4 0.003383 -0.007356 0.001311 0.027945 0.002749 0.004778
# 5 -0.004628 0.000850 0.001213 0.002749 0.024889 0.004025
# 6 -0.001426 0.000132 0.003971 0.004778 0.004025 0.031164
#
#
# Mechanical properties :
#
#
# Convention : Reuss Voigt Hill
#
# Bulk Modulus (GPa) = 72.04610 77.65077 74.84844
# Shear Modulus (GPa) = 30.56465 36.54016 33.55241
#
# Velocity S-wave (km/s) = 3.68382 4.02786 3.85967
# Velocity P-wave (km/s) = 7.07687 7.49053 7.28663
#
# Compressibility (1/GPa) = 0.01388000
#
# Stress axis : x y z
#
# Youngs Moduli (GPa) = 76.11532 52.57547 81.54436
#
# Poissons Ratio (x) = 0.43361 0.13516
# Poissons Ratio (y) = 0.62775 0.43756
# Poissons Ratio (z) = 0.12617 0.28211
#
# Static dielectric constant tensor:
#      x y z
#    x 4.311360 -0.171630 0.054500 
#    y -0.171630 4.659190 0.278000 
#    z 0.054500 0.278000 3.950830 
# 
# 
# High freq. dielectric constant tensor:
#      x y z
#    x 1.882000 0.001320 0.006920 
#    y 0.001320 1.902910 0.006600 
#    z 0.006920 0.006600 1.890910 
# 
# From -- ./inp_files/400190.got.cif
#   From: 2010.06.25/outbox.cif.g09.slc.cpg/sg2_201_cif.got.tgz:400190.got - 2010.06.27 13:26:56.
