data_PCOD8013593
_publ_section_title
;
Structure prediction by ZEFSAII (Michael W. Deem and Ramdas Pophale) SiO2 
 PCOD8013593
Probable space group: P -1
;
_chemical_formula_sum "Si O2"
_cell_formula_units_Z 16
_cell_length_a 16.975561
_cell_length_b 11.579254
_cell_length_c 11.501127
_cell_angle_alpha 116.077622
_cell_angle_beta 50.645094
_cell_angle_gamma 148.795706
_cell_volume 875.330851
_symmetry_space_group_name_H-M "P -1"
_symmetry_group_IT_number 2
_symmetry_cell_setting 'triclinic'
loop_
_space_group_symop_operation_xyz
x,y,z
-x,-y,-z
loop_
_atom_site_type_symbol
_atom_site_label
_atom_site_fract_x
_atom_site_fract_y
_atom_site_fract_z
Si Si1 0.801559 0.444876 0.208382
Si Si2 0.448105 0.143494 0.091004
Si Si3 0.118610 0.191378 0.644670
Si Si4 0.199926 0.577148 0.240724
Si Si5 0.106065 0.620531 0.124137
Si Si6 0.209256 0.112029 0.336541
Si Si7 0.112972 0.911300 0.570925
Si Si8 0.406833 0.018824 0.334047
O O1 0.803778 0.602715 0.273684
O O2 0.589121 0.184882 0.312423
O O3 0.924142 0.515876 0.228967
O O4 0.883105 0.480174 0.026467
O O5 0.401682 0.247426 0.183974
O O6 0.476480 0.112951 0.178208
O O7 0.285322 0.897663 0.068762
O O8 0.634448 0.327602 0.928446
O O9 0.232186 0.272035 0.455225
O O10 0.128413 0.077410 0.671865
O O11 0.908374 0.994023 0.716559
O O12 0.086575 0.535711 0.230925
O O13 0.071711 0.342344 0.320907
O O14 0.275908 0.757292 0.344614
O O15 0.108455 0.906473 0.430854
O O16 0.292112 0.019437 0.491692
#
# Coordination Sequence:
#
# PCOD8013593 Si02
#       8
#     2   2   2   2   2   2   2   2
#     4  11  19  33  55  83 103 138 177 219 259 304
#     4  10  16  34  55  81  99 135 186 214 246 308
#     4   9  18  34  58  73 106 138 182 210 258 308
#     4  11  19  34  55  80 109 136 172 221 263 309
#     4  10  20  31  55  81 109 135 175 217 263 305
#     4   8  17  34  56  77  97 140 187 212 240 312
#     4   9  20  34  54  77 106 140 177 212 264 304
#     4  10  19  33  53  83 101 138 182 216 252 311
#
# _framework density 18.278801999999999
#
# number of rings (size 3 to 8) (size 9 to 14) (size 15 to 20)
#    0.750    1.500    3.750    1.125    0.000    0.500 
#    0.000    1.875    0.000    0.000    0.000    0.000 
#    0.000    0.000    0.000    0.000    0.000    0.000 
#
# Total GULP energy -198265.442563 kJ/mol
# GULP energy per Si atom -12391.590160 kJ/mol
# Density = 1.823720 g / cm^3
# Si number density = 18.278802 Si / 1000 Ang^3
#
#
#
# Elastic Constant Matrix: (Units=GPa)
#
#
# Indices 1 2 3 4 5 6 
#
# 1 84.0476 47.3797 39.6814 -8.4268 -30.7834 7.0293
# 2 47.3797 90.4186 40.0092 4.9302 -11.4337 0.9988
# 3 39.6814 40.0092 65.3011 -3.5895 -23.0557 -4.2748
# 4 -8.4268 4.9302 -3.5895 26.7196 -3.7021 -7.0292
# 5 -30.7834 -11.4337 -23.0557 -3.7021 27.9416 1.2347
# 6 7.0293 0.9988 -4.2748 -7.0292 1.2347 27.2619
#
#
#
# Elastic Compliance Matrix: (Units=1/GPa)
#
#
# Indices 1 2 3 4 5 6 
#
# 1 0.035832 -0.015711 0.001539 0.018098 0.036955 -0.005429
# 2 -0.015711 0.023091 -0.012530 -0.014058 -0.019996 -0.001479
# 3 0.001539 -0.012530 0.031670 0.012246 0.024009 0.007098
# 4 0.018098 -0.014058 0.012246 0.054407 0.031040 0.010391
# 5 0.036955 -0.019996 0.024009 0.031040 0.092297 -0.001208
# 6 -0.005429 -0.001479 0.007098 0.010391 -0.001208 0.041982
#
#
# Mechanical properties :
#
#
# Convention : Reuss Voigt Hill
#
# Bulk Modulus (GPa) = 26.88973 54.87865 40.88419
# Shear Modulus (GPa) = 14.48942 23.89777 19.19359
#
# Velocity S-wave (km/s) = 2.81853 3.61973 3.24396
# Velocity P-wave (km/s) = 5.03338 6.89624 6.03710
#
# Compressibility (1/GPa) = 0.03718892
#
# Stress axis : x y z
#
# Youngs Moduli (GPa) = 27.90827 43.30701 31.57517
#
# Poissons Ratio (x) = 0.68038 -0.04859
# Poissons Ratio (y) = 0.43846 0.39565
# Poissons Ratio (z) = -0.04295 0.54265
#
# Static dielectric constant tensor:
#      x y z
#    x 3.433240 0.059360 -0.386710 
#    y 0.059360 3.120910 0.204460 
#    z -0.386710 0.204460 3.248820 
# 
# 
# High freq. dielectric constant tensor:
#      x y z
#    x 1.705020 0.009330 -0.039230 
#    y 0.009330 1.677140 0.016820 
#    z -0.039230 0.016820 1.694450 
# 
# From -- ./inp_files/463952.got.cif
#   From: 2010.06.25/outbox.cif.g09.slc.cpg/sg2_232_cif.got.tgz:463952.got - 2010.06.27 13:26:56.
