data_PCOD8013498
_publ_section_title
;
Structure prediction by ZEFSAII (Michael W. Deem and Ramdas Pophale) SiO2 
 PCOD8013498
Probable space group: P -1
;
_chemical_formula_sum "Si O2"
_cell_formula_units_Z 14
_cell_length_a 12.410342
_cell_length_b 20.752637
_cell_length_c 15.617521
_cell_angle_alpha 18.625340
_cell_angle_beta 149.951342
_cell_angle_gamma 150.044768
_cell_volume 615.889907
_symmetry_space_group_name_H-M "P -1"
_symmetry_group_IT_number 2
_symmetry_cell_setting 'triclinic'
loop_
_space_group_symop_operation_xyz
x,y,z
-x,-y,-z
loop_
_atom_site_type_symbol
_atom_site_label
_atom_site_fract_x
_atom_site_fract_y
_atom_site_fract_z
Si Si1 0.057637 0.703927 0.422257
Si Si2 0.819592 0.052843 0.633218
Si Si3 0.111804 0.792224 0.084712
Si Si4 0.848193 0.429564 0.067770
Si Si5 0.424371 0.748476 0.490783
Si Si6 0.934116 0.820325 0.749777
Si Si7 0.375669 0.314947 0.938464
O O1 0.089559 0.761800 0.469897
O O2 0.282944 0.820125 0.377815
O O3 0.009636 0.455388 0.690390
O O4 0.848116 0.783209 0.147043
O O5 0.823350 0.185844 0.381685
O O6 0.592602 0.877839 0.735961
O O7 0.982718 0.906713 0.915450
O O8 0.361362 0.832465 0.248256
O O9 0.106698 0.877411 0.876838
O O10 0.945519 0.599209 0.995810
O O11 0.585857 0.418371 0.888944
O O12 0.000000 0.500000 0.000000
O O13 0.684392 0.822524 0.603023
O O14 0.344425 0.495393 0.752302
O O15 0.000000 0.000000 0.500000
#
# Coordination Sequence:
#
# PCOD8013498 Si02
#       7
#     2   2   2   2   2   2   2
#     4  11  21  42  67  98 134 165 218 278 332 392
#     4  12  22  39  70 100 130 173 219 269 339 395
#     4  11  22  43  67  99 134 170 217 277 334 385
#     4  11  25  44  62  96 136 174 225 272 328 402
#     4  10  22  42  70  97 135 169 219 278 330 394
#     4  11  25  45  67  92 133 185 223 267 332 396
#     4  10  21  40  68  95 131 172 213 277 331 387
#
# _framework density 22.731335999999999
#
# number of rings (size 3 to 8) (size 9 to 14) (size 15 to 20)
#    0.000    1.143    4.286    2.571    0.000    4.571 
#    0.000    2.143    0.000    0.000    0.000    0.000 
#    0.000    0.000    0.000    0.000    0.000    0.000 
#
# Total GULP energy -173436.356743 kJ/mol
# GULP energy per Si atom -12388.311196 kJ/mol
# Density = 2.267960 g / cm^3
# Si number density = 22.731336 Si / 1000 Ang^3
#
#
#
# Elastic Constant Matrix: (Units=GPa)
#
#
# Indices 1 2 3 4 5 6 
#
# 1 129.4832 26.8247 46.0282 0.4116 -3.5961 7.4591
# 2 26.8247 38.8907 26.3787 -2.8882 -0.6422 -1.8210
# 3 46.0282 26.3787 104.1559 -4.4159 -22.9782 -1.6138
# 4 0.4116 -2.8882 -4.4159 30.8284 -2.3249 -8.4944
# 5 -3.5961 -0.6422 -22.9782 -2.3249 38.4221 -6.5041
# 6 7.4591 -1.8210 -1.6138 -8.4944 -6.5041 32.5752
#
#
#
# Elastic Compliance Matrix: (Units=1/GPa)
#
#
# Indices 1 2 3 4 5 6 
#
# 1 0.010314 -0.004787 -0.004023 -0.002420 -0.002332 -0.003925
# 2 -0.004787 0.034135 -0.007157 0.002698 -0.003546 0.002645
# 3 -0.004023 -0.007157 0.015546 0.003483 0.009712 0.004139
# 4 -0.002420 0.002698 0.003483 0.036914 0.006120 0.011725
# 5 -0.002332 -0.003546 0.009712 0.006120 0.033468 0.009095
# 6 -0.003925 0.002645 0.004139 0.011725 0.009095 0.036823
#
#
# Mechanical properties :
#
#
# Convention : Reuss Voigt Hill
#
# Bulk Modulus (GPa) = 35.63702 52.33259 43.98480
# Shear Modulus (GPa) = 23.98229 31.91835 27.95032
#
# Velocity S-wave (km/s) = 3.25165 3.75127 3.51036
# Velocity P-wave (km/s) = 5.45978 6.46799 5.98515
#
# Compressibility (1/GPa) = 0.02806071
#
# Stress axis : x y z
#
# Youngs Moduli (GPa) = 96.95552 29.29562 64.32545
#
# Poissons Ratio (x) = 0.14024 0.25880
# Poissons Ratio (y) = 0.46414 0.46035
# Poissons Ratio (z) = 0.39009 0.20966
#
# Static dielectric constant tensor:
#      x y z
#    x 3.962840 -0.070860 0.100230 
#    y -0.070860 4.026960 0.187190 
#    z 0.100230 0.187190 4.620050 
# 
# 
# High freq. dielectric constant tensor:
#      x y z
#    x 1.889170 -0.010650 0.014790 
#    y -0.010650 1.876090 -0.004840 
#    z 0.014790 -0.004840 1.915880 
# 
# From -- ./inp_files/155613.got.cif
#   From: 2010.06.25/outbox.cif.g09.slc.cpg/sg2_78_cif.got.tgz:155613.got - 2010.06.27 13:26:56.
