data_PCOD8013103
_publ_section_title
;
Structure prediction by ZEFSAII (Michael W. Deem and Ramdas Pophale) SiO2 
 PCOD8013103
Probable space group: P -1
;
_chemical_formula_sum "Si O2"
_cell_formula_units_Z 16
_cell_length_a 8.950099
_cell_length_b 15.932971
_cell_length_c 14.562926
_cell_angle_alpha 151.486579
_cell_angle_beta 100.006476
_cell_angle_gamma 60.787337
_cell_volume 684.127110
_symmetry_space_group_name_H-M "P -1"
_symmetry_group_IT_number 2
_symmetry_cell_setting 'triclinic'
loop_
_space_group_symop_operation_xyz
x,y,z
-x,-y,-z
loop_
_atom_site_type_symbol
_atom_site_label
_atom_site_fract_x
_atom_site_fract_y
_atom_site_fract_z
Si Si1 0.539244 0.303772 0.554123
Si Si2 0.667069 0.664614 0.278984
Si Si3 0.956533 0.821970 0.054998
Si Si4 0.299851 0.460163 0.226118
Si Si5 0.840255 0.991920 0.738408
Si Si6 0.221839 0.276441 0.196939
Si Si7 0.458762 0.212739 0.816736
Si Si8 0.263754 0.225539 0.354698
O O1 0.482071 0.358550 0.708917
O O2 0.538212 0.506393 0.713342
O O3 0.363536 0.320009 0.501391
O O4 0.781412 0.030396 0.309975
O O5 0.675344 0.627781 0.135508
O O6 0.555853 0.937355 0.557967
O O7 0.908649 0.446053 0.138613
O O8 0.832320 0.865043 0.991467
O O9 0.108374 0.857387 0.071533
O O10 0.361349 0.270576 0.130780
O O11 0.052406 0.719941 0.464872
O O12 0.302437 0.368275 0.037379
O O13 0.692220 0.994312 0.796425
O O14 0.673604 0.157543 0.795045
O O15 0.351811 0.145527 0.181309
O O16 0.996210 0.558467 0.467167
#
# Coordination Sequence:
#
# PCOD8013103 Si02
#       8
#     2   2   2   2   2   2   2   2
#     4  11  22  41  65  93 132 169 210 261 316 379
#     4  11  23  42  65  96 126 164 216 260 320 383
#     4  11  23  40  65  93 131 170 208 264 315 376
#     4  10  23  41  64  95 130 168 212 261 316 376
#     4  10  22  42  63  93 133 166 211 262 313 380
#     4  10  21  40  65  93 129 171 211 264 313 374
#     4  11  23  41  69  92 125 170 209 264 322 376
#     4  10  21  41  66  91 129 173 212 260 317 374
#
# _framework density 23.387467000000001
#
# number of rings (size 3 to 8) (size 9 to 14) (size 15 to 20)
#    0.000    1.500    2.500    2.250    0.000    4.500 
#    0.000    5.625    0.000    0.000    0.000    0.000 
#    0.000    0.000    0.000    0.000    0.000    0.000 
#
# Total GULP energy -198296.305953 kJ/mol
# GULP energy per Si atom -12393.519122 kJ/mol
# Density = 2.333424 g / cm^3
# Si number density = 23.387467 Si / 1000 Ang^3
#
#
#
# Elastic Constant Matrix: (Units=GPa)
#
#
# Indices 1 2 3 4 5 6 
#
# 1 138.9425 65.4510 34.0320 -11.7010 23.4116 14.6486
# 2 65.4510 167.4169 63.6232 -23.7436 13.7500 9.0310
# 3 34.0320 63.6232 63.5355 -14.5662 20.6546 12.4983
# 4 -11.7010 -23.7436 -14.5662 30.4097 2.5809 -8.8959
# 5 23.4116 13.7500 20.6546 2.5809 41.5369 -6.5481
# 6 14.6486 9.0310 12.4983 -8.8959 -6.5481 29.0268
#
#
#
# Elastic Compliance Matrix: (Units=1/GPa)
#
#
# Indices 1 2 3 4 5 6 
#
# 1 0.010302 -0.003685 0.001545 0.000622 -0.006332 -0.005955
# 2 -0.003685 0.011522 -0.011275 0.003305 0.004476 0.005152
# 3 0.001545 -0.011275 0.036518 0.006396 -0.018077 -0.015113
# 4 0.000622 0.003305 0.006396 0.041395 -0.006058 0.007224
# 5 -0.006332 0.004476 -0.018077 -0.006058 0.038101 0.016325
# 6 -0.005955 0.005152 -0.015113 0.007224 0.016325 0.048257
#
#
# Mechanical properties :
#
#
# Convention : Reuss Voigt Hill
#
# Bulk Modulus (GPa) = 31.73436 77.34526 54.53981
# Shear Modulus (GPa) = 22.37839 33.98060 28.17950
#
# Velocity S-wave (km/s) = 3.09666 3.81588 3.47493
# Velocity P-wave (km/s) = 5.13655 7.24966 6.28259
#
# Compressibility (1/GPa) = 0.03151159
#
# Stress axis : x y z
#
# Youngs Moduli (GPa) = 97.06862 86.79360 27.38348
#
# Poissons Ratio (x) = 0.31983 -0.04229
# Poissons Ratio (y) = 0.35770 0.30874
# Poissons Ratio (z) = -0.14993 0.97858
#
# Static dielectric constant tensor:
#      x y z
#    x 4.423550 0.214860 -0.097660 
#    y 0.214860 4.336430 -0.031970 
#    z -0.097660 -0.031970 4.467420 
# 
# 
# High freq. dielectric constant tensor:
#      x y z
#    x 1.932700 0.005170 -0.016860 
#    y 0.005170 1.904820 0.001920 
#    z -0.016860 0.001920 1.955820 
# 
# From -- ./inp_files/505825.got.cif
#   From: 2010.06.25/outbox.cif.g09.slc.cpg/sg2_253_cif.got.tgz:505825.got - 2010.06.27 13:26:56.
