data_PCOD8013440
_publ_section_title
;
Structure prediction by ZEFSAII (Michael W. Deem and Ramdas Pophale) SiO2 
 PCOD8013440
Probable space group: P -1
;
_chemical_formula_sum "Si O2"
_cell_formula_units_Z 16
_cell_length_a 10.903789
_cell_length_b 7.722578
_cell_length_c 12.558578
_cell_angle_alpha 119.469102
_cell_angle_beta 101.928151
_cell_angle_gamma 117.661177
_cell_volume 673.266101
_symmetry_space_group_name_H-M "P -1"
_symmetry_group_IT_number 2
_symmetry_cell_setting 'triclinic'
loop_
_space_group_symop_operation_xyz
x,y,z
-x,-y,-z
loop_
_atom_site_type_symbol
_atom_site_label
_atom_site_fract_x
_atom_site_fract_y
_atom_site_fract_z
Si Si1 0.239677 0.088743 0.534496
Si Si2 0.198606 0.015795 0.064773
Si Si3 0.639197 0.040487 0.105042
Si Si4 0.766470 0.453652 0.558926
Si Si5 0.485997 0.118218 0.731560
Si Si6 0.833597 0.551400 0.829705
Si Si7 0.675532 0.785731 0.637923
Si Si8 0.108542 0.395987 0.589883
O O1 0.402865 0.202951 0.668290
O O2 0.266032 0.033490 0.402054
O O3 0.208548 0.292344 0.588950
O O4 0.083418 0.811779 0.473674
O O5 0.179799 0.229576 0.125054
O O6 0.308298 0.068583 0.205940
O O7 0.292426 0.067688 0.986959
O O8 0.021535 0.711034 0.954829
O O9 0.795751 0.350968 0.241405
O O10 0.561158 0.883351 0.155144
O O11 0.500000 0.000000 0.000000
O O12 0.812034 0.412947 0.670439
O O13 0.792793 0.716906 0.651533
O O14 0.892515 0.524249 0.508088
O O15 0.581943 0.172740 0.405624
O O16 0.687262 0.327397 0.816619
O O17 0.500000 0.500000 0.500000
#
# Coordination Sequence:
#
# PCOD8013440 Si02
#       8
#     2   2   2   2   2   2   2   2
#     4  10  21  40  68 100 124 167 232 266 319 372
#     4  10  24  43  66  93 133 180 209 265 344 386
#     4  11  27  45  64  93 139 177 210 269 338 395
#     4   9  20  38  65  92 131 167 212 268 322 381
#     4  11  24  40  70 100 127 171 220 277 316 392
#     4  10  22  42  65 101 129 168 224 273 320 388
#     4  10  21  40  69  88 124 173 215 269 320 393
#     4   9  22  41  64  96 133 175 215 266 323 399
#
# _framework density 23.764748000000001
#
# number of rings (size 3 to 8) (size 9 to 14) (size 15 to 20)
#    0.000    2.000    0.000    1.875   10.500    2.500 
#    2.250    1.250    0.000    0.000    0.000    0.000 
#    0.000    0.000    0.000    0.000    0.000    0.000 
#
# Total GULP energy -198292.739243 kJ/mol
# GULP energy per Si atom -12393.296203 kJ/mol
# Density = 2.371066 g / cm^3
# Si number density = 23.764748 Si / 1000 Ang^3
#
#
#
# Elastic Constant Matrix: (Units=GPa)
#
#
# Indices 1 2 3 4 5 6 
#
# 1 45.8346 28.7922 30.2829 -15.0223 -1.3835 19.4733
# 2 28.7922 155.4604 71.2999 -17.8637 0.8215 37.3161
# 3 30.2829 71.2999 168.1852 -29.3759 2.9918 32.0280
# 4 -15.0223 -17.8637 -29.3759 42.9978 8.5364 1.9168
# 5 -1.3835 0.8215 2.9918 8.5364 31.9054 3.4847
# 6 19.4733 37.3161 32.0280 1.9168 3.4847 37.8106
#
#
#
# Elastic Compliance Matrix: (Units=1/GPa)
#
#
# Indices 1 2 3 4 5 6 
#
# 1 0.033602 -0.000557 -0.000519 0.011870 0.000194 -0.016936
# 2 -0.000557 0.009616 -0.002050 0.002735 0.000020 -0.007607
# 3 -0.000519 -0.002050 0.008966 0.005679 -0.001737 -0.005431
# 4 0.011870 0.002735 0.005679 0.034612 -0.007747 -0.014664
# 5 0.000194 0.000020 -0.001737 -0.007747 0.033735 -0.001365
# 6 -0.016936 -0.007607 -0.005431 -0.014664 -0.001365 0.048148
#
#
# Mechanical properties :
#
#
# Convention : Reuss Voigt Hill
#
# Bulk Modulus (GPa) = 21.77187 70.02557 45.89872
# Shear Modulus (GPa) = 26.28232 38.48312 32.38272
#
# Velocity S-wave (km/s) = 3.32917 4.02846 3.69540
# Velocity P-wave (km/s) = 4.89481 7.15319 6.12892
#
# Compressibility (1/GPa) = 0.04593083
#
# Stress axis : x y z
#
# Youngs Moduli (GPa) = 29.76007 103.99105 111.53678
#
# Poissons Ratio (x) = 0.05793 0.05791
# Poissons Ratio (y) = 0.01658 0.22869
# Poissons Ratio (z) = 0.01545 0.21322
#
# Static dielectric constant tensor:
#      x y z
#    x 4.010630 0.480470 0.646570 
#    y 0.480470 4.072800 -1.047200 
#    z 0.646570 -1.047200 2.802720 
# 
# 
# High freq. dielectric constant tensor:
#      x y z
#    x 1.943650 0.006600 -0.007570 
#    y 0.006600 1.946870 -0.007610 
#    z -0.007570 -0.007610 1.942670 
# 
# From -- ./inp_files/419754.got.cif
#   From: 2010.06.25/outbox.cif.g09.slc.cpg/sg2_210_cif.got.tgz:419754.got - 2010.06.27 13:26:56.
