data_PCOD8013343
_publ_section_title
;
Structure prediction by ZEFSAII (Michael W. Deem and Ramdas Pophale) SiO2 
 PCOD8013343
Probable space group: P -1
;
_chemical_formula_sum "Si O2"
_cell_formula_units_Z 16
_cell_length_a 7.909713
_cell_length_b 14.783158
_cell_length_c 20.735485
_cell_angle_alpha 23.892671
_cell_angle_beta 116.313054
_cell_angle_gamma 108.291046
_cell_volume 851.894822
_symmetry_space_group_name_H-M "P -1"
_symmetry_group_IT_number 2
_symmetry_cell_setting 'triclinic'
loop_
_space_group_symop_operation_xyz
x,y,z
-x,-y,-z
loop_
_atom_site_type_symbol
_atom_site_label
_atom_site_fract_x
_atom_site_fract_y
_atom_site_fract_z
Si Si1 0.545610 0.857669 0.341352
Si Si2 0.151098 0.778340 0.335694
Si Si3 0.880963 0.371897 0.330470
Si Si4 0.223998 0.954881 0.645023
Si Si5 0.939807 0.575880 0.540235
Si Si6 0.794498 0.509965 0.989697
Si Si7 0.793465 0.753508 0.965354
Si Si8 0.549847 0.211810 0.334318
O O1 0.389605 0.701881 0.426525
O O2 0.719851 0.739974 0.399319
O O3 0.635834 0.893231 0.402756
O O4 0.420000 0.111364 0.129945
O O5 0.070195 0.668802 0.331606
O O6 0.070830 0.697199 0.440210
O O7 0.076710 0.057875 0.138434
O O8 0.657056 0.351181 0.311113
O O9 0.953188 0.471810 0.342160
O O10 0.902937 0.544363 0.164473
O O11 0.007309 0.117129 0.500438
O O12 0.290698 0.872752 0.638954
O O13 0.225681 0.742787 0.831216
O O14 0.759592 0.670184 0.942272
O O15 0.639126 0.616666 0.839016
O O16 0.000000 0.500000 0.000000
O O17 0.500000 0.000000 0.500000
#
# Coordination Sequence:
#
# PCOD8013343 Si02
#       8
#     2   2   2   2   2   2   2   2
#     4   9  20  37  65  85 117 160 200 250 299 370
#     4   9  21  40  66  88 119 155 207 259 305 373
#     4  11  24  38  59  91 119 161 202 252 305 361
#     4  11  22  40  60  84 125 162 204 245 305 369
#     4  10  21  40  67  90 116 158 209 253 315 367
#     4  12  25  40  62  88 123 171 205 246 306 372
#     4  10  22  40  59  85 124 157 205 252 299 361
#     4  12  24  37  58  88 124 160 199 256 298 359
#
# _framework density 18.781662000000001
#
# number of rings (size 3 to 8) (size 9 to 14) (size 15 to 20)
#    0.750    0.750    2.500    2.625    8.750    0.500 
#    0.000    0.000    0.000    1.500    0.000    0.000 
#    0.000    0.000    0.000    0.000    0.000    0.000 
#
# Total GULP energy -198297.524042 kJ/mol
# GULP energy per Si atom -12393.595253 kJ/mol
# Density = 1.873891 g / cm^3
# Si number density = 18.781662 Si / 1000 Ang^3
#
#
#
# Elastic Constant Matrix: (Units=GPa)
#
#
# Indices 1 2 3 4 5 6 
#
# 1 110.8661 43.2364 40.7748 10.3096 -5.0982 17.5536
# 2 43.2364 73.5789 36.5316 7.3261 2.2710 23.0007
# 3 40.7748 36.5316 123.3138 10.8808 -2.5824 16.2010
# 4 10.3096 7.3261 10.8808 27.2638 2.6848 -3.2677
# 5 -5.0982 2.2710 -2.5824 2.6848 30.4234 -7.1942
# 6 17.5536 23.0007 16.2010 -3.2677 -7.1942 28.0463
#
#
#
# Elastic Compliance Matrix: (Units=1/GPa)
#
#
# Indices 1 2 3 4 5 6 
#
# 1 0.012602 -0.005602 -0.001947 -0.002930 0.002161 -0.001956
# 2 -0.005602 0.024270 -0.002831 -0.004660 -0.006599 -0.016997
# 3 -0.001947 -0.002831 0.010198 -0.002923 0.000396 -0.002590
# 4 -0.002930 -0.004660 -0.002923 0.041754 -0.001266 0.011884
# 5 0.002161 -0.006599 0.000396 -0.001266 0.036984 0.013169
# 6 -0.001956 -0.016997 -0.002590 0.011884 0.013169 0.057077
#
#
# Mechanical properties :
#
#
# Convention : Reuss Voigt Hill
#
# Bulk Modulus (GPa) = 38.00908 60.98271 49.49589
# Shear Modulus (GPa) = 23.53873 29.62776 26.58324
#
# Velocity S-wave (km/s) = 3.54401 3.97606 3.76624
# Velocity P-wave (km/s) = 6.08506 7.32247 6.73226
#
# Compressibility (1/GPa) = 0.02630951
#
# Stress axis : x y z
#
# Youngs Moduli (GPa) = 79.35127 41.20363 98.05655
#
# Poissons Ratio (x) = 0.23084 0.19087
# Poissons Ratio (y) = 0.44456 0.27762
# Poissons Ratio (z) = 0.15446 0.11666
#
# Static dielectric constant tensor:
#      x y z
#    x 3.453550 0.132340 0.069760 
#    y 0.132340 3.508710 -0.080630 
#    z 0.069760 -0.080630 3.348910 
# 
# 
# High freq. dielectric constant tensor:
#      x y z
#    x 1.728740 0.015670 0.002230 
#    y 0.015670 1.735660 -0.005130 
#    z 0.002230 -0.005130 1.719790 
# 
# From -- ./inp_files/206151.got.cif
#   From: 2010.06.25/outbox.cif.g09.slc.cpg/sg2_104_cif.got.tgz:206151.got - 2010.06.27 13:26:56.
