data_PCOD8013573
_publ_section_title
;
Structure prediction by ZEFSAII (Michael W. Deem and Ramdas Pophale) SiO2 
 PCOD8013573
Probable space group: P -1
;
_chemical_formula_sum "Si O2"
_cell_formula_units_Z 16
_cell_length_a 9.299394
_cell_length_b 14.643345
_cell_length_c 21.566038
_cell_angle_alpha 160.714031
_cell_angle_beta 50.627290
_cell_angle_gamma 130.522439
_cell_volume 734.710010
_symmetry_space_group_name_H-M "P -1"
_symmetry_group_IT_number 2
_symmetry_cell_setting 'triclinic'
loop_
_space_group_symop_operation_xyz
x,y,z
-x,-y,-z
loop_
_atom_site_type_symbol
_atom_site_label
_atom_site_fract_x
_atom_site_fract_y
_atom_site_fract_z
Si Si1 0.977328 0.977950 0.327475
Si Si2 0.869532 0.667300 0.708424
Si Si3 0.840693 0.122170 0.912761
Si Si4 0.190669 0.432447 0.074889
Si Si5 0.354018 0.531884 0.892640
Si Si6 0.729225 0.156751 0.340624
Si Si7 0.246553 0.541616 0.270690
Si Si8 0.340981 0.908233 0.251009
O O1 0.851645 0.668384 0.174420
O O2 0.049414 0.006082 0.255022
O O3 0.158916 0.027500 0.355158
O O4 0.849174 0.197904 0.520673
O O5 0.770308 0.344172 0.511462
O O6 0.821877 0.705340 0.817971
O O7 0.098662 0.722595 0.676262
O O8 0.779200 0.873406 0.820320
O O9 0.660862 0.237976 0.009704
O O10 0.975653 0.384481 0.077949
O O11 0.185588 0.416345 0.140058
O O12 0.300577 0.737251 0.217232
O O13 0.277964 0.175355 0.857278
O O14 0.524029 0.368542 0.728450
O O15 0.401810 0.694538 0.048171
O O16 0.520096 0.169478 0.378922
#
# Coordination Sequence:
#
# PCOD8013573 Si02
#       8
#     2   2   2   2   2   2   2   2
#     4  11  22  42  67  98 131 161 209 274 322 376
#     4  10  24  43  62  93 131 173 215 260 308 378
#     4  10  21  45  73  84 126 180 214 252 316 385
#     4  11  21  39  68  97 129 163 212 264 327 372
#     4  11  22  42  67  99 127 168 212 263 325 381
#     4  10  21  40  69  91 120 173 221 254 308 384
#     4  12  26  38  62 100 134 168 208 265 324 366
#     4  11  21  40  69  99 123 166 218 263 319 385
#
# _framework density 21.777301000000001
#
# number of rings (size 3 to 8) (size 9 to 14) (size 15 to 20)
#    0.000    1.250    3.750    3.750    0.000    4.000 
#    2.250    5.625    0.000    0.000    0.000    0.000 
#    0.000    0.000    0.000    0.000    0.000    0.000 
#
# Total GULP energy -198340.412657 kJ/mol
# GULP energy per Si atom -12396.275791 kJ/mol
# Density = 2.172774 g / cm^3
# Si number density = 21.777301 Si / 1000 Ang^3
#
#
#
# Elastic Constant Matrix: (Units=GPa)
#
#
# Indices 1 2 3 4 5 6 
#
# 1 144.6813 68.6136 53.8827 -7.6051 0.6632 4.2254
# 2 68.6136 98.1858 28.3476 -0.5791 1.1934 -18.6171
# 3 53.8827 28.3476 77.4546 -1.1526 -11.6088 -0.6250
# 4 -7.6051 -0.5791 -1.1526 27.2489 7.1709 1.1628
# 5 0.6632 1.1934 -11.6088 7.1709 33.9154 -1.1777
# 6 4.2254 -18.6171 -0.6250 1.1628 -1.1777 50.7665
#
#
#
# Elastic Compliance Matrix: (Units=1/GPa)
#
#
# Indices 1 2 3 4 5 6 
#
# 1 0.013987 -0.008516 -0.007111 0.004545 -0.003527 -0.004561
# 2 -0.008516 0.017631 -0.000485 -0.002366 0.000131 0.007226
# 3 -0.007111 -0.000485 0.019104 -0.003172 0.007397 0.000893
# 4 0.004545 -0.002366 -0.003172 0.040447 -0.009728 -0.002437
# 5 -0.003527 0.000131 0.007397 -0.009728 0.034188 0.001449
# 6 -0.004561 0.007226 0.000893 -0.002437 0.001449 0.022828
#
#
# Mechanical properties :
#
#
# Convention : Reuss Voigt Hill
#
# Bulk Modulus (GPa) = 54.06580 69.11216 61.58898
# Shear Modulus (GPa) = 26.79853 33.68466 30.24159
#
# Velocity S-wave (km/s) = 3.51176 3.93718 3.73054
# Velocity P-wave (km/s) = 6.42836 7.24384 6.84825
#
# Compressibility (1/GPa) = 0.01849598
#
# Stress axis : x y z
#
# Youngs Moduli (GPa) = 71.49326 56.71879 52.34435
#
# Poissons Ratio (x) = 0.48304 0.37224
# Poissons Ratio (y) = 0.60887 0.02540
# Poissons Ratio (z) = 0.50842 0.02753
#
# Static dielectric constant tensor:
#      x y z
#    x 4.148610 0.002730 0.072730 
#    y 0.002730 3.859580 -0.004490 
#    z 0.072730 -0.004490 3.671170 
# 
# 
# High freq. dielectric constant tensor:
#      x y z
#    x 1.872860 -0.004230 -0.000370 
#    y -0.004230 1.844280 0.000780 
#    z -0.000370 0.000780 1.830580 
# 
# From -- ./inp_files/590514.got.cif
#   From: 2010.06.25/outbox.cif.g09.slc.cpg/sg2_296_cif.got.tgz:590514.got - 2010.06.27 13:26:56.
