data_PCOD8013671
_publ_section_title
;
Structure prediction by ZEFSAII (Michael W. Deem and Ramdas Pophale) SiO2 
 PCOD8013671
Probable space group: P -1
;
_chemical_formula_sum "Si O2"
_cell_formula_units_Z 16
_cell_length_a 15.235259
_cell_length_b 8.773388
_cell_length_c 18.379322
_cell_angle_alpha 138.198725
_cell_angle_beta 151.386745
_cell_angle_gamma 38.017952
_cell_volume 712.425684
_symmetry_space_group_name_H-M "P -1"
_symmetry_group_IT_number 2
_symmetry_cell_setting 'triclinic'
loop_
_space_group_symop_operation_xyz
x,y,z
-x,-y,-z
loop_
_atom_site_type_symbol
_atom_site_label
_atom_site_fract_x
_atom_site_fract_y
_atom_site_fract_z
Si Si1 0.604263 0.532606 0.372352
Si Si2 0.955027 0.103942 0.085427
Si Si3 0.423140 0.974334 0.855893
Si Si4 0.455014 0.776038 0.092874
Si Si5 0.293905 0.464413 0.339625
Si Si6 0.436244 0.082305 0.639898
Si Si7 0.988169 0.395587 0.684983
Si Si8 0.736558 0.199232 0.677887
O O1 0.523816 0.729234 0.318107
O O2 0.845061 0.435395 0.524303
O O3 0.496822 0.668414 0.417394
O O4 0.534259 0.313732 0.226533
O O5 0.939383 0.383790 0.176134
O O6 0.750733 0.108223 0.970376
O O7 0.132078 0.919558 0.199121
O O8 0.000000 0.000000 0.000000
O O9 0.553627 0.050103 0.919956
O O10 0.185946 0.138735 0.729819
O O11 0.500000 0.000000 0.000000
O O12 0.623237 0.780644 0.275315
O O13 0.500000 0.500000 0.000000
O O14 0.500000 0.500000 0.500000
O O15 0.135998 0.623615 0.342313
O O16 0.193347 0.598469 0.237121
O O17 0.351874 0.167708 0.283216
O O18 0.260289 0.010175 0.453783
#
# Coordination Sequence:
#
# PCOD8013671 Si02
#       8
#     2   2   2   2   2   2   2   2
#     4  12  23  45  74 105 142 191 245 306 368 438
#     4  12  27  46  77 114 150 194 248 306 369 443
#     4  12  30  49  70 103 152 201 245 298 374 452
#     4  12  26  50  71 104 152 198 242 302 373 444
#     4  10  21  40  71 109 142 177 236 312 360 423
#     4  11  22  44  74 102 144 184 243 304 368 429
#     4  12  24  47  70 105 146 190 248 297 365 441
#     4  11  23  42  75 110 142 186 245 307 372 427
#
# _framework density 22.458482
#
# number of rings (size 3 to 8) (size 9 to 14) (size 15 to 20)
#    0.000    0.500    5.000    4.500    5.250    0.000 
#    0.000    3.125    0.000    0.000    0.000    0.000 
#    0.000    0.000    0.000    0.000    0.000    0.000 
#
# Total GULP energy -198364.142633 kJ/mol
# GULP energy per Si atom -12397.758915 kJ/mol
# Density = 2.240737 g / cm^3
# Si number density = 22.458482 Si / 1000 Ang^3
#
#
#
# Elastic Constant Matrix: (Units=GPa)
#
#
# Indices 1 2 3 4 5 6 
#
# 1 163.2649 58.4310 53.6578 0.8709 -4.9686 23.1791
# 2 58.4310 123.0182 45.1219 13.5376 -3.5735 24.9955
# 3 53.6578 45.1219 123.7380 11.7095 -23.2323 6.4795
# 4 0.8709 13.5376 11.7095 42.3633 -0.7846 6.9056
# 5 -4.9686 -3.5735 -23.2323 -0.7846 45.2066 -2.9417
# 6 23.1791 24.9955 6.4795 6.9056 -2.9417 45.5325
#
#
#
# Elastic Compliance Matrix: (Units=1/GPa)
#
#
# Indices 1 2 3 4 5 6 
#
# 1 0.008352 -0.002580 -0.002887 0.001885 -0.000917 -0.002770
# 2 -0.002580 0.011485 -0.002858 -0.002142 -0.001164 -0.004335
# 3 -0.002887 -0.002858 0.011525 -0.002458 0.005475 0.002125
# 4 0.001885 -0.002142 -0.002458 0.025460 -0.001002 -0.003360
# 5 -0.000917 -0.001164 0.005475 -0.001002 0.024860 0.002085
# 6 -0.002770 -0.004335 0.002125 -0.003360 0.002085 0.026094
#
#
# Mechanical properties :
#
#
# Convention : Reuss Voigt Hill
#
# Bulk Modulus (GPa) = 67.96589 80.49362 74.22976
# Shear Modulus (GPa) = 38.66068 43.47452 41.06760
#
# Velocity S-wave (km/s) = 4.15351 4.40452 4.28085
# Velocity P-wave (km/s) = 7.30280 7.86036 7.58670
#
# Compressibility (1/GPa) = 0.01471326
#
# Stress axis : x y z
#
# Youngs Moduli (GPa) = 119.72786 87.06751 86.76742
#
# Poissons Ratio (x) = 0.22459 0.25048
# Poissons Ratio (y) = 0.30884 0.24802
# Poissons Ratio (z) = 0.34562 0.24888
#
# Static dielectric constant tensor:
#      x y z
#    x 4.447060 0.343740 -0.070330 
#    y 0.343740 4.374390 0.065520 
#    z -0.070330 0.065520 4.041400 
# 
# 
# High freq. dielectric constant tensor:
#      x y z
#    x 1.894290 0.022150 -0.010170 
#    y 0.022150 1.886760 0.009030 
#    z -0.010170 0.009030 1.885530 
# 
# From -- ./inp_files/572949.got.cif
#   From: 2010.06.25/outbox.cif.g09.slc.cpg/sg2_287_cif.got.tgz:572949.got - 2010.06.27 13:26:56.
