data_PCOD8013946
_publ_section_title
;
Structure prediction by ZEFSAII (Michael W. Deem and Ramdas Pophale) SiO2 
 PCOD8013946
Probable space group: P -1
;
_chemical_formula_sum "Si O2"
_cell_formula_units_Z 16
_cell_length_a 11.754623
_cell_length_b 9.202254
_cell_length_c 15.016568
_cell_angle_alpha 139.635381
_cell_angle_beta 58.617428
_cell_angle_gamma 100.731248
_cell_volume 830.412115
_symmetry_space_group_name_H-M "P -1"
_symmetry_group_IT_number 2
_symmetry_cell_setting 'triclinic'
loop_
_space_group_symop_operation_xyz
x,y,z
-x,-y,-z
loop_
_atom_site_type_symbol
_atom_site_label
_atom_site_fract_x
_atom_site_fract_y
_atom_site_fract_z
Si Si1 0.406937 0.496655 0.951259
Si Si2 0.434446 0.562778 0.461148
Si Si3 0.415183 0.823668 0.934819
Si Si4 0.466293 0.027944 0.425619
Si Si5 0.164049 0.463637 0.506021
Si Si6 0.162067 0.286374 0.229215
Si Si7 0.846956 0.365787 0.759808
Si Si8 0.172846 0.134344 0.507663
O O1 0.410929 0.686369 0.963659
O O2 0.474031 0.227392 0.764221
O O3 0.500000 0.500000 0.000000
O O4 0.243229 0.551270 0.073939
O O5 0.500000 0.500000 0.500000
O O6 0.517253 0.367770 0.260636
O O7 0.269557 0.594959 0.550822
O O8 0.438544 0.823261 0.569756
O O9 0.500000 0.000000 0.000000
O O10 0.253999 0.998063 0.051307
O O11 0.500000 0.000000 0.500000
O O12 0.295354 0.159946 0.534171
O O13 0.195734 0.387886 0.355523
O O14 0.191455 0.223138 0.441952
O O15 0.006194 0.665880 0.682118
O O16 0.205788 0.424226 0.195384
O O17 0.014158 0.299212 0.685950
O O18 0.815656 0.140628 0.627208
#
# Coordination Sequence:
#
# PCOD8013946 Si02
#       8
#     2   2   2   2   2   2   2   2
#     4  12  25  42  66  96 128 170 220 264 313 377
#     4  12  26  43  67  92 131 174 209 260 331 379
#     4  12  25  42  65  99 128 165 221 269 311 379
#     4  12  26  45  63  92 133 173 210 262 321 388
#     4  10  21  41  63  96 127 170 211 265 319 377
#     4  10  22  38  66  96 129 161 218 268 314 370
#     4  10  22  38  66  97 125 168 214 267 313 375
#     4  10  21  41  64  93 130 168 215 261 320 376
#
# _framework density 19.267541000000001
#
# number of rings (size 3 to 8) (size 9 to 14) (size 15 to 20)
#    0.000    1.000    5.000    1.500    5.250    1.000 
#    0.000    2.500    0.000    0.000    0.000    0.000 
#    0.000    0.000    0.000    0.000    0.000    0.000 
#
# Total GULP energy -198345.635702 kJ/mol
# GULP energy per Si atom -12396.602231 kJ/mol
# Density = 1.922369 g / cm^3
# Si number density = 19.267541 Si / 1000 Ang^3
#
#
#
# Elastic Constant Matrix: (Units=GPa)
#
#
# Indices 1 2 3 4 5 6 
#
# 1 136.1863 65.0075 51.2219 -2.4961 -5.1689 2.8948
# 2 65.0075 169.9441 62.1134 1.5103 -0.7212 -3.7328
# 3 51.2219 62.1134 106.4646 1.1920 -4.0991 -3.8392
# 4 -2.4961 1.5103 1.1920 37.9796 -0.8745 2.5153
# 5 -5.1689 -0.7212 -4.0991 -0.8745 29.9735 -1.6769
# 6 2.8948 -3.7328 -3.8392 2.5153 -1.6769 37.3125
#
#
#
# Elastic Compliance Matrix: (Units=1/GPa)
#
#
# Indices 1 2 3 4 5 6 
#
# 1 0.009915 -0.002640 -0.003246 0.000977 0.001154 -0.001381
# 2 -0.002640 0.008192 -0.003507 -0.000449 -0.000714 0.000662
# 3 -0.003246 -0.003507 0.013102 -0.000546 0.001207 0.001340
# 4 0.000977 -0.000449 -0.000546 0.026575 0.000750 -0.001935
# 5 0.001154 -0.000714 0.001207 0.000750 0.033812 0.001432
# 6 -0.001381 0.000662 0.001340 -0.001935 0.001432 0.027307
#
#
# Mechanical properties :
#
#
# Convention : Reuss Voigt Hill
#
# Bulk Modulus (GPa) = 80.51173 85.47562 82.99367
# Shear Modulus (GPa) = 35.25340 36.66993 35.96166
#
# Velocity S-wave (km/s) = 4.28211 4.36730 4.32492
# Velocity P-wave (km/s) = 8.14405 8.36002 8.25274
#
# Compressibility (1/GPa) = 0.01242055
#
# Stress axis : x y z
#
# Youngs Moduli (GPa) = 100.85412 122.07368 76.32522
#
# Poissons Ratio (x) = 0.32233 0.24777
# Poissons Ratio (y) = 0.26630 0.26771
# Poissons Ratio (z) = 0.32740 0.42817
#
# Static dielectric constant tensor:
#      x y z
#    x 3.649100 -0.005510 -0.417870 
#    y -0.005510 3.809500 -0.073230 
#    z -0.417870 -0.073230 3.495190 
# 
# 
# High freq. dielectric constant tensor:
#      x y z
#    x 1.752130 -0.002170 -0.018130 
#    y -0.002170 1.773890 -0.002340 
#    z -0.018130 -0.002340 1.740250 
# 
# From -- ./inp_files/177966.got.cif
#   From: 2010.06.25/outbox.cif.g09.slc.cpg/sg2_89_cif.got.tgz:177966.got - 2010.06.27 13:26:56.
