data_PCOD8013638
_publ_section_title
;
Structure prediction by ZEFSAII (Michael W. Deem and Ramdas Pophale) SiO2 
 PCOD8013638
Probable space group: P -1
;
_chemical_formula_sum "Si O2"
_cell_formula_units_Z 14
_cell_length_a 9.800096
_cell_length_b 12.305623
_cell_length_c 9.595792
_cell_angle_alpha 40.395640
_cell_angle_beta 110.026881
_cell_angle_gamma 121.752980
_cell_volume 634.117007
_symmetry_space_group_name_H-M "P -1"
_symmetry_group_IT_number 2
_symmetry_cell_setting 'triclinic'
loop_
_space_group_symop_operation_xyz
x,y,z
-x,-y,-z
loop_
_atom_site_type_symbol
_atom_site_label
_atom_site_fract_x
_atom_site_fract_y
_atom_site_fract_z
Si Si1 0.212912 0.643848 0.041539
Si Si2 0.146344 0.023561 0.929840
Si Si3 0.526550 0.624032 0.250142
Si Si4 0.436881 0.312271 0.299460
Si Si5 0.146007 0.998441 0.642780
Si Si6 0.963947 0.387814 0.737187
Si Si7 0.742104 0.501426 0.085943
O O1 0.148559 0.799945 0.845731
O O2 0.175714 0.530457 0.994662
O O3 0.395694 0.705082 0.096048
O O4 0.110298 0.524850 0.255772
O O5 0.306336 0.192975 0.874554
O O6 0.120323 0.068155 0.717212
O O7 0.159284 0.827082 0.128698
O O8 0.000000 0.000000 0.000000
O O9 0.500000 0.500000 0.500000
O O10 0.519763 0.490455 0.253241
O O11 0.590661 0.307959 0.275100
O O12 0.326084 0.126999 0.524159
O O13 0.321867 0.344714 0.116338
O O14 0.000000 0.000000 0.500000
O O15 0.000000 0.500000 0.500000
O O16 0.132257 0.405109 0.838599
#
# Coordination Sequence:
#
# PCOD8013638 Si02
#       7
#     2   2   2   2   2   2   2
#     4  10  25  42  66  97 132 174 228 269 335 395
#     4  11  25  42  66 100 133 172 225 275 331 399
#     4  11  23  43  70  95 135 178 220 276 334 393
#     4  10  21  40  70  92 129 178 222 268 339 389
#     4  11  24  43  67  97 134 174 222 279 332 399
#     4  11  25  40  64  97 136 173 216 279 333 392
#     4  10  22  42  64  95 129 176 221 272 326 409
#
# _framework density 22.077943999999999
#
# number of rings (size 3 to 8) (size 9 to 14) (size 15 to 20)
#    0.000    1.429    1.429    3.000    4.000    8.571 
#    0.000    0.000    0.000    0.000    0.000    0.000 
#    0.000    0.000    0.000    0.000    0.000    0.000 
#
# Total GULP energy -173467.570700 kJ/mol
# GULP energy per Si atom -12390.540764 kJ/mol
# Density = 2.202769 g / cm^3
# Si number density = 22.077944 Si / 1000 Ang^3
#
#
#
# Elastic Constant Matrix: (Units=GPa)
#
#
# Indices 1 2 3 4 5 6 
#
# 1 89.7219 29.5689 36.0545 5.9276 -13.4628 -0.3264
# 2 29.5689 102.9068 51.4775 7.7987 -0.1273 19.0478
# 3 36.0545 51.4775 123.8741 11.5645 -23.5255 6.7495
# 4 5.9276 7.7987 11.5645 37.1528 4.8170 -5.3772
# 5 -13.4628 -0.1273 -23.5255 4.8170 52.1527 7.2951
# 6 -0.3264 19.0478 6.7495 -5.3772 7.2951 33.2362
#
#
#
# Elastic Compliance Matrix: (Units=1/GPa)
#
#
# Indices 1 2 3 4 5 6 
#
# 1 0.013437 -0.002972 -0.002247 -0.000881 0.002299 0.001644
# 2 -0.002972 0.014525 -0.004938 -0.001859 -0.001772 -0.007262
# 3 -0.002247 -0.004938 0.012189 -0.003301 0.005405 -0.001388
# 4 -0.000881 -0.001859 -0.003301 0.030342 -0.005624 0.007871
# 5 0.002299 -0.001772 0.005405 -0.005624 0.023581 -0.006146
# 6 0.001644 -0.007262 -0.001388 0.007871 -0.006146 0.037170
#
#
# Mechanical properties :
#
#
# Convention : Reuss Voigt Hill
#
# Bulk Modulus (GPa) = 50.40974 61.18941 55.79957
# Shear Modulus (GPa) = 31.61163 37.80180 34.70672
#
# Velocity S-wave (km/s) = 3.78804 4.14236 3.96916
# Velocity P-wave (km/s) = 6.48186 7.11718 6.80694
#
# Compressibility (1/GPa) = 0.01983744
#
# Stress axis : x y z
#
# Youngs Moduli (GPa) = 74.42170 68.84868 82.04098
#
# Poissons Ratio (x) = 0.20461 0.18431
# Poissons Ratio (y) = 0.22117 0.40513
# Poissons Ratio (z) = 0.16720 0.33998
#
# Static dielectric constant tensor:
#      x y z
#    x 4.286000 0.024990 -0.389880 
#    y 0.024990 4.070530 0.275460 
#    z -0.389880 0.275460 4.400850 
# 
# 
# High freq. dielectric constant tensor:
#      x y z
#    x 1.876200 0.010010 -0.025840 
#    y 0.010010 1.866530 0.020030 
#    z -0.025840 0.020030 1.875210 
# 
# From -- ./inp_files/184423.got.cif
#   From: 2010.06.25/outbox.cif.g09.slc.cpg/sg2_93_cif.got.tgz:184423.got - 2010.06.27 13:26:56.
