data_PCOD8013496
_publ_section_title
;
Structure prediction by ZEFSAII (Michael W. Deem and Ramdas Pophale) SiO2 
 PCOD8013496
Probable space group: P -1
;
_chemical_formula_sum "Si O2"
_cell_formula_units_Z 14
_cell_length_a 8.585875
_cell_length_b 9.238540
_cell_length_c 9.126326
_cell_angle_alpha 88.430737
_cell_angle_beta 69.797268
_cell_angle_gamma 111.980342
_cell_volume 619.700173
_symmetry_space_group_name_H-M "P -1"
_symmetry_group_IT_number 2
_symmetry_cell_setting 'triclinic'
loop_
_space_group_symop_operation_xyz
x,y,z
-x,-y,-z
loop_
_atom_site_type_symbol
_atom_site_label
_atom_site_fract_x
_atom_site_fract_y
_atom_site_fract_z
Si Si1 0.931949 0.820839 0.402094
Si Si2 0.249860 0.528339 0.046111
Si Si3 0.373517 0.264302 0.972360
Si Si4 0.072357 0.502719 0.639846
Si Si5 0.162168 0.019206 0.836871
Si Si6 0.712267 0.903740 0.690233
Si Si7 0.310260 0.759437 0.748363
O O1 0.882875 0.650444 0.351281
O O2 0.881031 0.934550 0.309381
O O3 0.810686 0.799507 0.587748
O O4 0.148197 0.909878 0.366968
O O5 0.241893 0.356936 0.009189
O O6 0.069925 0.504814 0.190051
O O7 0.417740 0.612474 0.099745
O O8 0.270692 0.630605 0.891995
O O9 0.329223 0.147281 0.127699
O O10 0.343040 0.158659 0.839598
O O11 0.249774 0.663301 0.616114
O O12 0.000000 0.500000 0.500000
O O13 0.192569 0.859487 0.816334
O O14 0.000000 0.000000 0.000000
O O15 0.524893 0.874390 0.667050
#
# Coordination Sequence:
#
# PCOD8013496 Si02
#       7
#     2   2   2   2   2   2   2
#     4  11  25  43  68  91 133 173 208 270 324 382
#     4  10  22  41  66  97 132 166 217 263 324 373
#     4  10  21  40  68  95 129 173 212 267 312 390
#     4  12  26  42  67  96 129 169 215 269 323 385
#     4  12  23  39  67  96 130 168 216 259 322 376
#     4  10  24  44  67  95 130 169 219 261 325 378
#     4  11  26  43  67  97 131 168 219 270 311 390
#
# _framework density 22.591569
#
# number of rings (size 3 to 8) (size 9 to 14) (size 15 to 20)
#    0.000    1.143    1.429    3.857    6.000    3.429 
#    0.000    0.000    0.000    0.000    0.000    0.000 
#    0.000    0.000    0.000    0.000    0.000    0.000 
#
# Total GULP energy -173636.005598 kJ/mol
# GULP energy per Si atom -12402.571828 kJ/mol
# Density = 2.254015 g / cm^3
# Si number density = 22.591569 Si / 1000 Ang^3
#
#
#
# Elastic Constant Matrix: (Units=GPa)
#
#
# Indices 1 2 3 4 5 6 
#
# 1 110.4714 49.0202 21.0350 12.3656 2.7013 15.3183
# 2 49.0202 131.2803 7.6119 38.1558 1.0009 3.9840
# 3 21.0350 7.6119 44.6271 10.5869 5.1229 15.5283
# 4 12.3656 38.1558 10.5869 30.6657 4.6342 3.3540
# 5 2.7013 1.0009 5.1229 4.6342 36.2209 3.7953
# 6 15.3183 3.9840 15.5283 3.3540 3.7953 44.6363
#
#
#
# Elastic Compliance Matrix: (Units=1/GPa)
#
#
# Indices 1 2 3 4 5 6 
#
# 1 0.012239 -0.005259 -0.004900 0.003593 -0.000296 -0.002271
# 2 -0.005259 0.014392 0.003841 -0.017399 0.001640 0.000352
# 3 -0.004900 0.003841 0.029883 -0.012002 -0.001591 -0.008020
# 4 0.003593 -0.017399 -0.012002 0.057721 -0.005541 0.000629
# 5 -0.000296 0.001640 -0.001591 -0.005541 0.028678 -0.001513
# 6 -0.002271 0.000352 -0.008020 0.000629 -0.001513 0.026023
#
#
# Mechanical properties :
#
#
# Convention : Reuss Voigt Hill
#
# Bulk Modulus (GPa) = 22.79077 49.07922 35.93500
# Shear Modulus (GPa) = 25.48458 36.21872 30.85165
#
# Velocity S-wave (km/s) = 3.36230 4.00834 3.69945
# Velocity P-wave (km/s) = 5.01832 6.57222 5.84712
#
# Compressibility (1/GPa) = 0.04387741
#
# Stress axis : x y z
#
# Youngs Moduli (GPa) = 81.70847 69.48307 33.46395
#
# Poissons Ratio (x) = 0.36541 0.16397
# Poissons Ratio (y) = 0.42970 -0.12853
# Poissons Ratio (z) = 0.40036 -0.26687
#
# Static dielectric constant tensor:
#      x y z
#    x 4.422100 0.361110 0.080430 
#    y 0.361110 4.326960 0.156030 
#    z 0.080430 0.156030 3.903140 
# 
# 
# High freq. dielectric constant tensor:
#      x y z
#    x 1.900060 0.011370 0.005950 
#    y 0.011370 1.900860 0.007870 
#    z 0.005950 0.007870 1.880000 
# 
# From -- ./inp_files/153253.got.cif
#   From: 2010.06.25/outbox.cif.g09.slc.cpg/sg2_77_cif.got.tgz:153253.got - 2010.06.27 13:26:56.
