data_PCOD8013634
_publ_section_title
;
Structure prediction by ZEFSAII (Michael W. Deem and Ramdas Pophale) SiO2 
 PCOD8013634
Probable space group: P -1
;
_chemical_formula_sum "Si O2"
_cell_formula_units_Z 14
_cell_length_a 17.666420
_cell_length_b 11.014319
_cell_length_c 6.378263
_cell_angle_alpha 118.374517
_cell_angle_beta 133.755661
_cell_angle_gamma 39.526900
_cell_volume 565.942200
_symmetry_space_group_name_H-M "P -1"
_symmetry_group_IT_number 2
_symmetry_cell_setting 'triclinic'
loop_
_space_group_symop_operation_xyz
x,y,z
-x,-y,-z
loop_
_atom_site_type_symbol
_atom_site_label
_atom_site_fract_x
_atom_site_fract_y
_atom_site_fract_z
Si Si1 0.901526 0.045182 0.044191
Si Si2 0.112705 0.698550 0.471848
Si Si3 0.594271 0.217293 0.020772
Si Si4 0.421389 0.281438 0.120867
Si Si5 0.865763 0.587871 0.464112
Si Si6 0.633392 0.461480 0.447147
Si Si7 0.292044 0.014512 0.330853
O O1 0.979840 0.875483 0.225063
O O2 0.845950 0.233366 0.206877
O O3 0.766179 0.072415 0.736498
O O4 0.000000 0.000000 0.000000
O O5 0.078846 0.582953 0.415919
O O6 0.249447 0.553383 0.462020
O O7 0.479164 0.240913 0.961121
O O8 0.677576 0.257891 0.354280
O O9 0.522462 0.368745 0.817442
O O10 0.699717 0.014183 0.932132
O O11 0.376320 0.475120 0.280575
O O12 0.547306 0.097363 0.356735
O O13 0.276022 0.322243 0.872906
O O14 0.822257 0.759023 0.661165
O O15 0.000000 0.500000 0.500000
#
# Coordination Sequence:
#
# PCOD8013634 Si02
#       7
#     2   2   2   2   2   2   2
#     4  11  26  46  74 108 146 193 244 307 372 435
#     4  11  25  46  72 106 146 190 246 298 369 435
#     4  10  21  42  71 108 145 180 242 298 373 429
#     4  11  25  44  74 105 147 195 241 307 365 432
#     4  12  28  51  73 107 150 199 252 300 366 442
#     4  10  21  40  70 109 137 184 239 303 358 436
#     4  11  26  47  72 108 149 196 239 304 364 436
#
# _framework density 24.737507000000001
#
# number of rings (size 3 to 8) (size 9 to 14) (size 15 to 20)
#    0.000    1.143    2.857    1.714    6.000    2.286 
#    2.571    0.000    0.000    0.000    0.000    0.000 
#    0.000    0.000    0.000    0.000    0.000    0.000 
#
# Total GULP energy -173555.302620 kJ/mol
# GULP energy per Si atom -12396.807330 kJ/mol
# Density = 2.468120 g / cm^3
# Si number density = 24.737507 Si / 1000 Ang^3
#
#
#
# Elastic Constant Matrix: (Units=GPa)
#
#
# Indices 1 2 3 4 5 6 
#
# 1 170.2495 67.8244 58.6631 10.1215 7.0660 -20.4015
# 2 67.8244 132.3397 62.3934 37.5547 -14.1801 -12.4049
# 3 58.6631 62.3934 72.9121 29.8863 0.0513 -2.1239
# 4 10.1215 37.5547 29.8863 46.7131 -5.1383 -11.1277
# 5 7.0660 -14.1801 0.0513 -5.1383 38.4100 0.9005
# 6 -20.4015 -12.4049 -2.1239 -11.1277 0.9005 42.9415
#
#
#
# Elastic Compliance Matrix: (Units=1/GPa)
#
#
# Indices 1 2 3 4 5 6 
#
# 1 0.010201 -0.002936 -0.008157 0.006386 -0.002220 0.005296
# 2 -0.002936 0.015262 -0.008476 -0.005351 0.005444 0.001094
# 3 -0.008157 -0.008476 0.033563 -0.015318 -0.003522 -0.008560
# 4 0.006386 -0.005351 -0.015318 0.036729 0.001544 0.010216
# 5 -0.002220 0.005444 -0.003522 0.001544 0.028661 0.000143
# 6 0.005296 0.001094 -0.008560 0.010216 0.000143 0.028341
#
#
# Mechanical properties :
#
#
# Convention : Reuss Voigt Hill
#
# Bulk Modulus (GPa) = 50.28302 83.69590 66.98946
# Shear Modulus (GPa) = 25.18576 38.05428 31.62002
#
# Velocity S-wave (km/s) = 3.19426 3.92640 3.57910
# Velocity P-wave (km/s) = 5.82882 7.37988 6.64973
#
# Compressibility (1/GPa) = 0.01988743
#
# Stress axis : x y z
#
# Youngs Moduli (GPa) = 98.02761 65.52368 29.79438
#
# Poissons Ratio (x) = 0.19238 0.24303
# Poissons Ratio (y) = 0.28781 0.25255
# Poissons Ratio (z) = 0.79962 0.55540
#
# Static dielectric constant tensor:
#      x y z
#    x 4.230610 -0.206120 0.010920 
#    y -0.206120 4.522260 0.286010 
#    z 0.010920 0.286010 4.668870 
# 
# 
# High freq. dielectric constant tensor:
#      x y z
#    x 1.980750 -0.018850 0.000140 
#    y -0.018850 1.983030 0.011420 
#    z 0.000140 0.011420 1.987050 
# 
# From -- ./inp_files/109877.got.cif
#   From: 2010.06.25/outbox.cif.g09.slc.cpg/sg2_55_cif.got.tgz:109877.got - 2010.06.27 13:26:56.
