data_PCOD8013360
_publ_section_title
;
Structure prediction by ZEFSAII (Michael W. Deem and Ramdas Pophale) SiO2 
 PCOD8013360
Probable space group: P -1
;
_chemical_formula_sum "Si O2"
_cell_formula_units_Z 16
_cell_length_a 15.895392
_cell_length_b 13.458187
_cell_length_c 15.324507
_cell_angle_alpha 122.961296
_cell_angle_beta 141.405273
_cell_angle_gamma 27.200714
_cell_volume 792.818163
_symmetry_space_group_name_H-M "P -1"
_symmetry_group_IT_number 2
_symmetry_cell_setting 'triclinic'
loop_
_space_group_symop_operation_xyz
x,y,z
-x,-y,-z
loop_
_atom_site_type_symbol
_atom_site_label
_atom_site_fract_x
_atom_site_fract_y
_atom_site_fract_z
Si Si1 0.679545 0.258556 0.981853
Si Si2 0.825256 0.730915 0.412746
Si Si3 0.143769 0.584863 0.450592
Si Si4 0.628500 0.062884 0.949009
Si Si5 0.606808 0.049648 0.120464
Si Si6 0.890335 0.392499 0.996974
Si Si7 0.688894 0.286395 0.803875
Si Si8 0.642375 0.839757 0.626425
O O1 0.500000 0.500000 0.000000
O O2 0.572594 0.222603 0.923311
O O3 0.613030 0.298721 0.844754
O O4 0.032072 0.997513 0.149159
O O5 0.652119 0.801222 0.227526
O O6 0.000000 0.500000 0.500000
O O7 0.039365 0.654546 0.500070
O O8 0.605226 0.974397 0.411685
O O9 0.412572 0.467164 0.607073
O O10 0.235115 0.386223 0.393738
O O11 0.895590 0.835288 0.309273
O O12 0.666471 0.062610 0.081052
O O13 0.920584 0.769604 0.014319
O O14 0.352578 0.323021 0.090550
O O15 0.500000 0.000000 0.000000
O O16 0.094712 0.277554 0.187740
O O17 0.739565 0.387159 0.899663
O O18 0.500000 0.000000 0.500000
#
# Coordination Sequence:
#
# PCOD8013360 Si02
#       8
#     2   2   2   2   2   2   2   2
#     4  10  21  40  67  92 129 170 209 252 320 391
#     4  11  21  36  60  91 128 159 204 262 323 370
#     4  12  25  41  60  99 127 165 214 265 315 375
#     4  10  22  39  62  92 121 169 215 260 312 373
#     4  12  23  42  66  89 126 171 221 258 309 384
#     4  10  23  44  63  91 126 172 209 261 321 374
#     4  10  24  41  63  96 132 165 207 262 327 378
#     4  11  23  37  65  93 128 161 208 270 319 370
#
# _framework density 20.181173000000001
#
# number of rings (size 3 to 8) (size 9 to 14) (size 15 to 20)
#    0.000    1.250    3.750    1.500    5.250    4.000 
#    0.000    2.500    0.000    0.000    0.000    0.000 
#    0.000    0.000    0.000    0.000    0.000    0.000 
#
# Total GULP energy -198428.773559 kJ/mol
# GULP energy per Si atom -12401.798347 kJ/mol
# Density = 2.013524 g / cm^3
# Si number density = 20.181173 Si / 1000 Ang^3
#
#
#
# Elastic Constant Matrix: (Units=GPa)
#
#
# Indices 1 2 3 4 5 6 
#
# 1 65.7051 23.8421 18.6968 2.0154 9.5272 -5.2697
# 2 23.8421 150.0886 39.3230 -13.3366 10.6147 -8.4775
# 3 18.6968 39.3230 120.3539 -13.1192 17.7053 -0.0274
# 4 2.0154 -13.3366 -13.1192 31.0669 5.5823 -1.0650
# 5 9.5272 10.6147 17.7053 5.5823 31.8505 1.2364
# 6 -5.2697 -8.4775 -0.0274 -1.0650 1.2364 29.6537
#
#
#
# Elastic Compliance Matrix: (Units=1/GPa)
#
#
# Indices 1 2 3 4 5 6 
#
# 1 0.017207 -0.002093 -0.001744 -0.002088 -0.003212 0.002517
# 2 -0.002093 0.007961 -0.001665 0.003236 -0.001750 0.002092
# 3 -0.001744 -0.001665 0.010467 0.004806 -0.005570 -0.000371
# 4 -0.002088 0.003236 0.004806 0.037584 -0.009803 0.002317
# 5 -0.003212 -0.001750 -0.005570 -0.009803 0.037872 -0.003007
# 6 0.002517 0.002092 -0.000371 0.002317 -0.003007 0.034976
#
#
# Mechanical properties :
#
#
# Convention : Reuss Voigt Hill
#
# Bulk Modulus (GPa) = 40.59895 55.54128 48.07012
# Shear Modulus (GPa) = 30.25169 35.46662 32.85916
#
# Velocity S-wave (km/s) = 3.87590 4.19670 4.03948
# Velocity P-wave (km/s) = 6.33964 7.14592 6.75482
#
# Compressibility (1/GPa) = 0.02463118
#
# Stress axis : x y z
#
# Youngs Moduli (GPa) = 58.11688 125.61359 95.53792
#
# Poissons Ratio (x) = 0.26287 0.16660
# Poissons Ratio (y) = 0.12162 0.15910
# Poissons Ratio (z) = 0.10134 0.20919
#
# Static dielectric constant tensor:
#      x y z
#    x 3.716780 -0.176910 0.061310 
#    y -0.176910 3.849730 -0.088350 
#    z 0.061310 -0.088350 3.753610 
# 
# 
# High freq. dielectric constant tensor:
#      x y z
#    x 1.787150 -0.012690 0.005150 
#    y -0.012690 1.796760 -0.011680 
#    z 0.005150 -0.011680 1.784070 
# 
# From -- ./inp_files/464693.got.cif
#   From: 2010.06.25/outbox.cif.g09.slc.cpg/sg2_233_cif.got.tgz:464693.got - 2010.06.27 13:26:56.
