data_PCOD8013176
_publ_section_title
;
Structure prediction by ZEFSAII (Michael W. Deem and Ramdas Pophale) SiO2 
 PCOD8013176
Probable space group: P -1
;
_chemical_formula_sum "Si O2"
_cell_formula_units_Z 14
_cell_length_a 10.837815
_cell_length_b 5.328380
_cell_length_c 12.008730
_cell_angle_alpha 97.282510
_cell_angle_beta 125.144509
_cell_angle_gamma 89.342393
_cell_volume 560.867451
_symmetry_space_group_name_H-M "P -1"
_symmetry_group_IT_number 2
_symmetry_cell_setting 'triclinic'
loop_
_space_group_symop_operation_xyz
x,y,z
-x,-y,-z
loop_
_atom_site_type_symbol
_atom_site_label
_atom_site_fract_x
_atom_site_fract_y
_atom_site_fract_z
Si Si1 0.415630 0.640740 0.369148
Si Si2 0.708938 0.724314 0.409958
Si Si3 0.055123 0.524203 0.852075
Si Si4 0.822291 0.722062 0.885506
Si Si5 0.698126 0.065335 0.999546
Si Si6 0.184233 0.751672 0.425171
Si Si7 0.602899 0.726696 0.117921
O O1 0.500000 0.500000 0.500000
O O2 0.544963 0.800158 0.374797
O O3 0.330531 0.452931 0.225367
O O4 0.292842 0.804110 0.375692
O O5 0.761443 0.472273 0.481198
O O6 0.700019 0.655637 0.270911
O O7 0.821514 0.978252 0.500063
O O8 0.210334 0.673302 0.897226
O O9 0.929819 0.727646 0.832193
O O10 0.984652 0.340304 0.708401
O O11 0.082198 0.364782 0.966020
O O12 0.767288 0.995467 0.910409
O O13 0.719659 0.847999 0.091996
O O14 0.518040 0.076103 0.894369
O O15 0.500000 0.500000 0.000000
#
# Coordination Sequence:
#
# PCOD8013176 Si02
#       7
#     2   2   2   2   2   2   2
#     4   9  19  37  62  97 135 170 217 273 338 395
#     4  11  23  42  65  95 134 174 226 272 342 391
#     4  10  22  42  64  99 135 172 220 270 335 406
#     4  10  21  40  66 100 133 173 219 273 337 400
#     4  11  23  40  70  93 128 173 225 280 329 395
#     4  10  24  40  65  96 135 177 217 276 331 411
#     4  11  26  43  67  96 128 172 230 283 332 390
#
# _framework density 24.961331999999999
#
# number of rings (size 3 to 8) (size 9 to 14) (size 15 to 20)
#    0.000    1.714    0.000    3.429   10.000    0.000 
#   18.000    1.429    0.000    0.000    0.000    0.000 
#    0.000    0.000    0.000    0.000    0.000    0.000 
#
# Total GULP energy -173546.632669 kJ/mol
# GULP energy per Si atom -12396.188048 kJ/mol
# Density = 2.490452 g / cm^3
# Si number density = 24.961332 Si / 1000 Ang^3
#
#
#
# Elastic Constant Matrix: (Units=GPa)
#
#
# Indices 1 2 3 4 5 6 
#
# 1 61.6143 -7.4085 8.3522 6.9971 4.1597 9.3484
# 2 -7.4085 75.3324 25.8587 21.6503 -5.3639 16.0796
# 3 8.3522 25.8587 156.2697 23.5793 -2.7446 10.2255
# 4 6.9971 21.6503 23.5793 39.1572 4.3909 3.3717
# 5 4.1597 -5.3639 -2.7446 4.3909 34.8954 3.7897
# 6 9.3484 16.0796 10.2255 3.3717 3.7897 34.7468
#
#
#
# Elastic Compliance Matrix: (Units=1/GPa)
#
#
# Indices 1 2 3 4 5 6 
#
# 1 0.018470 0.004856 -0.000606 -0.005040 -0.000159 -0.006532
# 2 0.004856 0.019599 -0.001183 -0.010702 0.004720 -0.009504
# 3 -0.000606 -0.001183 0.007272 -0.003631 0.001049 -0.001192
# 4 -0.005040 -0.010702 -0.003631 0.034838 -0.006221 0.004675
# 5 -0.000159 0.004720 0.001049 -0.006221 0.030833 -0.005209
# 6 -0.006532 -0.009504 -0.001192 0.004675 -0.005209 0.035400
#
#
# Mechanical properties :
#
#
# Convention : Reuss Voigt Hill
#
# Bulk Modulus (GPa) = 19.42703 38.53570 28.98136
# Shear Modulus (GPa) = 31.75915 39.52082 35.63998
#
# Velocity S-wave (km/s) = 3.57085 3.98336 3.78273
# Velocity P-wave (km/s) = 4.98006 6.05210 5.54206
#
# Compressibility (1/GPa) = 0.05147468
#
# Stress axis : x y z
#
# Youngs Moduli (GPa) = 54.14163 51.02398 137.52045
#
# Poissons Ratio (x) = -0.24776 0.08328
# Poissons Ratio (y) = -0.26289 0.16268
# Poissons Ratio (z) = 0.03279 0.06036
#
# Static dielectric constant tensor:
#      x y z
#    x 5.061710 -0.182450 0.140130 
#    y -0.182450 4.137720 -0.038990 
#    z 0.140130 -0.038990 4.510670 
# 
# 
# High freq. dielectric constant tensor:
#      x y z
#    x 1.990270 -0.004690 0.006560 
#    y -0.004690 1.974310 0.007150 
#    z 0.006560 0.007150 2.001750 
# 
# From -- ./inp_files/65921.got.cif
#   From: 2010.06.25/outbox.cif.g09.slc.cpg/sg2_33_cif.got.tgz:65921.got - 2010.06.27 13:26:56.
