data_PCOD8013966
_publ_section_title
;
Structure prediction by ZEFSAII (Michael W. Deem and Ramdas Pophale) SiO2 
 PCOD8013966
Probable space group: P -1
;
_chemical_formula_sum "Si O2"
_cell_formula_units_Z 14
_cell_length_a 19.892743
_cell_length_b 8.811180
_cell_length_c 12.893450
_cell_angle_alpha 147.789832
_cell_angle_beta 33.085993
_cell_angle_gamma 141.448019
_cell_volume 636.482052
_symmetry_space_group_name_H-M "P -1"
_symmetry_group_IT_number 2
_symmetry_cell_setting 'triclinic'
loop_
_space_group_symop_operation_xyz
x,y,z
-x,-y,-z
loop_
_atom_site_type_symbol
_atom_site_label
_atom_site_fract_x
_atom_site_fract_y
_atom_site_fract_z
Si Si1 0.627720 0.311739 0.299464
Si Si2 0.920166 0.239878 0.233172
Si Si3 0.491915 0.882459 0.057418
Si Si4 0.995596 0.249298 0.442876
Si Si5 0.547786 0.725778 0.315402
Si Si6 0.794530 0.035280 0.077431
Si Si7 0.244557 0.027167 0.520772
O O1 0.496837 0.334282 0.541004
O O2 0.695206 0.625363 0.345481
O O3 0.595119 0.082085 0.115032
O O4 0.720917 0.207792 0.198077
O O5 0.995966 0.578076 0.358279
O O6 0.879162 0.264671 0.181632
O O7 0.804061 0.118492 0.391004
O O8 0.000000 0.000000 0.000000
O O9 0.348569 0.852487 0.259739
O O10 0.518415 0.558810 0.832823
O O11 0.500000 0.000000 0.000000
O O12 0.000000 0.500000 0.500000
O O13 0.115963 0.111527 0.193420
O O14 0.861858 0.012981 0.456989
O O15 0.698984 0.796993 0.137756
O O16 0.500000 0.000000 0.500000
#
# Coordination Sequence:
#
# PCOD8013966 Si02
#       7
#     2   2   2   2   2   2   2
#     4  11  26  44  64 103 135 175 225 278 339 396
#     4  11  22  40  69  96 128 174 222 268 333 394
#     4  12  25  42  71  97 137 181 224 275 336 394
#     4  10  21  41  64 100 127 171 227 264 331 399
#     4  10  23  42  67  97 137 174 224 271 339 392
#     4  11  23  42  68  94 139 171 220 278 336 389
#     4  11  23  43  71  97 139 171 230 276 328 408
#
# _framework density 21.995906999999999
#
# number of rings (size 3 to 8) (size 9 to 14) (size 15 to 20)
#    0.000    1.143    4.286    3.000    2.000    5.143 
#    0.000    0.714    0.000    0.000    0.000    0.000 
#    0.000    0.000    0.000    0.000    0.000    0.000 
#
# Total GULP energy -173507.053065 kJ/mol
# GULP energy per Si atom -12393.360933 kJ/mol
# Density = 2.194584 g / cm^3
# Si number density = 21.995907 Si / 1000 Ang^3
#
#
#
# Elastic Constant Matrix: (Units=GPa)
#
#
# Indices 1 2 3 4 5 6 
#
# 1 122.9575 14.9247 54.8789 11.5418 17.1697 9.1203
# 2 14.9247 67.5720 34.1384 18.9380 5.0100 10.5061
# 3 54.8789 34.1384 154.2576 23.9904 13.6293 12.0173
# 4 11.5418 18.9380 23.9904 40.5131 10.7863 5.4176
# 5 17.1697 5.0100 13.6293 10.7863 46.5227 4.7843
# 6 9.1203 10.5061 12.0173 5.4176 4.7843 25.8848
#
#
#
# Elastic Compliance Matrix: (Units=1/GPa)
#
#
# Indices 1 2 3 4 5 6 
#
# 1 0.010053 -0.000183 -0.003189 0.000005 -0.002602 -0.001507
# 2 -0.000183 0.018821 -0.002746 -0.006686 0.000917 -0.005070
# 3 -0.003189 -0.002746 0.008777 -0.002755 -0.000336 -0.001197
# 4 0.000005 -0.006686 -0.002755 0.031112 -0.005534 -0.001498
# 5 -0.002602 0.000917 -0.000336 -0.005534 0.024003 -0.002577
# 6 -0.001507 -0.005070 -0.001197 -0.001498 -0.002577 0.042567
#
#
# Mechanical properties :
#
#
# Convention : Reuss Voigt Hill
#
# Bulk Modulus (GPa) = 39.34985 61.40789 50.37887
# Shear Modulus (GPa) = 32.04251 38.64046 35.34149
#
# Velocity S-wave (km/s) = 3.82088 4.19586 4.01275
# Velocity P-wave (km/s) = 6.11506 7.17302 6.66506
#
# Compressibility (1/GPa) = 0.02541306
#
# Stress axis : x y z
#
# Youngs Moduli (GPa) = 99.46888 53.13219 113.93919
#
# Poissons Ratio (x) = 0.00973 0.36340
# Poissons Ratio (y) = 0.01822 0.31292
# Poissons Ratio (z) = 0.31725 0.14592
#
# Static dielectric constant tensor:
#      x y z
#    x 5.529710 1.185380 1.256090 
#    y 1.185380 4.755760 0.575670 
#    z 1.256090 0.575670 5.290000 
# 
# 
# High freq. dielectric constant tensor:
#      x y z
#    x 1.855630 0.016780 0.005980 
#    y 0.016780 1.854500 0.003150 
#    z 0.005980 0.003150 1.885730 
# 
# From -- ./inp_files/469706.got.cif
#   From: 2010.06.25/outbox.cif.g09.slc.cpg/sg2_235_cif.got.tgz:469706.got - 2010.06.27 13:26:56.
