data_PCOD8013045
_publ_section_title
;
Structure prediction by ZEFSAII (Michael W. Deem and Ramdas Pophale) SiO2 
 PCOD8013045
Probable space group: P -1
;
_chemical_formula_sum "Si O2"
_cell_formula_units_Z 14
_cell_length_a 17.285374
_cell_length_b 12.327849
_cell_length_c 9.329823
_cell_angle_alpha 85.253123
_cell_angle_beta 60.882517
_cell_angle_gamma 32.645976
_cell_volume 674.745128
_symmetry_space_group_name_H-M "P -1"
_symmetry_group_IT_number 2
_symmetry_cell_setting 'triclinic'
loop_
_space_group_symop_operation_xyz
x,y,z
-x,-y,-z
loop_
_atom_site_type_symbol
_atom_site_label
_atom_site_fract_x
_atom_site_fract_y
_atom_site_fract_z
Si Si1 0.876732 0.725200 0.902375
Si Si2 0.427181 0.815371 0.352798
Si Si3 0.512841 0.784428 0.981123
Si Si4 0.315388 0.115380 0.636460
Si Si5 0.204964 0.954035 0.148563
Si Si6 0.167182 0.796562 0.004958
Si Si7 0.997998 0.176646 0.605082
O O1 0.101540 0.400273 0.703384
O O2 0.943228 0.776737 0.809257
O O3 0.786985 0.811087 0.132636
O O4 0.662246 0.934584 0.970243
O O5 0.437202 0.874530 0.481050
O O6 0.176231 0.053080 0.534293
O O7 0.486017 0.831606 0.169690
O O8 0.610724 0.511287 0.227310
O O9 0.775414 0.501908 0.734132
O O10 0.446276 0.733014 0.006401
O O11 0.500000 0.000000 0.500000
O O12 0.240790 0.828839 0.001525
O O13 0.088818 0.030502 0.385429
O O14 0.054060 0.859325 0.231099
O O15 0.000000 0.000000 0.000000
#
# Coordination Sequence:
#
# PCOD8013045 Si02
#       7
#     2   2   2   2   2   2   2
#     4   9  23  41  64  92 117 160 208 248 296 372
#     4  10  24  41  60  94 121 154 209 251 301 363
#     4   8  20  39  64  90 121 156 201 251 292 360
#     4  11  25  42  65  87 124 162 200 256 311 357
#     4   9  21  41  62  91 123 159 209 240 295 368
#     4  11  25  38  62  94 128 162 198 250 300 365
#     4  10  21  40  65  89 126 163 197 251 304 354
#
# _framework density 20.748577000000001
#
# number of rings (size 3 to 8) (size 9 to 14) (size 15 to 20)
#    0.857    1.429    0.000    0.429    6.000   10.857 
#    0.000    1.429    0.000    0.000    0.000    0.000 
#    0.000    0.000    0.000    0.000    0.000    0.000 
#
# Total GULP energy -173477.762176 kJ/mol
# GULP energy per Si atom -12391.268727 kJ/mol
# Density = 2.070135 g / cm^3
# Si number density = 20.748577 Si / 1000 Ang^3
#
#
#
# Elastic Constant Matrix: (Units=GPa)
#
#
# Indices 1 2 3 4 5 6 
#
# 1 56.2609 2.6490 39.8658 4.3945 -1.7563 -1.7161
# 2 2.6490 116.4320 39.1699 10.2651 -9.3118 -10.1666
# 3 39.8658 39.1699 98.0190 12.1816 -2.1829 -3.9922
# 4 4.3945 10.2651 12.1816 33.9629 -5.9220 -6.3633
# 5 -1.7563 -9.3118 -2.1829 -5.9220 25.6371 6.0964
# 6 -1.7161 -10.1666 -3.9922 -6.3633 6.0964 30.4120
#
#
#
# Elastic Compliance Matrix: (Units=1/GPa)
#
#
# Indices 1 2 3 4 5 6 
#
# 1 0.026239 0.003674 -0.012105 0.000331 0.001990 0.000790
# 2 0.003674 0.010900 -0.005588 -0.000804 0.002991 0.002350
# 3 -0.012105 -0.005588 0.017733 -0.003566 -0.002039 -0.000561
# 4 0.000331 -0.000804 -0.003566 0.032875 0.005834 0.004991
# 5 0.001990 0.002991 -0.002039 0.005834 0.042959 -0.006547
# 6 0.000790 0.002350 -0.000561 0.004991 -0.006547 0.035995
#
#
# Mechanical properties :
#
#
# Convention : Reuss Voigt Hill
#
# Bulk Modulus (GPa) = 37.26415 48.23125 42.74770
# Shear Modulus (GPa) = 24.54776 30.60420 27.57598
#
# Velocity S-wave (km/s) = 3.44336 3.84474 3.64957
# Velocity P-wave (km/s) = 5.81445 6.55785 6.19731
#
# Compressibility (1/GPa) = 0.02683545
#
# Stress axis : x y z
#
# Youngs Moduli (GPa) = 38.11129 91.74058 56.39121
#
# Poissons Ratio (x) = -0.33708 0.68260
# Poissons Ratio (y) = -0.14003 0.31512
# Poissons Ratio (z) = 0.46133 0.51265
#
# Static dielectric constant tensor:
#      x y z
#    x 3.454470 -0.151390 -0.060800 
#    y -0.151390 3.898330 0.027930 
#    z -0.060800 0.027930 3.760300 
# 
# 
# High freq. dielectric constant tensor:
#      x y z
#    x 1.791350 -0.012610 -0.003300 
#    y -0.012610 1.817110 -0.000950 
#    z -0.003300 -0.000950 1.816020 
# 
# From -- ./inp_files/303429.got.cif
#   From: 2010.06.25/outbox.cif.g09.slc.cpg/sg2_152_cif.got.tgz:303429.got - 2010.06.27 13:26:56.
