data_PCOD8013675
_publ_section_title
;
Structure prediction by ZEFSAII (Michael W. Deem and Ramdas Pophale) SiO2 
 PCOD8013675
Probable space group: P -1
;
_chemical_formula_sum "Si O2"
_cell_formula_units_Z 16
_cell_length_a 14.401768
_cell_length_b 26.118202
_cell_length_c 8.913479
_cell_angle_alpha 149.695262
_cell_angle_beta 50.260697
_cell_angle_gamma 149.652701
_cell_volume 777.753301
_symmetry_space_group_name_H-M "P -1"
_symmetry_group_IT_number 2
_symmetry_cell_setting 'triclinic'
loop_
_space_group_symop_operation_xyz
x,y,z
-x,-y,-z
loop_
_atom_site_type_symbol
_atom_site_label
_atom_site_fract_x
_atom_site_fract_y
_atom_site_fract_z
Si Si1 0.971660 0.492850 0.335343
Si Si2 0.613108 0.397843 0.450102
Si Si3 0.585287 0.753791 0.418452
Si Si4 0.696963 0.136619 0.741042
Si Si5 0.001622 0.052419 0.895320
Si Si6 0.402676 0.840151 0.778415
Si Si7 0.633666 0.613758 0.792795
Si Si8 0.218060 0.032266 0.802022
O O1 0.826682 0.488328 0.431203
O O2 0.000000 0.500000 0.500000
O O3 0.192393 0.664279 0.470019
O O4 0.872668 0.320711 0.941975
O O5 0.571597 0.377062 0.617953
O O6 0.624764 0.518131 0.679312
O O7 0.439970 0.217602 0.089241
O O8 0.558504 0.851713 0.640849
O O9 0.543641 0.652674 0.065205
O O10 0.812790 0.887323 0.576340
O O11 0.500000 0.000000 0.500000
O O12 0.777463 0.078708 0.546148
O O13 0.637370 0.156787 0.001999
O O14 0.133832 0.043950 0.784009
O O15 0.136460 0.216499 0.068855
O O16 0.931273 0.065386 0.148480
O O17 0.500000 0.000000 0.000000
O O18 0.500000 0.500000 0.500000
#
# Coordination Sequence:
#
# PCOD8013675 Si02
#       8
#     2   2   2   2   2   2   2   2
#     4  10  21  42  65  95 128 169 225 258 323 396
#     4  11  21  44  67  96 133 174 219 274 327 400
#     4  11  24  45  65  92 136 175 221 266 331 403
#     4  11  20  41  71  94 125 176 212 267 324 392
#     4  10  23  43  61  99 128 176 219 268 326 395
#     4  11  26  43  65  99 134 169 217 273 329 391
#     4  12  26  41  67  97 135 169 222 281 329 379
#     4  10  21  40  71  95 136 168 221 267 334 392
#
# _framework density 20.572075000000002
#
# number of rings (size 3 to 8) (size 9 to 14) (size 15 to 20)
#    0.000    1.250    5.000    1.500    3.500    3.000 
#    0.000    0.625    0.000    0.000    0.000    0.000 
#    0.000    0.000    0.000    0.000    0.000    0.000 
#
# Total GULP energy -198439.335500 kJ/mol
# GULP energy per Si atom -12402.458469 kJ/mol
# Density = 2.052525 g / cm^3
# Si number density = 20.572075 Si / 1000 Ang^3
#
#
#
# Elastic Constant Matrix: (Units=GPa)
#
#
# Indices 1 2 3 4 5 6 
#
# 1 118.9601 34.4583 50.3172 1.1745 -15.3396 10.2772
# 2 34.4583 73.3652 42.4247 20.0564 -5.0085 -0.8917
# 3 50.3172 42.4247 131.1664 1.3753 -12.0481 2.9908
# 4 1.1745 20.0564 1.3753 39.7739 2.4413 -7.4360
# 5 -15.3396 -5.0085 -12.0481 2.4413 40.4528 6.8904
# 6 10.2772 -0.8917 2.9908 -7.4360 6.8904 35.3328
#
#
#
# Elastic Compliance Matrix: (Units=1/GPa)
#
#
# Indices 1 2 3 4 5 6 
#
# 1 0.011456 -0.003785 -0.002758 0.000741 0.003648 -0.003750
# 2 -0.003785 0.021386 -0.005323 -0.010541 0.000295 -0.000185
# 3 -0.002758 -0.005323 0.010496 0.002328 0.001277 0.000020
# 4 0.000741 -0.010541 0.002328 0.031811 -0.003388 0.006677
# 5 0.003648 0.000295 0.001277 -0.003388 0.027973 -0.007330
# 6 -0.003750 -0.000185 0.000020 0.006677 -0.007330 0.032221
#
#
# Mechanical properties :
#
#
# Convention : Reuss Voigt Hill
#
# Bulk Modulus (GPa) = 51.00469 64.21024 57.60746
# Shear Modulus (GPa) = 30.19113 36.19801 33.19457
#
# Velocity S-wave (km/s) = 3.83505 4.19927 4.02129
# Velocity P-wave (km/s) = 6.66762 7.40216 7.04447
#
# Compressibility (1/GPa) = 0.01960604
#
# Stress axis : x y z
#
# Youngs Moduli (GPa) = 87.29021 46.75944 95.27438
#
# Poissons Ratio (x) = 0.17699 0.26273
# Poissons Ratio (y) = 0.33040 0.50718
# Poissons Ratio (z) = 0.24071 0.24892
#
# Static dielectric constant tensor:
#      x y z
#    x 3.857340 0.081640 -0.043160 
#    y 0.081640 4.054060 0.559450 
#    z -0.043160 0.559450 4.317730 
# 
# 
# High freq. dielectric constant tensor:
#      x y z
#    x 1.811720 0.009130 -0.005210 
#    y 0.009130 1.798220 0.013740 
#    z -0.005210 0.013740 1.808560 
# 
# From -- ./inp_files/206792.got.cif
#   From: 2010.06.25/outbox.cif.g09.slc.cpg/sg2_104_cif.got.tgz:206792.got - 2010.06.27 13:26:56.
