data_PCOD8013489
_publ_section_title
;
Structure prediction by ZEFSAII (Michael W. Deem and Ramdas Pophale) SiO2 
 PCOD8013489
Probable space group: P -1
;
_chemical_formula_sum "Si O2"
_cell_formula_units_Z 10
_cell_length_a 8.908388
_cell_length_b 10.436352
_cell_length_c 11.450513
_cell_angle_alpha 38.563063
_cell_angle_beta 103.292987
_cell_angle_gamma 133.698398
_cell_volume 347.994212
_symmetry_space_group_name_H-M "P -1"
_symmetry_group_IT_number 2
_symmetry_cell_setting 'triclinic'
loop_
_space_group_symop_operation_xyz
x,y,z
-x,-y,-z
loop_
_atom_site_type_symbol
_atom_site_label
_atom_site_fract_x
_atom_site_fract_y
_atom_site_fract_z
Si Si1 0.205128 0.663528 0.118533
Si Si2 0.596504 0.418242 0.348236
Si Si3 0.706923 0.613170 0.836095
Si Si4 0.772638 0.188474 0.582071
Si Si5 0.908019 0.014610 0.155541
O O1 0.200419 0.478501 0.156257
O O2 0.934842 0.324902 0.395061
O O3 0.180582 0.856472 0.912847
O O4 0.500000 0.000000 0.000000
O O5 0.338889 0.242697 0.359581
O O6 0.539264 0.112198 0.581511
O O7 0.877437 0.732563 0.094985
O O8 0.642258 0.584356 0.363131
O O9 0.958598 0.948602 0.733869
O O10 0.408854 0.220903 0.128965
O O11 0.000000 0.500000 0.500000
#
# Coordination Sequence:
#
# PCOD8013489 Si02
#       5
#     2   2   2   2   2
#     4  11  21  41  66  98 134 168 221 270 318 396
#     4  10  22  42  67 100 132 168 223 270 320 397
#     4  12  23  44  71  95 131 175 217 272 326 385
#     4  11  23  42  72  97 127 180 217 263 338 384
#     4  10  21  40  68  94 133 175 210 272 334 372
#
# _framework density 28.736111999999999
#
# number of rings (size 3 to 8) (size 9 to 14) (size 15 to 20)
#    0.000    1.200    4.000    3.600    0.000    3.200 
#    0.000   10.000    0.000    8.400    0.000    0.000 
#    0.000    0.000    0.000    0.000    0.000    0.000 
#
# Total GULP energy -124031.408876 kJ/mol
# GULP energy per Si atom -12403.140888 kJ/mol
# Density = 2.867071 g / cm^3
# Si number density = 28.736112 Si / 1000 Ang^3
#
#
#
# Elastic Constant Matrix: (Units=GPa)
#
#
# Indices 1 2 3 4 5 6 
#
# 1 169.9006 54.4541 14.4071 16.4085 12.0075 32.9472
# 2 54.4541 226.7608 25.7543 -2.3283 24.1499 23.3317
# 3 14.4071 25.7543 69.9893 -0.8299 9.1178 6.1731
# 4 16.4085 -2.3283 -0.8299 28.9238 -0.9098 10.1945
# 5 12.0075 24.1499 9.1178 -0.9098 42.2830 19.2190
# 6 32.9472 23.3317 6.1731 10.1945 19.2190 40.8783
#
#
#
# Elastic Compliance Matrix: (Units=1/GPa)
#
#
# Indices 1 2 3 4 5 6 
#
# 1 0.007534 -0.001339 -0.000779 -0.002603 0.001019 -0.005020
# 2 -0.001339 0.005207 -0.001287 0.001541 -0.001699 -0.001283
# 3 -0.000779 -0.001287 0.015233 0.000716 -0.002296 -0.000037
# 4 -0.002603 0.001541 0.000716 0.040537 0.005936 -0.011790
# 5 0.001019 -0.001699 -0.002296 0.005936 0.032306 -0.016174
# 6 -0.005020 -0.001283 -0.000037 -0.011790 -0.016174 0.039791
#
#
# Mechanical properties :
#
#
# Convention : Reuss Voigt Hill
#
# Bulk Modulus (GPa) = 47.25426 72.87573 60.06500
# Shear Modulus (GPa) = 32.36817 47.21936 39.79376
#
# Velocity S-wave (km/s) = 3.35982 4.05805 3.72533
# Velocity P-wave (km/s) = 5.61526 6.88276 6.28106
#
# Compressibility (1/GPa) = 0.02116211
#
# Stress axis : x y z
#
# Youngs Moduli (GPa) = 132.73136 192.06293 65.64783
#
# Poissons Ratio (x) = 0.25727 0.05113
# Poissons Ratio (y) = 0.17779 0.08451
# Poissons Ratio (z) = 0.10337 0.24725
#
# Static dielectric constant tensor:
#      x y z
#    x 5.198350 0.495610 -0.191660 
#    y 0.495610 4.905050 0.401210 
#    z -0.191660 0.401210 5.143850 
# 
# 
# High freq. dielectric constant tensor:
#      x y z
#    x 2.202440 -0.008070 0.000770 
#    y -0.008070 2.169820 0.006200 
#    z 0.000770 0.006200 2.153440 
# 
# From -- ./inp_files/148459.got.cif
#   From: 2010.06.25/outbox.cif.g09.slc.cpg/sg2_75_cif.got.tgz:148459.got - 2010.06.27 13:26:56.
