data_PCOD8013906
_publ_section_title
;
Structure prediction by ZEFSAII (Michael W. Deem and Ramdas Pophale) SiO2 
 PCOD8013906
Probable space group: P -1
;
_chemical_formula_sum "Si O2"
_cell_formula_units_Z 14
_cell_length_a 9.772232
_cell_length_b 12.149399
_cell_length_c 9.422024
_cell_angle_alpha 123.829888
_cell_angle_beta 114.154296
_cell_angle_gamma 45.979215
_cell_volume 667.748021
_symmetry_space_group_name_H-M "P -1"
_symmetry_group_IT_number 2
_symmetry_cell_setting 'triclinic'
loop_
_space_group_symop_operation_xyz
x,y,z
-x,-y,-z
loop_
_atom_site_type_symbol
_atom_site_label
_atom_site_fract_x
_atom_site_fract_y
_atom_site_fract_z
Si Si1 0.753849 0.455587 0.052475
Si Si2 0.117377 0.043923 0.670162
Si Si3 0.529673 0.167630 0.727361
Si Si4 0.515463 0.904220 0.651915
Si Si5 0.074552 0.586079 0.179783
Si Si6 0.909562 0.583150 0.674146
Si Si7 0.104773 0.894973 0.107855
O O1 0.568215 0.638453 0.145292
O O2 0.941775 0.416163 0.171001
O O3 0.759331 0.446144 0.874839
O O4 0.753880 0.306417 0.006702
O O5 0.078978 0.213794 0.722914
O O6 0.060982 0.054413 0.816981
O O7 0.346742 0.909281 0.655709
O O8 0.000000 0.000000 0.500000
O O9 0.451906 0.161486 0.540757
O O10 0.758591 0.062576 0.745086
O O11 0.477251 0.084264 0.763114
O O12 0.714132 0.770896 0.719137
O O13 0.138120 0.519108 0.320470
O O14 0.000000 0.500000 0.000000
O O15 0.000000 0.500000 0.500000
O O16 0.000000 0.000000 0.000000
#
# Coordination Sequence:
#
# PCOD8013906 Si02
#       7
#     2   2   2   2   2   2   2
#     4  10  21  41  63  90 129 168 204 257 322 374
#     4  11  23  43  65  88 131 170 207 256 324 380
#     4  11  22  40  65  93 127 167 210 256 315 377
#     4  11  23  38  65  96 123 163 214 261 311 370
#     4   9  21  39  61  87 125 168 203 251 320 371
#     4  11  21  37  62  96 124 160 216 264 303 373
#     4  11  24  42  65  95 127 166 210 265 314 370
#
# _framework density 20.965994999999999
#
# number of rings (size 3 to 8) (size 9 to 14) (size 15 to 20)
#    0.000    1.429    2.857    3.000    2.000    2.286 
#    0.000    8.571    0.000    0.000    0.000    0.000 
#    0.000    0.000    0.000    0.000    0.000    0.000 
#
# Total GULP energy -173479.774017 kJ/mol
# GULP energy per Si atom -12391.412430 kJ/mol
# Density = 2.091828 g / cm^3
# Si number density = 20.965995 Si / 1000 Ang^3
#
#
#
# Elastic Constant Matrix: (Units=GPa)
#
#
# Indices 1 2 3 4 5 6 
#
# 1 112.9928 58.7399 24.9211 -9.0285 -6.8354 -3.0173
# 2 58.7399 129.5058 46.5710 -7.4445 -15.3636 11.3075
# 3 24.9211 46.5710 72.5253 -3.7171 -12.5037 11.6742
# 4 -9.0285 -7.4445 -3.7171 38.2418 4.0935 -1.0364
# 5 -6.8354 -15.3636 -12.5037 4.0935 29.7177 -4.8616
# 6 -3.0173 11.3075 11.6742 -1.0364 -4.8616 42.4456
#
#
#
# Elastic Compliance Matrix: (Units=1/GPa)
#
#
# Indices 1 2 3 4 5 6 
#
# 1 0.011993 -0.005169 -0.001162 0.001806 -0.000232 0.002567
# 2 -0.005169 0.012541 -0.005503 0.000354 0.002622 -0.001886
# 3 -0.001162 -0.005503 0.019006 -0.000054 0.004344 -0.003348
# 4 0.001806 0.000354 -0.000054 0.026979 -0.003082 0.000355
# 5 -0.000232 0.002622 0.004344 -0.003082 0.037584 0.002320
# 6 0.002567 -0.001886 -0.003348 0.000355 0.002320 0.025440
#
#
# Mechanical properties :
#
#
# Convention : Reuss Voigt Hill
#
# Bulk Modulus (GPa) = 50.32388 63.94309 57.13349
# Shear Modulus (GPa) = 30.51828 34.40049 32.45939
#
# Velocity S-wave (km/s) = 3.81938 4.05504 3.93898
# Velocity P-wave (km/s) = 6.59583 7.24494 6.92799
#
# Compressibility (1/GPa) = 0.01987128
#
# Stress axis : x y z
#
# Youngs Moduli (GPa) = 83.38478 79.73590 52.61360
#
# Poissons Ratio (x) = 0.41219 0.06114
# Poissons Ratio (y) = 0.43105 0.28954
# Poissons Ratio (z) = 0.09689 0.43880
#
# Static dielectric constant tensor:
#      x y z
#    x 3.228200 -0.441730 -0.241520 
#    y -0.441730 3.200810 -0.058060 
#    z -0.241520 -0.058060 3.772870 
# 
# 
# High freq. dielectric constant tensor:
#      x y z
#    x 1.828290 0.009560 -0.003700 
#    y 0.009560 1.820740 0.005070 
#    z -0.003700 0.005070 1.811250 
# 
# From -- ./inp_files/174131.got.cif
#   From: 2010.06.25/outbox.cif.g09.slc.cpg/sg2_88_cif.got.tgz:174131.got - 2010.06.27 13:26:56.
