data_PCOD8013772
_publ_section_title
;
Structure prediction by ZEFSAII (Michael W. Deem and Ramdas Pophale) SiO2 
 PCOD8013772
Probable space group: P -1
;
_chemical_formula_sum "Si O2"
_cell_formula_units_Z 10
_cell_length_a 7.817041
_cell_length_b 9.172398
_cell_length_c 11.963205
_cell_angle_alpha 102.644903
_cell_angle_beta 40.657462
_cell_angle_gamma 115.904008
_cell_volume 493.369143
_symmetry_space_group_name_H-M "P -1"
_symmetry_group_IT_number 2
_symmetry_cell_setting 'triclinic'
loop_
_space_group_symop_operation_xyz
x,y,z
-x,-y,-z
loop_
_atom_site_type_symbol
_atom_site_label
_atom_site_fract_x
_atom_site_fract_y
_atom_site_fract_z
Si Si1 0.791032 0.235450 0.922722
Si Si2 0.289572 0.274944 0.273982
Si Si3 0.353494 0.846323 0.466826
Si Si4 0.438209 0.433267 0.643369
Si Si5 0.617934 0.021210 0.767916
O O1 0.814495 0.174329 0.775814
O O2 0.099477 0.376757 0.829493
O O3 0.548758 0.309740 0.061504
O O4 0.693083 0.079869 0.031847
O O5 0.368762 0.426397 0.343550
O O6 0.991648 0.244836 0.354413
O O7 0.234712 0.107265 0.342896
O O8 0.490253 0.721800 0.405779
O O9 0.426720 0.906418 0.313560
O O10 0.500000 0.000000 0.500000
O O11 0.500000 0.500000 0.500000
#
# Coordination Sequence:
#
# PCOD8013772 Si02
#       5
#     2   2   2   2   2
#     4   9  21  41  67  87 120 159 200 246 306 350
#     4  10  21  41  61  91 120 156 200 247 301 352
#     4  12  24  39  63  92 121 161 204 243 300 359
#     4  12  24  40  61  89 127 161 199 247 304 356
#     4   9  20  41  67  85 123 153 205 245 298 356
#
# _framework density 20.268799999999999
#
# number of rings (size 3 to 8) (size 9 to 14) (size 15 to 20)
#    1.200    0.400    0.000    5.400    0.000    0.800 
#    0.000    2.000    0.000    0.000    0.000    0.000 
#    0.000    0.000    0.000    0.000    0.000    0.000 
#
# Total GULP energy -123963.751563 kJ/mol
# GULP energy per Si atom -12396.375156 kJ/mol
# Density = 2.022267 g / cm^3
# Si number density = 20.268800 Si / 1000 Ang^3
#
#
#
# Elastic Constant Matrix: (Units=GPa)
#
#
# Indices 1 2 3 4 5 6 
#
# 1 99.9891 44.6777 48.9622 -0.5530 1.7674 18.2585
# 2 44.6777 106.7831 39.3216 23.0963 5.2727 29.1411
# 3 48.9622 39.3216 91.7092 -1.3100 -22.2190 9.7725
# 4 -0.5530 23.0963 -1.3100 33.7212 11.2164 0.1833
# 5 1.7674 5.2727 -22.2190 11.2164 33.1941 -11.8223
# 6 18.2585 29.1411 9.7725 0.1833 -11.8223 45.2063
#
#
#
# Elastic Compliance Matrix: (Units=1/GPa)
#
#
# Indices 1 2 3 4 5 6 
#
# 1 0.017563 -0.002362 -0.010427 0.005407 -0.011640 -0.006383
# 2 -0.002362 0.019387 -0.008128 -0.010519 -0.009164 -0.012140
# 3 -0.010427 -0.008128 0.024193 -0.001012 0.021930 0.009960
# 4 0.005407 -0.010519 -0.001012 0.041133 -0.012723 0.001321
# 5 -0.011640 -0.009164 0.021930 -0.012723 0.058761 0.021286
# 6 -0.006383 -0.012140 0.009960 0.001321 0.021286 0.035933
#
#
# Mechanical properties :
#
#
# Convention : Reuss Voigt Hill
#
# Bulk Modulus (GPa) = 51.78762 62.71159 57.24961
# Shear Modulus (GPa) = 20.38816 33.45900 26.92358
#
# Velocity S-wave (km/s) = 3.17502 4.06737 3.64857
# Velocity P-wave (km/s) = 6.24875 7.28458 6.78646
#
# Compressibility (1/GPa) = 0.01930963
#
# Stress axis : x y z
#
# Youngs Moduli (GPa) = 56.93659 51.58212 41.33395
#
# Poissons Ratio (x) = 0.12182 0.43099
# Poissons Ratio (y) = 0.13446 0.33597
# Poissons Ratio (z) = 0.59367 0.41927
#
# Static dielectric constant tensor:
#      x y z
#    x 3.533400 0.139590 -0.075490 
#    y 0.139590 3.708530 -0.020130 
#    z -0.075490 -0.020130 3.671720 
# 
# 
# High freq. dielectric constant tensor:
#      x y z
#    x 1.774190 0.017850 -0.004900 
#    y 0.017850 1.800400 0.002210 
#    z -0.004900 0.002210 1.796490 
# 
# From -- ./inp_files/16007.got.cif
#   From: 2010.06.25/outbox.cif.g09.slc.cpg/sg2_9_cif.got.tgz:16007.got - 2010.06.27 13:26:56.
