data_PCOD8013224
_publ_section_title
;
Structure prediction by ZEFSAII (Michael W. Deem and Ramdas Pophale) SiO2 
 PCOD8013224
Probable space group: P -1
;
_chemical_formula_sum "Si O2"
_cell_formula_units_Z 16
_cell_length_a 7.426185
_cell_length_b 11.692701
_cell_length_c 18.973853
_cell_angle_alpha 147.958715
_cell_angle_beta 56.169548
_cell_angle_gamma 114.104684
_cell_volume 718.498159
_symmetry_space_group_name_H-M "P -1"
_symmetry_group_IT_number 2
_symmetry_cell_setting 'triclinic'
loop_
_space_group_symop_operation_xyz
x,y,z
-x,-y,-z
loop_
_atom_site_type_symbol
_atom_site_label
_atom_site_fract_x
_atom_site_fract_y
_atom_site_fract_z
Si Si1 0.770143 0.606077 0.440383
Si Si2 0.578613 0.587200 0.934580
Si Si3 0.946956 0.249314 0.664157
Si Si4 0.639703 0.086998 0.956169
Si Si5 0.089914 0.214585 0.937336
Si Si6 0.272906 0.741875 0.620029
Si Si7 0.094912 0.128932 0.325793
Si Si8 0.099732 0.657566 0.120557
O O1 0.516946 0.648201 0.495383
O O2 0.809791 0.380665 0.357654
O O3 0.827334 0.805160 0.580871
O O4 0.915575 0.602102 0.336788
O O5 0.685264 0.339564 0.760275
O O6 0.788007 0.676912 0.970158
O O7 0.367008 0.606297 0.042296
O O8 0.505951 0.709138 0.941955
O O9 0.013318 0.270550 0.742426
O O10 0.000000 0.000000 0.500000
O O11 0.704255 0.887118 0.781840
O O12 0.856682 0.154376 0.981196
O O13 0.500000 0.000000 0.000000
O O14 0.256572 0.998953 0.769920
O O15 0.039019 0.408850 0.988074
O O16 0.113667 0.705405 0.569752
O O17 0.036674 0.876468 0.200736
#
# Coordination Sequence:
#
# PCOD8013224 Si02
#       8
#     2   2   2   2   2   2   2   2
#     4  11  23  42  60  90 129 166 213 249 313 379
#     4  10  23  41  68  91 126 169 202 267 321 366
#     4  11  22  38  66  93 127 163 212 259 305 383
#     4  10  23  40  61  95 122 162 217 261 312 373
#     4  10  21  40  66  92 123 159 214 262 310 377
#     4  10  23  39  63  91 119 175 207 253 311 376
#     4  10  21  42  67  85 127 165 206 264 316 373
#     4  10  21  43  66 100 122 165 214 259 328 371
#
# _framework density 22.268671999999999
#
# number of rings (size 3 to 8) (size 9 to 14) (size 15 to 20)
#    0.000    1.750    1.250    3.375    5.250    5.000 
#   11.250    0.625    0.000    0.000    0.000    0.000 
#    0.000    0.000    0.000    0.000    0.000    0.000 
#
# Total GULP energy -198252.459841 kJ/mol
# GULP energy per Si atom -12390.778740 kJ/mol
# Density = 2.221799 g / cm^3
# Si number density = 22.268672 Si / 1000 Ang^3
#
#
#
# Elastic Constant Matrix: (Units=GPa)
#
#
# Indices 1 2 3 4 5 6 
#
# 1 77.1942 29.7629 26.1217 4.0670 -25.5250 4.7719
# 2 29.7629 132.7748 47.3296 -20.5914 -5.4803 7.6558
# 3 26.1217 47.3296 111.9965 3.9317 -10.7051 -1.9825
# 4 4.0670 -20.5914 3.9317 39.3626 -0.0142 -3.9644
# 5 -25.5250 -5.4803 -10.7051 -0.0142 37.8995 8.3790
# 6 4.7719 7.6558 -1.9825 -3.9644 8.3790 26.8033
#
#
#
# Elastic Compliance Matrix: (Units=1/GPa)
#
#
# Indices 1 2 3 4 5 6 
#
# 1 0.020509 -0.003590 -0.001857 -0.004611 0.014534 -0.007989
# 2 -0.003590 0.010787 -0.004131 0.006298 -0.001742 -0.001272
# 3 -0.001857 -0.004131 0.011335 -0.002940 0.000998 0.001602
# 4 -0.004611 0.006298 -0.002940 0.029919 -0.004005 0.004482
# 5 0.014534 -0.001742 0.000998 -0.004005 0.039510 -0.014960
# 6 -0.007989 -0.001272 0.001602 0.004482 -0.014960 0.044552
#
#
# Mechanical properties :
#
#
# Convention : Reuss Voigt Hill
#
# Bulk Modulus (GPa) = 42.59874 58.71044 50.65459
# Shear Modulus (GPa) = 27.23401 35.39649 31.31525
#
# Velocity S-wave (km/s) = 3.50090 3.99120 3.75406
# Velocity P-wave (km/s) = 5.95925 6.90373 6.44880
#
# Compressibility (1/GPa) = 0.02347487
#
# Stress axis : x y z
#
# Youngs Moduli (GPa) = 48.75849 92.70294 88.22381
#
# Poissons Ratio (x) = 0.33282 0.16380
# Poissons Ratio (y) = 0.17505 0.36448
# Poissons Ratio (z) = 0.09053 0.38299
#
# Static dielectric constant tensor:
#      x y z
#    x 4.044010 -0.119970 -0.175310 
#    y -0.119970 4.195740 0.280020 
#    z -0.175310 0.280020 4.126130 
# 
# 
# High freq. dielectric constant tensor:
#      x y z
#    x 1.882890 -0.014300 -0.009770 
#    y -0.014300 1.886120 0.020840 
#    z -0.009770 0.020840 1.876660 
# 
# From -- ./inp_files/589186.got.cif
#   From: 2010.06.25/outbox.cif.g09.slc.cpg/sg2_295_cif.got.tgz:589186.got - 2010.06.27 13:26:56.
