data_PCOD8013903
_publ_section_title
;
Structure prediction by ZEFSAII (Michael W. Deem and Ramdas Pophale) SiO2 
 PCOD8013903
Probable space group: P -1
;
_chemical_formula_sum "Si O2"
_cell_formula_units_Z 14
_cell_length_a 13.153532
_cell_length_b 9.116996
_cell_length_c 16.392073
_cell_angle_alpha 59.278993
_cell_angle_beta 46.479500
_cell_angle_gamma 29.886720
_cell_volume 689.769540
_symmetry_space_group_name_H-M "P -1"
_symmetry_group_IT_number 2
_symmetry_cell_setting 'triclinic'
loop_
_space_group_symop_operation_xyz
x,y,z
-x,-y,-z
loop_
_atom_site_type_symbol
_atom_site_label
_atom_site_fract_x
_atom_site_fract_y
_atom_site_fract_z
Si Si1 0.275593 0.778462 0.488402
Si Si2 0.557341 0.245812 0.041103
Si Si3 0.056168 0.537566 0.219101
Si Si4 0.725070 0.247676 0.689249
Si Si5 0.419885 0.854955 0.765663
Si Si6 0.815004 0.734098 0.605409
Si Si7 0.300703 0.052384 0.110240
O O1 0.500000 0.500000 0.500000
O O2 0.343121 0.649857 0.396310
O O3 0.246972 0.007596 0.436381
O O4 0.025657 0.944838 0.615928
O O5 0.295327 0.417477 0.121991
O O6 0.684183 0.078474 0.105140
O O7 0.500000 0.500000 0.000000
O O8 0.749918 0.992819 0.935162
O O9 0.045976 0.449011 0.335095
O O10 0.064150 0.389763 0.183123
O O11 0.809687 0.899228 0.239964
O O12 0.607952 0.518357 0.729363
O O13 0.618386 0.175153 0.803996
O O14 0.559752 0.892892 0.685070
O O15 0.000000 0.500000 0.500000
O O16 0.500000 0.000000 0.000000
#
# Coordination Sequence:
#
# PCOD8013903 Si02
#       7
#     2   2   2   2   2   2   2
#     4  11  26  42  66  95 126 170 212 255 319 380
#     4  10  21  41  63  90 127 161 210 266 306 369
#     4  10  24  41  62  91 126 168 207 255 325 376
#     4  11  23  44  63  94 133 163 207 267 313 373
#     4  11  24  39  65  93 124 168 208 257 322 377
#     4  11  23  42  61  91 129 160 209 265 308 374
#     4  10  21  43  65  86 132 168 202 266 313 365
#
# _framework density 20.296634000000001
#
# number of rings (size 3 to 8) (size 9 to 14) (size 15 to 20)
#    0.000    1.429    4.286    0.000    4.000    1.714 
#    0.000    0.000    0.000    0.000    0.000    0.000 
#    0.000    0.000    0.000    0.000    0.000    0.000 
#
# Total GULP energy -173546.611226 kJ/mol
# GULP energy per Si atom -12396.186516 kJ/mol
# Density = 2.025044 g / cm^3
# Si number density = 20.296634 Si / 1000 Ang^3
#
#
#
# Elastic Constant Matrix: (Units=GPa)
#
#
# Indices 1 2 3 4 5 6 
#
# 1 96.7072 51.6409 48.4892 -6.5260 19.7627 8.3893
# 2 51.6409 101.5752 52.4977 -13.8777 12.2078 -17.8302
# 3 48.4892 52.4977 120.9509 -13.5375 19.0295 2.3418
# 4 -6.5260 -13.8777 -13.5375 28.3140 13.4736 3.6954
# 5 19.7627 12.2078 19.0295 13.4736 40.5827 -0.5760
# 6 8.3893 -17.8302 2.3418 3.6954 -0.5760 44.3004
#
#
#
# Elastic Compliance Matrix: (Units=1/GPa)
#
#
# Indices 1 2 3 4 5 6 
#
# 1 0.017754 -0.007880 -0.002225 0.003068 -0.006346 -0.006754
# 2 -0.007880 0.018341 -0.004312 0.004456 -0.001013 0.008717
# 3 -0.002225 -0.004312 0.012730 0.006563 -0.005805 -0.002610
# 4 0.003068 0.004456 0.006563 0.053077 -0.023588 -0.003869
# 5 -0.006346 -0.001013 -0.005805 -0.023588 0.038640 0.003571
# 6 -0.006754 0.008717 -0.002610 -0.003869 0.003571 0.027868
#
#
# Mechanical properties :
#
#
# Convention : Reuss Voigt Hill
#
# Bulk Modulus (GPa) = 50.02389 69.38766 59.70577
# Shear Modulus (GPa) = 24.52117 33.74645 29.13381
#
# Velocity S-wave (km/s) = 3.47960 4.08200 3.79278
# Velocity P-wave (km/s) = 6.39088 7.51518 6.97572
#
# Compressibility (1/GPa) = 0.01999045
#
# Stress axis : x y z
#
# Youngs Moduli (GPa) = 56.32643 54.52403 78.55723
#
# Poissons Ratio (x) = 0.42965 0.17476
# Poissons Ratio (y) = 0.44386 0.33874
# Poissons Ratio (z) = 0.12530 0.23511
#
# Static dielectric constant tensor:
#      x y z
#    x 3.867280 0.129630 0.326150 
#    y 0.129630 3.083700 0.200110 
#    z 0.326150 0.200110 3.947090 
# 
# 
# High freq. dielectric constant tensor:
#      x y z
#    x 1.800710 0.025970 0.011210 
#    y 0.025970 1.777070 -0.010340 
#    z 0.011210 -0.010340 1.811480 
# 
# From -- ./inp_files/24532.got.cif
#   From: 2010.06.25/outbox.cif.g09.slc.cpg/sg2_13_cif.got.tgz:24532.got - 2010.06.27 13:26:56.
