data_PCOD8013180
_publ_section_title
;
Structure prediction by ZEFSAII (Michael W. Deem and Ramdas Pophale) SiO2 
 PCOD8013180
Probable space group: P -1
;
_chemical_formula_sum "Si O2"
_cell_formula_units_Z 16
_cell_length_a 11.056779
_cell_length_b 8.214421
_cell_length_c 11.776385
_cell_angle_alpha 56.765731
_cell_angle_beta 57.339531
_cell_angle_gamma 56.368049
_cell_volume 700.776058
_symmetry_space_group_name_H-M "P -1"
_symmetry_group_IT_number 2
_symmetry_cell_setting 'triclinic'
loop_
_space_group_symop_operation_xyz
x,y,z
-x,-y,-z
loop_
_atom_site_type_symbol
_atom_site_label
_atom_site_fract_x
_atom_site_fract_y
_atom_site_fract_z
Si Si1 0.282364 0.320500 0.499580
Si Si2 0.051518 0.185278 0.274026
Si Si3 0.445161 0.982175 0.907913
Si Si4 0.488803 0.738270 0.406814
Si Si5 0.192386 0.761270 0.459682
Si Si6 0.717487 0.681836 0.757657
Si Si7 0.002760 0.731817 0.209917
Si Si8 0.094079 0.117328 0.033158
O O1 0.433856 0.196033 0.547475
O O2 0.271110 0.561627 0.415819
O O3 0.313065 0.236236 0.387977
O O4 0.122942 0.302335 0.630036
O O5 0.195452 0.203884 0.256456
O O6 0.043966 0.253489 0.121367
O O7 0.895732 0.320523 0.367077
O O8 0.075749 0.938678 0.369886
O O9 0.550418 0.764935 0.873526
O O10 0.435004 0.194993 0.766446
O O11 0.500000 0.000000 0.000000
O O12 0.274878 0.976344 0.998301
O O13 0.500000 0.500000 0.500000
O O14 0.305575 0.855606 0.433929
O O15 0.822885 0.435175 0.796915
O O16 0.998147 0.964922 0.139279
O O17 0.952795 0.717884 0.109670
#
# Coordination Sequence:
#
# PCOD8013180 Si02
#       8
#     2   2   2   2   2   2   2   2
#     4  11  23  42  68  95 136 168 220 281 328 398
#     4  11  22  39  69  98 127 175 223 270 331 405
#     4  12  24  47  69  98 140 180 220 278 335 407
#     4  10  22  43  68 100 131 178 222 272 341 391
#     4  10  21  40  66 101 129 167 221 275 334 391
#     4  12  25  41  71 101 130 176 224 276 341 392
#     4  11  25  45  66  99 132 179 221 280 334 390
#     4  11  25  46  67  92 139 180 223 270 335 406
#
# _framework density 22.831831000000001
#
# number of rings (size 3 to 8) (size 9 to 14) (size 15 to 20)
#    0.000    1.000    5.000    1.125    3.500    2.500 
#    9.000    0.000    0.000    0.000    0.000    0.000 
#    0.000    0.000    0.000    0.000    0.000    0.000 
#
# Total GULP energy -198228.573093 kJ/mol
# GULP energy per Si atom -12389.285818 kJ/mol
# Density = 2.277986 g / cm^3
# Si number density = 22.831831 Si / 1000 Ang^3
#
#
#
# Elastic Constant Matrix: (Units=GPa)
#
#
# Indices 1 2 3 4 5 6 
#
# 1 86.7526 -5.7956 31.1916 13.5715 20.6978 7.4852
# 2 -5.7956 37.2330 12.4897 13.3560 12.6579 5.9786
# 3 31.1916 12.4897 95.5032 21.3441 32.4246 12.1270
# 4 13.5715 13.3560 21.3441 42.0159 5.2786 3.3267
# 5 20.6978 12.6579 32.4246 5.2786 46.1519 8.6061
# 6 7.4852 5.9786 12.1270 3.3267 8.6061 24.8394
#
#
#
# Elastic Compliance Matrix: (Units=1/GPa)
#
#
# Indices 1 2 3 4 5 6 
#
# 1 0.015419 0.007585 -0.002448 -0.005173 -0.006232 -0.002425
# 2 0.007585 0.037185 -0.000096 -0.012381 -0.011053 -0.005701
# 3 -0.002448 -0.000096 0.016027 -0.005954 -0.008859 -0.003197
# 4 -0.005173 -0.012381 -0.005954 0.031580 0.006080 0.001110
# 5 -0.006232 -0.011053 -0.008859 0.006080 0.033698 -0.003627
# 6 -0.002425 -0.005701 -0.003197 0.001110 -0.003627 0.045030
#
#
# Mechanical properties :
#
#
# Convention : Reuss Voigt Hill
#
# Bulk Modulus (GPa) = 12.70444 32.80666 22.75555
# Shear Modulus (GPa) = 25.62813 34.70832 30.16823
#
# Velocity S-wave (km/s) = 3.35397 3.90317 3.63894
# Velocity P-wave (km/s) = 4.53599 5.89177 5.25777
#
# Compressibility (1/GPa) = 0.07871266
#
# Stress axis : x y z
#
# Youngs Moduli (GPa) = 64.85420 26.89224 62.39305
#
# Poissons Ratio (x) = -0.20397 0.15275
# Poissons Ratio (y) = -0.49191 0.00602
# Poissons Ratio (z) = 0.15877 0.00259
#
# Static dielectric constant tensor:
#      x y z
#    x 4.566700 -0.190820 0.212220 
#    y -0.190820 3.911490 -0.023760 
#    z 0.212220 -0.023760 4.266380 
# 
# 
# High freq. dielectric constant tensor:
#      x y z
#    x 1.916480 -0.002270 0.010400 
#    y -0.002270 1.884160 -0.003270 
#    z 0.010400 -0.003270 1.901740 
# 
# From -- ./inp_files/416250.got.cif
#   From: 2010.06.25/outbox.cif.g09.slc.cpg/sg2_209_cif.got.tgz:416250.got - 2010.06.27 13:26:56.
