data_PCOD8013636
_publ_section_title
;
Structure prediction by ZEFSAII (Michael W. Deem and Ramdas Pophale) SiO2 
 PCOD8013636
Probable space group: P -1
;
_chemical_formula_sum "Si O2"
_cell_formula_units_Z 12
_cell_length_a 14.957405
_cell_length_b 11.834802
_cell_length_c 12.273429
_cell_angle_alpha 34.550829
_cell_angle_beta 143.099904
_cell_angle_gamma 155.354744
_cell_volume 501.683051
_symmetry_space_group_name_H-M "P -1"
_symmetry_group_IT_number 2
_symmetry_cell_setting 'triclinic'
loop_
_space_group_symop_operation_xyz
x,y,z
-x,-y,-z
loop_
_atom_site_type_symbol
_atom_site_label
_atom_site_fract_x
_atom_site_fract_y
_atom_site_fract_z
Si Si1 0.764118 0.360238 0.560589
Si Si2 0.289927 0.122675 0.514713
Si Si3 0.466020 0.262428 0.796180
Si Si4 0.286158 0.778935 0.616164
Si Si5 0.112240 0.431436 0.919161
Si Si6 0.134860 0.100053 0.759488
O O1 0.830186 0.340370 0.520562
O O2 0.728203 0.562386 0.353641
O O3 0.962775 0.487165 0.733948
O O4 0.547327 0.037436 0.647926
O O5 0.375181 0.084778 0.734215
O O6 0.485276 0.455174 0.398554
O O7 0.217384 0.906687 0.516988
O O8 0.079595 0.049783 0.400950
O O9 0.279046 0.077096 0.854615
O O10 0.683868 0.353996 0.968191
O O11 0.218672 0.520487 0.830322
O O12 0.955693 0.089362 0.066077
#
# Coordination Sequence:
#
# PCOD8013636 Si02
#       6
#     2   2   2   2   2   2
#     4  11  24  44  68  92 130 171 214 264 317 381
#     4  10  21  40  70  90 129 174 207 263 318 379
#     4  10  22  42  64  98 130 164 216 260 321 380
#     4  11  23  44  65  94 129 171 215 261 320 378
#     4  11  24  42  66 100 127 168 214 264 321 379
#     4  11  22  42  68  98 126 169 213 263 320 379
#
# _framework density 23.919484000000001
#
# number of rings (size 3 to 8) (size 9 to 14) (size 15 to 20)
#    0.000    1.333    3.333    2.000    0.000    1.333 
#    3.000    4.167    0.000    0.000    0.000    0.000 
#    0.000    0.000    0.000    0.000    0.000    0.000 
#
# Total GULP energy -148697.926576 kJ/mol
# GULP energy per Si atom -12391.493881 kJ/mol
# Density = 2.386504 g / cm^3
# Si number density = 23.919484 Si / 1000 Ang^3
#
#
#
# Elastic Constant Matrix: (Units=GPa)
#
#
# Indices 1 2 3 4 5 6 
#
# 1 93.7967 19.7660 37.3410 -12.4929 -10.1401 11.0781
# 2 19.7660 57.5886 38.1715 -12.9771 -14.9517 7.4514
# 3 37.3410 38.1715 129.5980 -8.6579 -16.1686 9.8510
# 4 -12.4929 -12.9771 -8.6579 41.0730 9.7397 -3.6857
# 5 -10.1401 -14.9517 -16.1686 9.7397 35.1128 -4.6677
# 6 11.0781 7.4514 9.8510 -3.6857 -4.6677 37.0230
#
#
#
# Elastic Compliance Matrix: (Units=1/GPa)
#
#
# Indices 1 2 3 4 5 6 
#
# 1 0.012784 -0.001461 -0.002808 0.002431 0.000778 -0.002444
# 2 -0.001461 0.024338 -0.005576 0.004514 0.005885 -0.001786
# 3 -0.002808 -0.005576 0.010377 -0.000905 0.001755 -0.000667
# 4 0.002431 0.004514 -0.000905 0.027657 -0.005373 0.000681
# 5 0.000778 0.005885 0.001755 -0.005373 0.033753 0.001836
# 6 -0.002444 -0.001786 -0.000667 0.000681 0.001836 0.028578
#
#
# Mechanical properties :
#
#
# Convention : Reuss Voigt Hill
#
# Bulk Modulus (GPa) = 35.95923 52.39338 44.17630
# Shear Modulus (GPa) = 30.03990 35.02209 32.53099
#
# Velocity S-wave (km/s) = 3.54768 3.83059 3.69185
# Velocity P-wave (km/s) = 5.64335 6.44331 6.05655
#
# Compressibility (1/GPa) = 0.02780927
#
# Stress axis : x y z
#
# Youngs Moduli (GPa) = 78.22578 41.08788 96.36814
#
# Poissons Ratio (x) = 0.06001 0.27059
# Poissons Ratio (y) = 0.11425 0.53736
# Poissons Ratio (z) = 0.21965 0.22911
#
# Static dielectric constant tensor:
#      x y z
#    x 4.030060 0.394580 -0.317760 
#    y 0.394580 4.535120 -0.180340 
#    z -0.317760 -0.180340 4.310920 
# 
# 
# High freq. dielectric constant tensor:
#      x y z
#    x 1.924680 0.038030 -0.014360 
#    y 0.038030 1.964890 -0.004420 
#    z -0.014360 -0.004420 1.945380 
# 
# From -- ./inp_files/449666.got.cif
#   From: 2010.06.25/outbox.cif.g09.slc.cpg/sg2_225_cif.got.tgz:449666.got - 2010.06.27 13:26:56.
