data_PCOD8013551
_publ_section_title
;
Structure prediction by ZEFSAII (Michael W. Deem and Ramdas Pophale) SiO2 
 PCOD8013551
Probable space group: P -1
;
_chemical_formula_sum "Si O2"
_cell_formula_units_Z 14
_cell_length_a 11.458125
_cell_length_b 7.704191
_cell_length_c 11.420096
_cell_angle_alpha 86.818189
_cell_angle_beta 125.102476
_cell_angle_gamma 121.934934
_cell_volume 653.503909
_symmetry_space_group_name_H-M "P -1"
_symmetry_group_IT_number 2
_symmetry_cell_setting 'triclinic'
loop_
_space_group_symop_operation_xyz
x,y,z
-x,-y,-z
loop_
_atom_site_type_symbol
_atom_site_label
_atom_site_fract_x
_atom_site_fract_y
_atom_site_fract_z
Si Si1 0.665738 0.674043 0.171612
Si Si2 0.203213 0.994797 0.127439
Si Si3 0.410715 0.680321 0.688840
Si Si4 0.211667 0.634640 0.135516
Si Si5 0.316355 0.469982 0.408169
Si Si6 0.518031 0.926505 0.138831
Si Si7 0.982587 0.019975 0.188433
O O1 0.691398 0.542596 0.287248
O O2 0.646260 0.852605 0.209594
O O3 0.852066 0.813827 0.203258
O O4 0.500000 0.500000 0.000000
O O5 0.272031 0.860440 0.220956
O O6 0.051874 0.944308 0.129815
O O7 0.384909 0.242597 0.212236
O O8 0.125747 0.915107 0.952346
O O9 0.324305 0.617971 0.511188
O O10 0.400571 0.864767 0.734671
O O11 0.268743 0.519314 0.254616
O O12 0.324487 0.707589 0.076723
O O13 0.000000 0.500000 0.000000
O O14 0.500000 0.500000 0.500000
O O15 0.149650 0.218707 0.350984
O O16 0.500000 0.000000 0.000000
#
# Coordination Sequence:
#
# PCOD8013551 Si02
#       7
#     2   2   2   2   2   2   2
#     4  12  23  42  72  98 138 193 230 286 359 416
#     4  10  21  40  69 102 128 177 247 292 331 424
#     4  11  24  45  67 100 140 186 230 295 357 407
#     4  11  24  41  73 101 133 185 239 289 352 411
#     4  12  25  46  71 104 149 182 229 303 363 409
#     4  11  24  41  68 106 138 178 244 288 342 428
#     4  11  23  41  70 102 139 180 243 285 344 435
#
# _framework density 21.422975000000001
#
# number of rings (size 3 to 8) (size 9 to 14) (size 15 to 20)
#    0.000    0.857    5.714    1.714    2.000    2.857 
#    2.571    0.714    0.000    0.000    0.000    0.000 
#    0.000    0.000    0.000    0.000    0.000    0.000 
#
# Total GULP energy -173462.255384 kJ/mol
# GULP energy per Si atom -12390.161099 kJ/mol
# Density = 2.137422 g / cm^3
# Si number density = 21.422975 Si / 1000 Ang^3
#
#
#
# Elastic Constant Matrix: (Units=GPa)
#
#
# Indices 1 2 3 4 5 6 
#
# 1 104.8782 61.6889 32.6500 3.5047 -6.9121 15.3874
# 2 61.6889 135.2273 42.9792 4.4634 5.4078 23.0397
# 3 32.6500 42.9792 104.0802 12.5746 -5.0535 11.7719
# 4 3.5047 4.4634 12.5746 35.6275 -2.5790 5.0356
# 5 -6.9121 5.4078 -5.0535 -2.5790 33.2795 4.5221
# 6 15.3874 23.0397 11.7719 5.0356 4.5221 47.9897
#
#
#
# Elastic Compliance Matrix: (Units=1/GPa)
#
#
# Indices 1 2 3 4 5 6 
#
# 1 0.013886 -0.005672 -0.001689 0.000461 0.003819 -0.001723
# 2 -0.005672 0.011460 -0.002828 0.000283 -0.003077 -0.002729
# 3 -0.001689 -0.002828 0.011900 -0.003435 0.001762 -0.000825
# 4 0.000461 0.000283 -0.003435 0.029752 0.002210 -0.002771
# 5 0.003819 -0.003077 0.001762 0.002210 0.032249 -0.003450
# 6 -0.001723 -0.002729 -0.000825 -0.002771 -0.003450 0.023519
#
#
# Mechanical properties :
#
#
# Convention : Reuss Voigt Hill
#
# Bulk Modulus (GPa) = 59.28647 68.75800 64.02223
# Shear Modulus (GPa) = 33.60969 37.17051 35.39010
#
# Velocity S-wave (km/s) = 3.96518 4.16994 4.06885
# Velocity P-wave (km/s) = 6.97839 7.43974 7.21275
#
# Compressibility (1/GPa) = 0.01686725
#
# Stress axis : x y z
#
# Youngs Moduli (GPa) = 72.01382 87.25979 84.03689
#
# Poissons Ratio (x) = 0.49495 0.14195
# Poissons Ratio (y) = 0.40848 0.23765
# Poissons Ratio (z) = 0.12164 0.24676
#
# Static dielectric constant tensor:
#      x y z
#    x 4.015140 0.105800 -0.026990 
#    y 0.105800 4.323210 0.053960 
#    z -0.026990 0.053960 3.826780 
# 
# 
# High freq. dielectric constant tensor:
#      x y z
#    x 1.845590 0.007430 -0.001860 
#    y 0.007430 1.858440 0.006820 
#    z -0.001860 0.006820 1.813370 
# 
# From -- ./inp_files/208262.got.cif
#   From: 2010.06.25/outbox.cif.g09.slc.cpg/sg2_105_cif.got.tgz:208262.got - 2010.06.27 13:26:56.
