data_PCOD8013077
_publ_section_title
;
Structure prediction by ZEFSAII (Michael W. Deem and Ramdas Pophale) SiO2 
 PCOD8013077
Probable space group: P -1
;
_chemical_formula_sum "Si O2"
_cell_formula_units_Z 16
_cell_length_a 13.195052
_cell_length_b 15.111213
_cell_length_c 11.744619
_cell_angle_alpha 124.480163
_cell_angle_beta 133.166172
_cell_angle_gamma 27.130672
_cell_volume 772.452436
_symmetry_space_group_name_H-M "P -1"
_symmetry_group_IT_number 2
_symmetry_cell_setting 'triclinic'
loop_
_space_group_symop_operation_xyz
x,y,z
-x,-y,-z
loop_
_atom_site_type_symbol
_atom_site_label
_atom_site_fract_x
_atom_site_fract_y
_atom_site_fract_z
Si Si1 0.531299 0.005738 0.897390
Si Si2 0.570718 0.110079 0.649906
Si Si3 0.462349 0.487995 0.144608
Si Si4 0.101072 0.816458 0.925623
Si Si5 0.746475 0.832412 0.412860
Si Si6 0.198706 0.374356 0.209983
Si Si7 0.649873 0.668858 0.953575
Si Si8 0.322088 0.444593 0.564234
O O1 0.285287 0.136949 0.725782
O O2 0.749525 0.787862 0.856752
O O3 0.576102 0.107247 0.007389
O O4 0.500000 0.000000 0.000000
O O5 0.365635 0.208181 0.658193
O O6 0.486369 0.284057 0.674923
O O7 0.569943 0.037163 0.483632
O O8 0.850394 0.913124 0.771607
O O9 0.695800 0.314367 0.114536
O O10 0.390588 0.426575 0.111022
O O11 0.544136 0.525676 0.328323
O O12 0.217468 0.686915 0.032913
O O13 0.000000 0.000000 0.000000
O O14 0.038806 0.650513 0.539771
O O15 0.326214 0.342737 0.172750
O O16 0.317509 0.371063 0.397688
O O17 0.896220 0.571008 0.122467
#
# Coordination Sequence:
#
# PCOD8013077 Si02
#       8
#     2   2   2   2   2   2   2   2
#     4  10  21  40  65  92 123 162 214 268 310 369
#     4  11  24  40  62  90 128 169 214 258 314 380
#     4  11  26  40  64  93 133 169 204 261 325 381
#     4  11  24  42  60  88 128 171 210 250 312 388
#     4  11  23  38  63  97 123 164 214 268 315 369
#     4  10  22  40  68  90 124 164 216 264 314 372
#     4  10  23  41  62  96 124 166 212 264 313 378
#     4  12  22  42  64  94 132 163 207 268 320 380
#
# _framework density 20.713249000000001
#
# number of rings (size 3 to 8) (size 9 to 14) (size 15 to 20)
#    0.000    1.250    5.000    0.375    3.500    0.500 
#    0.000    0.000    0.000    2.250    0.000    0.000 
#    0.000    0.000    0.000    0.000    0.000    0.000 
#
# Total GULP energy -198213.077869 kJ/mol
# GULP energy per Si atom -12388.317367 kJ/mol
# Density = 2.066610 g / cm^3
# Si number density = 20.713249 Si / 1000 Ang^3
#
#
#
# Elastic Constant Matrix: (Units=GPa)
#
#
# Indices 1 2 3 4 5 6 
#
# 1 108.6357 46.7667 56.0666 3.3987 12.3288 21.4607
# 2 46.7667 99.3459 39.9426 5.1259 -6.5882 19.2814
# 3 56.0666 39.9426 119.5817 4.2300 -1.8809 8.1913
# 4 3.3987 5.1259 4.2300 39.8875 4.7559 7.2627
# 5 12.3288 -6.5882 -1.8809 4.7559 24.3654 3.9431
# 6 21.4607 19.2814 8.1913 7.2627 3.9431 29.6692
#
#
#
# Elastic Compliance Matrix: (Units=1/GPa)
#
#
# Indices 1 2 3 4 5 6 
#
# 1 0.016732 -0.004972 -0.005969 0.002176 -0.009649 -0.006474
# 2 -0.004972 0.015048 -0.002102 -0.001041 0.007656 -0.006365
# 3 -0.005969 -0.002102 0.011801 -0.001279 0.003239 0.002308
# 4 0.002176 -0.001041 -0.001279 0.027000 -0.005717 -0.006393
# 5 -0.009649 0.007656 0.003239 -0.005717 0.050030 -0.004140
# 6 -0.006474 -0.006365 0.002308 -0.006393 -0.004140 0.044002
#
#
# Mechanical properties :
#
#
# Convention : Reuss Voigt Hill
#
# Bulk Modulus (GPa) = 57.15951 68.12390 62.64170
# Shear Modulus (GPa) = 25.44091 31.10359 28.27225
#
# Velocity S-wave (km/s) = 3.50843 3.87929 3.69851
# Velocity P-wave (km/s) = 6.63835 7.28187 6.96754
#
# Compressibility (1/GPa) = 0.01749490
#
# Stress axis : x y z
#
# Youngs Moduli (GPa) = 59.76489 66.45192 84.73517
#
# Poissons Ratio (x) = 0.33042 0.50582
# Poissons Ratio (y) = 0.29717 0.17811
# Poissons Ratio (z) = 0.35676 0.13968
#
# Static dielectric constant tensor:
#      x y z
#    x 3.491210 0.282910 -0.045150 
#    y 0.282910 4.208300 0.022990 
#    z -0.045150 0.022990 4.054270 
# 
# 
# High freq. dielectric constant tensor:
#      x y z
#    x 1.781320 0.019060 -0.009400 
#    y 0.019060 1.833690 0.011470 
#    z -0.009400 0.011470 1.817700 
# 
# From -- ./inp_files/433128.got.cif
#   From: 2010.06.25/outbox.cif.g09.slc.cpg/sg2_217_cif.got.tgz:433128.got - 2010.06.27 13:26:56.
