data_PCOD8013104
_publ_section_title
;
Structure prediction by ZEFSAII (Michael W. Deem and Ramdas Pophale) SiO2 
 PCOD8013104
Probable space group: P -1
;
_chemical_formula_sum "Si O2"
_cell_formula_units_Z 14
_cell_length_a 20.313660
_cell_length_b 6.841828
_cell_length_c 11.959541
_cell_angle_alpha 122.793601
_cell_angle_beta 26.842343
_cell_angle_gamma 114.693653
_cell_volume 621.454412
_symmetry_space_group_name_H-M "P -1"
_symmetry_group_IT_number 2
_symmetry_cell_setting 'triclinic'
loop_
_space_group_symop_operation_xyz
x,y,z
-x,-y,-z
loop_
_atom_site_type_symbol
_atom_site_label
_atom_site_fract_x
_atom_site_fract_y
_atom_site_fract_z
Si Si1 0.254017 0.784849 0.581219
Si Si2 0.196007 0.006207 0.963143
Si Si3 0.825844 0.496628 0.783766
Si Si4 0.868669 0.124669 0.430993
Si Si5 0.350590 0.687144 0.807755
Si Si6 0.523861 0.964646 0.130930
Si Si7 0.683391 0.734730 0.621786
O O1 0.231439 0.990601 0.772078
O O2 0.124772 0.802693 0.687568
O O3 0.258188 0.541765 0.566459
O O4 0.406219 0.803551 0.295312
O O5 0.265035 0.763357 0.845147
O O6 0.253985 0.228881 0.003218
O O7 0.019224 0.057982 0.250468
O O8 0.772099 0.343752 0.715737
O O9 0.000000 0.500000 0.500000
O O10 0.773032 0.391061 0.947303
O O11 0.806385 0.883299 0.445863
O O12 0.500000 0.500000 0.500000
O O13 0.399510 0.927071 0.849740
O O14 0.457874 0.185492 0.219211
O O15 0.645872 0.784365 0.823849
#
# Coordination Sequence:
#
# PCOD8013104 Si02
#       7
#     2   2   2   2   2   2   2
#     4  11  23  40  66  98 131 176 220 276 334 396
#     4  11  26  43  66  98 140 175 219 273 342 398
#     4  10  24  45  69  98 133 177 227 274 327 401
#     4  10  23  43  68  97 129 176 230 274 325 400
#     4  12  25  43  70  98 140 177 220 276 343 400
#     4  10  22  39  61  96 130 170 221 273 323 398
#     4  10  21  40  65  93 131 170 223 274 329 386
#
# _framework density 22.527799999999999
#
# number of rings (size 3 to 8) (size 9 to 14) (size 15 to 20)
#    0.000    1.429    1.429    2.571    2.000    9.714 
#    0.000    0.000    0.000    0.000    0.000    0.000 
#    0.000    0.000    0.000    0.000    0.000    0.000 
#
# Total GULP energy -173459.520929 kJ/mol
# GULP energy per Si atom -12389.965781 kJ/mol
# Density = 2.247653 g / cm^3
# Si number density = 22.527800 Si / 1000 Ang^3
#
#
#
# Elastic Constant Matrix: (Units=GPa)
#
#
# Indices 1 2 3 4 5 6 
#
# 1 114.1155 37.9428 41.2075 11.0011 10.2674 -13.7655
# 2 37.9428 110.9151 30.7553 9.6372 0.6868 -6.3860
# 3 41.2075 30.7553 80.6715 9.6241 13.8471 -8.1528
# 4 11.0011 9.6372 9.6241 33.0084 2.9234 2.5931
# 5 10.2674 0.6868 13.8471 2.9234 37.4030 0.5691
# 6 -13.7655 -6.3860 -8.1528 2.5931 0.5691 31.4147
#
#
#
# Elastic Compliance Matrix: (Units=1/GPa)
#
#
# Indices 1 2 3 4 5 6 
#
# 1 0.011930 -0.002488 -0.004232 -0.002179 -0.001550 0.003832
# 2 -0.002488 0.010833 -0.002901 -0.001673 0.001682 0.000467
# 3 -0.004232 -0.002901 0.017032 -0.002450 -0.004933 0.002268
# 4 -0.002179 -0.001673 -0.002450 0.032671 -0.000947 -0.004611
# 5 -0.001550 0.001682 -0.004933 -0.000947 0.029062 -0.002066
# 6 0.003832 0.000467 0.002268 -0.004611 -0.002066 0.034612
#
#
# Mechanical properties :
#
#
# Convention : Reuss Voigt Hill
#
# Bulk Modulus (GPa) = 48.65458 58.39035 53.52247
# Shear Modulus (GPa) = 30.81948 33.41832 32.11890
#
# Velocity S-wave (km/s) = 3.70275 3.85571 3.78000
# Velocity P-wave (km/s) = 6.31862 6.76738 6.54685
#
# Compressibility (1/GPa) = 0.02055305
#
# Stress axis : x y z
#
# Youngs Moduli (GPa) = 83.81942 92.30754 58.71308
#
# Poissons Ratio (x) = 0.22968 0.24848
# Poissons Ratio (y) = 0.20856 0.17033
# Poissons Ratio (z) = 0.35474 0.26779
#
# Static dielectric constant tensor:
#      x y z
#    x 4.247100 0.196330 0.251750 
#    y 0.196330 4.035340 0.132770 
#    z 0.251750 0.132770 4.006810 
# 
# 
# High freq. dielectric constant tensor:
#      x y z
#    x 1.890610 0.009090 0.019350 
#    y 0.009090 1.888760 0.004980 
#    z 0.019350 0.004980 1.881100 
# 
# From -- ./inp_files/68491.got.cif
#   From: 2010.06.25/outbox.cif.g09.slc.cpg/sg2_35_cif.got.tgz:68491.got - 2010.06.27 13:26:56.
