data_PCOD8013825
_publ_section_title
;
Structure prediction by ZEFSAII (Michael W. Deem and Ramdas Pophale) SiO2 
 PCOD8013825
Probable space group: P -1
;
_chemical_formula_sum "Si O2"
_cell_formula_units_Z 16
_cell_length_a 10.662771
_cell_length_b 10.547559
_cell_length_c 13.095370
_cell_angle_alpha 61.123069
_cell_angle_beta 145.850483
_cell_angle_gamma 126.254085
_cell_volume 666.629341
_symmetry_space_group_name_H-M "P -1"
_symmetry_group_IT_number 2
_symmetry_cell_setting 'triclinic'
loop_
_space_group_symop_operation_xyz
x,y,z
-x,-y,-z
loop_
_atom_site_type_symbol
_atom_site_label
_atom_site_fract_x
_atom_site_fract_y
_atom_site_fract_z
Si Si1 0.940378 0.692335 0.399867
Si Si2 0.372571 0.935949 0.704225
Si Si3 0.356142 0.181413 0.735521
Si Si4 0.090244 0.681836 0.966597
Si Si5 0.758160 0.611285 0.590009
Si Si6 0.372531 0.093476 0.437418
Si Si7 0.214042 0.603719 0.462880
Si Si8 0.089287 0.962699 0.967157
O O1 0.784464 0.802266 0.262146
O O2 0.778633 0.513579 0.395051
O O3 0.037172 0.689656 0.349739
O O4 0.178355 0.767597 0.604325
O O5 0.286993 0.000169 0.724237
O O6 0.404624 0.070591 0.587869
O O7 0.629489 0.920047 0.903611
O O8 0.268787 0.270444 0.556157
O O9 0.639956 0.261048 0.917564
O O10 0.080945 0.783933 0.020339
O O11 0.923505 0.710378 0.755051
O O12 0.000000 0.500000 0.000000
O O13 0.500000 0.500000 0.500000
O O14 0.883224 0.501404 0.663554
O O15 0.511837 0.274514 0.425101
O O16 0.087262 0.020414 0.246006
O O17 0.500000 0.000000 0.500000
O O18 0.000000 0.000000 0.000000
#
# Coordination Sequence:
#
# PCOD8013825 Si02
#       8
#     2   2   2   2   2   2   2   2
#     4  10  21  41  62  90 130 174 212 256 322 389
#     4  11  22  41  65  93 125 169 217 258 325 382
#     4  10  22  38  62  89 123 171 212 262 316 386
#     4  11  23  37  60  97 129 165 216 265 325 388
#     4  11  20  37  62  89 129 163 205 267 326 368
#     4  12  22  39  67  96 125 164 216 271 322 379
#     4  10  22  38  64  93 127 168 214 263 320 385
#     4  11  23  38  61  96 131 160 208 275 321 374
#
# _framework density 24.001344
#
# number of rings (size 3 to 8) (size 9 to 14) (size 15 to 20)
#    0.000    1.250    3.750    2.625    3.500    0.000 
#    0.000    3.125    0.000    9.000    0.000    0.000 
#    0.000    0.000    0.000    0.000    0.000    0.000 
#
# Total GULP energy -198257.401733 kJ/mol
# GULP energy per Si atom -12391.087608 kJ/mol
# Density = 2.394672 g / cm^3
# Si number density = 24.001344 Si / 1000 Ang^3
#
#
#
# Elastic Constant Matrix: (Units=GPa)
#
#
# Indices 1 2 3 4 5 6 
#
# 1 145.1505 24.7106 26.4529 7.7774 22.9644 -45.4597
# 2 24.7106 76.6282 17.6738 20.7305 8.0473 -9.0704
# 3 26.4529 17.6738 129.0517 15.3802 16.9493 -2.2821
# 4 7.7774 20.7305 15.3802 27.8393 -2.9403 -1.7904
# 5 22.9644 8.0473 16.9493 -2.9403 33.7977 -3.3753
# 6 -45.4597 -9.0704 -2.2821 -1.7904 -3.3753 56.9037
#
#
#
# Elastic Compliance Matrix: (Units=1/GPa)
#
#
# Indices 1 2 3 4 5 6 
#
# 1 0.010799 -0.001243 -0.000921 -0.001695 -0.005929 0.007987
# 2 -0.001243 0.017603 0.000007 -0.013154 -0.004381 0.001139
# 3 -0.000921 0.000007 0.009150 -0.005331 -0.004508 -0.000803
# 4 -0.001695 -0.013154 -0.005331 0.050224 0.011184 -0.001421
# 5 -0.005929 -0.004381 -0.004508 0.011184 0.037591 -0.003034
# 6 0.007987 0.001139 -0.000803 -0.001421 -0.003034 0.023879
#
#
# Mechanical properties :
#
#
# Convention : Reuss Voigt Hill
#
# Bulk Modulus (GPa) = 30.08683 54.27833 42.18258
# Shear Modulus (GPa) = 30.36930 42.50767 36.43848
#
# Velocity S-wave (km/s) = 3.56099 4.21295 3.90062
# Velocity P-wave (km/s) = 5.42865 6.80655 6.15627
#
# Compressibility (1/GPa) = 0.03323713
#
# Stress axis : x y z
#
# Youngs Moduli (GPa) = 92.59693 56.80922 109.29056
#
# Poissons Ratio (x) = 0.07064 0.10070
# Poissons Ratio (y) = 0.11514 -0.00080
# Poissons Ratio (z) = 0.08532 -0.00041
#
# Static dielectric constant tensor:
#      x y z
#    x 4.575630 -0.589610 0.396010 
#    y -0.589610 4.373850 0.366920 
#    z 0.396010 0.366920 4.204730 
# 
# 
# High freq. dielectric constant tensor:
#      x y z
#    x 1.971750 -0.024930 0.020390 
#    y -0.024930 1.952210 0.017860 
#    z 0.020390 0.017860 1.923190 
# 
# From -- ./inp_files/518869.got.cif
#   From: 2010.06.25/outbox.cif.g09.slc.cpg/sg2_260_cif.got.tgz:518869.got - 2010.06.27 13:26:56.
