data_PCOD8013289
_publ_section_title
;
Structure prediction by ZEFSAII (Michael W. Deem and Ramdas Pophale) SiO2 
 PCOD8013289
Probable space group: P -1
;
_chemical_formula_sum "Si O2"
_cell_formula_units_Z 12
_cell_length_a 14.965126
_cell_length_b 8.821576
_cell_length_c 12.962784
_cell_angle_alpha 107.829183
_cell_angle_beta 143.428847
_cell_angle_gamma 44.598552
_cell_volume 553.017850
_symmetry_space_group_name_H-M "P -1"
_symmetry_group_IT_number 2
_symmetry_cell_setting 'triclinic'
loop_
_space_group_symop_operation_xyz
x,y,z
-x,-y,-z
loop_
_atom_site_type_symbol
_atom_site_label
_atom_site_fract_x
_atom_site_fract_y
_atom_site_fract_z
Si Si1 0.275114 0.551243 0.959652
Si Si2 0.940165 0.367816 0.421299
Si Si3 0.660910 0.939423 0.730412
Si Si4 0.346288 0.512050 0.628483
Si Si5 0.736208 0.596724 0.875920
Si Si6 0.770432 0.120937 0.541124
O O1 0.295439 0.462003 0.844306
O O2 0.503419 0.479617 0.170304
O O3 0.281671 0.400295 0.015840
O O4 0.993298 0.890570 0.784973
O O5 0.860361 0.391116 0.467745
O O6 0.000000 0.500000 0.500000
O O7 0.190164 0.042485 0.551035
O O8 0.641078 0.849879 0.796995
O O9 0.500000 0.000000 0.500000
O O10 0.542154 0.213695 0.700347
O O11 0.966917 0.700209 0.941946
O O12 0.193668 0.730423 0.437503
O O13 0.529631 0.645260 0.647728
#
# Coordination Sequence:
#
# PCOD8013289 Si02
#       6
#     2   2   2   2   2   2
#     4   9  22  40  65  93 126 164 203 263 308 381
#     4  10  21  40  66  96 128 164 204 258 316 378
#     4  11  25  40  66  90 129 168 212 267 302 374
#     4  11  22  42  63  95 128 166 211 252 322 368
#     4  10  21  43  62  91 127 160 221 250 316 364
#     4   9  21  38  65  92 129 158 205 258 311 378
#
# _framework density 21.699117000000001
#
# number of rings (size 3 to 8) (size 9 to 14) (size 15 to 20)
#    1.000    1.000    0.000    3.000    2.333    5.333 
#    0.000    9.167    0.000    0.000    0.000    0.000 
#    0.000    0.000    0.000    0.000    0.000    0.000 
#
# Total GULP energy -148671.520855 kJ/mol
# GULP energy per Si atom -12389.293405 kJ/mol
# Density = 2.164973 g / cm^3
# Si number density = 21.699117 Si / 1000 Ang^3
#
#
#
# Elastic Constant Matrix: (Units=GPa)
#
#
# Indices 1 2 3 4 5 6 
#
# 1 117.1068 30.8813 24.5174 -7.3333 2.1522 34.9706
# 2 30.8813 106.5519 4.2347 -5.8307 -5.2591 26.5319
# 3 24.5174 4.2347 78.0210 -8.9342 -0.2948 10.0753
# 4 -7.3333 -5.8307 -8.9342 31.7151 5.4408 -4.5124
# 5 2.1522 -5.2591 -0.2948 5.4408 38.8170 -4.1651
# 6 34.9706 26.5319 10.0753 -4.5124 -4.1651 32.2202
#
#
#
# Elastic Compliance Matrix: (Units=1/GPa)
#
#
# Indices 1 2 3 4 5 6 
#
# 1 0.013270 -0.000469 -0.002318 0.000819 -0.002379 -0.013485
# 2 -0.000469 0.011890 0.000812 0.000888 0.000516 -0.009345
# 3 -0.002318 0.000812 0.014163 0.003357 -0.000356 -0.002157
# 4 0.000819 0.000888 0.003357 0.033809 -0.004479 0.001486
# 5 -0.002379 0.000516 -0.000356 -0.004479 0.027141 0.005149
# 6 -0.013485 -0.009345 -0.002157 0.001486 0.005149 0.054916
#
#
# Mechanical properties :
#
#
# Convention : Reuss Voigt Hill
#
# Bulk Modulus (GPa) = 28.26995 46.77185 37.52090
# Shear Modulus (GPa) = 29.25190 36.68687 32.96939
#
# Velocity S-wave (km/s) = 3.67559 4.11628 3.90216
# Velocity P-wave (km/s) = 5.57402 6.64780 6.13445
#
# Compressibility (1/GPa) = 0.03537325
#
# Stress axis : x y z
#
# Youngs Moduli (GPa) = 75.35817 84.10704 70.60560
#
# Poissons Ratio (x) = 0.03942 0.16369
# Poissons Ratio (y) = 0.03532 -0.05736
# Poissons Ratio (z) = 0.17471 -0.06833
#
# Static dielectric constant tensor:
#      x y z
#    x 4.097410 0.264070 -0.119730 
#    y 0.264070 3.595300 -0.163260 
#    z -0.119730 -0.163260 4.041160 
# 
# 
# High freq. dielectric constant tensor:
#      x y z
#    x 1.862590 0.024780 -0.002400 
#    y 0.024780 1.824980 -0.015320 
#    z -0.002400 -0.015320 1.857290 
# 
# From -- ./inp_files/115677.got.cif
#   From: 2010.06.25/outbox.cif.g09.slc.cpg/sg2_58_cif.got.tgz:115677.got - 2010.06.27 13:26:56.
