data_PCOD8013754
_publ_section_title
;
Structure prediction by ZEFSAII (Michael W. Deem and Ramdas Pophale) SiO2 
 PCOD8013754
Probable space group: P -1
;
_chemical_formula_sum "Si O2"
_cell_formula_units_Z 16
_cell_length_a 13.980480
_cell_length_b 15.126362
_cell_length_c 9.523442
_cell_angle_alpha 39.913993
_cell_angle_beta 40.536463
_cell_angle_gamma 43.107025
_cell_volume 785.832324
_symmetry_space_group_name_H-M "P -1"
_symmetry_group_IT_number 2
_symmetry_cell_setting 'triclinic'
loop_
_space_group_symop_operation_xyz
x,y,z
-x,-y,-z
loop_
_atom_site_type_symbol
_atom_site_label
_atom_site_fract_x
_atom_site_fract_y
_atom_site_fract_z
Si Si1 0.666174 0.161893 0.608169
Si Si2 0.841173 0.119047 0.735533
Si Si3 0.329457 0.334129 0.889864
Si Si4 0.891940 0.408295 0.701331
Si Si5 0.716492 0.444833 0.567602
Si Si6 0.361241 0.540940 0.848156
Si Si7 0.107112 0.084309 0.834184
Si Si8 0.193049 0.099956 0.419449
O O1 0.795102 0.078175 0.683627
O O2 0.491829 0.214864 0.801027
O O3 0.711193 0.298238 0.335887
O O4 0.677186 0.045688 0.613041
O O5 0.733893 0.286546 0.680355
O O6 0.023144 0.099711 0.564818
O O7 0.795887 0.011223 0.027057
O O8 0.248532 0.453148 0.714834
O O9 0.362266 0.417114 0.886974
O O10 0.211687 0.249172 0.161364
O O11 0.840676 0.428203 0.572575
O O12 0.000000 0.500000 0.500000
O O13 0.994144 0.240893 0.826284
O O14 0.737936 0.467872 0.895486
O O15 0.537447 0.516796 0.732693
O O16 0.216524 0.096964 0.566675
O O17 0.000000 0.000000 0.000000
#
# Coordination Sequence:
#
# PCOD8013754 Si02
#       8
#     2   2   2   2   2   2   2   2
#     4  11  22  41  62  93 118 165 208 246 297 375
#     4  11  21  40  65  88 122 162 211 244 296 372
#     4  11  23  42  62  93 128 156 202 260 308 355
#     4  12  25  41  63  95 125 156 207 260 305 355
#     4  11  22  42  64  90 124 165 202 251 302 368
#     4  11  22  41  67  88 121 168 207 242 305 372
#     4  10  21  41  61  86 122 162 202 246 299 364
#     4  11  23  38  63  89 125 160 200 258 311 342
#
# _framework density 20.360578
#
# number of rings (size 3 to 8) (size 9 to 14) (size 15 to 20)
#    0.000    1.000    5.000    4.125    0.000    2.500 
#    0.000    0.625    0.000    0.000    0.000    0.000 
#    0.000    0.000    0.000    0.000    0.000    0.000 
#
# Total GULP energy -198436.299069 kJ/mol
# GULP energy per Si atom -12402.268692 kJ/mol
# Density = 2.031424 g / cm^3
# Si number density = 20.360578 Si / 1000 Ang^3
#
#
#
# Elastic Constant Matrix: (Units=GPa)
#
#
# Indices 1 2 3 4 5 6 
#
# 1 60.4608 13.3993 30.7782 -8.8983 8.7278 -3.4973
# 2 13.3993 112.4970 45.0169 -10.6214 6.6232 8.0765
# 3 30.7782 45.0169 131.9858 -10.1626 7.6400 -2.4028
# 4 -8.8983 -10.6214 -10.1626 31.9481 2.3361 8.5266
# 5 8.7278 6.6232 7.6400 2.3361 23.4716 -7.9844
# 6 -3.4973 8.0765 -2.4028 8.5266 -7.9844 23.1885
#
#
#
# Elastic Compliance Matrix: (Units=1/GPa)
#
#
# Indices 1 2 3 4 5 6 
#
# 1 0.020315 0.000321 -0.004011 0.005623 -0.007633 -0.002160
# 2 0.000321 0.011694 -0.003461 0.005528 -0.005692 -0.008376
# 3 -0.004011 -0.003461 0.009774 0.000514 -0.000317 0.001315
# 4 0.005623 0.005528 0.000514 0.041774 -0.015347 -0.021669
# 5 -0.007633 -0.005692 -0.000317 -0.015347 0.057620 0.026282
# 6 -0.002160 -0.008376 0.001315 -0.021669 0.026282 0.062870
#
#
# Mechanical properties :
#
#
# Convention : Reuss Voigt Hill
#
# Bulk Modulus (GPa) = 36.38862 53.70361 45.04611
# Shear Modulus (GPa) = 21.97710 30.10492 26.04101
#
# Velocity S-wave (km/s) = 3.28898 3.84941 3.58018
# Velocity P-wave (km/s) = 5.68631 6.79638 6.26598
#
# Compressibility (1/GPa) = 0.02748112
#
# Stress axis : x y z
#
# Youngs Moduli (GPa) = 49.22449 85.51292 102.31045
#
# Poissons Ratio (x) = -0.02744 0.41039
# Poissons Ratio (y) = -0.01579 0.35407
# Poissons Ratio (z) = 0.19745 0.29594
#
# Static dielectric constant tensor:
#      x y z
#    x 3.617460 0.087410 0.406610 
#    y 0.087410 3.826680 0.013120 
#    z 0.406610 0.013120 4.153250 
# 
# 
# High freq. dielectric constant tensor:
#      x y z
#    x 1.779480 0.005870 0.013420 
#    y 0.005870 1.808400 -0.001940 
#    z 0.013420 -0.001940 1.802620 
# 
# From -- ./inp_files/189766.got.cif
#   From: 2010.06.25/outbox.cif.g09.slc.cpg/sg2_95_cif.got.tgz:189766.got - 2010.06.27 13:26:56.
