data_PCOD8013777
_publ_section_title
;
Structure prediction by ZEFSAII (Michael W. Deem and Ramdas Pophale) SiO2 
 PCOD8013777
Probable space group: P -1
;
_chemical_formula_sum "Si O2"
_cell_formula_units_Z 14
_cell_length_a 21.820192
_cell_length_b 6.496410
_cell_length_c 8.904641
_cell_angle_alpha 57.612054
_cell_angle_beta 141.534532
_cell_angle_gamma 129.377589
_cell_volume 604.939372
_symmetry_space_group_name_H-M "P -1"
_symmetry_group_IT_number 2
_symmetry_cell_setting 'triclinic'
loop_
_space_group_symop_operation_xyz
x,y,z
-x,-y,-z
loop_
_atom_site_type_symbol
_atom_site_label
_atom_site_fract_x
_atom_site_fract_y
_atom_site_fract_z
Si Si1 0.325656 0.892827 0.892110
Si Si2 0.080377 0.903415 0.110809
Si Si3 0.660859 0.657606 0.857368
Si Si4 0.321043 0.240488 0.478313
Si Si5 0.160015 0.000135 0.731943
Si Si6 0.501508 0.660230 0.794399
Si Si7 0.031666 0.329553 0.319582
O O1 0.347156 0.026125 0.713865
O O2 0.219936 0.928465 0.736926
O O3 0.300338 0.583634 0.969126
O O4 0.432174 0.030593 0.152674
O O5 0.084159 0.648359 0.300710
O O6 0.194487 0.155690 0.244872
O O7 0.047089 0.815181 0.911985
O O8 0.000000 0.000000 0.000000
O O9 0.629146 0.731741 0.604415
O O10 0.559453 0.575932 0.803935
O O11 0.759884 0.921748 0.003131
O O12 0.375847 0.539833 0.544293
O O13 0.133819 0.252953 0.539732
O O14 0.044350 0.762215 0.642573
O O15 0.500000 0.500000 0.000000
#
# Coordination Sequence:
#
# PCOD8013777 Si02
#       7
#     2   2   2   2   2   2   2
#     4  10  23  41  64  94 126 167 207 261 325 376
#     4  11  23  39  60  96 125 164 217 260 313 376
#     4  11  22  41  67  95 125 165 213 262 315 382
#     4  11  22  41  63  93 126 163 212 264 308 377
#     4  10  21  41  61  91 127 166 213 259 319 378
#     4   9  22  43  64  93 130 161 210 263 317 386
#     4  10  22  39  62  86 127 170 208 265 315 370
#
# _framework density 23.142814999999999
#
# number of rings (size 3 to 8) (size 9 to 14) (size 15 to 20)
#    0.000    1.714    1.429    2.143    2.000    2.857 
#    0.000   15.000    0.000    0.000    0.000    0.000 
#    0.000    0.000    0.000    0.000    0.000    0.000 
#
# Total GULP energy -173465.965099 kJ/mol
# GULP energy per Si atom -12390.426078 kJ/mol
# Density = 2.309014 g / cm^3
# Si number density = 23.142815 Si / 1000 Ang^3
#
#
#
# Elastic Constant Matrix: (Units=GPa)
#
#
# Indices 1 2 3 4 5 6 
#
# 1 127.7849 49.9200 33.6559 -4.1173 -15.7778 10.2694
# 2 49.9200 54.4900 24.4100 -2.9924 3.0450 0.9700
# 3 33.6559 24.4100 87.2316 16.6528 -9.3124 2.6006
# 4 -4.1173 -2.9924 16.6528 42.3421 10.8915 4.3310
# 5 -15.7778 3.0450 -9.3124 10.8915 38.3150 0.3319
# 6 10.2694 0.9700 2.6006 4.3310 0.3319 23.4913
#
#
#
# Elastic Compliance Matrix: (Units=1/GPa)
#
#
# Indices 1 2 3 4 5 6 
#
# 1 0.014542 -0.013212 -0.000931 -0.000358 0.006963 -0.005741
# 2 -0.013212 0.034669 -0.007268 0.006665 -0.011892 0.004088
# 3 -0.000931 -0.007268 0.016216 -0.008726 0.006612 0.000427
# 4 -0.000358 0.006665 -0.008726 0.030937 -0.011551 -0.004693
# 5 0.006963 -0.011892 0.006612 -0.011551 0.034817 -0.001647
# 6 -0.005741 0.004088 0.000427 -0.004693 -0.001647 0.045751
#
#
# Mechanical properties :
#
#
# Convention : Reuss Voigt Hill
#
# Bulk Modulus (GPa) = 44.23598 53.94203 49.08900
# Shear Modulus (GPa) = 21.99866 31.59772 26.79819
#
# Velocity S-wave (km/s) = 3.08646 3.69905 3.40656
# Velocity P-wave (km/s) = 5.64425 6.45003 6.06055
#
# Compressibility (1/GPa) = 0.02260603
#
# Stress axis : x y z
#
# Youngs Moduli (GPa) = 68.76821 28.84404 61.66919
#
# Poissons Ratio (x) = 0.38108 0.05739
# Poissons Ratio (y) = 0.90854 0.44820
# Poissons Ratio (z) = 0.06400 0.20963
#
# Static dielectric constant tensor:
#      x y z
#    x 4.217130 0.218640 -0.181730 
#    y 0.218640 4.218530 0.467750 
#    z -0.181730 0.467750 4.396660 
# 
# 
# High freq. dielectric constant tensor:
#      x y z
#    x 1.917830 0.019410 -0.012020 
#    y 0.019410 1.903090 0.028080 
#    z -0.012020 0.028080 1.919600 
# 
# From -- ./inp_files/31947.got.cif
#   From: 2010.06.25/outbox.cif.g09.slc.cpg/sg2_16_cif.got.tgz:31947.got - 2010.06.27 13:26:56.
