data_PCOD8013796
_publ_section_title
;
Structure prediction by ZEFSAII (Michael W. Deem and Ramdas Pophale) SiO2 
 PCOD8013796
Probable space group: P -1
;
_chemical_formula_sum "Si O2"
_cell_formula_units_Z 12
_cell_length_a 7.066601
_cell_length_b 15.207161
_cell_length_c 7.395179
_cell_angle_alpha 63.456999
_cell_angle_beta 141.692358
_cell_angle_gamma 117.186744
_cell_volume 432.540556
_symmetry_space_group_name_H-M "P -1"
_symmetry_group_IT_number 2
_symmetry_cell_setting 'triclinic'
loop_
_space_group_symop_operation_xyz
x,y,z
-x,-y,-z
loop_
_atom_site_type_symbol
_atom_site_label
_atom_site_fract_x
_atom_site_fract_y
_atom_site_fract_z
Si Si1 0.508687 0.379613 0.447407
Si Si2 0.698280 0.012642 0.368753
Si Si3 0.865911 0.906347 0.105066
Si Si4 0.536522 0.803897 0.634562
Si Si5 0.663130 0.419607 0.919943
Si Si6 0.986562 0.364718 0.545692
O O1 0.327600 0.273873 0.325125
O O2 0.620387 0.359999 0.752441
O O3 0.283347 0.461259 0.195572
O O4 0.815206 0.424445 0.511286
O O5 0.423636 0.059941 0.025386
O O6 0.545000 0.908912 0.445364
O O7 0.000000 0.000000 0.500000
O O8 0.845056 0.102172 0.539741
O O9 0.734984 0.813158 0.961454
O O10 0.000000 0.000000 0.000000
O O11 0.173952 0.753372 0.447648
O O12 0.353152 0.382413 0.843391
O O13 0.945077 0.397947 0.274321
#
# Coordination Sequence:
#
# PCOD8013796 Si02
#       6
#     2   2   2   2   2   2
#     4   9  23  41  65  97 131 165 227 257 315 392
#     4  11  23  41  65  91 127 164 213 269 326 385
#     4  10  21  41  62  86 123 166 204 258 332 377
#     4   9  22  41  59  97 120 171 210 268 304 397
#     4  11  22  44  63  95 129 180 202 273 322 371
#     4  10  24  39  65  91 132 167 218 260 326 375
#
# _framework density 27.743064
#
# number of rings (size 3 to 8) (size 9 to 14) (size 15 to 20)
#    1.000    1.000    0.000    3.500    0.000   10.667 
#    0.000    0.000    0.000    0.000    0.000    0.000 
#    0.000    0.000    0.000    0.000    0.000    0.000 
#
# Total GULP energy -148668.164303 kJ/mol
# GULP energy per Si atom -12389.013692 kJ/mol
# Density = 2.767992 g / cm^3
# Si number density = 27.743064 Si / 1000 Ang^3
#
#
#
# Elastic Constant Matrix: (Units=GPa)
#
#
# Indices 1 2 3 4 5 6 
#
# 1 71.0227 11.2152 -18.6726 -1.7327 -2.7288 4.2185
# 2 11.2152 100.6788 18.7698 17.9478 -2.1317 -19.7697
# 3 -18.6726 18.7698 84.2800 2.2682 16.5408 10.4877
# 4 -1.7327 17.9478 2.2682 29.8077 0.0193 -9.4577
# 5 -2.7288 -2.1317 16.5408 0.0193 27.0206 6.7205
# 6 4.2185 -19.7697 10.4877 -9.4577 6.7205 38.3185
#
#
#
# Elastic Compliance Matrix: (Units=1/GPa)
#
#
# Indices 1 2 3 4 5 6 
#
# 1 0.016383 -0.004017 0.005215 0.001441 -0.000654 -0.004833
# 2 -0.004017 0.013833 -0.005102 -0.005903 0.002032 0.007162
# 3 0.005215 -0.005102 0.016593 0.000143 -0.008485 -0.006224
# 4 0.001441 -0.005903 0.000143 0.039348 -0.002138 0.006843
# 5 -0.000654 0.002032 -0.008485 -0.002138 0.043470 -0.004709
# 6 -0.004833 0.007162 -0.006224 0.006843 -0.004709 0.034543
#
#
# Mechanical properties :
#
#
# Convention : Reuss Voigt Hill
#
# Bulk Modulus (GPa) = 25.64022 30.95626 28.29824
# Shear Modulus (GPa) = 27.03034 35.34063 31.18548
#
# Velocity S-wave (km/s) = 3.12478 3.57298 3.35637
# Velocity P-wave (km/s) = 4.72028 5.31075 5.02420
#
# Compressibility (1/GPa) = 0.03900123
#
# Stress axis : x y z
#
# Youngs Moduli (GPa) = 61.04050 72.29123 60.26683
#
# Poissons Ratio (x) = 0.29040 -0.31431
# Poissons Ratio (y) = 0.24520 0.30747
# Poissons Ratio (z) = -0.31834 0.36881
#
# Static dielectric constant tensor:
#      x y z
#    x 5.218650 -0.296500 -0.166480 
#    y -0.296500 5.636410 2.143260 
#    z -0.166480 2.143260 8.890370 
# 
# 
# High freq. dielectric constant tensor:
#      x y z
#    x 2.125670 -0.015310 0.007400 
#    y -0.015310 2.117990 0.020590 
#    z 0.007400 0.020590 2.123100 
# 
# From -- ./inp_files/210423.got.cif
#   From: 2010.06.25/outbox.cif.g09.slc.cpg/sg2_106_cif.got.tgz:210423.got - 2010.06.27 13:26:56.
