data_PCOD8013310
_publ_section_title
;
Structure prediction by ZEFSAII (Michael W. Deem and Ramdas Pophale) SiO2 
 PCOD8013310
Probable space group: P -1
;
_chemical_formula_sum "Si O2"
_cell_formula_units_Z 16
_cell_length_a 10.521860
_cell_length_b 14.092153
_cell_length_c 9.148270
_cell_angle_alpha 50.623205
_cell_angle_beta 75.556303
_cell_angle_gamma 47.730526
_cell_volume 737.694299
_symmetry_space_group_name_H-M "P -1"
_symmetry_group_IT_number 2
_symmetry_cell_setting 'triclinic'
loop_
_space_group_symop_operation_xyz
x,y,z
-x,-y,-z
loop_
_atom_site_type_symbol
_atom_site_label
_atom_site_fract_x
_atom_site_fract_y
_atom_site_fract_z
Si Si1 0.898383 0.386696 0.146015
Si Si2 0.942114 0.111289 0.051500
Si Si3 0.742761 0.721990 0.951976
Si Si4 0.458716 0.814477 0.476538
Si Si5 0.277938 0.058314 0.033762
Si Si6 0.625894 0.955296 0.309591
Si Si7 0.352120 0.535162 0.112791
Si Si8 0.875756 0.942696 0.451370
O O1 0.094950 0.320384 0.140697
O O2 0.938549 0.230854 0.364145
O O3 0.778551 0.552997 0.122286
O O4 0.798424 0.433181 0.975503
O O5 0.942108 0.023848 0.277315
O O6 0.741823 0.301311 0.916205
O O7 0.076102 0.137144 0.014524
O O8 0.000000 0.000000 0.000000
O O9 0.722297 0.805183 0.030321
O O10 0.561957 0.857340 0.773256
O O11 0.403424 0.881869 0.260018
O O12 0.602820 0.825506 0.475304
O O13 0.555546 0.621312 0.651445
O O14 0.275660 0.932935 0.506977
O O15 0.355238 0.024033 0.885560
O O16 0.797870 0.897091 0.400241
O O17 0.500000 0.500000 0.000000
#
# Coordination Sequence:
#
# PCOD8013310 Si02
#       8
#     2   2   2   2   2   2   2   2
#     4  11  24  39  67 102 132 166 222 288 331 384
#     4  12  26  47  65  95 143 182 223 278 343 404
#     4  10  21  40  66  97 134 164 215 280 336 385
#     4  11  23  41  72  98 125 176 236 278 331 397
#     4  11  23  47  68  95 139 180 219 279 344 406
#     4  11  23  42  68  99 139 176 220 276 346 403
#     4  12  26  45  70  99 136 178 231 286 328 401
#     4  12  23  41  70  99 130 184 224 276 335 406
#
# _framework density 21.689201000000001
#
# number of rings (size 3 to 8) (size 9 to 14) (size 15 to 20)
#    0.000    0.750    6.250    2.625    5.250    1.000 
#    4.500    1.875    0.000    0.000    0.000    0.000 
#    0.000    0.000    0.000    0.000    0.000    0.000 
#
# Total GULP energy -198353.247536 kJ/mol
# GULP energy per Si atom -12397.077971 kJ/mol
# Density = 2.163983 g / cm^3
# Si number density = 21.689201 Si / 1000 Ang^3
#
#
#
# Elastic Constant Matrix: (Units=GPa)
#
#
# Indices 1 2 3 4 5 6 
#
# 1 57.3435 26.8685 2.6550 -0.1038 -3.7170 -7.8677
# 2 26.8685 93.6598 61.9338 -19.2316 -3.4107 2.8101
# 3 2.6550 61.9338 122.5142 -15.8979 -12.1726 6.2217
# 4 -0.1038 -19.2316 -15.8979 42.0876 0.6653 -4.1706
# 5 -3.7170 -3.4107 -12.1726 0.6653 37.0538 8.0341
# 6 -7.8677 2.8101 6.2217 -4.1706 8.0341 25.5180
#
#
#
# Elastic Compliance Matrix: (Units=1/GPa)
#
#
# Indices 1 2 3 4 5 6 
#
# 1 0.022785 -0.009768 0.003958 -0.002306 0.001355 0.006332
# 2 -0.009768 0.021167 -0.009874 0.005820 -0.002092 -0.001325
# 3 0.003958 -0.009874 0.013682 0.000359 0.004493 -0.002384
# 4 -0.002306 0.005820 0.000359 0.026877 -0.000752 0.003190
# 5 0.001355 -0.002092 0.004493 -0.000752 0.030636 -0.010216
# 6 0.006332 -0.001325 -0.002384 0.003190 -0.010216 0.045605
#
#
# Mechanical properties :
#
#
# Convention : Reuss Voigt Hill
#
# Bulk Modulus (GPa) = 38.07191 50.71468 44.39330
# Shear Modulus (GPa) = 24.89106 33.06923 28.98014
#
# Velocity S-wave (km/s) = 3.39134 3.90896 3.65931
# Velocity P-wave (km/s) = 5.73815 6.61865 6.19407
#
# Compressibility (1/GPa) = 0.02626609
#
# Stress axis : x y z
#
# Youngs Moduli (GPa) = 43.88930 47.24329 73.08733
#
# Poissons Ratio (x) = 0.46145 -0.28927
# Poissons Ratio (y) = 0.42869 0.72167
# Poissons Ratio (z) = -0.17371 0.46649
#
# Static dielectric constant tensor:
#      x y z
#    x 4.130690 -0.070090 -0.121230 
#    y -0.070090 4.139390 -0.226030 
#    z -0.121230 -0.226030 4.029270 
# 
# 
# High freq. dielectric constant tensor:
#      x y z
#    x 1.860620 -0.007450 -0.003920 
#    y -0.007450 1.848250 -0.007440 
#    z -0.003920 -0.007440 1.845630 
# 
# From -- ./inp_files/271814.got.cif
#   From: 2010.06.25/outbox.cif.g09.slc.cpg/sg2_136_cif.got.tgz:271814.got - 2010.06.27 13:26:56.
