data_PCOD8013314
_publ_section_title
;
Structure prediction by ZEFSAII (Michael W. Deem and Ramdas Pophale) SiO2 
 PCOD8013314
Probable space group: P -1
;
_chemical_formula_sum "Si O2"
_cell_formula_units_Z 14
_cell_length_a 9.118329
_cell_length_b 20.448329
_cell_length_c 5.646714
_cell_angle_alpha 52.850806
_cell_angle_beta 46.153539
_cell_angle_gamma 55.385701
_cell_volume 584.339147
_symmetry_space_group_name_H-M "P -1"
_symmetry_group_IT_number 2
_symmetry_cell_setting 'triclinic'
loop_
_space_group_symop_operation_xyz
x,y,z
-x,-y,-z
loop_
_atom_site_type_symbol
_atom_site_label
_atom_site_fract_x
_atom_site_fract_y
_atom_site_fract_z
Si Si1 0.616398 0.979402 0.660804
Si Si2 0.227306 0.760714 0.644831
Si Si3 0.670887 0.471154 0.575190
Si Si4 0.100203 0.177892 0.498387
Si Si5 0.391254 0.379131 0.375781
Si Si6 0.055480 0.328349 0.527272
Si Si7 0.903090 0.078734 0.272452
O O1 0.736765 0.877699 0.753411
O O2 0.500000 0.000000 0.500000
O O3 0.764010 0.043083 0.321287
O O4 0.500000 0.000000 0.000000
O O5 0.469931 0.706603 0.468677
O O6 0.241344 0.845456 0.578293
O O7 0.130460 0.783847 0.441683
O O8 0.073635 0.713778 0.053721
O O9 0.500000 0.500000 0.500000
O O10 0.730151 0.554495 0.435407
O O11 0.895596 0.406667 0.394691
O O12 0.566012 0.421404 0.986257
O O13 0.170945 0.257765 0.357856
O O14 0.083950 0.111038 0.867818
O O15 0.230856 0.361707 0.398179
O O16 0.000000 0.000000 0.500000
#
# Coordination Sequence:
#
# PCOD8013314 Si02
#       7
#     2   2   2   2   2   2   2
#     4  12  28  43  68 104 137 179 244 304 357 427
#     4  10  23  40  64  93 134 177 231 279 352 414
#     4  10  21  40  66  98 132 173 225 272 348 419
#     4  11  24  44  67  93 135 185 235 288 357 428
#     4  10  22  40  65  95 136 174 221 284 342 416
#     4  10  23  41  63  99 134 177 224 287 343 418
#     4  11  23  45  68  91 134 187 234 293 360 419
#
# _framework density 23.958687000000001
#
# number of rings (size 3 to 8) (size 9 to 14) (size 15 to 20)
#    0.000    1.429    1.429    2.571    6.000    1.714 
#    0.000    0.000    0.000    0.000    0.000    0.000 
#    0.000    0.000    0.000    0.000    0.000    0.000 
#
# Total GULP energy -173485.630046 kJ/mol
# GULP energy per Si atom -12391.830718 kJ/mol
# Density = 2.390416 g / cm^3
# Si number density = 23.958687 Si / 1000 Ang^3
#
#
#
# Elastic Constant Matrix: (Units=GPa)
#
#
# Indices 1 2 3 4 5 6 
#
# 1 188.5665 90.5023 15.3513 -9.3465 2.2699 13.0924
# 2 90.5023 222.0624 45.7291 -7.1670 -3.7712 18.4816
# 3 15.3513 45.7291 32.6669 3.3993 13.1987 -2.5361
# 4 -9.3465 -7.1670 3.3993 28.2154 1.3445 5.4701
# 5 2.2699 -3.7712 13.1987 1.3445 37.1201 -9.8786
# 6 13.0924 18.4816 -2.5361 5.4701 -9.8786 56.1987
#
#
#
# Elastic Compliance Matrix: (Units=1/GPa)
#
#
# Indices 1 2 3 4 5 6 
#
# 1 0.006760 -0.002900 0.001230 0.001615 -0.001465 -0.000980
# 2 -0.002900 0.008879 -0.013681 0.003129 0.005233 -0.002247
# 3 0.001230 -0.013681 0.059026 -0.009986 -0.020984 0.004160
# 4 0.001615 0.003129 -0.009986 0.038997 0.000895 -0.005494
# 5 -0.001465 0.005233 -0.020984 0.000895 0.036033 0.003920
# 6 -0.000980 -0.002247 0.004160 -0.005494 0.003920 0.020173
#
#
# Mechanical properties :
#
#
# Convention : Reuss Voigt Hill
#
# Bulk Modulus (GPa) = 22.74600 82.94013 52.84306
# Shear Modulus (GPa) = 23.23140 43.75439 33.49290
#
# Velocity S-wave (km/s) = 3.11729 4.27809 3.74296
# Velocity P-wave (km/s) = 4.74037 7.68739 6.38620
#
# Compressibility (1/GPa) = 0.04396378
#
# Stress axis : x y z
#
# Youngs Moduli (GPa) = 147.91856 112.62225 16.94155
#
# Poissons Ratio (x) = 0.32657 -0.02083
# Poissons Ratio (y) = 0.42891 0.23178
# Poissons Ratio (z) = -0.18191 1.54082
#
# Static dielectric constant tensor:
#      x y z
#    x 4.147090 -0.002600 0.239730 
#    y -0.002600 5.090050 -0.128570 
#    z 0.239730 -0.128570 3.785700 
# 
# 
# High freq. dielectric constant tensor:
#      x y z
#    x 1.958970 0.007810 0.005020 
#    y 0.007810 1.976090 -0.015920 
#    z 0.005020 -0.015920 1.922680 
# 
# From -- ./inp_files/52148.got.cif
#   From: 2010.06.25/outbox.cif.g09.slc.cpg/sg2_27_cif.got.tgz:52148.got - 2010.06.27 13:26:56.
