data_PCOD8013962
_publ_section_title
;
Structure prediction by ZEFSAII (Michael W. Deem and Ramdas Pophale) SiO2 
 PCOD8013962
Probable space group: P -1
;
_chemical_formula_sum "Si O2"
_cell_formula_units_Z 16
_cell_length_a 5.185056
_cell_length_b 9.184273
_cell_length_c 14.605896
_cell_angle_alpha 96.145629
_cell_angle_beta 101.482410
_cell_angle_gamma 77.605040
_cell_volume 664.233074
_symmetry_space_group_name_H-M "P -1"
_symmetry_group_IT_number 2
_symmetry_cell_setting 'triclinic'
loop_
_space_group_symop_operation_xyz
x,y,z
-x,-y,-z
loop_
_atom_site_type_symbol
_atom_site_label
_atom_site_fract_x
_atom_site_fract_y
_atom_site_fract_z
Si Si1 0.625140 0.861731 0.847075
Si Si2 0.121595 0.325466 0.979837
Si Si3 0.853721 0.939613 0.381889
Si Si4 0.395085 0.790144 0.119043
Si Si5 0.547688 0.716230 0.316938
Si Si6 0.345857 0.806469 0.504147
Si Si7 0.938575 0.170537 0.275623
Si Si8 0.194487 0.569023 0.584431
O O1 0.366020 0.820469 0.778474
O O2 0.876717 0.820241 0.795933
O O3 0.584944 0.036937 0.880928
O O4 0.688856 0.754367 0.931245
O O5 0.326657 0.309421 0.906915
O O6 0.874113 0.239264 0.949789
O O7 0.000000 0.500000 0.000000
O O8 0.773284 0.807058 0.306674
O O9 0.021238 0.856992 0.473924
O O10 0.597649 0.065464 0.412416
O O11 0.027543 0.016801 0.328045
O O12 0.351493 0.736255 0.217445
O O13 0.459786 0.806390 0.410922
O O14 0.643541 0.544973 0.338546
O O15 0.404810 0.640753 0.542066
O O16 0.975949 0.301961 0.356671
O O17 0.000000 0.500000 0.500000
#
# Coordination Sequence:
#
# PCOD8013962 Si02
#       8
#     2   2   2   2   2   2   2   2
#     4  12  25  50  78 106 146 183 246 291 366 429
#     4  12  29  50  79 109 148 183 229 297 374 440
#     4  10  21  41  63  98 136 182 239 290 341 411
#     4  12  27  48  78 111 142 188 239 296 361 434
#     4  12  24  39  70  95 141 179 243 286 354 415
#     4  10  22  40  63  93 137 188 235 286 352 407
#     4  11  26  44  73 108 142 194 238 301 347 422
#     4  11  25  43  63 101 146 192 242 288 359 415
#
# _framework density 24.08793
#
# number of rings (size 3 to 8) (size 9 to 14) (size 15 to 20)
#    0.000    0.750    2.500    4.125    5.250    3.000 
#    0.000    0.000    0.000    0.000    0.000    0.000 
#    0.000    0.000    0.000    0.000    0.000    0.000 
#
# Total GULP energy -198236.918613 kJ/mol
# GULP energy per Si atom -12389.807413 kJ/mol
# Density = 2.403311 g / cm^3
# Si number density = 24.087930 Si / 1000 Ang^3
#
#
#
# Elastic Constant Matrix: (Units=GPa)
#
#
# Indices 1 2 3 4 5 6 
#
# 1 83.5656 21.1761 21.3015 11.9171 -4.3299 4.2304
# 2 21.1761 156.0773 44.0853 -11.1888 7.3198 10.9208
# 3 21.3015 44.0853 98.3030 -7.3081 -6.0821 7.1350
# 4 11.9171 -11.1888 -7.3081 43.9336 5.3924 3.0750
# 5 -4.3299 7.3198 -6.0821 5.3924 36.6032 2.2017
# 6 4.2304 10.9208 7.1350 3.0750 2.2017 26.7834
#
#
#
# Elastic Compliance Matrix: (Units=1/GPa)
#
#
# Indices 1 2 3 4 5 6 
#
# 1 0.013829 -0.001598 -0.002459 -0.004812 0.002287 -0.000513
# 2 -0.001598 0.007924 -0.003019 0.002413 -0.002496 -0.002246
# 3 -0.002459 -0.003019 0.012488 0.001847 0.002242 -0.002104
# 4 -0.004812 0.002413 0.001847 0.025753 -0.004339 -0.003316
# 5 0.002287 -0.002496 0.002242 -0.004339 0.029212 -0.001844
# 6 -0.000513 -0.002246 -0.002104 -0.003316 -0.001844 0.039426
#
#
# Mechanical properties :
#
#
# Convention : Reuss Voigt Hill
#
# Bulk Modulus (GPa) = 49.77946 56.78574 53.28260
# Shear Modulus (GPa) = 33.44884 38.22292 35.83588
#
# Velocity S-wave (km/s) = 3.73045 3.98780 3.86127
# Velocity P-wave (km/s) = 6.26623 6.69544 6.48439
#
# Compressibility (1/GPa) = 0.02008861
#
# Stress axis : x y z
#
# Youngs Moduli (GPa) = 72.31134 126.20057 80.07493
#
# Poissons Ratio (x) = 0.20167 0.19691
# Poissons Ratio (y) = 0.11555 0.24177
# Poissons Ratio (z) = 0.17781 0.38104
#
# Static dielectric constant tensor:
#      x y z
#    x 4.163610 -0.009880 -0.014210 
#    y -0.009880 4.554440 0.102250 
#    z -0.014210 0.102250 4.543420 
# 
# 
# High freq. dielectric constant tensor:
#      x y z
#    x 1.944580 0.006380 -0.001780 
#    y 0.006380 1.971230 -0.001980 
#    z -0.001780 -0.001980 1.967280 
# 
# From -- ./inp_files/480659.got.cif
#   From: 2010.06.25/outbox.cif.g09.slc.cpg/sg2_241_cif.got.tgz:480659.got - 2010.06.27 13:26:56.
