data_PCOD8013961
_publ_section_title
;
Structure prediction by ZEFSAII (Michael W. Deem and Ramdas Pophale) SiO2 
 PCOD8013961
Probable space group: P -1
;
_chemical_formula_sum "Si O2"
_cell_formula_units_Z 14
_cell_length_a 8.993266
_cell_length_b 11.750611
_cell_length_c 9.233554
_cell_angle_alpha 72.812224
_cell_angle_beta 48.783246
_cell_angle_gamma 58.580872
_cell_volume 624.621901
_symmetry_space_group_name_H-M "P -1"
_symmetry_group_IT_number 2
_symmetry_cell_setting 'triclinic'
loop_
_space_group_symop_operation_xyz
x,y,z
-x,-y,-z
loop_
_atom_site_type_symbol
_atom_site_label
_atom_site_fract_x
_atom_site_fract_y
_atom_site_fract_z
Si Si1 0.112891 0.632436 0.774923
Si Si2 0.746859 0.667372 0.228733
Si Si3 0.441414 0.607242 0.801142
Si Si4 0.384759 0.853459 0.188934
Si Si5 0.751877 0.330911 0.799775
Si Si6 0.780725 0.716652 0.501938
Si Si7 0.754928 0.858469 0.741920
O O1 0.204427 0.483996 0.703970
O O2 0.320249 0.647535 0.707335
O O3 0.994433 0.740184 0.683558
O O4 0.944279 0.658005 0.004565
O O5 0.511704 0.747913 0.272849
O O6 0.730543 0.753385 0.351127
O O7 0.525519 0.449531 0.836340
O O8 0.654308 0.633664 0.665384
O O9 0.268120 0.686688 0.008899
O O10 0.212367 0.808091 0.244725
O O11 0.242509 0.000883 0.289175
O O12 0.558127 0.851413 0.959515
O O13 0.952938 0.366108 0.624122
O O14 0.709790 0.843912 0.606598
#
# Coordination Sequence:
#
# PCOD8013961 Si02
#       7
#     2   2   2   2   2   2   2
#     4  10  21  41  63  98 128 172 206 271 318 385
#     4  10  22  38  68  94 132 163 221 259 325 375
#     4  11  23  40  65 100 133 165 210 275 323 373
#     4  10  21  47  64  92 132 182 203 265 324 392
#     4  11  23  40  67  96 132 172 209 268 325 378
#     4  12  25  39  65 104 125 167 220 274 308 386
#     4  10  24  40  69  94 132 169 223 254 326 386
#
# _framework density 22.413557999999998
#
# number of rings (size 3 to 8) (size 9 to 14) (size 15 to 20)
#    0.000    1.429    4.286    0.429    4.000    2.857 
#    0.000    2.143    0.000    0.000    0.000    0.000 
#    0.000    0.000    0.000    0.000    0.000    0.000 
#
# Total GULP energy -173563.652353 kJ/mol
# GULP energy per Si atom -12397.403740 kJ/mol
# Density = 2.236254 g / cm^3
# Si number density = 22.413558 Si / 1000 Ang^3
#
#
#
# Elastic Constant Matrix: (Units=GPa)
#
#
# Indices 1 2 3 4 5 6 
#
# 1 139.8702 57.7714 42.5919 10.5144 3.7710 26.1740
# 2 57.7714 119.5270 31.7519 6.4332 7.7696 15.1170
# 3 42.5919 31.7519 71.4787 13.5052 8.6401 13.5337
# 4 10.5144 6.4332 13.5052 17.1845 12.1234 3.3443
# 5 3.7710 7.7696 8.6401 12.1234 45.1694 5.0967
# 6 26.1740 15.1170 13.5337 3.3443 5.0967 34.4984
#
#
#
# Elastic Compliance Matrix: (Units=1/GPa)
#
#
# Indices 1 2 3 4 5 6 
#
# 1 0.010866 -0.003603 -0.003582 -0.002666 0.001706 -0.005254
# 2 -0.003603 0.010941 -0.002613 0.001278 -0.001315 -0.000965
# 3 -0.003582 -0.002613 0.020125 -0.012489 0.000579 -0.002907
# 4 -0.002666 0.001278 -0.012489 0.083052 -0.020043 0.001272
# 5 0.001706 -0.001315 0.000579 -0.020043 0.027843 -0.003116
# 6 -0.005254 -0.000965 -0.002907 0.001272 -0.003116 0.034873
#
#
# Mechanical properties :
#
#
# Convention : Reuss Voigt Hill
#
# Bulk Modulus (GPa) = 44.77045 66.12293 55.44669
# Shear Modulus (GPa) = 23.28379 32.62119 27.95249
#
# Velocity S-wave (km/s) = 3.22658 3.81914 3.53530
# Velocity P-wave (km/s) = 5.82230 7.00094 6.43864
#
# Compressibility (1/GPa) = 0.02233616
#
# Stress axis : x y z
#
# Youngs Moduli (GPa) = 92.02999 91.40141 49.68856
#
# Poissons Ratio (x) = 0.32935 0.17798
# Poissons Ratio (y) = 0.33162 0.12982
# Poissons Ratio (z) = 0.32964 0.23880
#
# Static dielectric constant tensor:
#      x y z
#    x 4.077720 0.128940 0.114590 
#    y 0.128940 3.785210 0.186240 
#    z 0.114590 0.186240 3.998770 
# 
# 
# High freq. dielectric constant tensor:
#      x y z
#    x 1.891560 0.016160 0.003590 
#    y 0.016160 1.847450 0.014160 
#    z 0.003590 0.014160 1.892000 
# 
# From -- ./inp_files/182074.got.cif
#   From: 2010.06.25/outbox.cif.g09.slc.cpg/sg2_92_cif.got.tgz:182074.got - 2010.06.27 13:26:56.
