data_PCOD8013643
_publ_section_title
;
Structure prediction by ZEFSAII (Michael W. Deem and Ramdas Pophale) SiO2 
 PCOD8013643
Probable space group: P -1
;
_chemical_formula_sum "Si O2"
_cell_formula_units_Z 16
_cell_length_a 19.707148
_cell_length_b 8.679587
_cell_length_c 12.249337
_cell_angle_alpha 133.246396
_cell_angle_beta 152.274767
_cell_angle_gamma 47.184942
_cell_volume 693.297610
_symmetry_space_group_name_H-M "P -1"
_symmetry_group_IT_number 2
_symmetry_cell_setting 'triclinic'
loop_
_space_group_symop_operation_xyz
x,y,z
-x,-y,-z
loop_
_atom_site_type_symbol
_atom_site_label
_atom_site_fract_x
_atom_site_fract_y
_atom_site_fract_z
Si Si1 0.093663 0.260224 0.754001
Si Si2 0.387956 0.995603 0.123459
Si Si3 0.832041 0.570892 0.454710
Si Si4 0.660887 0.338580 0.945878
Si Si5 0.365047 0.629092 0.756098
Si Si6 0.609348 0.291579 0.602390
Si Si7 0.120090 0.969921 0.250213
Si Si8 0.921217 0.110838 0.611142
O O1 0.010840 0.492511 0.699224
O O2 0.022722 0.258731 0.773259
O O3 0.045390 0.100216 0.519722
O O4 0.271728 0.195862 0.995523
O O5 0.529536 0.089172 0.403490
O O6 0.315533 0.900903 0.080616
O O7 0.436526 0.790960 0.011983
O O8 0.728540 0.504990 0.369424
O O9 0.801758 0.827317 0.524401
O O10 0.786901 0.464473 0.226911
O O11 0.494280 0.469430 0.799421
O O12 0.676234 0.327746 0.832880
O O13 0.254019 0.772827 0.581672
O O14 0.500000 0.500000 0.500000
O O15 0.747548 0.234776 0.688235
O O16 0.034016 0.936588 0.222756
O O17 0.000000 0.000000 0.000000
#
# Coordination Sequence:
#
# PCOD8013643 Si02
#       8
#     2   2   2   2   2   2   2   2
#     4   9  20  39  71  96 119 168 224 278 309 372
#     4  10  21  40  70  94 132 160 224 274 326 375
#     4  10  22  41  67  97 129 166 228 265 330 386
#     4  11  21  39  70  93 126 170 226 272 314 383
#     4   9  18  39  68  96 121 167 222 276 316 377
#     4  12  28  44  61  97 139 176 212 260 338 394
#     4  12  28  43  63  94 143 176 209 265 337 396
#     4   9  19  40  63  95 130 166 216 267 322 385
#
# _framework density 23.078112999999998
#
# number of rings (size 3 to 8) (size 9 to 14) (size 15 to 20)
#    0.000    1.750    0.000    6.375    5.250    2.500 
#    0.000    5.625    0.000    0.000    0.000    0.000 
#    0.000    0.000    0.000    0.000    0.000    0.000 
#
# Total GULP energy -198326.431700 kJ/mol
# GULP energy per Si atom -12395.401981 kJ/mol
# Density = 2.302559 g / cm^3
# Si number density = 23.078113 Si / 1000 Ang^3
#
#
#
# Elastic Constant Matrix: (Units=GPa)
#
#
# Indices 1 2 3 4 5 6 
#
# 1 118.4219 20.5777 34.3131 2.0896 -30.6400 -5.3109
# 2 20.5777 73.0179 6.1937 -11.2082 -1.9015 -10.2257
# 3 34.3131 6.1937 79.5922 5.7035 -13.3633 3.0913
# 4 2.0896 -11.2082 5.7035 34.1938 2.8511 4.0304
# 5 -30.6400 -1.9015 -13.3633 2.8511 31.4916 -11.0240
# 6 -5.3109 -10.2257 3.0913 4.0304 -11.0240 24.7532
#
#
#
# Elastic Compliance Matrix: (Units=1/GPa)
#
#
# Indices 1 2 3 4 5 6 
#
# 1 0.014806 -0.002524 -0.003498 -0.003816 0.016861 0.010701
# 2 -0.002524 0.015937 -0.000786 0.004946 -0.000482 0.005120
# 3 -0.003498 -0.000786 0.014805 -0.002570 0.002591 -0.001352
# 4 -0.003816 0.004946 -0.002570 0.033419 -0.010537 -0.008588
# 5 0.016861 -0.000482 0.002591 -0.010537 0.061447 0.032176
# 6 0.010701 0.005120 -0.001352 -0.008588 0.032176 0.060707
#
#
# Mechanical properties :
#
#
# Convention : Reuss Voigt Hill
#
# Bulk Modulus (GPa) = 31.31717 43.68901 37.50309
# Shear Modulus (GPa) = 22.18460 32.08421 27.13440
#
# Velocity S-wave (km/s) = 3.10382 3.73264 3.43266
# Velocity P-wave (km/s) = 5.14242 6.12771 5.65656
#
# Compressibility (1/GPa) = 0.03193137
#
# Stress axis : x y z
#
# Youngs Moduli (GPa) = 67.53919 62.74726 67.54479
#
# Poissons Ratio (x) = 0.15837 0.23628
# Poissons Ratio (y) = 0.17046 0.05312
# Poissons Ratio (z) = 0.23626 0.04934
#
# Static dielectric constant tensor:
#      x y z
#    x 3.987160 0.011720 -0.104270 
#    y 0.011720 4.306100 -0.209900 
#    z -0.104270 -0.209900 4.064710 
# 
# 
# High freq. dielectric constant tensor:
#      x y z
#    x 1.896750 -0.003300 -0.005470 
#    y -0.003300 1.917970 -0.021350 
#    z -0.005470 -0.021350 1.904810 
# 
# From -- ./inp_files/462515.got.cif
#   From: 2010.06.25/outbox.cif.g09.slc.cpg/sg2_232_cif.got.tgz:462515.got - 2010.06.27 13:26:56.
