data_PCOD8013007
_publ_section_title
;
Structure prediction by ZEFSAII (Michael W. Deem and Ramdas Pophale) SiO2 
 PCOD8013007
Probable space group: P -1
;
_chemical_formula_sum "Si O2"
_cell_formula_units_Z 16
_cell_length_a 7.308292
_cell_length_b 17.086718
_cell_length_c 11.430950
_cell_angle_alpha 51.594784
_cell_angle_beta 89.180921
_cell_angle_gamma 125.477902
_cell_volume 737.202962
_symmetry_space_group_name_H-M "P -1"
_symmetry_group_IT_number 2
_symmetry_cell_setting 'triclinic'
loop_
_space_group_symop_operation_xyz
x,y,z
-x,-y,-z
loop_
_atom_site_type_symbol
_atom_site_label
_atom_site_fract_x
_atom_site_fract_y
_atom_site_fract_z
Si Si1 0.964911 0.130315 0.556364
Si Si2 0.521639 0.619755 0.836965
Si Si3 0.058128 0.468373 0.791921
Si Si4 0.148210 0.709109 0.488003
Si Si5 0.294496 0.152179 0.728615
Si Si6 0.180109 0.191255 0.924235
Si Si7 0.803295 0.596705 0.363238
Si Si8 0.524813 0.779704 0.888133
O O1 0.170019 0.231838 0.351774
O O2 0.129658 0.161012 0.639853
O O3 0.827127 0.179543 0.542559
O O4 0.722089 0.952930 0.688080
O O5 0.295065 0.534590 0.817400
O O6 0.457655 0.680354 0.873237
O O7 0.500000 0.500000 0.000000
O O8 0.989066 0.559286 0.704813
O O9 0.173161 0.489946 0.640298
O O10 0.767119 0.296369 0.989553
O O11 0.452669 0.789447 0.397582
O O12 0.006889 0.669026 0.402543
O O13 0.379318 0.245044 0.761162
O O14 0.108310 0.983121 0.925832
O O15 0.101171 0.274948 0.842792
O O16 0.330056 0.228313 0.008366
O O17 0.500000 0.500000 0.500000
#
# Coordination Sequence:
#
# PCOD8013007 Si02
#       8
#     2   2   2   2   2   2   2   2
#     4  11  24  46  71 103 136 179 228 283 350 402
#     4  12  25  49  72  94 137 184 229 286 347 399
#     4  12  25  43  67 102 136 177 239 280 335 414
#     4  12  23  41  71  99 138 178 228 273 346 407
#     4  10  21  41  66  99 138 178 216 281 336 412
#     4  10  21  40  64  98 142 174 220 274 346 395
#     4  12  23  38  66 101 142 184 225 277 344 407
#     4  11  25  44  69 101 138 180 231 287 334 401
#
# _framework density 21.703655999999999
#
# number of rings (size 3 to 8) (size 9 to 14) (size 15 to 20)
#    0.000    0.750    2.500    5.625    1.750    0.500 
#    0.000    1.250    0.000    0.000    0.000    0.000 
#    0.000    0.000    0.000    0.000    0.000    0.000 
#
# Total GULP energy -198433.998631 kJ/mol
# GULP energy per Si atom -12402.124914 kJ/mol
# Density = 2.165426 g / cm^3
# Si number density = 21.703656 Si / 1000 Ang^3
#
#
#
# Elastic Constant Matrix: (Units=GPa)
#
#
# Indices 1 2 3 4 5 6 
#
# 1 93.1003 22.4086 37.3680 -19.9158 5.3096 -15.3877
# 2 22.4086 81.4020 26.3020 -5.1429 -1.7308 -8.0363
# 3 37.3680 26.3020 123.3977 -15.5535 3.6724 -4.7879
# 4 -19.9158 -5.1429 -15.5535 27.9564 -2.2452 -5.4405
# 5 5.3096 -1.7308 3.6724 -2.2452 42.4014 -2.7411
# 6 -15.3877 -8.0363 -4.7879 -5.4405 -2.7411 30.2792
#
#
#
# Elastic Compliance Matrix: (Units=1/GPa)
#
#
# Indices 1 2 3 4 5 6 
#
# 1 0.016362 -0.001994 -0.002688 0.011564 -0.000679 0.009378
# 2 -0.001994 0.013856 -0.002229 0.000472 0.001195 0.002505
# 3 -0.002688 -0.002229 0.009803 0.003116 -0.000431 0.000113
# 4 0.011564 0.000472 0.003116 0.048991 0.001895 0.015469
# 5 -0.000679 0.001195 -0.000431 0.001895 0.024012 0.002418
# 6 0.009378 0.002505 0.000113 0.015469 0.002418 0.041473
#
#
# Mechanical properties :
#
#
# Convention : Reuss Voigt Hill
#
# Bulk Modulus (GPa) = 38.16718 52.22856 45.19787
# Shear Modulus (GPa) = 28.24021 34.24884 31.24453
#
# Velocity S-wave (km/s) = 3.61109 3.97674 3.79832
# Velocity P-wave (km/s) = 5.91696 6.72329 6.33297
#
# Compressibility (1/GPa) = 0.02620052
#
# Stress axis : x y z
#
# Youngs Moduli (GPa) = 61.11542 72.17002 102.00973
#
# Poissons Ratio (x) = 0.14388 0.27424
# Poissons Ratio (y) = 0.12185 0.22733
# Poissons Ratio (z) = 0.16430 0.16083
#
# Static dielectric constant tensor:
#      x y z
#    x 3.684720 -0.151620 -0.023540 
#    y -0.151620 3.902880 -0.147120 
#    z -0.023540 -0.147120 4.264220 
# 
# 
# High freq. dielectric constant tensor:
#      x y z
#    x 1.856640 -0.007180 0.005140 
#    y -0.007180 1.851580 -0.006850 
#    z 0.005140 -0.006850 1.870810 
# 
# From -- ./inp_files/369371.got.cif
#   From: 2010.06.25/outbox.cif.g09.slc.cpg/sg2_185_cif.got.tgz:369371.got - 2010.06.27 13:26:56.
