data_PCOD8013995
_publ_section_title
;
Structure prediction by ZEFSAII (Michael W. Deem and Ramdas Pophale) SiO2 
 PCOD8013995
Probable space group: P -1
;
_chemical_formula_sum "Si O2"
_cell_formula_units_Z 16
_cell_length_a 24.456777
_cell_length_b 6.177034
_cell_length_c 18.055345
_cell_angle_alpha 87.420258
_cell_angle_beta 159.672962
_cell_angle_gamma 80.904138
_cell_volume 772.981060
_symmetry_space_group_name_H-M "P -1"
_symmetry_group_IT_number 2
_symmetry_cell_setting 'triclinic'
loop_
_space_group_symop_operation_xyz
x,y,z
-x,-y,-z
loop_
_atom_site_type_symbol
_atom_site_label
_atom_site_fract_x
_atom_site_fract_y
_atom_site_fract_z
Si Si1 0.890067 0.212410 0.256550
Si Si2 0.986554 0.466668 0.251981
Si Si3 0.280015 0.691589 0.806791
Si Si4 0.619553 0.704762 0.185366
Si Si5 0.021375 0.177017 0.968652
Si Si6 0.846751 0.260636 0.962261
Si Si7 0.282168 0.343409 0.340436
Si Si8 0.711282 0.072088 0.910278
O O1 0.902017 0.414877 0.217828
O O2 0.756701 0.367681 0.156003
O O3 0.794439 0.086437 0.094105
O O4 0.107654 0.987294 0.560123
O O5 0.208302 0.356778 0.542408
O O6 0.986416 0.317024 0.180849
O O7 0.851266 0.778324 0.059997
O O8 0.285347 0.485320 0.761723
O O9 0.483213 0.655219 0.060763
O O10 0.500000 0.000000 0.000000
O O11 0.842610 0.483458 0.748816
O O12 0.216249 0.159409 0.231208
O O13 0.029531 0.049104 0.902030
O O14 0.000000 0.000000 0.000000
O O15 0.735746 0.466922 0.751377
O O16 0.696569 0.285632 0.831145
O O17 0.498230 0.145821 0.646995
#
# Coordination Sequence:
#
# PCOD8013995 Si02
#       8
#     2   2   2   2   2   2   2   2
#     4  10  22  42  61  93 122 165 203 262 306 373
#     4  11  23  39  63  93 130 160 211 256 315 366
#     4  10  22  41  68  86 124 162 210 254 315 368
#     4  11  22  41  65  95 121 165 207 257 311 381
#     4   9  20  40  62  85 120 159 207 255 301 367
#     4  10  22  39  65  90 122 166 202 260 304 368
#     4  10  21  41  64  90 120 171 206 250 316 361
#     4  11  23  40  62  91 129 156 211 258 303 371
#
# _framework density 20.699083999999999
#
# number of rings (size 3 to 8) (size 9 to 14) (size 15 to 20)
#    0.000    1.750    2.500    1.125    0.000    7.500 
#   11.250    0.000    0.000    0.000    0.000    0.000 
#    0.000    0.000    0.000    0.000    0.000    0.000 
#
# Total GULP energy -198378.607529 kJ/mol
# GULP energy per Si atom -12398.662971 kJ/mol
# Density = 2.065197 g / cm^3
# Si number density = 20.699084 Si / 1000 Ang^3
#
#
#
# Elastic Constant Matrix: (Units=GPa)
#
#
# Indices 1 2 3 4 5 6 
#
# 1 86.9296 19.0923 23.3845 7.5925 3.5679 -11.0306
# 2 19.0923 95.8366 41.4512 16.2116 2.5091 -15.4731
# 3 23.3845 41.4512 143.1344 20.7944 9.2240 -11.1573
# 4 7.5925 16.2116 20.7944 32.3509 0.4630 -5.5975
# 5 3.5679 2.5091 9.2240 0.4630 22.1019 -1.7627
# 6 -11.0306 -15.4731 -11.1573 -5.5975 -1.7627 39.6849
#
#
#
# Elastic Compliance Matrix: (Units=1/GPa)
#
#
# Indices 1 2 3 4 5 6 
#
# 1 0.012584 -0.001374 -0.001247 -0.001029 -0.001141 0.002416
# 2 -0.001374 0.013102 -0.002755 -0.003885 0.000238 0.003415
# 3 -0.001247 -0.002755 0.008773 -0.003859 -0.003037 0.000367
# 4 -0.001029 -0.003885 -0.003859 0.035947 0.001645 0.002257
# 5 -0.001141 0.000238 -0.003037 0.001645 0.046733 0.001229
# 6 0.002416 0.003415 0.000367 0.002257 0.001229 0.027677
#
#
# Mechanical properties :
#
#
# Convention : Reuss Voigt Hill
#
# Bulk Modulus (GPa) = 42.17868 54.86183 48.52026
# Shear Modulus (GPa) = 30.58685 34.95906 32.77295
#
# Velocity S-wave (km/s) = 3.84825 4.11410 3.98339
# Velocity P-wave (km/s) = 6.33772 7.00927 6.68193
#
# Compressibility (1/GPa) = 0.02370866
#
# Stress axis : x y z
#
# Youngs Moduli (GPa) = 79.46657 76.32565 113.98920
#
# Poissons Ratio (x) = 0.10485 0.14211
# Poissons Ratio (y) = 0.10916 0.31398
# Poissons Ratio (z) = 0.09907 0.21024
#
# Static dielectric constant tensor:
#      x y z
#    x 4.003670 -0.258840 0.153600 
#    y -0.258840 4.000290 0.137640 
#    z 0.153600 0.137640 3.631850 
# 
# 
# High freq. dielectric constant tensor:
#      x y z
#    x 1.811680 -0.001310 0.007940 
#    y -0.001310 1.821440 0.012880 
#    z 0.007940 0.012880 1.797460 
# 
# From -- ./inp_files/38975.got.cif
#   From: 2010.06.25/outbox.cif.g09.slc.cpg/sg2_20_cif.got.tgz:38975.got - 2010.06.27 13:26:56.
