data_PCOD8013994
_publ_section_title
;
Structure prediction by ZEFSAII (Michael W. Deem and Ramdas Pophale) SiO2 
 PCOD8013994
Probable space group: P -1
;
_chemical_formula_sum "Si O2"
_cell_formula_units_Z 14
_cell_length_a 12.062388
_cell_length_b 11.728519
_cell_length_c 12.907205
_cell_angle_alpha 73.066463
_cell_angle_beta 141.800232
_cell_angle_gamma 75.035000
_cell_volume 613.004876
_symmetry_space_group_name_H-M "P -1"
_symmetry_group_IT_number 2
_symmetry_cell_setting 'triclinic'
loop_
_space_group_symop_operation_xyz
x,y,z
-x,-y,-z
loop_
_atom_site_type_symbol
_atom_site_label
_atom_site_fract_x
_atom_site_fract_y
_atom_site_fract_z
Si Si1 0.086551 0.758964 0.037982
Si Si2 0.457415 0.827290 0.757952
Si Si3 0.345842 0.966766 0.858918
Si Si4 0.679674 0.342474 0.338393
Si Si5 0.326925 0.735106 0.418783
Si Si6 0.236281 0.797139 0.933318
Si Si7 0.709747 0.743273 0.753579
O O1 0.071472 0.837951 0.115945
O O2 0.350932 0.511158 0.303569
O O3 0.174990 0.813159 0.006223
O O4 0.776920 0.848705 0.749199
O O5 0.523787 0.842939 0.914972
O O6 0.548993 0.637181 0.875753
O O7 0.671781 0.771705 0.842833
O O8 0.083927 0.044870 0.406717
O O9 0.398273 0.834590 0.017397
O O10 0.971350 0.195183 0.512713
O O11 0.500000 0.000000 0.000000
O O12 0.805384 0.231717 0.574724
O O13 0.488399 0.566432 0.138195
O O14 0.402174 0.840856 0.450264
O O15 0.000000 0.500000 0.000000
#
# Coordination Sequence:
#
# PCOD8013994 Si02
#       7
#     2   2   2   2   2   2   2
#     4   9  17  32  58  87 120 157 197 249 299 364
#     4  10  22  40  62  88 123 161 204 259 302 362
#     4  11  25  41  59  89 127 160 205 260 308 365
#     4   9  19  39  65  87 119 163 204 253 310 365
#     4   8  16  32  56  88 121 156 196 244 305 363
#     4  10  21  41  64  90 119 161 214 249 307 372
#     4   9  18  35  59  90 120 158 201 245 310 371
#
# _framework density 22.838318999999998
#
# number of rings (size 3 to 8) (size 9 to 14) (size 15 to 20)
#    0.000    2.571    0.000    2.571    2.000    3.429 
#    2.571    6.429    0.000    0.000    0.000    0.000 
#    0.000    0.000    0.000    0.000    0.000    0.000 
#
# Total GULP energy -173470.130897 kJ/mol
# GULP energy per Si atom -12390.723635 kJ/mol
# Density = 2.278634 g / cm^3
# Si number density = 22.838319 Si / 1000 Ang^3
#
#
#
# Elastic Constant Matrix: (Units=GPa)
#
#
# Indices 1 2 3 4 5 6 
#
# 1 145.3262 92.1573 21.1057 12.7007 1.0699 3.2746
# 2 92.1573 144.2468 32.7581 33.6525 -6.6542 4.9152
# 3 21.1057 32.7581 39.6657 16.1517 -3.4628 6.5080
# 4 12.7007 33.6525 16.1517 33.2236 -5.7042 -2.4355
# 5 1.0699 -6.6542 -3.4628 -5.7042 21.6939 -1.9503
# 6 3.2746 4.9152 6.5080 -2.4355 -1.9503 56.3801
#
#
#
# Elastic Compliance Matrix: (Units=1/GPa)
#
#
# Indices 1 2 3 4 5 6 
#
# 1 0.012154 -0.008578 -0.001408 0.004358 -0.002281 0.000314
# 2 -0.008578 0.015908 -0.003933 -0.010675 0.001793 -0.000834
# 3 -0.001408 -0.003933 0.035142 -0.012738 0.000750 -0.004156
# 4 0.004358 -0.010675 -0.012738 0.047005 0.007235 0.004429
# 5 -0.002281 0.001793 0.000750 0.007235 0.048951 0.001896
# 6 0.000314 -0.000834 -0.004156 0.004429 0.001896 0.018528
#
#
# Mechanical properties :
#
#
# Convention : Reuss Voigt Hill
#
# Bulk Modulus (GPa) = 28.27602 69.03122 48.65362
# Shear Modulus (GPa) = 23.00804 34.47403 28.74103
#
# Velocity S-wave (km/s) = 3.17745 3.88942 3.55132
# Velocity P-wave (km/s) = 5.08620 7.10365 6.17783
#
# Compressibility (1/GPa) = 0.03536566
#
# Stress axis : x y z
#
# Youngs Moduli (GPa) = 82.27685 62.86260 28.45565
#
# Poissons Ratio (x) = 0.53924 0.04007
# Poissons Ratio (y) = 0.70577 0.11192
# Poissons Ratio (z) = 0.11587 0.24724
#
# Static dielectric constant tensor:
#      x y z
#    x 3.950770 0.188950 -0.150800 
#    y 0.188950 4.545890 -0.044200 
#    z -0.150800 -0.044200 3.723270 
# 
# 
# High freq. dielectric constant tensor:
#      x y z
#    x 1.900500 0.001240 0.006800 
#    y 0.001240 1.934720 -0.020010 
#    z 0.006800 -0.020010 1.870770 
# 
# From -- ./inp_files/394925.got.cif
#   From: 2010.06.25/outbox.cif.g09.slc.cpg/sg2_198_cif.got.tgz:394925.got - 2010.06.27 13:26:56.
