data_PCOD8013645
_publ_section_title
;
Structure prediction by ZEFSAII (Michael W. Deem and Ramdas Pophale) SiO2 
 PCOD8013645
Probable space group: P -1
;
_chemical_formula_sum "Si O2"
_cell_formula_units_Z 16
_cell_length_a 13.681998
_cell_length_b 9.313776
_cell_length_c 14.932598
_cell_angle_alpha 75.233387
_cell_angle_beta 35.103083
_cell_angle_gamma 99.668287
_cell_volume 778.718342
_symmetry_space_group_name_H-M "P -1"
_symmetry_group_IT_number 2
_symmetry_cell_setting 'triclinic'
loop_
_space_group_symop_operation_xyz
x,y,z
-x,-y,-z
loop_
_atom_site_type_symbol
_atom_site_label
_atom_site_fract_x
_atom_site_fract_y
_atom_site_fract_z
Si Si1 0.005026 0.399304 0.245072
Si Si2 0.260344 0.024996 0.560140
Si Si3 0.084391 0.027577 0.031491
Si Si4 0.228667 0.583848 0.866905
Si Si5 0.055383 0.307096 0.701356
Si Si6 0.542721 0.551368 0.355396
Si Si7 0.765376 0.689307 0.780626
Si Si8 0.968726 0.895663 0.410041
O O1 0.124815 0.381525 0.237235
O O2 0.798814 0.180707 0.389986
O O3 0.917589 0.501551 0.337759
O O4 0.189986 0.553596 0.006730
O O5 0.075907 0.970208 0.781741
O O6 0.527814 0.183357 0.368684
O O7 0.226649 0.111747 0.485009
O O8 0.354624 0.231032 0.789536
O O9 0.088254 0.856208 0.084782
O O10 0.000000 0.000000 0.000000
O O11 0.257854 0.440114 0.826545
O O12 0.000000 0.500000 0.000000
O O13 0.309328 0.383412 0.503545
O O14 0.952460 0.191037 0.701987
O O15 0.500000 0.500000 0.500000
O O16 0.876350 0.760853 0.588425
O O17 0.500000 0.500000 0.000000
O O18 0.808164 0.870305 0.771608
#
# Coordination Sequence:
#
# PCOD8013645 Si02
#       8
#     2   2   2   2   2   2   2   2
#     4  11  25  41  63  98 131 167 216 269 330 380
#     4  10  21  42  63  90 130 171 217 266 320 391
#     4  11  21  38  64  86 121 175 220 261 322 379
#     4  12  24  39  64  92 130 171 221 272 315 385
#     4  11  24  41  63  93 135 167 216 272 318 387
#     4  12  22  41  64  91 125 177 220 263 320 378
#     4  10  21  40  70  95 123 167 214 265 330 396
#     4   9  20  40  66  92 124 169 213 260 328 386
#
# _framework density 20.546579999999999
#
# number of rings (size 3 to 8) (size 9 to 14) (size 15 to 20)
#    0.000    1.250    5.000    1.500    0.000    2.000 
#    0.000    0.625    0.000    0.000    0.000    0.000 
#    0.000    0.000    0.000    0.000    0.000    0.000 
#
# Total GULP energy -198260.275483 kJ/mol
# GULP energy per Si atom -12391.267218 kJ/mol
# Density = 2.049982 g / cm^3
# Si number density = 20.546580 Si / 1000 Ang^3
#
#
#
# Elastic Constant Matrix: (Units=GPa)
#
#
# Indices 1 2 3 4 5 6 
#
# 1 113.8079 50.6787 58.1013 -4.8575 17.3103 7.6297
# 2 50.6787 136.3030 40.1069 -9.5446 7.5052 4.2476
# 3 58.1013 40.1069 107.3030 -24.1305 3.2144 1.7104
# 4 -4.8575 -9.5446 -24.1305 43.6305 6.6481 -0.5796
# 5 17.3103 7.5052 3.2144 6.6481 37.3459 -3.0861
# 6 7.6297 4.2476 1.7104 -0.5796 -3.0861 32.4722
#
#
#
# Elastic Compliance Matrix: (Units=1/GPa)
#
#
# Indices 1 2 3 4 5 6 
#
# 1 0.014771 -0.003154 -0.007092 -0.002176 -0.005483 -0.003244
# 2 -0.003154 0.009033 -0.001452 0.000880 -0.000417 -0.000388
# 3 -0.007092 -0.001452 0.015265 0.007186 0.001092 0.001284
# 4 -0.002176 0.000880 0.007186 0.027560 -0.004688 0.000064
# 5 -0.005483 -0.000417 0.001092 -0.004688 0.030481 0.004099
# 6 -0.003244 -0.000388 0.001284 0.000064 0.004099 0.031932
#
#
# Mechanical properties :
#
#
# Convention : Reuss Voigt Hill
#
# Bulk Modulus (GPa) = 63.80613 72.79865 68.30239
# Shear Modulus (GPa) = 31.71344 36.59152 34.15248
#
# Velocity S-wave (km/s) = 3.93299 4.22466 4.08143
# Velocity P-wave (km/s) = 7.19349 7.70097 7.45155
#
# Compressibility (1/GPa) = 0.01567248
#
# Stress axis : x y z
#
# Youngs Moduli (GPa) = 67.70191 110.70153 65.50925
#
# Poissons Ratio (x) = 0.34919 0.46460
# Poissons Ratio (y) = 0.21356 0.09510
# Poissons Ratio (z) = 0.48015 0.16071
#
# Static dielectric constant tensor:
#      x y z
#    x 3.828920 -0.079260 0.390730 
#    y -0.079260 4.687150 -0.890970 
#    z 0.390730 -0.890970 3.998680 
# 
# 
# High freq. dielectric constant tensor:
#      x y z
#    x 1.793920 0.015360 0.017300 
#    y 0.015360 1.815610 -0.022020 
#    z 0.017300 -0.022020 1.800510 
# 
# From -- ./inp_files/529624.got.cif
#   From: 2010.06.25/outbox.cif.g09.slc.cpg/sg2_265_cif.got.tgz:529624.got - 2010.06.27 13:26:56.
