data_PCOD8013251
_publ_section_title
;
Structure prediction by ZEFSAII (Michael W. Deem and Ramdas Pophale) SiO2 
 PCOD8013251
Probable space group: P -1
;
_chemical_formula_sum "Si O2"
_cell_formula_units_Z 16
_cell_length_a 8.493964
_cell_length_b 20.876416
_cell_length_c 7.116966
_cell_angle_alpha 55.744243
_cell_angle_beta 125.403958
_cell_angle_gamma 139.329858
_cell_volume 652.009113
_symmetry_space_group_name_H-M "P -1"
_symmetry_group_IT_number 2
_symmetry_cell_setting 'triclinic'
loop_
_space_group_symop_operation_xyz
x,y,z
-x,-y,-z
loop_
_atom_site_type_symbol
_atom_site_label
_atom_site_fract_x
_atom_site_fract_y
_atom_site_fract_z
Si Si1 0.755331 0.990302 0.643511
Si Si2 0.029123 0.095203 0.239635
Si Si3 0.975448 0.403686 0.185030
Si Si4 0.726224 0.096212 0.754749
Si Si5 0.271097 0.393738 0.098820
Si Si6 0.357134 0.244057 0.514103
Si Si7 0.420188 0.210357 0.021821
Si Si8 0.872265 0.299447 0.648966
O O1 0.952851 0.993585 0.640182
O O2 0.567220 0.980552 0.378353
O O3 0.873931 0.084989 0.710066
O O4 0.611053 0.891504 0.843208
O O5 0.094656 0.140148 0.421988
O O6 0.242652 0.194563 0.095386
O O7 0.762653 0.059983 0.038082
O O8 0.010296 0.395687 0.445168
O O9 0.185944 0.412255 0.201184
O O10 0.704923 0.303748 0.104540
O O11 0.000000 0.500000 0.000000
O O12 0.834855 0.210465 0.653701
O O13 0.381273 0.338558 0.314022
O O14 0.500000 0.500000 0.000000
O O15 0.039248 0.330205 0.897944
O O16 0.334814 0.231511 0.741013
O O17 0.596692 0.258005 0.583319
#
# Coordination Sequence:
#
# PCOD8013251 Si02
#       8
#     2   2   2   2   2   2   2   2
#     4   9  21  38  64 100 133 176 221 267 326 386
#     4  10  21  40  66  93 136 172 220 265 333 381
#     4  12  26  45  71  96 132 175 217 272 336 392
#     4  11  19  38  71  95 130 184 217 265 328 392
#     4  12  30  44  69 101 128 174 226 270 333 396
#     4  12  23  43  67  96 132 172 218 274 326 388
#     4  10  23  41  65  97 133 172 216 277 326 384
#     4  12  24  46  71  92 139 175 216 274 331 386
#
# _framework density 24.539532999999999
#
# number of rings (size 3 to 8) (size 9 to 14) (size 15 to 20)
#    0.750    0.250    6.250    1.125    3.500    1.500 
#    0.000    1.250    2.750    0.000    0.000    0.000 
#    0.000    0.000    0.000    0.000    0.000    0.000 
#
# Total GULP energy -198378.050084 kJ/mol
# GULP energy per Si atom -12398.628130 kJ/mol
# Density = 2.448368 g / cm^3
# Si number density = 24.539533 Si / 1000 Ang^3
#
#
#
# Elastic Constant Matrix: (Units=GPa)
#
#
# Indices 1 2 3 4 5 6 
#
# 1 52.4141 29.4450 39.2366 -10.0918 15.7654 -16.3646
# 2 29.4450 95.0213 6.2130 -16.8051 9.6048 -16.6693
# 3 39.2366 6.2130 91.8989 10.8236 3.9067 -4.8249
# 4 -10.0918 -16.8051 10.8236 33.8850 2.8161 7.1969
# 5 15.7654 9.6048 3.9067 2.8161 44.2039 -2.5418
# 6 -16.3646 -16.6693 -4.8249 7.1969 -2.5418 39.4968
#
#
#
# Elastic Compliance Matrix: (Units=1/GPa)
#
#
# Indices 1 2 3 4 5 6 
#
# 1 0.051753 -0.007981 -0.022384 0.017497 -0.015218 0.011173
# 2 -0.007981 0.013878 0.002205 0.003377 -0.000454 0.002175
# 3 -0.022384 0.002205 0.021302 -0.012233 0.006222 -0.003112
# 4 0.017497 0.003377 -0.012233 0.041204 -0.008568 -0.000879
# 5 -0.015218 -0.000454 0.006222 -0.008568 0.028008 -0.002373
# 6 0.011173 0.002175 -0.003112 -0.000879 -0.002373 0.030493
#
#
# Mechanical properties :
#
#
# Convention : Reuss Voigt Hill
#
# Bulk Modulus (GPa) = 32.66547 43.23595 37.95071
# Shear Modulus (GPa) = 19.75024 34.47978 27.11501
#
# Velocity S-wave (km/s) = 2.84004 3.75249 3.32769
# Velocity P-wave (km/s) = 4.90863 6.03590 5.50122
#
# Compressibility (1/GPa) = 0.03061337
#
# Stress axis : x y z
#
# Youngs Moduli (GPa) = 19.32255 72.05868 46.94335
#
# Poissons Ratio (x) = 0.57509 1.05077
# Poissons Ratio (y) = 0.15421 -0.10351
# Poissons Ratio (z) = 0.43251 -0.15889
#
# Static dielectric constant tensor:
#      x y z
#    x 4.454520 -0.100650 0.038690 
#    y -0.100650 4.279720 0.015670 
#    z 0.038690 0.015670 4.968270 
# 
# 
# High freq. dielectric constant tensor:
#      x y z
#    x 1.979650 -0.000470 -0.000040 
#    y -0.000470 1.970650 -0.006160 
#    z -0.000040 -0.006160 2.004610 
# 
# From -- ./inp_files/52803.got.cif
#   From: 2010.06.25/outbox.cif.g09.slc.cpg/sg2_27_cif.got.tgz:52803.got - 2010.06.27 13:26:56.
