data_PCOD8013949
_publ_section_title
;
Structure prediction by ZEFSAII (Michael W. Deem and Ramdas Pophale) SiO2 
 PCOD8013949
Probable space group: P -1
;
_chemical_formula_sum "Si O2"
_cell_formula_units_Z 16
_cell_length_a 10.776552
_cell_length_b 19.067559
_cell_length_c 16.990783
_cell_angle_alpha 158.183819
_cell_angle_beta 136.135900
_cell_angle_gamma 33.551601
_cell_volume 693.077526
_symmetry_space_group_name_H-M "P -1"
_symmetry_group_IT_number 2
_symmetry_cell_setting 'triclinic'
loop_
_space_group_symop_operation_xyz
x,y,z
-x,-y,-z
loop_
_atom_site_type_symbol
_atom_site_label
_atom_site_fract_x
_atom_site_fract_y
_atom_site_fract_z
Si Si1 0.176461 0.454843 0.225268
Si Si2 0.915926 0.850827 0.641554
Si Si3 0.778221 0.766615 0.652587
Si Si4 0.036680 0.801093 0.387655
Si Si5 0.689331 0.195480 0.148740
Si Si6 0.526623 0.372290 0.960672
Si Si7 0.980087 0.258461 0.850743
Si Si8 0.444992 0.460042 0.692717
O O1 0.021671 0.655614 0.295729
O O2 0.436385 0.365089 0.251572
O O3 0.046931 0.587692 0.385664
O O4 0.161697 0.240991 0.974917
O O5 0.795300 0.854084 0.667556
O O6 0.113918 0.875250 0.773441
O O7 0.710361 0.076442 0.728459
O O8 0.569694 0.755771 0.546960
O O9 0.000000 0.500000 0.500000
O O10 0.733875 0.951689 0.890840
O O11 0.295067 0.657398 0.325832
O O12 0.912124 0.807496 0.257766
O O13 0.940469 0.063656 0.651613
O O14 0.711131 0.323307 0.217363
O O15 0.500000 0.500000 0.000000
O O16 0.630853 0.432238 0.141322
O O17 0.270577 0.471162 0.971754
#
# Coordination Sequence:
#
# PCOD8013949 Si02
#       8
#     2   2   2   2   2   2   2   2
#     4  11  24  41  68  98 132 171 216 282 334 391
#     4  12  25  44  65 103 139 171 221 279 338 389
#     4  12  23  41  72  97 128 180 227 272 325 404
#     4   9  20  41  65  92 131 174 225 271 318 395
#     4  11  23  47  70  95 132 177 226 276 333 393
#     4  11  24  42  65  95 143 178 209 277 334 392
#     4  10  21  41  63  96 128 178 228 258 324 398
#     4  10  21  41  68  97 126 176 229 269 328 394
#
# _framework density 23.085438
#
# number of rings (size 3 to 8) (size 9 to 14) (size 15 to 20)
#    0.000    1.250    2.500    3.375    1.750    0.500 
#    9.000    0.625    0.000    0.000    0.000    0.000 
#    0.000    0.000    0.000    0.000    0.000    0.000 
#
# Total GULP energy -198355.264483 kJ/mol
# GULP energy per Si atom -12397.204030 kJ/mol
# Density = 2.303289 g / cm^3
# Si number density = 23.085438 Si / 1000 Ang^3
#
#
#
# Elastic Constant Matrix: (Units=GPa)
#
#
# Indices 1 2 3 4 5 6 
#
# 1 48.7595 14.9724 17.9547 0.4596 -2.1415 -2.1361
# 2 14.9724 69.8142 16.9101 8.3569 1.6902 3.9386
# 3 17.9547 16.9101 121.7019 -8.9657 -3.7103 -9.0790
# 4 0.4596 8.3569 -8.9657 43.4046 -1.9278 9.0117
# 5 -2.1415 1.6902 -3.7103 -1.9278 29.7660 -4.2804
# 6 -2.1361 3.9386 -9.0790 9.0117 -4.2804 23.6123
#
#
#
# Elastic Compliance Matrix: (Units=1/GPa)
#
#
# Indices 1 2 3 4 5 6 
#
# 1 0.023009 -0.004451 -0.002570 -0.000310 0.001898 0.002298
# 2 -0.004451 0.016389 -0.002147 -0.002980 -0.002174 -0.003218
# 3 -0.002570 -0.002147 0.009324 0.001746 0.001694 0.003352
# 4 -0.000310 -0.002980 0.001746 0.025789 0.000804 -0.008556
# 5 0.001898 -0.002174 0.001694 0.000804 0.035162 0.007253
# 6 0.002298 -0.003218 0.003352 -0.008556 0.007253 0.048965
#
#
# Mechanical properties :
#
#
# Convention : Reuss Voigt Hill
#
# Bulk Modulus (GPa) = 32.90688 37.77225 35.33956
# Shear Modulus (GPa) = 26.72363 32.05247 29.38805
#
# Velocity S-wave (km/s) = 3.40604 3.73020 3.57180
# Velocity P-wave (km/s) = 5.45467 5.91185 5.68786
#
# Compressibility (1/GPa) = 0.03038878
#
# Stress axis : x y z
#
# Youngs Moduli (GPa) = 43.46194 61.01638 107.24478
#
# Poissons Ratio (x) = 0.27155 0.27558
# Poissons Ratio (y) = 0.19343 0.23021
# Poissons Ratio (z) = 0.11168 0.13097
#
# Static dielectric constant tensor:
#      x y z
#    x 4.070490 -0.000160 0.151200 
#    y -0.000160 4.337390 -0.034010 
#    z 0.151200 -0.034010 4.598620 
# 
# 
# High freq. dielectric constant tensor:
#      x y z
#    x 1.896130 -0.007270 -0.005960 
#    y -0.007270 1.910340 0.001600 
#    z -0.005960 0.001600 1.918990 
# 
# From -- ./inp_files/570803.got.cif
#   From: 2010.06.25/outbox.cif.g09.slc.cpg/sg2_286_cif.got.tgz:570803.got - 2010.06.27 13:26:56.
