data_PCOD8013340
_publ_section_title
;
Structure prediction by ZEFSAII (Michael W. Deem and Ramdas Pophale) SiO2 
 PCOD8013340
Probable space group: P -1
;
_chemical_formula_sum "Si O2"
_cell_formula_units_Z 16
_cell_length_a 9.409589
_cell_length_b 11.066079
_cell_length_c 15.070541
_cell_angle_alpha 115.947913
_cell_angle_beta 62.299108
_cell_angle_gamma 64.999138
_cell_volume 771.830125
_symmetry_space_group_name_H-M "P -1"
_symmetry_group_IT_number 2
_symmetry_cell_setting 'triclinic'
loop_
_space_group_symop_operation_xyz
x,y,z
-x,-y,-z
loop_
_atom_site_type_symbol
_atom_site_label
_atom_site_fract_x
_atom_site_fract_y
_atom_site_fract_z
Si Si1 0.859294 0.924992 0.118453
Si Si2 0.410303 0.279626 0.792596
Si Si3 0.471376 0.415795 0.403184
Si Si4 0.029719 0.409850 0.371169
Si Si5 0.465514 0.525414 0.786230
Si Si6 0.229150 0.465559 0.184391
Si Si7 0.495758 0.066714 0.860462
Si Si8 0.068964 0.299736 0.819244
O O1 0.716272 0.909350 0.092423
O O2 0.844992 0.891056 0.215164
O O3 0.722731 0.158884 0.228129
O O4 0.154303 0.744324 0.941037
O O5 0.549972 0.318161 0.723104
O O6 0.591303 0.074751 0.742781
O O7 0.304958 0.252937 0.735296
O O8 0.168621 0.481903 0.987462
O O9 0.500000 0.500000 0.500000
O O10 0.407261 0.529172 0.364184
O O11 0.238578 0.485489 0.534905
O O12 0.063868 0.502768 0.319360
O O13 0.000000 0.500000 0.500000
O O14 0.267596 0.150043 0.222649
O O15 0.574307 0.555126 0.838473
O O16 0.022949 0.674553 0.245546
O O17 0.382924 0.251150 0.018209
#
# Coordination Sequence:
#
# PCOD8013340 Si02
#       8
#     2   2   2   2   2   2   2   2
#     4  10  21  42  64  88 120 155 201 244 287 355
#     4   8  17  35  60  89 119 149 195 245 288 346
#     4  12  28  42  59  86 121 162 197 244 302 346
#     4  12  24  44  59  82 125 159 198 245 291 355
#     4  11  22  39  62  92 122 151 196 251 295 344
#     4  11  22  37  65  93 116 156 198 244 296 347
#     4  10  21  40  67  89 114 161 200 238 293 352
#     4   8  17  35  62  88 114 154 197 241 291 344
#
# _framework density 20.729949000000001
#
# number of rings (size 3 to 8) (size 9 to 14) (size 15 to 20)
#    0.000    1.750    2.500    3.000    5.250    4.500 
#    0.000    2.500    0.000    0.000    0.000    0.000 
#    0.000    0.000    0.000    0.000    0.000    0.000 
#
# Total GULP energy -198314.190004 kJ/mol
# GULP energy per Si atom -12394.636875 kJ/mol
# Density = 2.068277 g / cm^3
# Si number density = 20.729949 Si / 1000 Ang^3
#
#
#
# Elastic Constant Matrix: (Units=GPa)
#
#
# Indices 1 2 3 4 5 6 
#
# 1 120.1153 22.5574 26.3852 -9.3491 9.6759 0.7451
# 2 22.5574 94.3812 9.7518 -19.4410 1.0133 2.3731
# 3 26.3852 9.7518 32.1702 -11.8895 -3.4496 -1.4622
# 4 -9.3491 -19.4410 -11.8895 19.8341 -2.6396 -1.3075
# 5 9.6759 1.0133 -3.4496 -2.6396 33.7577 -6.4618
# 6 0.7451 2.3731 -1.4622 -1.3075 -6.4618 35.0247
#
#
#
# Elastic Compliance Matrix: (Units=1/GPa)
#
#
# Indices 1 2 3 4 5 6 
#
# 1 0.011160 -0.002329 -0.010547 -0.004090 -0.004825 -0.001563
# 2 -0.002329 0.013809 0.003348 0.014689 0.001768 0.000128
# 3 -0.010547 0.003348 0.051782 0.031271 0.011710 0.005487
# 4 -0.004090 0.014689 0.031271 0.083541 0.011540 0.005645
# 5 -0.004825 0.001768 0.011710 0.011540 0.034441 0.007257
# 6 -0.001563 0.000128 0.005487 0.005645 0.007257 0.030354
#
#
# Mechanical properties :
#
#
# Convention : Reuss Voigt Hill
#
# Bulk Modulus (GPa) = 17.33219 40.45063 28.89141
# Shear Modulus (GPa) = 18.98432 30.25479 24.61955
#
# Velocity S-wave (km/s) = 3.02949 3.82445 3.44994
# Velocity P-wave (km/s) = 4.54050 6.24959 5.46230
#
# Compressibility (1/GPa) = 0.05769613
#
# Stress axis : x y z
#
# Youngs Moduli (GPa) = 89.60939 72.41440 19.31156
#
# Poissons Ratio (x) = 0.16864 0.20368
# Poissons Ratio (y) = 0.20868 -0.06466
# Poissons Ratio (z) = 0.94510 -0.24245
#
# Static dielectric constant tensor:
#      x y z
#    x 3.816630 -0.291130 -0.048120 
#    y -0.291130 6.731290 0.459190 
#    z -0.048120 0.459190 3.435950 
# 
# 
# High freq. dielectric constant tensor:
#      x y z
#    x 1.816770 0.000610 -0.000030 
#    y 0.000610 1.830500 -0.002410 
#    z -0.000030 -0.002410 1.776330 
# 
# From -- ./inp_files/272991.got.cif
#   From: 2010.06.25/outbox.cif.g09.slc.cpg/sg2_137_cif.got.tgz:272991.got - 2010.06.27 13:26:56.
