data_PCOD8013905
_publ_section_title
;
Structure prediction by ZEFSAII (Michael W. Deem and Ramdas Pophale) SiO2 
 PCOD8013905
Probable space group: P -1
;
_chemical_formula_sum "Si O2"
_cell_formula_units_Z 16
_cell_length_a 8.536335
_cell_length_b 22.989570
_cell_length_c 14.533039
_cell_angle_alpha 152.901441
_cell_angle_beta 33.151102
_cell_angle_gamma 130.425920
_cell_volume 654.546836
_symmetry_space_group_name_H-M "P -1"
_symmetry_group_IT_number 2
_symmetry_cell_setting 'triclinic'
loop_
_space_group_symop_operation_xyz
x,y,z
-x,-y,-z
loop_
_atom_site_type_symbol
_atom_site_label
_atom_site_fract_x
_atom_site_fract_y
_atom_site_fract_z
Si Si1 0.580250 0.960308 0.759341
Si Si2 0.415003 0.640526 0.640479
Si Si3 0.632020 0.555330 0.755181
Si Si4 0.109749 0.246038 0.365883
Si Si5 0.554048 0.401142 0.748678
Si Si6 0.848141 0.085184 0.957827
Si Si7 0.359031 0.819401 0.368604
Si Si8 0.845841 0.740988 0.180469
O O1 0.821047 0.871978 0.439072
O O2 0.760610 0.986666 0.793276
O O3 0.350381 0.889571 0.813897
O O4 0.385140 0.102489 0.003207
O O5 0.476743 0.492178 0.353598
O O6 0.740834 0.646354 0.519851
O O7 0.215547 0.765490 0.844339
O O8 0.201904 0.653112 0.853178
O O9 0.509509 0.482938 0.792324
O O10 0.000000 0.500000 0.500000
O O11 0.481193 0.722054 0.080136
O O12 0.910735 0.292136 0.434528
O O13 0.906793 0.223384 0.516377
O O14 0.287545 0.341618 0.801065
O O15 0.500000 0.500000 0.000000
O O16 0.212952 0.986397 0.656273
O O17 0.643791 0.787393 0.252815
#
# Coordination Sequence:
#
# PCOD8013905 Si02
#       8
#     2   2   2   2   2   2   2   2
#     4   9  19  39  62  90 127 158 206 248 313 363
#     4  11  23  41  63  94 129 159 209 251 311 359
#     4  12  23  44  64  91 125 164 204 265 300 367
#     4   9  21  40  64  91 121 162 205 257 299 378
#     4  11  21  42  64  84 123 165 202 250 312 361
#     4   9  20  39  63  93 123 163 201 258 304 371
#     4  10  21  41  63  90 129 159 211 249 310 362
#     4  11  22  39  63  92 126 161 202 257 303 369
#
# _framework density 24.444395
#
# number of rings (size 3 to 8) (size 9 to 14) (size 15 to 20)
#    0.000    1.750    3.750    1.500    0.000    8.500 
#    6.750    1.250    0.000    0.000    0.000    0.000 
#    0.000    0.000    0.000    0.000    0.000    0.000 
#
# Total GULP energy -198323.499582 kJ/mol
# GULP energy per Si atom -12395.218724 kJ/mol
# Density = 2.438876 g / cm^3
# Si number density = 24.444395 Si / 1000 Ang^3
#
#
#
# Elastic Constant Matrix: (Units=GPa)
#
#
# Indices 1 2 3 4 5 6 
#
# 1 49.0684 4.5544 10.4113 -10.5386 18.5806 6.4093
# 2 4.5544 28.0493 -19.9615 -5.2977 -1.1407 -1.4895
# 3 10.4113 -19.9615 74.8499 -11.0930 33.4555 -9.0328
# 4 -10.5386 -5.2977 -11.0930 31.1115 2.1129 -8.5465
# 5 18.5806 -1.1407 33.4555 2.1129 48.7043 3.8134
# 6 6.4093 -1.4895 -9.0328 -8.5465 3.8134 30.3302
#
#
#
# Elastic Compliance Matrix: (Units=1/GPa)
#
#
# Indices 1 2 3 4 5 6 
#
# 1 0.027185 0.000610 0.004582 0.012135 -0.014096 0.000841
# 2 0.000610 0.075670 0.045129 0.040451 -0.033773 0.032672
# 3 0.004582 0.045129 0.053578 0.040494 -0.041904 0.033884
# 4 0.012135 0.040451 0.040494 0.069976 -0.037344 0.035895
# 5 -0.014096 -0.033773 -0.041904 -0.037344 0.057790 -0.028948
# 6 0.000841 0.032672 0.033884 0.035895 -0.028948 0.058242
#
#
# Mechanical properties :
#
#
# Convention : Reuss Voigt Hill
#
# Bulk Modulus (GPa) = 3.88992 15.77510 9.83251
# Shear Modulus (GPa) = 15.26753 32.49344 23.88049
#
# Velocity S-wave (km/s) = 2.50188 3.64988 3.12898
# Velocity P-wave (km/s) = 3.15288 4.92237 4.13342
#
# Compressibility (1/GPa) = 0.25707500
#
# Stress axis : x y z
#
# Youngs Moduli (GPa) = 36.78497 13.21521 18.66429
#
# Poissons Ratio (x) = -0.00806 -0.08552
# Poissons Ratio (y) = -0.02244 -0.84230
# Poissons Ratio (z) = -0.16855 -0.59639
#
# Static dielectric constant tensor:
#      x y z
#    x 3.334990 0.247990 0.187690 
#    y 0.247990 4.138700 -0.030380 
#    z 0.187690 -0.030380 4.748600 
# 
# 
# High freq. dielectric constant tensor:
#      x y z
#    x 1.957070 0.003670 0.001040 
#    y 0.003670 1.959100 0.001600 
#    z 0.001040 0.001600 1.981570 
# 
# From -- ./inp_files/207678.got.cif
#   From: 2010.06.25/outbox.cif.g09.slc.cpg/sg2_104_cif.got.tgz:207678.got - 2010.06.27 13:26:56.
