data_PCOD8013429
_publ_section_title
;
Structure prediction by ZEFSAII (Michael W. Deem and Ramdas Pophale) SiO2 
 PCOD8013429
Probable space group: P -1
;
_chemical_formula_sum "Si O2"
_cell_formula_units_Z 12
_cell_length_a 12.907485
_cell_length_b 14.992763
_cell_length_c 18.119143
_cell_angle_alpha 152.163630
_cell_angle_beta 158.707512
_cell_angle_gamma 28.376943
_cell_volume 561.293403
_symmetry_space_group_name_H-M "P -1"
_symmetry_group_IT_number 2
_symmetry_cell_setting 'triclinic'
loop_
_space_group_symop_operation_xyz
x,y,z
-x,-y,-z
loop_
_atom_site_type_symbol
_atom_site_label
_atom_site_fract_x
_atom_site_fract_y
_atom_site_fract_z
Si Si1 0.910659 0.484277 0.012505
Si Si2 0.206496 0.681329 0.457264
Si Si3 0.211271 0.772654 0.961734
Si Si4 0.117560 0.383002 0.662142
Si Si5 0.407550 0.073303 0.074411
Si Si6 0.265579 0.704366 0.777548
O O1 0.556794 0.512429 0.806537
O O2 0.000000 0.500000 0.000000
O O3 0.952692 0.675234 0.225260
O O4 0.109598 0.271576 0.022796
O O5 0.500000 0.500000 0.500000
O O6 0.302281 0.882890 0.664714
O O7 0.109641 0.651516 0.453971
O O8 0.096570 0.618388 0.821171
O O9 0.205898 0.701853 0.822490
O O10 0.544620 0.759936 0.199538
O O11 0.000000 0.000000 0.000000
O O12 0.024452 0.314972 0.471669
O O13 0.500000 0.000000 0.000000
O O14 0.324172 0.910979 0.948432
#
# Coordination Sequence:
#
# PCOD8013429 Si02
#       6
#     2   2   2   2   2   2
#     4  11  22  40  63  99 139 179 214 264 343 404
#     4  10  21  40  67  98 139 176 206 281 339 390
#     4  11  28  46  70  97 127 183 234 274 328 391
#     4  11  24  48  68  95 140 169 227 282 327 399
#     4  11  22  39  64 102 139 168 222 270 328 414
#     4  12  24  44  68  98 136 177 220 275 341 395
#
# _framework density 21.379193000000001
#
# number of rings (size 3 to 8) (size 9 to 14) (size 15 to 20)
#    0.000    1.000    5.000    1.500    4.667    2.667 
#    3.000    0.000    0.000    0.000    0.000    0.000 
#    0.000    0.000    0.000    0.000    0.000    0.000 
#
# Total GULP energy -148813.682622 kJ/mol
# GULP energy per Si atom -12401.140218 kJ/mol
# Density = 2.133053 g / cm^3
# Si number density = 21.379193 Si / 1000 Ang^3
#
#
#
# Elastic Constant Matrix: (Units=GPa)
#
#
# Indices 1 2 3 4 5 6 
#
# 1 77.5779 20.4844 28.6891 -12.2519 -10.2790 -9.2461
# 2 20.4844 123.7357 41.5246 -4.3025 8.3931 -5.2269
# 3 28.6891 41.5246 127.8635 -5.2058 -17.4895 -1.3735
# 4 -12.2519 -4.3025 -5.2058 34.3030 7.6366 3.5743
# 5 -10.2790 8.3931 -17.4895 7.6366 46.1545 4.3268
# 6 -9.2461 -5.2269 -1.3735 3.5743 4.3268 30.2597
#
#
#
# Elastic Compliance Matrix: (Units=1/GPa)
#
#
# Indices 1 2 3 4 5 6 
#
# 1 0.015567 -0.001543 -0.002542 0.004214 0.001747 0.003627
# 2 -0.001543 0.009776 -0.003277 0.000833 -0.003640 0.001491
# 3 -0.002542 -0.003277 0.009969 -0.000558 0.004031 -0.001401
# 4 0.004214 0.000833 -0.000558 0.031865 -0.004536 -0.001709
# 5 0.001747 -0.003640 0.004031 -0.004536 0.025276 -0.002990
# 6 0.003627 0.001491 -0.001401 -0.001709 -0.002990 0.034979
#
#
# Mechanical properties :
#
#
# Convention : Reuss Voigt Hill
#
# Bulk Modulus (GPa) = 48.57106 56.73038 52.65072
# Shear Modulus (GPa) = 33.55318 38.04203 35.79761
#
# Velocity S-wave (km/s) = 3.96590 4.22286 4.09640
# Velocity P-wave (km/s) = 6.61357 7.09716 6.85963
#
# Compressibility (1/GPa) = 0.02058839
#
# Stress axis : x y z
#
# Youngs Moduli (GPa) = 64.23810 102.29566 100.31129
#
# Poissons Ratio (x) = 0.15781 0.25503
# Poissons Ratio (y) = 0.09910 0.32868
# Poissons Ratio (z) = 0.16332 0.33518
#
# Static dielectric constant tensor:
#      x y z
#    x 3.835200 0.071010 -0.157560 
#    y 0.071010 3.888730 -0.215770 
#    z -0.157560 -0.215770 4.309360 
# 
# 
# High freq. dielectric constant tensor:
#      x y z
#    x 1.841710 0.001320 -0.007280 
#    y 0.001320 1.835040 -0.003680 
#    z -0.007280 -0.003680 1.853640 
# 
# From -- ./inp_files/196431.got.cif
#   From: 2010.06.25/outbox.cif.g09.slc.cpg/sg2_99_cif.got.tgz:196431.got - 2010.06.27 13:26:56.
