data_PCOD8013875
_publ_section_title
;
Structure prediction by ZEFSAII (Michael W. Deem and Ramdas Pophale) SiO2 
 PCOD8013875
Probable space group: P -1
;
_chemical_formula_sum "Si O2"
_cell_formula_units_Z 16
_cell_length_a 13.088592
_cell_length_b 10.810719
_cell_length_c 8.731178
_cell_angle_alpha 127.246425
_cell_angle_beta 130.693028
_cell_angle_gamma 74.287312
_cell_volume 729.813379
_symmetry_space_group_name_H-M "P -1"
_symmetry_group_IT_number 2
_symmetry_cell_setting 'triclinic'
loop_
_space_group_symop_operation_xyz
x,y,z
-x,-y,-z
loop_
_atom_site_type_symbol
_atom_site_label
_atom_site_fract_x
_atom_site_fract_y
_atom_site_fract_z
Si Si1 0.014321 0.833093 0.961857
Si Si2 0.016966 0.175408 0.710055
Si Si3 0.433150 0.719961 0.581258
Si Si4 0.300069 0.373722 0.167762
Si Si5 0.765303 0.243077 0.344990
Si Si6 0.545475 0.789774 0.419348
Si Si7 0.708772 0.122027 0.882952
Si Si8 0.750218 0.594554 0.514688
O O1 0.158602 0.791435 0.018940
O O2 0.008746 0.831199 0.138697
O O3 0.895160 0.694949 0.669552
O O4 0.000000 0.000000 0.000000
O O5 0.910937 0.264247 0.587554
O O6 0.166638 0.274986 0.876720
O O7 0.000000 0.000000 0.500000
O O8 0.323762 0.561653 0.302343
O O9 0.558182 0.680525 0.777098
O O10 0.352692 0.818203 0.689063
O O11 0.488300 0.811074 0.550627
O O12 0.269230 0.336020 0.286066
O O13 0.748832 0.408681 0.374524
O O14 0.749851 0.114166 0.096910
O O15 0.414962 0.781211 0.174111
O O16 0.616215 0.640398 0.334057
O O17 0.662301 0.948491 0.632628
#
# Coordination Sequence:
#
# PCOD8013875 Si02
#       8
#     2   2   2   2   2   2   2   2
#     4  11  21  41  66  87 123 173 201 244 315 376
#     4  11  24  40  63  96 129 159 208 263 308 370
#     4   9  18  38  65  87 117 161 205 255 304 357
#     4   8  18  37  62  91 119 158 203 250 314 363
#     4  11  24  40  60  97 125 156 210 265 311 355
#     4  10  21  41  63  85 120 171 207 248 313 375
#     4  11  24  39  59  91 127 163 207 250 311 382
#     4   9  20  39  66  87 121 162 205 258 303 373
#
# _framework density 21.923411000000002
#
# number of rings (size 3 to 8) (size 9 to 14) (size 15 to 20)
#    0.000    2.000    1.250    2.250    3.500    7.000 
#    4.500    1.250    0.000    0.000    0.000    0.000 
#    0.000    0.000    0.000    0.000    0.000    0.000 
#
# Total GULP energy -198305.830371 kJ/mol
# GULP energy per Si atom -12394.114398 kJ/mol
# Density = 2.187351 g / cm^3
# Si number density = 21.923411 Si / 1000 Ang^3
#
#
#
# Elastic Constant Matrix: (Units=GPa)
#
#
# Indices 1 2 3 4 5 6 
#
# 1 92.6103 7.2370 43.5599 -1.1282 23.1309 -2.8387
# 2 7.2370 87.7544 21.4161 -13.3857 13.9197 -9.5159
# 3 43.5599 21.4161 85.0358 -17.8752 16.9830 -11.0619
# 4 -1.1282 -13.3857 -17.8752 26.6346 -0.0720 2.0831
# 5 23.1309 13.9197 16.9830 -0.0720 36.6830 -4.1687
# 6 -2.8387 -9.5159 -11.0619 2.0831 -4.1687 29.4771
#
#
#
# Elastic Compliance Matrix: (Units=1/GPa)
#
#
# Indices 1 2 3 4 5 6 
#
# 1 0.016279 0.000933 -0.008336 -0.004302 -0.006990 -0.001943
# 2 0.000933 0.013595 -0.001373 0.005712 -0.004773 0.002885
# 3 -0.008336 -0.001373 0.020164 0.012087 -0.002961 0.005048
# 4 -0.004302 0.005712 0.012087 0.048185 -0.004741 0.001890
# 5 -0.006990 -0.004773 -0.002961 -0.004741 0.035064 0.001969
# 6 -0.001943 0.002885 0.005048 0.001890 0.001969 0.036708
#
#
# Mechanical properties :
#
#
# Convention : Reuss Voigt Hill
#
# Bulk Modulus (GPa) = 30.78022 45.53627 38.15825
# Shear Modulus (GPa) = 25.20480 31.43811 28.32145
#
# Velocity S-wave (km/s) = 3.39436 3.79092 3.59811
# Velocity P-wave (km/s) = 5.42519 6.32275 5.89109
#
# Compressibility (1/GPa) = 0.03248839
#
# Stress axis : x y z
#
# Youngs Moduli (GPa) = 61.42700 73.55845 49.59277
#
# Poissons Ratio (x) = -0.06866 0.41338
# Poissons Ratio (y) = -0.05734 0.06808
# Poissons Ratio (z) = 0.51203 0.10098
#
# Static dielectric constant tensor:
#      x y z
#    x 4.129180 -0.094220 0.440340 
#    y -0.094220 3.858840 -0.255030 
#    z 0.440340 -0.255030 3.880920 
# 
# 
# High freq. dielectric constant tensor:
#      x y z
#    x 1.863210 -0.005820 0.029560 
#    y -0.005820 1.855110 -0.008320 
#    z 0.029560 -0.008320 1.845130 
# 
# From -- ./inp_files/205235.got.cif
#   From: 2010.06.25/outbox.cif.g09.slc.cpg/sg2_103_cif.got.tgz:205235.got - 2010.06.27 13:26:56.
