data_PCOD8013190
_publ_section_title
;
Structure prediction by ZEFSAII (Michael W. Deem and Ramdas Pophale) SiO2 
 PCOD8013190
Probable space group: P -1
;
_chemical_formula_sum "Si O2"
_cell_formula_units_Z 12
_cell_length_a 15.211925
_cell_length_b 6.860480
_cell_length_c 13.031643
_cell_angle_alpha 63.295936
_cell_angle_beta 28.351578
_cell_angle_gamma 74.183797
_cell_volume 552.198526
_symmetry_space_group_name_H-M "P -1"
_symmetry_group_IT_number 2
_symmetry_cell_setting 'triclinic'
loop_
_space_group_symop_operation_xyz
x,y,z
-x,-y,-z
loop_
_atom_site_type_symbol
_atom_site_label
_atom_site_fract_x
_atom_site_fract_y
_atom_site_fract_z
Si Si1 0.682551 0.406457 0.833903
Si Si2 0.897358 0.716886 0.257176
Si Si3 0.309667 0.771929 0.352690
Si Si4 0.679612 0.973045 0.041878
Si Si5 0.895360 0.878023 0.447371
Si Si6 0.694076 0.967049 0.262201
O O1 0.677998 0.248070 0.776860
O O2 0.866939 0.632697 0.590256
O O3 0.500000 0.500000 0.000000
O O4 0.679660 0.240349 0.972427
O O5 0.844590 0.445965 0.388125
O O6 0.859689 0.838135 0.371865
O O7 0.756317 0.768682 0.303867
O O8 0.123178 0.804262 0.972147
O O9 0.520485 0.799140 0.177599
O O10 0.254774 0.999933 0.382777
O O11 0.646975 0.891400 0.211504
O O12 0.888744 0.964394 0.789062
O O13 0.500000 0.000000 0.500000
#
# Coordination Sequence:
#
# PCOD8013190 Si02
#       6
#     2   2   2   2   2   2
#     4  11  23  42  64  89 128 164 199 255 308 362
#     4   9  22  42  62  92 124 160 203 251 306 358
#     4  11  23  41  64  91 126 162 199 257 308 357
#     4  11  23  40  63  95 121 163 211 247 303 367
#     4  10  22  42  64  91 127 161 204 250 302 369
#     4  10  21  40  66  88 122 165 204 250 304 362
#
# _framework density 21.731316
#
# number of rings (size 3 to 8) (size 9 to 14) (size 15 to 20)
#    0.000    1.667    1.667    2.000    2.333    2.667 
#    6.000   11.667    0.000    0.000    0.000    0.000 
#    0.000    0.000    0.000    0.000    0.000    0.000 
#
# Total GULP energy -148819.418906 kJ/mol
# GULP energy per Si atom -12401.618242 kJ/mol
# Density = 2.168185 g / cm^3
# Si number density = 21.731316 Si / 1000 Ang^3
#
#
#
# Elastic Constant Matrix: (Units=GPa)
#
#
# Indices 1 2 3 4 5 6 
#
# 1 87.7278 31.6279 20.9096 2.3972 -1.6829 -7.4540
# 2 31.6279 88.9450 25.8157 0.5672 4.6202 6.6251
# 3 20.9096 25.8157 98.3009 8.0388 -8.5682 7.9597
# 4 2.3972 0.5672 8.0388 32.2532 -1.0419 -1.6901
# 5 -1.6829 4.6202 -8.5682 -1.0419 34.6159 -9.8598
# 6 -7.4540 6.6251 7.9597 -1.6901 -9.8598 25.2968
#
#
#
# Elastic Compliance Matrix: (Units=1/GPa)
#
#
# Indices 1 2 3 4 5 6 
#
# 1 0.014477 -0.005271 -0.002037 0.000014 0.003031 0.007469
# 2 -0.005271 0.014592 -0.002628 0.000308 -0.004651 -0.006340
# 3 -0.002037 -0.002628 0.011971 -0.002869 0.002279 -0.002982
# 4 0.000014 0.000308 -0.002869 0.031931 0.001185 0.003421
# 5 0.003031 -0.004651 0.002279 0.001185 0.034507 0.014923
# 6 0.007469 -0.006340 -0.002982 0.003421 0.014923 0.050375
#
#
# Mechanical properties :
#
#
# Convention : Reuss Voigt Hill
#
# Bulk Modulus (GPa) = 47.24037 47.96446 47.60241
# Shear Modulus (GPa) = 27.05920 31.54122 29.30021
#
# Velocity S-wave (km/s) = 3.53253 3.81388 3.67590
# Velocity P-wave (km/s) = 6.19870 6.44312 6.32209
#
# Compressibility (1/GPa) = 0.02116834
#
# Stress axis : x y z
#
# Youngs Moduli (GPa) = 69.07516 68.53213 83.53481
#
# Poissons Ratio (x) = 0.36120 0.17016
# Poissons Ratio (y) = 0.36406 0.21954
# Poissons Ratio (z) = 0.14071 0.18011
#
# Static dielectric constant tensor:
#      x y z
#    x 4.134220 -0.078790 0.019010 
#    y -0.078790 3.567240 -0.228820 
#    z 0.019010 -0.228820 4.241750 
# 
# 
# High freq. dielectric constant tensor:
#      x y z
#    x 1.860300 -0.007310 -0.003340 
#    y -0.007310 1.826690 -0.010810 
#    z -0.003340 -0.010810 1.876290 
# 
# From -- ./inp_files/21639.got.cif
#   From: 2010.06.25/outbox.cif.g09.slc.cpg/sg2_11_cif.got.tgz:21639.got - 2010.06.27 13:26:56.
