data_PCOD8013241
_publ_section_title
;
Structure prediction by ZEFSAII (Michael W. Deem and Ramdas Pophale) SiO2 
 PCOD8013241
Probable space group: P -1
;
_chemical_formula_sum "Si O2"
_cell_formula_units_Z 16
_cell_length_a 14.714222
_cell_length_b 13.752089
_cell_length_c 11.259713
_cell_angle_alpha 148.007171
_cell_angle_beta 140.246299
_cell_angle_gamma 52.924537
_cell_volume 763.778835
_symmetry_space_group_name_H-M "P -1"
_symmetry_group_IT_number 2
_symmetry_cell_setting 'triclinic'
loop_
_space_group_symop_operation_xyz
x,y,z
-x,-y,-z
loop_
_atom_site_type_symbol
_atom_site_label
_atom_site_fract_x
_atom_site_fract_y
_atom_site_fract_z
Si Si1 0.289122 0.804719 0.792835
Si Si2 0.121363 0.546754 0.826734
Si Si3 0.420895 0.071905 0.883175
Si Si4 0.064667 0.458746 0.147534
Si Si5 0.840849 0.908763 0.207971
Si Si6 0.679953 0.948660 0.700064
Si Si7 0.935212 0.787494 0.737100
Si Si8 0.627391 0.156920 0.635682
O O1 0.187475 0.613188 0.480116
O O2 0.229245 0.956781 0.809279
O O3 0.453574 0.777846 0.894475
O O4 0.285849 0.871082 0.994516
O O5 0.096666 0.332126 0.539515
O O6 0.074728 0.558536 0.927693
O O7 0.032504 0.679853 0.803381
O O8 0.287018 0.635032 0.067593
O O9 0.271980 0.142226 0.847905
O O10 0.375323 0.915728 0.576899
O O11 0.500000 0.000000 0.000000
O O12 0.141372 0.277223 0.035739
O O13 0.000000 0.500000 0.000000
O O14 0.000000 0.000000 0.500000
O O15 0.788140 0.799495 0.672003
O O16 0.529029 0.828598 0.455595
O O17 0.695370 0.020838 0.653990
O O18 0.000000 0.000000 0.000000
#
# Coordination Sequence:
#
# PCOD8013241 Si02
#       8
#     2   2   2   2   2   2   2   2
#     4  10  22  42  62  90 128 162 205 262 310 372
#     4  11  25  39  65  95 126 164 214 256 310 375
#     4   9  21  39  66  89 122 166 206 255 315 368
#     4  12  25  39  62  93 126 166 212 263 305 366
#     4  11  21  40  66  90 119 168 212 254 313 371
#     4  10  21  40  67  91 125 165 201 255 323 366
#     4  11  22  42  66  95 126 166 205 259 313 373
#     4  10  21  40  66  93 124 163 207 255 310 383
#
# _framework density 20.948473
#
# number of rings (size 3 to 8) (size 9 to 14) (size 15 to 20)
#    0.000    1.500    2.500    2.250    3.500    2.000 
#    0.000    0.000   19.250    0.000    0.000    0.000 
#    0.000    0.000    0.000    0.000    0.000    0.000 
#
# Total GULP energy -198299.854268 kJ/mol
# GULP energy per Si atom -12393.740892 kJ/mol
# Density = 2.090079 g / cm^3
# Si number density = 20.948473 Si / 1000 Ang^3
#
#
#
# Elastic Constant Matrix: (Units=GPa)
#
#
# Indices 1 2 3 4 5 6 
#
# 1 144.7640 39.3137 71.6852 1.3506 0.8776 -12.3847
# 2 39.3137 50.9623 57.8718 7.2098 3.5061 -12.0186
# 3 71.6852 57.8718 150.7602 4.5456 9.1903 -5.2393
# 4 1.3506 7.2098 4.5456 36.8459 1.0990 -3.7530
# 5 0.8776 3.5061 9.1903 1.0990 39.2290 -11.0703
# 6 -12.3847 -12.0186 -5.2393 -3.7530 -11.0703 34.2200
#
#
#
# Elastic Compliance Matrix: (Units=1/GPa)
#
#
# Indices 1 2 3 4 5 6 
#
# 1 0.009657 -0.003293 -0.003364 0.000906 0.001523 0.002415
# 2 -0.003293 0.041139 -0.013856 -0.005133 0.003048 0.011559
# 3 -0.003364 -0.013856 0.013556 0.000752 -0.003292 -0.004991
# 4 0.000906 -0.005133 0.000752 0.028195 -0.000043 0.001719
# 5 0.001523 0.003048 -0.003292 -0.000043 0.028911 0.010466
# 6 0.002415 0.011559 -0.004991 0.001719 0.010466 0.036966
#
#
# Mechanical properties :
#
#
# Convention : Reuss Voigt Hill
#
# Bulk Modulus (GPa) = 42.86865 76.02532 59.44699
# Shear Modulus (GPa) = 24.12851 33.90004 29.01427
#
# Velocity S-wave (km/s) = 3.39750 4.02712 3.72564
# Velocity P-wave (km/s) = 5.99158 7.61538 6.85175
#
# Compressibility (1/GPa) = 0.02332707
#
# Stress axis : x y z
#
# Youngs Moduli (GPa) = 103.55482 24.30778 73.76929
#
# Poissons Ratio (x) = 0.08004 0.24815
# Poissons Ratio (y) = 0.34099 1.02212
# Poissons Ratio (z) = 0.34835 0.33680
#
# Static dielectric constant tensor:
#      x y z
#    x 3.648870 -0.146630 -0.512650 
#    y -0.146630 3.734680 -0.101460 
#    z -0.512650 -0.101460 3.394080 
# 
# 
# High freq. dielectric constant tensor:
#      x y z
#    x 1.841630 -0.006500 0.004410 
#    y -0.006500 1.799200 -0.019490 
#    z 0.004410 -0.019490 1.830310 
# 
# From -- ./inp_files/456070.got.cif
#   From: 2010.06.25/outbox.cif.g09.slc.cpg/sg2_229_cif.got.tgz:456070.got - 2010.06.27 13:26:56.
