data_PCOD8013520
_publ_section_title
;
Structure prediction by ZEFSAII (Michael W. Deem and Ramdas Pophale) SiO2 
 PCOD8013520
Probable space group: P -1
;
_chemical_formula_sum "Si O2"
_cell_formula_units_Z 16
_cell_length_a 10.332971
_cell_length_b 11.520458
_cell_length_c 14.868936
_cell_angle_alpha 32.387737
_cell_angle_beta 55.541792
_cell_angle_gamma 76.191003
_cell_volume 657.275404
_symmetry_space_group_name_H-M "P -1"
_symmetry_group_IT_number 2
_symmetry_cell_setting 'triclinic'
loop_
_space_group_symop_operation_xyz
x,y,z
-x,-y,-z
loop_
_atom_site_type_symbol
_atom_site_label
_atom_site_fract_x
_atom_site_fract_y
_atom_site_fract_z
Si Si1 0.219639 0.654102 0.821827
Si Si2 0.046131 0.197684 0.705023
Si Si3 0.175035 0.622767 0.227094
Si Si4 0.158398 0.415388 0.181683
Si Si5 0.262178 0.255750 0.968338
Si Si6 0.589969 0.446674 0.581739
Si Si7 0.749543 0.986004 0.562487
Si Si8 0.393687 0.002983 0.203681
O O1 0.296722 0.523669 0.811727
O O2 0.304885 0.944316 0.558738
O O3 0.274127 0.639666 0.913564
O O4 0.000000 0.500000 0.000000
O O5 0.907377 0.207629 0.823733
O O6 0.090253 0.377533 0.484423
O O7 0.238097 0.281210 0.625634
O O8 0.935098 0.904148 0.903710
O O9 0.118421 0.536891 0.202736
O O10 0.396029 0.792700 0.041593
O O11 0.966273 0.196765 0.356443
O O12 0.279831 0.296026 0.243686
O O13 0.433990 0.298224 0.814882
O O14 0.254163 0.083944 0.168254
O O15 0.500000 0.500000 0.500000
O O16 0.671266 0.275337 0.630100
O O17 0.623071 0.003665 0.677360
#
# Coordination Sequence:
#
# PCOD8013520 Si02
#       8
#     2   2   2   2   2   2   2   2
#     4  10  23  43  70 104 138 187 240 300 351 421
#     4  11  24  43  73 105 137 187 235 293 359 426
#     4  11  23  41  70 105 137 182 247 291 350 433
#     4  10  21  41  68  98 136 188 238 290 359 420
#     4  12  23  45  74 102 141 187 242 294 356 425
#     4  12  26  45  67 105 149 183 233 296 360 429
#     4  10  21  40  68  97 135 185 238 294 356 413
#     4  12  22  44  69 100 142 188 236 297 356 422
#
# _framework density 24.342915999999999
#
# number of rings (size 3 to 8) (size 9 to 14) (size 15 to 20)
#    0.000    1.000    3.750    4.125    3.500    2.000 
#    4.500    0.625    0.000    0.000    0.000    0.000 
#    0.000    0.000    0.000    0.000    0.000    0.000 
#
# Total GULP energy -198420.514980 kJ/mol
# GULP energy per Si atom -12401.282186 kJ/mol
# Density = 2.428751 g / cm^3
# Si number density = 24.342916 Si / 1000 Ang^3
#
#
#
# Elastic Constant Matrix: (Units=GPa)
#
#
# Indices 1 2 3 4 5 6 
#
# 1 93.0507 17.7179 41.0354 -0.3601 21.3874 14.9607
# 2 17.7179 109.1744 37.9169 24.6699 22.2573 9.1150
# 3 41.0354 37.9169 86.3635 19.0569 21.1366 3.9856
# 4 -0.3601 24.6699 19.0569 30.3331 2.9155 2.5788
# 5 21.3874 22.2573 21.1366 2.9155 51.4565 3.2866
# 6 14.9607 9.1150 3.9856 2.5788 3.2866 35.6215
#
#
#
# Elastic Compliance Matrix: (Units=1/GPa)
#
#
# Indices 1 2 3 4 5 6 
#
# 1 0.015927 -0.000049 -0.007756 0.005930 -0.003370 -0.005927
# 2 -0.000049 0.012956 -0.002819 -0.008226 -0.003830 -0.002030
# 3 -0.007756 -0.002819 0.019312 -0.009873 -0.003110 0.002820
# 4 0.005930 -0.008226 -0.009873 0.045911 0.002730 -0.002856
# 5 -0.003370 -0.003830 -0.003110 0.002730 0.023591 0.000369
# 6 -0.005927 -0.002030 0.002820 -0.002856 0.000369 0.030939
#
#
# Mechanical properties :
#
#
# Convention : Reuss Voigt Hill
#
# Bulk Modulus (GPa) = 37.11065 53.54765 45.32915
# Shear Modulus (GPa) = 27.95403 36.27680 32.11542
#
# Velocity S-wave (km/s) = 3.39240 3.86455 3.63615
# Velocity P-wave (km/s) = 5.53376 6.47750 6.02414
#
# Compressibility (1/GPa) = 0.02694645
#
# Stress axis : x y z
#
# Youngs Moduli (GPa) = 62.78528 77.18661 51.78261
#
# Poissons Ratio (x) = 0.00378 0.40165
# Poissons Ratio (y) = 0.00308 0.14595
# Poissons Ratio (z) = 0.48699 0.21756
#
# Static dielectric constant tensor:
#      x y z
#    x 4.384540 0.107700 0.232160 
#    y 0.107700 4.768040 0.289260 
#    z 0.232160 0.289260 4.707180 
# 
# 
# High freq. dielectric constant tensor:
#      x y z
#    x 1.959670 0.001660 0.001940 
#    y 0.001660 1.967770 0.019940 
#    z 0.001940 0.019940 1.963550 
# 
# From -- ./inp_files/519482.got.cif
#   From: 2010.06.25/outbox.cif.g09.slc.cpg/sg2_260_cif.got.tgz:519482.got - 2010.06.27 13:26:56.
