data_PCOD8013165
_publ_section_title
;
Structure prediction by ZEFSAII (Michael W. Deem and Ramdas Pophale) SiO2 
 PCOD8013165
Probable space group: P -1
;
_chemical_formula_sum "Si O2"
_cell_formula_units_Z 16
_cell_length_a 25.890423
_cell_length_b 15.848948
_cell_length_c 5.105733
_cell_angle_alpha 87.713948
_cell_angle_beta 93.663161
_cell_angle_gamma 162.809551
_cell_volume 616.338683
_symmetry_space_group_name_H-M "P -1"
_symmetry_group_IT_number 2
_symmetry_cell_setting 'triclinic'
loop_
_space_group_symop_operation_xyz
x,y,z
-x,-y,-z
loop_
_atom_site_type_symbol
_atom_site_label
_atom_site_fract_x
_atom_site_fract_y
_atom_site_fract_z
Si Si1 0.689358 0.684326 0.477860
Si Si2 0.021406 0.421117 0.281578
Si Si3 0.222333 0.309892 0.882069
Si Si4 0.347984 0.182224 0.628947
Si Si5 0.177995 0.580822 0.816364
Si Si6 0.461354 0.150602 0.771183
Si Si7 0.041764 0.189998 0.787794
Si Si8 0.692226 0.008590 0.762060
O O1 0.648196 0.546689 0.269234
O O2 0.548807 0.457400 0.706455
O O3 0.654181 0.721481 0.341583
O O4 0.891167 0.988588 0.572308
O O5 0.057408 0.432032 0.568262
O O6 0.106535 0.646744 0.258634
O O7 0.095265 0.475323 0.078746
O O8 0.810062 0.103505 0.213619
O O9 0.330361 0.519151 0.136934
O O10 0.147264 0.273328 0.698789
O O11 0.058143 0.996254 0.958141
O O12 0.318070 0.105829 0.321421
O O13 0.178638 0.479819 0.829793
O O14 0.378438 0.927820 0.820108
O O15 0.364751 0.065544 0.948435
O O16 0.424893 0.117678 0.463492
#
# Coordination Sequence:
#
# PCOD8013165 Si02
#       8
#     2   2   2   2   2   2   2   2
#     4  11  23  42  62  94 133 173 222 272 334 393
#     4  10  21  40  65  97 136 175 215 266 331 398
#     4  11  24  43  68  94 131 177 226 278 334 394
#     4  11  21  38  64  96 133 176 217 272 325 400
#     4  10  22  43  68  98 136 172 221 275 327 396
#     4  10  22  43  68  98 136 172 221 275 327 396
#     4  11  24  43  68  94 131 177 226 278 334 394
#     4  10  21  40  65  97 136 175 215 266 331 398
#
# _framework density 25.959754
#
# number of rings (size 3 to 8) (size 9 to 14) (size 15 to 20)
#    0.000    1.500    2.500    2.250    0.000    1.500 
#    4.500    6.250    0.000    4.500    0.000    0.000 
#    0.000    0.000    0.000    0.000    0.000    0.000 
#
# Total GULP energy -198230.539066 kJ/mol
# GULP energy per Si atom -12389.408692 kJ/mol
# Density = 2.590067 g / cm^3
# Si number density = 25.959754 Si / 1000 Ang^3
#
#
#
# Elastic Constant Matrix: (Units=GPa)
#
#
# Indices 1 2 3 4 5 6 
#
# 1 141.2511 59.2483 16.0824 6.7147 -5.9347 -15.9628
# 2 59.2483 135.7262 14.2790 -5.6218 0.0270 -24.4049
# 3 16.0824 14.2790 48.5568 0.9876 -7.0143 -4.6471
# 4 6.7147 -5.6218 0.9876 37.1677 -1.1197 2.2239
# 5 -5.9347 0.0270 -7.0143 -1.1197 19.6009 5.1820
# 6 -15.9628 -24.4049 -4.6471 2.2239 5.1820 50.6183
#
#
#
# Elastic Compliance Matrix: (Units=1/GPa)
#
#
# Indices 1 2 3 4 5 6 
#
# 1 0.009103 -0.003756 -0.001516 -0.002165 0.001877 0.000823
# 2 -0.003756 0.009923 -0.001745 0.001930 -0.002623 0.003623
# 3 -0.001516 -0.001745 0.022723 -0.000363 0.007654 -0.000001
# 4 -0.002165 0.001930 -0.000363 0.027697 0.001089 -0.001114
# 5 0.001877 -0.002623 0.007654 0.001089 0.055909 -0.005741
# 6 0.000823 0.003623 -0.000001 -0.001114 -0.005741 0.022399
#
#
# Mechanical properties :
#
#
# Convention : Reuss Voigt Hill
#
# Bulk Modulus (GPa) = 36.08420 56.08373 46.08397
# Shear Modulus (GPa) = 29.23516 37.20566 33.22041
#
# Velocity S-wave (km/s) = 3.35949 3.78988 3.58115
# Velocity P-wave (km/s) = 5.38316 6.38764 5.90679
#
# Compressibility (1/GPa) = 0.02771296
#
# Stress axis : x y z
#
# Youngs Moduli (GPa) = 109.85951 100.77645 44.00841
#
# Poissons Ratio (x) = 0.37851 0.06673
# Poissons Ratio (y) = 0.41263 0.07681
# Poissons Ratio (z) = 0.16658 0.17590
#
# Static dielectric constant tensor:
#      x y z
#    x 4.579930 -0.274500 -0.144000 
#    y -0.274500 5.376690 0.106330 
#    z -0.144000 0.106330 4.361210 
# 
# 
# High freq. dielectric constant tensor:
#      x y z
#    x 2.025110 -0.018560 -0.000020 
#    y -0.018560 2.068820 -0.003180 
#    z -0.000020 -0.003180 2.021520 
# 
# From -- ./inp_files/77849.got.cif
#   From: 2010.06.25/outbox.cif.g09.slc.cpg/sg2_39_cif.got.tgz:77849.got - 2010.06.27 13:26:56.
