data_PCOD8013616
_publ_section_title
;
Structure prediction by ZEFSAII (Michael W. Deem and Ramdas Pophale) SiO2 
 PCOD8013616
Probable space group: P -1
;
_chemical_formula_sum "Si O2"
_cell_formula_units_Z 16
_cell_length_a 9.092161
_cell_length_b 12.334724
_cell_length_c 17.909572
_cell_angle_alpha 40.101533
_cell_angle_beta 128.885297
_cell_angle_gamma 97.217949
_cell_volume 712.146628
_symmetry_space_group_name_H-M "P -1"
_symmetry_group_IT_number 2
_symmetry_cell_setting 'triclinic'
loop_
_space_group_symop_operation_xyz
x,y,z
-x,-y,-z
loop_
_atom_site_type_symbol
_atom_site_label
_atom_site_fract_x
_atom_site_fract_y
_atom_site_fract_z
Si Si1 0.165848 0.485320 0.493620
Si Si2 0.650702 0.781368 0.109319
Si Si3 0.589092 0.468630 0.331966
Si Si4 0.941011 0.924366 0.693381
Si Si5 0.476461 0.769808 0.910247
Si Si6 0.997219 0.262033 0.028324
Si Si7 0.562144 0.873839 0.357241
Si Si8 0.050051 0.362903 0.260999
O O1 0.314956 0.552841 0.541184
O O2 0.376848 0.239888 0.645205
O O3 0.000000 0.500000 0.500000
O O4 0.950796 0.668535 0.264458
O O5 0.662872 0.578518 0.245106
O O6 0.513997 0.872894 0.937801
O O7 0.500000 0.000000 0.000000
O O8 0.739733 0.207369 0.488293
O O9 0.270880 0.653124 0.133448
O O10 0.967341 0.794197 0.843402
O O11 0.829697 0.875965 0.616969
O O12 0.240990 0.788354 0.839290
O O13 0.402035 0.945393 0.727767
O O14 0.757057 0.497788 0.128901
O O15 0.254996 0.017547 0.199277
O O16 0.982814 0.469467 0.898649
O O17 0.754731 0.694673 0.580746
#
# Coordination Sequence:
#
# PCOD8013616 Si02
#       8
#     2   2   2   2   2   2   2   2
#     4  10  21  40  70 100 136 176 218 282 350 407
#     4  11  20  40  71 101 138 175 223 282 348 409
#     4  11  24  42  69 104 135 180 233 281 339 413
#     4  12  25  45  72 103 139 181 239 286 343 414
#     4  11  22  41  70 104 136 175 231 289 347 404
#     4  11  26  46  70  97 143 187 236 278 342 420
#     4  11  24  46  68 103 142 181 230 285 347 413
#     4  11  26  46  69 100 142 189 226 291 348 404
#
# _framework density 22.467282000000001
#
# number of rings (size 3 to 8) (size 9 to 14) (size 15 to 20)
#    0.000    1.000    2.500    5.250    0.000    5.000 
#    0.000    2.500    0.000    0.000    0.000    0.000 
#    0.000    0.000    0.000    0.000    0.000    0.000 
#
# Total GULP energy -198298.426472 kJ/mol
# GULP energy per Si atom -12393.651655 kJ/mol
# Density = 2.241615 g / cm^3
# Si number density = 22.467282 Si / 1000 Ang^3
#
#
#
# Elastic Constant Matrix: (Units=GPa)
#
#
# Indices 1 2 3 4 5 6 
#
# 1 91.9610 34.8579 44.5230 -5.3489 13.2160 -18.0193
# 2 34.8579 135.2258 41.4916 -12.0399 10.3465 -13.8415
# 3 44.5230 41.4916 110.6428 -10.7309 15.7059 -0.5854
# 4 -5.3489 -12.0399 -10.7309 36.0275 3.0584 -2.2535
# 5 13.2160 10.3465 15.7059 3.0584 47.3248 -0.7905
# 6 -18.0193 -13.8415 -0.5854 -2.2535 -0.7905 1.3690
#
#
#
# Elastic Compliance Matrix: (Units=1/GPa)
#
#
# Indices 1 2 3 4 5 6 
#
# 1 0.001730 -0.006970 0.001102 -0.005242 0.000081 -0.055811
# 2 -0.006970 0.006910 0.000083 -0.000077 0.000047 -0.021941
# 3 0.001102 0.000083 0.009667 0.004969 -0.003427 0.025686
# 4 -0.005242 -0.000077 0.004969 0.027105 -0.002327 -0.024378
# 5 0.000081 0.000047 -0.003427 -0.002327 0.022540 0.009262
# 6 -0.055811 -0.021941 0.025686 -0.024378 0.009262 -0.249780
#
#
# Mechanical properties :
#
#
# Convention : Reuss Voigt Hill
#
# Bulk Modulus (GPa) = 148.39508 64.39719 106.39613
# Shear Modulus (GPa) = -29.75967 31.40806 0.82420
#
# Velocity S-wave (km/s) = -3.64342 3.74297 0.60633
# Velocity P-wave (km/s) = 6.96372 6.88510 6.92452
#
# Compressibility (1/GPa) = 0.00673877
#
# Stress axis : x y z
#
# Youngs Moduli (GPa) = 578.08353 144.71982 103.44006
#
# Poissons Ratio (x) = 1.00868 -0.11403
# Poissons Ratio (y) = 4.02917 -0.00861
# Poissons Ratio (z) = -0.63728 -0.01205
#
# Static dielectric constant tensor:
#      x y z
#    x 4.240400 -0.003580 -0.107700 
#    y -0.003580 4.124070 0.060100 
#    z -0.107700 0.060100 4.867580 
# 
# 
# High freq. dielectric constant tensor:
#      x y z
#    x 1.877250 -0.008230 0.008500 
#    y -0.008230 1.880640 0.003070 
#    z 0.008500 0.003070 1.901140 
# 
# From -- ./inp_files/559700.got.cif
#   From: 2010.06.25/outbox.cif.g09.slc.cpg/sg2_280_cif.got.tgz:559700.got - 2010.06.27 13:26:56.
