data_PCOD8013806
_publ_section_title
;
Structure prediction by ZEFSAII (Michael W. Deem and Ramdas Pophale) SiO2 
 PCOD8013806
Probable space group: P -1
;
_chemical_formula_sum "Si O2"
_cell_formula_units_Z 14
_cell_length_a 16.211367
_cell_length_b 12.192455
_cell_length_c 24.789482
_cell_angle_alpha 161.615582
_cell_angle_beta 153.721796
_cell_angle_gamma 27.954535
_cell_volume 665.467479
_symmetry_space_group_name_H-M "P -1"
_symmetry_group_IT_number 2
_symmetry_cell_setting 'triclinic'
loop_
_space_group_symop_operation_xyz
x,y,z
-x,-y,-z
loop_
_atom_site_type_symbol
_atom_site_label
_atom_site_fract_x
_atom_site_fract_y
_atom_site_fract_z
Si Si1 0.312442 0.180937 0.848032
Si Si2 0.117787 0.534640 0.002390
Si Si3 0.881213 0.288248 0.104826
Si Si4 0.083428 0.592573 0.458489
Si Si5 0.834169 0.110980 0.625343
Si Si6 0.715494 0.984657 0.609036
Si Si7 0.283989 0.103058 0.091347
O O1 0.225636 0.359037 0.824649
O O2 0.241499 0.816586 0.642819
O O3 0.544495 0.089617 0.937517
O O4 0.246027 0.460631 0.988559
O O5 0.243889 0.629967 0.169860
O O6 0.035413 0.183694 0.801367
O O7 0.932390 0.873827 0.047124
O O8 0.036216 0.392447 0.284607
O O9 0.716308 0.121840 0.958775
O O10 0.000000 0.000000 0.000000
O O11 0.157726 0.327541 0.427410
O O12 0.882801 0.847561 0.480145
O O13 0.699048 0.483373 0.697498
O O14 0.743806 0.928230 0.535310
O O15 0.500000 0.000000 0.500000
#
# Coordination Sequence:
#
# PCOD8013806 Si02
#       7
#     2   2   2   2   2   2   2
#     4  11  22  40  65  92 120 163 203 246 302 361
#     4   9  21  42  61  86 128 156 201 251 297 354
#     4  12  21  41  66  88 125 163 195 251 310 356
#     4  11  22  41  60  92 123 159 201 255 300 361
#     4   9  21  41  60  83 125 164 195 251 305 348
#     4  12  22  38  62  91 121 162 205 248 304 356
#     4  10  21  41  62  89 122 156 209 241 300 360
#
# _framework density 21.037842000000001
#
# number of rings (size 3 to 8) (size 9 to 14) (size 15 to 20)
#    0.857    0.571    2.857    2.571    0.000    1.143 
#    2.571    7.857    0.000    0.000    0.000    0.000 
#    0.000    0.000    0.000    0.000    0.000    0.000 
#
# Total GULP energy -173466.963734 kJ/mol
# GULP energy per Si atom -12390.497410 kJ/mol
# Density = 2.098996 g / cm^3
# Si number density = 21.037842 Si / 1000 Ang^3
#
#
#
# Elastic Constant Matrix: (Units=GPa)
#
#
# Indices 1 2 3 4 5 6 
#
# 1 141.5077 31.2768 38.5389 -0.0547 12.8205 -25.9278
# 2 31.2768 56.1089 17.4517 6.8117 6.6357 -24.6380
# 3 38.5389 17.4517 73.1339 3.6147 -3.0205 -7.5899
# 4 -0.0547 6.8117 3.6147 20.6453 3.3845 10.4108
# 5 12.8205 6.6357 -3.0205 3.3845 28.7268 5.3358
# 6 -25.9278 -24.6380 -7.5899 10.4108 5.3358 45.3307
#
#
#
# Elastic Compliance Matrix: (Units=1/GPa)
#
#
# Indices 1 2 3 4 5 6 
#
# 1 0.010043 -0.001221 -0.004690 -0.000375 -0.005585 0.005039
# 2 -0.001221 0.033151 -0.004363 -0.019864 -0.009365 0.022253
# 3 -0.004690 -0.004363 0.017210 -0.001209 0.005526 -0.002545
# 4 -0.000375 -0.019864 -0.001209 0.068639 0.001587 -0.027164
# 5 -0.005585 -0.009365 0.005526 0.001587 0.042218 -0.012693
# 6 0.005039 0.022253 -0.002545 -0.027164 -0.012693 0.044344
#
#
# Mechanical properties :
#
#
# Convention : Reuss Voigt Hill
#
# Bulk Modulus (GPa) = 25.09029 49.47612 37.28320
# Shear Modulus (GPa) = 20.04506 31.17275 25.60890
#
# Velocity S-wave (km/s) = 3.09011 3.85352 3.49274
# Velocity P-wave (km/s) = 4.96829 6.58546 5.83319
#
# Compressibility (1/GPa) = 0.03985606
#
# Stress axis : x y z
#
# Youngs Moduli (GPa) = 99.57104 30.16534 58.10578
#
# Poissons Ratio (x) = 0.03683 0.27253
# Poissons Ratio (y) = 0.12156 0.25350
# Poissons Ratio (z) = 0.46701 0.13161
#
# Static dielectric constant tensor:
#      x y z
#    x 4.433170 1.057530 0.586370 
#    y 1.057530 5.872460 1.090920 
#    z 0.586370 1.090920 4.070590 
# 
# 
# High freq. dielectric constant tensor:
#      x y z
#    x 1.836770 -0.006750 0.015150 
#    y -0.006750 1.806100 0.019780 
#    z 0.015150 0.019780 1.812580 
# 
# From -- ./inp_files/612018.got.cif
#   From: 2010.06.25/outbox.cif.g09.slc.cpg/sg2_307_cif.got.tgz:612018.got - 2010.06.27 13:26:56.
