data_PCOD8013531
_publ_section_title
;
Structure prediction by ZEFSAII (Michael W. Deem and Ramdas Pophale) SiO2 
 PCOD8013531
Probable space group: P -1
;
_chemical_formula_sum "Si O2"
_cell_formula_units_Z 12
_cell_length_a 11.764749
_cell_length_b 15.313910
_cell_length_c 9.822507
_cell_angle_alpha 138.660619
_cell_angle_beta 48.137300
_cell_angle_gamma 151.064509
_cell_volume 565.248550
_symmetry_space_group_name_H-M "P -1"
_symmetry_group_IT_number 2
_symmetry_cell_setting 'triclinic'
loop_
_space_group_symop_operation_xyz
x,y,z
-x,-y,-z
loop_
_atom_site_type_symbol
_atom_site_label
_atom_site_fract_x
_atom_site_fract_y
_atom_site_fract_z
Si Si1 0.904284 0.551774 0.044499
Si Si2 0.450062 0.392433 0.270193
Si Si3 0.935260 0.060771 0.916672
Si Si4 0.834501 0.018209 0.659611
Si Si5 0.083407 0.432683 0.265041
Si Si6 0.440934 0.318505 0.699931
O O1 0.629405 0.389484 0.103065
O O2 0.028828 0.765427 0.251660
O O3 0.959591 0.563510 0.854931
O O4 0.000000 0.500000 0.000000
O O5 0.500000 0.500000 0.500000
O O6 0.473187 0.508301 0.263622
O O7 0.193021 0.153675 0.171466
O O8 0.771781 0.991828 0.836899
O O9 0.205623 0.205523 0.834702
O O10 0.946588 0.208152 0.161865
O O11 0.606186 0.842303 0.543808
O O12 0.000000 0.000000 0.500000
O O13 0.361847 0.591230 0.244411
O O14 0.000000 0.500000 0.500000
#
# Coordination Sequence:
#
# PCOD8013531 Si02
#       6
#     2   2   2   2   2   2
#     4  11  25  44  68 101 141 174 229 285 333 409
#     4  12  22  39  75 107 125 173 235 278 336 407
#     4  10  21  40  68  98 132 174 224 273 338 402
#     4   9  16  39  66  93 128 175 216 269 333 394
#     4  11  26  46  64  93 143 186 216 277 353 391
#     4  11  21  43  70  96 137 170 225 290 327 401
#
# _framework density 21.229599
#
# number of rings (size 3 to 8) (size 9 to 14) (size 15 to 20)
#    0.000    1.333    6.667    1.500    2.333    2.000 
#    0.000    5.000    0.000    0.000    0.000    0.000 
#    0.000    0.000    0.000    0.000    0.000    0.000 
#
# Total GULP energy -148663.985903 kJ/mol
# GULP energy per Si atom -12388.665492 kJ/mol
# Density = 2.118128 g / cm^3
# Si number density = 21.229599 Si / 1000 Ang^3
#
#
#
# Elastic Constant Matrix: (Units=GPa)
#
#
# Indices 1 2 3 4 5 6 
#
# 1 116.8821 47.8935 40.4821 9.6996 -2.3374 -11.0700
# 2 47.8935 157.2797 60.8857 21.2336 -9.6228 -14.1547
# 3 40.4821 60.8857 135.0121 21.2764 -14.0634 -0.0400
# 4 9.6996 21.2336 21.2764 40.7868 -0.3119 4.2633
# 5 -2.3374 -9.6228 -14.0634 -0.3119 23.6921 8.7286
# 6 -11.0700 -14.1547 -0.0400 4.2633 8.7286 23.5794
#
#
#
# Elastic Compliance Matrix: (Units=1/GPa)
#
#
# Indices 1 2 3 4 5 6 
#
# 1 0.010713 -0.001887 -0.002563 -0.000796 -0.003159 0.005206
# 2 -0.001887 0.008978 -0.003005 -0.003201 -0.000274 0.005178
# 3 -0.002563 -0.003005 0.010665 -0.002823 0.006639 -0.004936
# 4 -0.000796 -0.003201 -0.002823 0.028631 0.000090 -0.007510
# 5 -0.003159 -0.000274 0.006639 0.000090 0.053653 -0.021514
# 6 0.005206 0.005178 -0.004936 -0.007510 -0.021514 0.057276
#
#
# Mechanical properties :
#
#
# Convention : Reuss Voigt Hill
#
# Bulk Modulus (GPa) = 64.74804 78.63292 71.69048
# Shear Modulus (GPa) = 26.31923 34.93917 30.62920
#
# Velocity S-wave (km/s) = 3.52482 4.06122 3.80249
# Velocity P-wave (km/s) = 6.86520 7.68837 7.28841
#
# Compressibility (1/GPa) = 0.01544448
#
# Stress axis : x y z
#
# Youngs Moduli (GPa) = 93.34821 111.38922 93.76078
#
# Poissons Ratio (x) = 0.21021 0.24031
# Poissons Ratio (y) = 0.17617 0.28178
# Poissons Ratio (z) = 0.23926 0.33476
#
# Static dielectric constant tensor:
#      x y z
#    x 3.814640 0.132990 0.318340 
#    y 0.132990 4.255510 0.531730 
#    z 0.318340 0.531730 4.304980 
# 
# 
# High freq. dielectric constant tensor:
#      x y z
#    x 1.814000 0.000190 0.011380 
#    y 0.000190 1.836270 0.025550 
#    z 0.011380 0.025550 1.836000 
# 
# From -- ./inp_files/265806.got.cif
#   From: 2010.06.25/outbox.cif.g09.slc.cpg/sg2_133_cif.got.tgz:265806.got - 2010.06.27 13:26:56.
