data_PCOD8013581
_publ_section_title
;
Structure prediction by ZEFSAII (Michael W. Deem and Ramdas Pophale) SiO2 
 PCOD8013581
Probable space group: P -1
;
_chemical_formula_sum "Si O2"
_cell_formula_units_Z 12
_cell_length_a 5.145931
_cell_length_b 9.674482
_cell_length_c 15.697499
_cell_angle_alpha 88.718632
_cell_angle_beta 120.227205
_cell_angle_gamma 109.825281
_cell_volume 624.539896
_symmetry_space_group_name_H-M "P -1"
_symmetry_group_IT_number 2
_symmetry_cell_setting 'triclinic'
loop_
_space_group_symop_operation_xyz
x,y,z
-x,-y,-z
loop_
_atom_site_type_symbol
_atom_site_label
_atom_site_fract_x
_atom_site_fract_y
_atom_site_fract_z
Si Si1 0.290509 0.971286 0.379588
Si Si2 0.166480 0.467982 0.110368
Si Si3 0.282333 0.630871 0.801414
Si Si4 0.827258 0.138459 0.339656
Si Si5 0.785707 0.592803 0.484904
Si Si6 0.231505 0.355460 0.704378
O O1 0.516906 0.011919 0.332985
O O2 0.070492 0.068981 0.342026
O O3 0.500000 0.000000 0.500000
O O4 0.066896 0.799215 0.331078
O O5 0.447222 0.625171 0.186537
O O6 0.899471 0.393717 0.138793
O O7 0.655429 0.647238 0.879746
O O8 0.000000 0.500000 0.000000
O O9 0.280173 0.780365 0.755677
O O10 0.113167 0.489818 0.711098
O O11 0.001837 0.249484 0.442594
O O12 0.500000 0.500000 0.500000
O O13 0.643918 0.624555 0.372474
O O14 0.000000 0.500000 0.500000
#
# Coordination Sequence:
#
# PCOD8013581 Si02
#       6
#     2   2   2   2   2   2
#     4  12  26  39  56  88 132 170 200 237 300 360
#     4  10  21  40  69  94 115 147 208 268 305 352
#     4  10  22  40  66  92 116 158 209 249 308 357
#     4  12  24  40  60  87 131 166 198 248 295 362
#     4  12  22  35  59  88 120 159 205 248 288 346
#     4  10  25  37  63  89 123 157 211 244 302 359
#
# _framework density 19.214144000000001
#
# number of rings (size 3 to 8) (size 9 to 14) (size 15 to 20)
#    1.000    0.000    3.333    4.000    2.333    0.000 
#    0.000    0.000    0.000    6.000    0.000    0.000 
#    0.000    0.000    0.000    0.000    0.000    0.000 
#
# Total GULP energy -148754.812066 kJ/mol
# GULP energy per Si atom -12396.234339 kJ/mol
# Density = 1.917041 g / cm^3
# Si number density = 19.214144 Si / 1000 Ang^3
#
#
#
# Elastic Constant Matrix: (Units=GPa)
#
#
# Indices 1 2 3 4 5 6 
#
# 1 133.9241 30.6730 48.1137 -20.3786 -3.6416 9.3103
# 2 30.6730 86.6720 38.3115 -18.0584 4.6103 14.3043
# 3 48.1137 38.3115 128.3144 -29.5113 9.9873 24.2996
# 4 -20.3786 -18.0584 -29.5113 28.4178 2.1119 -0.3838
# 5 -3.6416 4.6103 9.9873 2.1119 32.9628 -12.0371
# 6 9.3103 14.3043 24.2996 -0.3838 -12.0371 37.9695
#
#
#
# Elastic Compliance Matrix: (Units=1/GPa)
#
#
# Indices 1 2 3 4 5 6 
#
# 1 0.009230 -0.001820 -0.002675 0.002530 0.002240 0.000870
# 2 -0.001820 0.015494 -0.000267 0.008568 -0.005328 -0.006823
# 3 -0.002675 -0.000267 0.015271 0.014367 -0.010229 -0.012114
# 4 0.002530 0.008568 0.014367 0.058274 -0.015328 -0.017313
# 5 0.002240 -0.005328 -0.010229 -0.015328 0.043289 0.021573
# 6 0.000870 -0.006823 -0.012114 -0.017313 0.021573 0.043111
#
#
# Mechanical properties :
#
#
# Convention : Reuss Voigt Hill
#
# Bulk Modulus (GPa) = 32.81635 64.78966 48.80300
# Shear Modulus (GPa) = 24.46808 35.32418 29.89613
#
# Velocity S-wave (km/s) = 3.57240 4.29236 3.94882
# Velocity P-wave (km/s) = 5.84230 7.63929 6.80041
#
# Compressibility (1/GPa) = 0.03047262
#
# Stress axis : x y z
#
# Youngs Moduli (GPa) = 108.34120 64.54051 65.48528
#
# Poissons Ratio (x) = 0.11745 0.17516
# Poissons Ratio (y) = 0.19715 0.01745
# Poissons Ratio (z) = 0.28980 0.01720
#
# Static dielectric constant tensor:
#      x y z
#    x 4.088140 0.032620 -0.203990 
#    y 0.032620 3.487920 -0.174620 
#    z -0.203990 -0.174620 3.695130 
# 
# 
# High freq. dielectric constant tensor:
#      x y z
#    x 1.768780 0.002900 -0.006820 
#    y 0.002900 1.733650 -0.015800 
#    z -0.006820 -0.015800 1.732400 
# 
# From -- ./inp_files/87164.got.cif
#   From: 2010.06.25/outbox.cif.g09.slc.cpg/sg2_44_cif.got.tgz:87164.got - 2010.06.27 13:26:56.
