data_PCOD8013056
_publ_section_title
;
Structure prediction by ZEFSAII (Michael W. Deem and Ramdas Pophale) SiO2 
 PCOD8013056
Probable space group: P -1
;
_chemical_formula_sum "Si O2"
_cell_formula_units_Z 16
_cell_length_a 18.047422
_cell_length_b 6.317640
_cell_length_c 15.101297
_cell_angle_alpha 105.954187
_cell_angle_beta 150.052734
_cell_angle_gamma 65.821361
_cell_volume 771.924042
_symmetry_space_group_name_H-M "P -1"
_symmetry_group_IT_number 2
_symmetry_cell_setting 'triclinic'
loop_
_space_group_symop_operation_xyz
x,y,z
-x,-y,-z
loop_
_atom_site_type_symbol
_atom_site_label
_atom_site_fract_x
_atom_site_fract_y
_atom_site_fract_z
Si Si1 0.828405 0.649593 0.987822
Si Si2 0.049253 0.967361 0.791882
Si Si3 0.624450 0.759807 0.135781
Si Si4 0.866162 0.995215 0.429596
Si Si5 0.063683 0.127209 0.154169
Si Si6 0.435805 0.525799 0.811918
Si Si7 0.351443 0.608293 0.138294
Si Si8 0.667393 0.987655 0.702606
O O1 0.964712 0.403137 0.080419
O O2 0.909178 0.797019 0.147433
O O3 0.683594 0.620363 0.890764
O O4 0.756528 0.776428 0.836913
O O5 0.949147 0.932206 0.602555
O O6 0.942619 0.984652 0.770234
O O7 0.214089 0.748541 0.943221
O O8 0.797087 0.787303 0.310267
O O9 0.592709 0.696867 0.197067
O O10 0.594455 0.558347 0.021692
O O11 0.500000 0.000000 0.000000
O O12 0.722844 0.246130 0.314372
O O13 0.000000 0.000000 0.500000
O O14 0.244940 0.066171 0.307465
O O15 0.000000 0.000000 0.000000
O O16 0.479358 0.467796 0.746542
O O17 0.345497 0.766868 0.236714
O O18 0.500000 0.000000 0.500000
#
# Coordination Sequence:
#
# PCOD8013056 Si02
#       8
#     2   2   2   2   2   2   2   2
#     4  10  21  40  65  90 126 175 205 256 320 373
#     4  10  24  38  64  94 128 166 213 265 313 376
#     4   9  22  42  66  91 124 169 209 261 318 386
#     4  11  26  42  64 101 130 161 215 270 317 378
#     4  11  20  43  64  91 125 170 216 251 311 384
#     4  10  23  43  66  91 126 175 209 256 330 380
#     4  10  23  40  62  92 127 166 217 252 317 385
#     4  11  24  38  61  97 127 163 210 268 311 371
#
# _framework density 20.727426000000001
#
# number of rings (size 3 to 8) (size 9 to 14) (size 15 to 20)
#    0.000    1.750    3.750    0.375    7.000    9.000 
#    0.000    0.000    0.000    0.000    0.000    0.000 
#    0.000    0.000    0.000    0.000    0.000    0.000 
#
# Total GULP energy -198304.338162 kJ/mol
# GULP energy per Si atom -12394.021135 kJ/mol
# Density = 2.068025 g / cm^3
# Si number density = 20.727426 Si / 1000 Ang^3
#
#
#
# Elastic Constant Matrix: (Units=GPa)
#
#
# Indices 1 2 3 4 5 6 
#
# 1 162.4455 42.8715 36.8076 2.4737 24.5911 7.3293
# 2 42.8715 90.0776 25.4051 10.8545 10.2801 21.1036
# 3 36.8076 25.4051 112.2764 21.0219 7.2251 6.7330
# 4 2.4737 10.8545 21.0219 21.2987 0.0500 10.1376
# 5 24.5911 10.2801 7.2251 0.0500 37.1325 2.9923
# 6 7.3293 21.1036 6.7330 10.1376 2.9923 31.2850
#
#
#
# Elastic Compliance Matrix: (Units=1/GPa)
#
#
# Indices 1 2 3 4 5 6 
#
# 1 0.008039 -0.003121 -0.002193 0.002738 -0.004053 0.000194
# 2 -0.003121 0.015394 -0.001512 -0.001895 -0.001205 -0.008598
# 3 -0.002193 -0.001512 0.012156 -0.012401 -0.000720 0.003005
# 4 0.002738 -0.001895 -0.012401 0.069023 0.002587 -0.019308
# 5 -0.004053 -0.001205 -0.000720 0.002587 0.030231 -0.001812
# 6 0.000194 -0.008598 0.003005 -0.019308 -0.001812 0.043502
#
#
# Mechanical properties :
#
#
# Convention : Reuss Voigt Hill
#
# Bulk Modulus (GPa) = 45.58502 63.88534 54.73518
# Shear Modulus (GPa) = 25.08680 35.25758 30.17219
#
# Velocity S-wave (km/s) = 3.48274 4.12881 3.81946
# Velocity P-wave (km/s) = 6.18166 7.32243 6.77609
#
# Compressibility (1/GPa) = 0.02193703
#
# Stress axis : x y z
#
# Youngs Moduli (GPa) = 124.38633 64.96232 82.26624
#
# Poissons Ratio (x) = 0.20273 0.18041
# Poissons Ratio (y) = 0.38817 0.12440
# Poissons Ratio (z) = 0.27278 0.09823
#
# Static dielectric constant tensor:
#      x y z
#    x 3.283370 0.414000 0.124560 
#    y 0.414000 3.786840 0.199780 
#    z 0.124560 0.199780 3.782220 
# 
# 
# High freq. dielectric constant tensor:
#      x y z
#    x 1.820830 0.012130 0.006070 
#    y 0.012130 1.813300 0.005830 
#    z 0.006070 0.005830 1.800960 
# 
# From -- ./inp_files/107667.got.cif
#   From: 2010.06.25/outbox.cif.g09.slc.cpg/sg2_54_cif.got.tgz:107667.got - 2010.06.27 13:26:56.
