data_PCOD8013588
_publ_section_title
;
Structure prediction by ZEFSAII (Michael W. Deem and Ramdas Pophale) SiO2 
 PCOD8013588
Probable space group: P -1
;
_chemical_formula_sum "Si O2"
_cell_formula_units_Z 16
_cell_length_a 17.625286
_cell_length_b 8.048151
_cell_length_c 17.318336
_cell_angle_alpha 125.491026
_cell_angle_beta 157.487647
_cell_angle_gamma 57.072675
_cell_volume 765.634432
_symmetry_space_group_name_H-M "P -1"
_symmetry_group_IT_number 2
_symmetry_cell_setting 'triclinic'
loop_
_space_group_symop_operation_xyz
x,y,z
-x,-y,-z
loop_
_atom_site_type_symbol
_atom_site_label
_atom_site_fract_x
_atom_site_fract_y
_atom_site_fract_z
Si Si1 0.177251 0.498900 0.227595
Si Si2 0.166882 0.567518 0.411376
Si Si3 0.881131 0.984596 0.464470
Si Si4 0.478637 0.745502 0.328913
Si Si5 0.775994 0.438018 0.082517
Si Si6 0.853267 0.319000 0.291827
Si Si7 0.468614 0.792907 0.506978
Si Si8 0.535884 0.784345 0.015065
O O1 0.097289 0.533107 0.248348
O O2 0.321615 0.685519 0.398218
O O3 0.304606 0.285798 0.285127
O O4 0.000000 0.500000 0.000000
O O5 0.213286 0.802262 0.536830
O O6 0.354185 0.427734 0.572833
O O7 0.994840 0.508879 0.291395
O O8 0.703500 0.822446 0.247853
O O9 0.000000 0.000000 0.500000
O O10 0.031991 0.896911 0.646911
O O11 0.403067 0.738114 0.343673
O O12 0.559519 0.966402 0.442269
O O13 0.292270 0.711722 0.089428
O O14 0.776446 0.323974 0.133840
O O15 0.625777 0.631645 0.994420
O O16 0.000000 0.500000 0.500000
O O17 0.658687 0.320464 0.163144
O O18 0.500000 0.000000 0.000000
#
# Coordination Sequence:
#
# PCOD8013588 Si02
#       8
#     2   2   2   2   2   2   2   2
#     4  10  21  40  69  95 133 164 216 265 329 399
#     4  11  24  41  64  98 128 179 215 275 325 393
#     4  12  23  44  65  92 135 171 224 272 327 398
#     4  10  23  41  66  91 133 167 216 271 328 392
#     4  12  25  39  63  96 128 165 229 266 326 397
#     4  12  26  42  63  92 130 173 220 278 332 386
#     4   9  21  43  64  96 128 171 206 270 337 387
#     4  12  24  42  68  88 124 183 218 273 332 383
#
# _framework density 20.897701999999999
#
# number of rings (size 3 to 8) (size 9 to 14) (size 15 to 20)
#    0.000    1.000    3.750    1.875    1.750    4.000 
#    0.000    5.000    0.000    0.000    0.000    0.000 
#    0.000    0.000    0.000    0.000    0.000    0.000 
#
# Total GULP energy -198424.158017 kJ/mol
# GULP energy per Si atom -12401.509876 kJ/mol
# Density = 2.085014 g / cm^3
# Si number density = 20.897702 Si / 1000 Ang^3
#
#
#
# Elastic Constant Matrix: (Units=GPa)
#
#
# Indices 1 2 3 4 5 6 
#
# 1 74.7341 26.7043 23.7363 1.5052 1.9038 8.0505
# 2 26.7043 125.9357 25.2026 -7.4181 -4.9778 -2.4319
# 3 23.7363 25.2026 98.9632 6.6948 -8.2697 -3.4247
# 4 1.5052 -7.4181 6.6948 29.3827 7.9561 -4.3511
# 5 1.9038 -4.9778 -8.2697 7.9561 44.8204 -2.3365
# 6 8.0505 -2.4319 -3.4247 -4.3511 -2.3365 30.1888
#
#
#
# Elastic Compliance Matrix: (Units=1/GPa)
#
#
# Indices 1 2 3 4 5 6 
#
# 1 0.016143 -0.002986 -0.003359 -0.001126 -0.001709 -0.005221
# 2 -0.002986 0.009146 -0.001723 0.003018 0.000383 0.001802
# 3 -0.003359 -0.001723 0.011886 -0.003474 0.002856 0.001826
# 4 -0.001126 0.003018 -0.003474 0.038241 -0.006778 0.005136
# 5 -0.001709 0.000383 0.002856 -0.006778 0.024246 0.001710
# 6 -0.005221 0.001802 0.001826 0.005136 0.001710 0.035742
#
#
# Mechanical properties :
#
#
# Convention : Reuss Voigt Hill
#
# Bulk Modulus (GPa) = 47.52766 50.10215 48.81491
# Shear Modulus (GPa) = 31.53533 35.81102 33.67318
#
# Velocity S-wave (km/s) = 3.88884 4.14410 4.01850
# Velocity P-wave (km/s) = 6.55412 6.85019 6.70379
#
# Compressibility (1/GPa) = 0.02104038
#
# Stress axis : x y z
#
# Youngs Moduli (GPa) = 61.94607 109.33588 84.13215
#
# Poissons Ratio (x) = 0.32643 0.28260
# Poissons Ratio (y) = 0.18495 0.14495
# Poissons Ratio (z) = 0.20807 0.18837
#
# Static dielectric constant tensor:
#      x y z
#    x 3.901930 0.074720 -0.056350 
#    y 0.074720 4.006830 -0.215500 
#    z -0.056350 -0.215500 3.995820 
# 
# 
# High freq. dielectric constant tensor:
#      x y z
#    x 1.816940 0.008190 -0.002590 
#    y 0.008190 1.826870 -0.009420 
#    z -0.002590 -0.009420 1.823040 
# 
# From -- ./inp_files/358212.got.cif
#   From: 2010.06.25/outbox.cif.g09.slc.cpg/sg2_180_cif.got.tgz:358212.got - 2010.06.27 13:26:56.
