data_PCOD8013888
_publ_section_title
;
Structure prediction by ZEFSAII (Michael W. Deem and Ramdas Pophale) SiO2 
 PCOD8013888
Probable space group: P -1
;
_chemical_formula_sum "Si O2"
_cell_formula_units_Z 16
_cell_length_a 13.644399
_cell_length_b 11.549969
_cell_length_c 6.679568
_cell_angle_alpha 97.533943
_cell_angle_beta 129.605996
_cell_angle_gamma 84.591114
_cell_volume 803.930097
_symmetry_space_group_name_H-M "P -1"
_symmetry_group_IT_number 2
_symmetry_cell_setting 'triclinic'
loop_
_space_group_symop_operation_xyz
x,y,z
-x,-y,-z
loop_
_atom_site_type_symbol
_atom_site_label
_atom_site_fract_x
_atom_site_fract_y
_atom_site_fract_z
Si Si1 0.592477 0.593655 0.543908
Si Si2 0.458053 0.636104 0.008729
Si Si3 0.179931 0.410828 0.448300
Si Si4 0.004929 0.235636 0.950842
Si Si5 0.332201 0.272005 0.947050
Si Si6 0.842999 0.912893 0.203701
Si Si7 0.067090 0.859461 0.763255
Si Si8 0.838281 0.339292 0.426752
O O1 0.500000 0.500000 0.500000
O O2 0.499793 0.671474 0.297070
O O3 0.704968 0.543797 0.534257
O O4 0.665486 0.664348 0.822688
O O5 0.528481 0.721837 0.965707
O O6 0.500000 0.500000 0.000000
O O7 0.312172 0.662646 0.792372
O O8 0.229512 0.331723 0.678575
O O9 0.115237 0.526878 0.485997
O O10 0.075553 0.342453 0.172177
O O11 0.103660 0.167874 0.923348
O O12 0.883118 0.281086 0.679042
O O13 0.948721 0.147394 0.021096
O O14 0.291202 0.138830 0.907260
O O15 0.936396 0.910756 0.514669
O O16 0.824249 0.046128 0.131457
O O17 0.099998 0.730614 0.693927
#
# Coordination Sequence:
#
# PCOD8013888 Si02
#       8
#     2   2   2   2   2   2   2   2
#     4  11  19  33  59  84 116 160 194 239 287 346
#     4  11  21  38  57  89 120 160 203 239 292 363
#     4  11  21  36  56  95 123 149 196 241 306 363
#     4  11  22  38  61  91 120 159 196 250 301 358
#     4  11  20  36  64  89 117 155 202 252 290 351
#     4  10  21  41  63  88 114 158 214 241 296 349
#     4  10  23  40  61  85 122 163 196 252 293 355
#     4  11  23  39  56  90 130 155 195 238 312 364
#
# _framework density 19.902225999999999
#
# number of rings (size 3 to 8) (size 9 to 14) (size 15 to 20)
#    0.000    1.250    6.250    0.750    0.000    3.500 
#    0.000    0.625    0.000    1.500    0.000    0.000 
#    0.000    0.000    0.000    0.000    0.000    0.000 
#
# Total GULP energy -198319.573488 kJ/mol
# GULP energy per Si atom -12394.973343 kJ/mol
# Density = 1.985693 g / cm^3
# Si number density = 19.902226 Si / 1000 Ang^3
#
#
#
# Elastic Constant Matrix: (Units=GPa)
#
#
# Indices 1 2 3 4 5 6 
#
# 1 56.0558 18.3711 29.2004 -9.4501 -2.9380 22.2907
# 2 18.3711 69.0490 4.4401 5.1627 -4.8808 18.2865
# 3 29.2004 4.4401 99.8937 -5.5684 -7.6201 -1.4867
# 4 -9.4501 5.1627 -5.5684 22.6421 2.7653 1.9305
# 5 -2.9380 -4.8808 -7.6201 2.7653 29.5370 -4.7777
# 6 22.2907 18.2865 -1.4867 1.9305 -4.7777 36.3444
#
#
#
# Elastic Compliance Matrix: (Units=1/GPa)
#
#
# Indices 1 2 3 4 5 6 
#
# 1 0.035402 -0.004672 -0.009937 0.015784 -0.004726 -0.021228
# 2 -0.004672 0.017729 0.000347 -0.005713 0.002208 -0.005447
# 3 -0.009937 0.000347 0.013181 -0.002052 0.003805 0.007069
# 4 0.015784 -0.005713 -0.002052 0.053260 -0.006602 -0.010587
# 5 -0.004726 0.002208 0.003805 -0.006602 0.036497 0.007091
# 6 -0.021228 -0.005447 0.007069 -0.010587 0.007091 0.045058
#
#
# Mechanical properties :
#
#
# Convention : Reuss Voigt Hill
#
# Bulk Modulus (GPa) = 26.46487 36.55795 31.51141
# Shear Modulus (GPa) = 20.63996 29.23716 24.93856
#
# Velocity S-wave (km/s) = 3.22385 3.83696 3.54369
# Velocity P-wave (km/s) = 5.21382 6.16753 5.71062
#
# Compressibility (1/GPa) = 0.03778593
#
# Stress axis : x y z
#
# Youngs Moduli (GPa) = 28.24728 56.40489 75.86630
#
# Poissons Ratio (x) = 0.26354 0.75391
# Poissons Ratio (y) = 0.13198 -0.02630
# Poissons Ratio (z) = 0.28070 -0.01956
#
# Static dielectric constant tensor:
#      x y z
#    x 3.576380 0.257410 -0.147020 
#    y 0.257410 3.684740 0.117110 
#    z -0.147020 0.117110 3.941600 
# 
# 
# High freq. dielectric constant tensor:
#      x y z
#    x 1.765740 0.027300 -0.012910 
#    y 0.027300 1.753530 0.012080 
#    z -0.012910 0.012080 1.793870 
# 
# From -- ./inp_files/70695.got.cif
#   From: 2010.06.25/outbox.cif.g09.slc.cpg/sg2_36_cif.got.tgz:70695.got - 2010.06.27 13:26:56.
