data_PCOD8013543
_publ_section_title
;
Structure prediction by ZEFSAII (Michael W. Deem and Ramdas Pophale) SiO2 
 PCOD8013543
Probable space group: P -1
;
_chemical_formula_sum "Si O2"
_cell_formula_units_Z 16
_cell_length_a 8.056962
_cell_length_b 14.764748
_cell_length_c 14.433706
_cell_angle_alpha 150.370630
_cell_angle_beta 107.555449
_cell_angle_gamma 90.100511
_cell_volume 670.553160
_symmetry_space_group_name_H-M "P -1"
_symmetry_group_IT_number 2
_symmetry_cell_setting 'triclinic'
loop_
_space_group_symop_operation_xyz
x,y,z
-x,-y,-z
loop_
_atom_site_type_symbol
_atom_site_label
_atom_site_fract_x
_atom_site_fract_y
_atom_site_fract_z
Si Si1 0.502544 0.601291 0.492235
Si Si2 0.705986 0.308467 0.946845
Si Si3 0.235971 0.507684 0.691692
Si Si4 0.849370 0.648846 0.113627
Si Si5 0.247649 0.002416 0.576251
Si Si6 0.568127 0.041432 0.943252
Si Si7 0.144517 0.925194 0.693535
Si Si8 0.889882 0.676682 0.938883
O O1 0.500000 0.500000 0.500000
O O2 0.630242 0.558949 0.402562
O O3 0.265782 0.492556 0.317118
O O4 0.613723 0.864233 0.757104
O O5 0.666311 0.429531 0.131724
O O6 0.777971 0.442218 0.982659
O O7 0.880510 0.276191 0.990454
O O8 0.487300 0.070683 0.678652
O O9 0.994989 0.300260 0.472842
O O10 0.234206 0.706809 0.817860
O O11 0.739172 0.771101 0.237236
O O12 0.791087 0.567933 0.926001
O O13 0.106243 0.823056 0.313899
O O14 0.114294 0.881189 0.539358
O O15 0.387691 0.035490 0.850043
O O16 0.500000 0.000000 0.000000
O O17 0.081498 0.090255 0.861737
#
# Coordination Sequence:
#
# PCOD8013543 Si02
#       8
#     2   2   2   2   2   2   2   2
#     4  12  26  52  79 109 146 191 247 312 375 445
#     4  12  23  42  71 108 149 201 248 299 372 433
#     4  12  25  45  74 107 143 195 240 297 375 430
#     4  10  22  43  66 105 150 195 250 303 362 440
#     4  10  21  40  68  99 148 197 244 303 361 434
#     4  12  25  50  76 103 146 187 244 312 373 439
#     4  11  23  46  68 106 149 192 245 302 368 441
#     4  11  25  46  71 109 155 194 250 314 364 442
#
# _framework density 23.860899
#
# number of rings (size 3 to 8) (size 9 to 14) (size 15 to 20)
#    0.000    0.750    5.000    2.250    1.750    1.000 
#    2.250    1.250    0.000    0.000    0.000    0.000 
#    0.000    0.000    0.000    0.000    0.000    0.000 
#
# Total GULP energy -198429.432022 kJ/mol
# GULP energy per Si atom -12401.839501 kJ/mol
# Density = 2.380659 g / cm^3
# Si number density = 23.860899 Si / 1000 Ang^3
#
#
#
# Elastic Constant Matrix: (Units=GPa)
#
#
# Indices 1 2 3 4 5 6 
#
# 1 92.3653 21.2279 34.9468 11.8123 -7.0587 -13.1725
# 2 21.2279 108.9863 46.8519 14.1847 -16.1142 -5.7688
# 3 34.9468 46.8519 99.5508 16.7626 -11.5800 7.5822
# 4 11.8123 14.1847 16.7626 50.5687 -0.5317 0.9651
# 5 -7.0587 -16.1142 -11.5800 -0.5317 36.3776 1.0093
# 6 -13.1725 -5.7688 7.5822 0.9651 1.0093 24.5287
#
#
#
# Elastic Compliance Matrix: (Units=1/GPa)
#
#
# Indices 1 2 3 4 5 6 
#
# 1 0.014546 0.000491 -0.005658 -0.001835 0.000943 0.009710
# 2 0.000491 0.012585 -0.005739 -0.001798 0.003681 0.004917
# 3 -0.005658 -0.005739 0.016005 -0.002178 0.001681 -0.009319
# 4 -0.001835 -0.001798 -0.002178 0.021443 -0.001490 -0.001518
# 5 0.000943 0.003681 0.001681 -0.001490 0.029825 -0.000316
# 6 0.009710 0.004917 -0.009319 -0.001518 -0.000316 0.050093
#
#
# Mechanical properties :
#
#
# Convention : Reuss Voigt Hill
#
# Bulk Modulus (GPa) = 46.89633 56.32838 51.61235
# Shear Modulus (GPa) = 28.83212 35.48672 32.15942
#
# Velocity S-wave (km/s) = 3.47989 3.86065 3.67521
# Velocity P-wave (km/s) = 5.98690 6.59781 6.29976
#
# Compressibility (1/GPa) = 0.02132363
#
# Stress axis : x y z
#
# Youngs Moduli (GPa) = 68.74744 79.45678 62.48162
#
# Poissons Ratio (x) = -0.03905 0.35355
# Poissons Ratio (y) = -0.03379 0.35860
# Poissons Ratio (z) = 0.38900 0.45603
#
# Static dielectric constant tensor:
#      x y z
#    x 4.178550 -0.139240 -0.028930 
#    y -0.139240 3.303900 0.178640 
#    z -0.028930 0.178640 4.315800 
# 
# 
# High freq. dielectric constant tensor:
#      x y z
#    x 1.938380 0.002480 -0.005920 
#    y 0.002480 1.952010 -0.001420 
#    z -0.005920 -0.001420 1.946790 
# 
# From -- ./inp_files/505939.got.cif
#   From: 2010.06.25/outbox.cif.g09.slc.cpg/sg2_253_cif.got.tgz:505939.got - 2010.06.27 13:26:56.
