data_PCOD8013053
_publ_section_title
;
Structure prediction by ZEFSAII (Michael W. Deem and Ramdas Pophale) SiO2 
 PCOD8013053
Probable space group: P -1
;
_chemical_formula_sum "Si O2"
_cell_formula_units_Z 16
_cell_length_a 14.960828
_cell_length_b 14.972283
_cell_length_c 9.754471
_cell_angle_alpha 79.219999
_cell_angle_beta 105.061713
_cell_angle_gamma 33.739649
_cell_volume 772.959331
_symmetry_space_group_name_H-M "P -1"
_symmetry_group_IT_number 2
_symmetry_cell_setting 'triclinic'
loop_
_space_group_symop_operation_xyz
x,y,z
-x,-y,-z
loop_
_atom_site_type_symbol
_atom_site_label
_atom_site_fract_x
_atom_site_fract_y
_atom_site_fract_z
Si Si1 0.792635 0.632355 0.204236
Si Si2 0.047187 0.651321 0.252763
Si Si3 0.233840 0.791409 0.468315
Si Si4 0.432487 0.805343 0.039672
Si Si5 0.183851 0.267505 0.060901
Si Si6 0.683637 0.252584 0.176783
Si Si7 0.467190 0.392344 0.588909
Si Si8 0.712978 0.748381 0.434286
O O1 0.686349 0.627494 0.160133
O O2 0.696299 0.774759 0.257166
O O3 0.096757 0.350500 0.399212
O O4 0.700297 0.778065 0.001258
O O5 0.248852 0.548432 0.362598
O O6 0.167110 0.460317 0.439792
O O7 0.969629 0.682165 0.063268
O O8 0.798436 0.915802 0.148671
O O9 0.293703 0.782909 0.640859
O O10 0.375658 0.566704 0.577244
O O11 0.309954 0.788964 0.375346
O O12 0.942538 0.040062 0.268606
O O13 0.435641 0.762146 0.207718
O O14 0.422520 0.741071 0.934766
O O15 0.436328 0.007652 0.317110
O O16 0.000000 0.500000 0.000000
O O17 0.500000 0.500000 0.000000
#
# Coordination Sequence:
#
# PCOD8013053 Si02
#       8
#     2   2   2   2   2   2   2   2
#     4  10  22  36  65  93 121 166 215 260 308 376
#     4  11  22  39  66  93 127 166 218 262 310 381
#     4  10  24  42  64  94 127 166 213 266 333 379
#     4  12  23  39  68  98 127 169 223 263 315 389
#     4  11  24  41  62  93 135 168 207 262 326 380
#     4  11  23  43  65  94 132 166 207 270 328 383
#     4  11  22  41  66  95 125 166 217 270 316 382
#     4  10  21  40  65  90 123 164 214 261 308 371
#
# _framework density 20.699665
#
# number of rings (size 3 to 8) (size 9 to 14) (size 15 to 20)
#    0.000    1.250    5.000    0.375    3.500    4.500 
#    0.000    2.500    0.000    0.000    0.000    0.000 
#    0.000    0.000    0.000    0.000    0.000    0.000 
#
# Total GULP energy -198316.335518 kJ/mol
# GULP energy per Si atom -12394.770970 kJ/mol
# Density = 2.065255 g / cm^3
# Si number density = 20.699665 Si / 1000 Ang^3
#
#
#
# Elastic Constant Matrix: (Units=GPa)
#
#
# Indices 1 2 3 4 5 6 
#
# 1 122.2090 41.4331 48.3715 5.9907 25.2827 3.3113
# 2 41.4331 103.4439 43.5987 -18.1308 15.5420 11.7426
# 3 48.3715 43.5987 94.5498 -13.9228 15.3538 2.7112
# 4 5.9907 -18.1308 -13.9228 33.5874 7.8511 1.5705
# 5 25.2827 15.5420 15.3538 7.8511 43.3785 4.7980
# 6 3.3113 11.7426 2.7112 1.5705 4.7980 34.6582
#
#
#
# Elastic Compliance Matrix: (Units=1/GPa)
#
#
# Indices 1 2 3 4 5 6 
#
# 1 0.012204 -0.003346 -0.004978 -0.005323 -0.003305 0.001056
# 2 -0.003346 0.014790 -0.003260 0.008180 -0.003193 -0.004365
# 3 -0.004978 -0.003260 0.016012 0.006401 -0.002804 0.000426
# 4 -0.005323 0.008180 0.006401 0.040045 -0.008972 -0.003336
# 5 -0.003305 -0.003193 -0.002804 -0.008972 0.028959 -0.001986
# 6 0.001056 -0.004365 0.000426 -0.003336 -0.001986 0.030624
#
#
# Mechanical properties :
#
#
# Convention : Reuss Voigt Hill
#
# Bulk Modulus (GPa) = 50.40888 65.22327 57.81607
# Shear Modulus (GPa) = 28.99999 34.77814 31.88906
#
# Velocity S-wave (km/s) = 3.74704 4.10339 3.92925
# Velocity P-wave (km/s) = 6.56702 7.35038 6.96972
#
# Compressibility (1/GPa) = 0.01983777
#
# Stress axis : x y z
#
# Youngs Moduli (GPa) = 81.94337 67.61210 62.45357
#
# Poissons Ratio (x) = 0.22625 0.31087
# Poissons Ratio (y) = 0.27421 0.20360
# Poissons Ratio (z) = 0.40789 0.22042
#
# Static dielectric constant tensor:
#      x y z
#    x 3.806980 0.030430 0.291750 
#    y 0.030430 3.719110 -0.025640 
#    z 0.291750 -0.025640 4.019250 
# 
# 
# High freq. dielectric constant tensor:
#      x y z
#    x 1.805330 0.005690 0.015420 
#    y 0.005690 1.798690 -0.008860 
#    z 0.015420 -0.008860 1.822910 
# 
# From -- ./inp_files/315116.got.cif
#   From: 2010.06.25/outbox.cif.g09.slc.cpg/sg2_158_cif.got.tgz:315116.got - 2010.06.27 13:26:56.
