data_PCOD8013956
_publ_section_title
;
Structure prediction by ZEFSAII (Michael W. Deem and Ramdas Pophale) SiO2 
 PCOD8013956
Probable space group: P -1
;
_chemical_formula_sum "Si O2"
_cell_formula_units_Z 16
_cell_length_a 5.617046
_cell_length_b 18.877724
_cell_length_c 8.395364
_cell_angle_alpha 100.145675
_cell_angle_beta 59.003183
_cell_angle_gamma 79.553841
_cell_volume 711.054109
_symmetry_space_group_name_H-M "P -1"
_symmetry_group_IT_number 2
_symmetry_cell_setting 'triclinic'
loop_
_space_group_symop_operation_xyz
x,y,z
-x,-y,-z
loop_
_atom_site_type_symbol
_atom_site_label
_atom_site_fract_x
_atom_site_fract_y
_atom_site_fract_z
Si Si1 0.692492 0.153473 0.806256
Si Si2 0.764640 0.802395 0.442455
Si Si3 0.335065 0.301245 0.838846
Si Si4 0.207342 0.977957 0.076718
Si Si5 0.815929 0.552694 0.450524
Si Si6 0.097660 0.666391 0.451444
Si Si7 0.335670 0.938564 0.524219
Si Si8 0.825188 0.403266 0.259833
O O1 0.472892 0.239869 0.907347
O O2 0.688896 0.113226 0.962679
O O3 0.605270 0.102218 0.682505
O O4 0.020232 0.153014 0.670029
O O5 0.753186 0.739835 0.294409
O O6 0.457010 0.871160 0.590794
O O7 0.888602 0.754657 0.541571
O O8 0.569198 0.341807 0.714985
O O9 0.042917 0.363364 0.028279
O O10 0.007820 0.021393 0.310301
O O11 0.500000 0.000000 0.000000
O O12 0.000000 0.000000 0.000000
O O13 0.789513 0.493603 0.300114
O O14 0.500252 0.601784 0.652899
O O15 0.000000 0.500000 0.500000
O O16 0.979460 0.611349 0.355511
O O17 0.058819 0.639591 0.631430
O O18 0.500000 0.000000 0.500000
#
# Coordination Sequence:
#
# PCOD8013956 Si02
#       8
#     2   2   2   2   2   2   2   2
#     4  10  23  44  64  91 128 174 223 265 339 405
#     4  10  22  40  67  91 126 173 227 266 329 402
#     4  10  23  41  65  93 131 173 219 273 329 399
#     4  12  27  42  65 103 136 164 226 291 342 403
#     4   9  20  39  65  94 130 167 215 266 330 393
#     4  10  21  41  63  97 130 166 222 272 325 403
#     4  11  22  43  73  88 126 183 221 271 336 406
#     4  10  21  41  65  93 131 173 212 272 327 391
#
# _framework density 22.501804
#
# number of rings (size 3 to 8) (size 9 to 14) (size 15 to 20)
#    0.000    1.750    1.250    1.875    3.500    5.500 
#    6.750    8.750    0.000    0.000    0.000    0.000 
#    0.000    0.000    0.000    0.000    0.000    0.000 
#
# Total GULP energy -198247.293987 kJ/mol
# GULP energy per Si atom -12390.455874 kJ/mol
# Density = 2.245059 g / cm^3
# Si number density = 22.501804 Si / 1000 Ang^3
#
#
#
# Elastic Constant Matrix: (Units=GPa)
#
#
# Indices 1 2 3 4 5 6 
#
# 1 108.6775 34.4023 20.3819 -4.4167 -21.7702 20.5741
# 2 34.4023 108.3301 27.4567 -11.8399 -14.5579 14.2715
# 3 20.3819 27.4567 67.4234 10.9473 -22.1918 13.3255
# 4 -4.4167 -11.8399 10.9473 37.9791 -9.1441 -3.9272
# 5 -21.7702 -14.5579 -22.1918 -9.1441 27.5233 -4.9024
# 6 20.5741 14.2715 13.3255 -3.9272 -4.9024 50.2418
#
#
#
# Elastic Compliance Matrix: (Units=1/GPa)
#
#
# Indices 1 2 3 4 5 6 
#
# 1 0.012400 -0.002057 0.000423 0.002553 0.009285 -0.003500
# 2 -0.002057 0.011990 -0.003920 0.005311 0.003177 -0.000799
# 3 0.000423 -0.003920 0.022506 -0.004671 0.014141 -0.004014
# 4 0.002553 0.005311 -0.004671 0.032875 0.012424 0.002467
# 5 0.009285 0.003177 0.014141 0.012424 0.060607 -0.001570
# 6 -0.003500 -0.000799 -0.004014 0.002467 -0.001570 0.022668
#
#
# Mechanical properties :
#
#
# Convention : Reuss Voigt Hill
#
# Bulk Modulus (GPa) = 27.94226 49.87921 38.91074
# Shear Modulus (GPa) = 26.86944 36.62816 31.74880
#
# Velocity S-wave (km/s) = 3.45933 4.03896 3.76033
# Velocity P-wave (km/s) = 5.32923 6.63067 6.01525
#
# Compressibility (1/GPa) = 0.03578808
#
# Stress axis : x y z
#
# Youngs Moduli (GPa) = 80.64650 83.40022 44.43224
#
# Poissons Ratio (x) = 0.17156 -0.01878
# Poissons Ratio (y) = 0.16589 0.17417
# Poissons Ratio (z) = -0.03409 0.32692
#
# Static dielectric constant tensor:
#      x y z
#    x 4.423430 0.025550 -0.105680 
#    y 0.025550 4.950530 -0.035660 
#    z -0.105680 -0.035660 3.688930 
# 
# 
# High freq. dielectric constant tensor:
#      x y z
#    x 1.906090 -0.009230 -0.018380 
#    y -0.009230 1.914700 -0.005060 
#    z -0.018380 -0.005060 1.837050 
# 
# From -- ./inp_files/122664.got.cif
#   From: 2010.06.25/outbox.cif.g09.slc.cpg/sg2_62_cif.got.tgz:122664.got - 2010.06.27 13:26:56.
