data_PCOD8013324
_publ_section_title
;
Structure prediction by ZEFSAII (Michael W. Deem and Ramdas Pophale) SiO2 
 PCOD8013324
Probable space group: P -1
;
_chemical_formula_sum "Si O2"
_cell_formula_units_Z 16
_cell_length_a 9.011564
_cell_length_b 17.755158
_cell_length_c 11.929115
_cell_angle_alpha 42.702633
_cell_angle_beta 94.584617
_cell_angle_gamma 128.238505
_cell_volume 722.247754
_symmetry_space_group_name_H-M "P -1"
_symmetry_group_IT_number 2
_symmetry_cell_setting 'triclinic'
loop_
_space_group_symop_operation_xyz
x,y,z
-x,-y,-z
loop_
_atom_site_type_symbol
_atom_site_label
_atom_site_fract_x
_atom_site_fract_y
_atom_site_fract_z
Si Si1 0.128748 0.956559 0.045417
Si Si2 0.352228 0.845529 0.487111
Si Si3 0.086993 0.272651 0.158754
Si Si4 0.267959 0.667910 0.260672
Si Si5 0.872031 0.626556 0.560493
Si Si6 0.450920 0.118053 0.329666
Si Si7 0.163437 0.838956 0.960780
Si Si8 0.425057 0.568821 0.037633
O O1 0.009749 0.810748 0.299783
O O2 0.044502 0.841257 0.051771
O O3 0.450715 0.154336 0.850517
O O4 0.000000 0.000000 0.000000
O O5 0.324695 0.756694 0.696351
O O6 0.078114 0.681855 0.584983
O O7 0.469691 0.037152 0.324136
O O8 0.571437 0.934783 0.315240
O O9 0.193048 0.429619 0.081559
O O10 0.048064 0.298992 0.003168
O O11 0.309587 0.316670 0.122037
O O12 0.826788 0.055233 0.431294
O O13 0.284385 0.559790 0.318402
O O14 0.000000 0.500000 0.500000
O O15 0.242926 0.763494 0.082125
O O16 0.670562 0.553841 0.720473
O O17 0.502055 0.261410 0.108555
#
# Coordination Sequence:
#
# PCOD8013324 Si02
#       8
#     2   2   2   2   2   2   2   2
#     4  12  29  50  71 103 147 186 233 299 359 417
#     4  10  21  40  67 100 134 178 227 286 339 413
#     4  10  24  43  64 101 138 182 226 285 341 425
#     4  12  25  45  77 102 138 188 240 300 344 417
#     4  12  25  43  71 102 141 181 236 287 353 415
#     4  10  21  41  64  96 141 179 227 281 345 405
#     4  11  23  47  72  99 139 181 241 282 352 415
#     4  11  24  41  66 101 142 181 227 277 353 420
#
# _framework density 22.153063
#
# number of rings (size 3 to 8) (size 9 to 14) (size 15 to 20)
#    0.000    1.000    3.750    2.250    3.500    2.000 
#    9.000    0.000    0.000    0.000    0.000    0.000 
#    0.000    0.000    0.000    0.000    0.000    0.000 
#
# Total GULP energy -198280.526017 kJ/mol
# GULP energy per Si atom -12392.532876 kJ/mol
# Density = 2.210264 g / cm^3
# Si number density = 22.153063 Si / 1000 Ang^3
#
#
#
# Elastic Constant Matrix: (Units=GPa)
#
#
# Indices 1 2 3 4 5 6 
#
# 1 78.1417 29.0542 41.0066 3.4534 0.1873 -5.7197
# 2 29.0542 106.8029 37.0143 11.7962 -4.9531 2.4474
# 3 41.0066 37.0143 87.3630 4.9507 -7.1714 -0.8652
# 4 3.4534 11.7962 4.9507 22.4562 -6.9325 -7.6429
# 5 0.1873 -4.9531 -7.1714 -6.9325 32.5771 1.1751
# 6 -5.7197 2.4474 -0.8652 -7.6429 1.1751 33.6619
#
#
#
# Elastic Compliance Matrix: (Units=1/GPa)
#
#
# Indices 1 2 3 4 5 6 
#
# 1 0.017886 -0.002510 -0.007511 0.000681 -0.002111 0.003257
# 2 -0.002510 0.012032 -0.003612 -0.006133 -0.000156 -0.002781
# 3 -0.007511 -0.003612 0.016754 0.000131 0.003234 -0.000666
# 4 0.000681 -0.006133 0.000131 0.055151 0.010370 0.012725
# 5 -0.002111 -0.000156 0.003234 0.010370 0.033570 0.000918
# 6 0.003257 -0.002781 -0.000666 0.012725 0.000918 0.033303
#
#
# Mechanical properties :
#
#
# Convention : Reuss Voigt Hill
#
# Bulk Modulus (GPa) = 51.53562 54.05087 52.79325
# Shear Modulus (GPa) = 24.69978 28.75452 26.72715
#
# Velocity S-wave (km/s) = 3.34272 3.60668 3.47721
# Velocity P-wave (km/s) = 6.18161 6.46498 6.32488
#
# Compressibility (1/GPa) = 0.01940405
#
# Stress axis : x y z
#
# Youngs Moduli (GPa) = 55.91083 83.11468 59.68690
#
# Poissons Ratio (x) = 0.20862 0.44833
# Poissons Ratio (y) = 0.14034 0.21560
# Poissons Ratio (z) = 0.41996 0.30023
#
# Static dielectric constant tensor:
#      x y z
#    x 3.920930 -0.012270 -0.172660 
#    y -0.012270 4.269180 0.129140 
#    z -0.172660 0.129140 4.074780 
# 
# 
# High freq. dielectric constant tensor:
#      x y z
#    x 1.865030 -0.004620 -0.017810 
#    y -0.004620 1.880940 0.006680 
#    z -0.017810 0.006680 1.874000 
# 
# From -- ./inp_files/70836.got.cif
#   From: 2010.06.25/outbox.cif.g09.slc.cpg/sg2_36_cif.got.tgz:70836.got - 2010.06.27 13:26:56.
