data_PCOD8013526
_publ_section_title
;
Structure prediction by ZEFSAII (Michael W. Deem and Ramdas Pophale) SiO2 
 PCOD8013526
Probable space group: P -1
;
_chemical_formula_sum "Si O2"
_cell_formula_units_Z 16
_cell_length_a 15.207263
_cell_length_b 9.984586
_cell_length_c 8.214379
_cell_angle_alpha 96.820483
_cell_angle_beta 104.280066
_cell_angle_gamma 35.962592
_cell_volume 702.621869
_symmetry_space_group_name_H-M "P -1"
_symmetry_group_IT_number 2
_symmetry_cell_setting 'triclinic'
loop_
_space_group_symop_operation_xyz
x,y,z
-x,-y,-z
loop_
_atom_site_type_symbol
_atom_site_label
_atom_site_fract_x
_atom_site_fract_y
_atom_site_fract_z
Si Si1 0.309426 0.129129 0.963388
Si Si2 0.736087 0.032248 0.839540
Si Si3 0.824572 0.213001 0.891027
Si Si4 0.210985 0.347407 0.624080
Si Si5 0.419541 0.319477 0.568351
Si Si6 0.872048 0.833064 0.546935
Si Si7 0.399410 0.284989 0.173448
Si Si8 0.831443 0.169983 0.509741
O O1 0.208097 0.333514 0.815681
O O2 0.453551 0.885166 0.903233
O O3 0.348149 0.189943 0.132191
O O4 0.219485 0.114369 0.007089
O O5 0.731725 0.194254 0.915924
O O6 0.578145 0.172457 0.703300
O O7 0.873979 0.855124 0.744965
O O8 0.729677 0.462103 0.931979
O O9 0.827131 0.211424 0.700293
O O10 0.000000 0.000000 0.000000
O O11 0.355819 0.258637 0.611917
O O12 0.231047 0.173532 0.535916
O O13 0.048364 0.606852 0.530745
O O14 0.438628 0.278260 0.376591
O O15 0.299444 0.582979 0.601011
O O16 0.796611 0.052408 0.451450
O O17 0.000000 0.000000 0.500000
#
# Coordination Sequence:
#
# PCOD8013526 Si02
#       8
#     2   2   2   2   2   2   2   2
#     4  11  24  40  63  98 130 174 216 263 321 385
#     4  11  25  43  64  97 128 174 215 269 327 379
#     4  10  25  44  65  93 134 171 211 271 331 387
#     4  11  23  40  66  94 132 172 213 270 317 389
#     4  11  22  42  70  94 130 168 218 273 318 386
#     4  10  23  41  62  97 131 168 217 263 328 382
#     4  10  23  41  66  98 130 171 215 264 329 380
#     4  10  21  40  68  98 123 170 217 266 324 384
#
# _framework density 22.771851000000002
#
# number of rings (size 3 to 8) (size 9 to 14) (size 15 to 20)
#    0.000    1.500    1.250    3.000    3.500   10.000 
#    2.250    0.000    0.000    0.000    0.000    0.000 
#    0.000    0.000    0.000    0.000    0.000    0.000 
#
# Total GULP energy -198329.405532 kJ/mol
# GULP energy per Si atom -12395.587846 kJ/mol
# Density = 2.272002 g / cm^3
# Si number density = 22.771851 Si / 1000 Ang^3
#
#
#
# Elastic Constant Matrix: (Units=GPa)
#
#
# Indices 1 2 3 4 5 6 
#
# 1 138.3783 46.1012 27.5660 5.0786 -1.7451 26.3628
# 2 46.1012 116.8309 23.0079 7.7333 16.1195 20.9027
# 3 27.5660 23.0079 55.4218 -8.1699 5.7029 15.2703
# 4 5.0786 7.7333 -8.1699 27.4142 -4.4433 2.4718
# 5 -1.7451 16.1195 5.7029 -4.4433 31.8636 -7.9002
# 6 26.3628 20.9027 15.2703 2.4718 -7.9002 30.7353
#
#
#
# Elastic Compliance Matrix: (Units=1/GPa)
#
#
# Indices 1 2 3 4 5 6 
#
# 1 0.009552 -0.002383 -0.002682 -0.001322 0.000802 -0.004928
# 2 -0.002383 0.012704 -0.001733 -0.004389 -0.008752 -0.007632
# 3 -0.002682 -0.001733 0.024908 0.008544 -0.005248 -0.010933
# 4 -0.001322 -0.004389 0.008544 0.041646 0.005943 -0.001947
# 5 0.000802 -0.008752 -0.005248 0.005943 0.042142 0.018225
# 6 -0.004928 -0.007632 -0.010933 -0.001947 0.018225 0.052226
#
#
# Mechanical properties :
#
#
# Convention : Reuss Voigt Hill
#
# Bulk Modulus (GPa) = 29.78765 55.99791 42.89278
# Shear Modulus (GPa) = 24.04285 32.26636 28.15460
#
# Velocity S-wave (km/s) = 3.25285 3.76831 3.52003
# Velocity P-wave (km/s) = 5.21703 6.60135 5.94959
#
# Compressibility (1/GPa) = 0.03357096
#
# Stress axis : x y z
#
# Youngs Moduli (GPa) = 104.69012 78.71379 40.14731
#
# Poissons Ratio (x) = 0.18754 0.10766
# Poissons Ratio (y) = 0.24943 0.06956
# Poissons Ratio (z) = 0.28074 0.13638
#
# Static dielectric constant tensor:
#      x y z
#    x 4.189560 0.297520 -0.037520 
#    y 0.297520 4.332070 0.072650 
#    z -0.037520 0.072650 3.936840 
# 
# 
# High freq. dielectric constant tensor:
#      x y z
#    x 1.901490 0.013330 -0.003880 
#    y 0.013330 1.914480 0.003840 
#    z -0.003880 0.003840 1.882340 
# 
# From -- ./inp_files/298884.got.cif
#   From: 2010.06.25/outbox.cif.g09.slc.cpg/sg2_150_cif.got.tgz:298884.got - 2010.06.27 13:26:56.
