data_PCOD8013755
_publ_section_title
;
Structure prediction by ZEFSAII (Michael W. Deem and Ramdas Pophale) SiO2 
 PCOD8013755
Probable space group: P -1
;
_chemical_formula_sum "Si O2"
_cell_formula_units_Z 16
_cell_length_a 9.371779
_cell_length_b 11.425104
_cell_length_c 8.780449
_cell_angle_alpha 94.518261
_cell_angle_beta 106.555693
_cell_angle_gamma 114.171399
_cell_volume 801.368900
_symmetry_space_group_name_H-M "P -1"
_symmetry_group_IT_number 2
_symmetry_cell_setting 'triclinic'
loop_
_space_group_symop_operation_xyz
x,y,z
-x,-y,-z
loop_
_atom_site_type_symbol
_atom_site_label
_atom_site_fract_x
_atom_site_fract_y
_atom_site_fract_z
Si Si1 0.849427 0.419255 0.564019
Si Si2 0.029350 0.047888 0.791754
Si Si3 0.256216 0.170342 0.148519
Si Si4 0.375485 0.733161 0.776083
Si Si5 0.170280 0.384973 0.180461
Si Si6 0.682645 0.512937 0.083777
Si Si7 0.102074 0.815827 0.744762
Si Si8 0.956418 0.725526 0.372834
O O1 0.680478 0.339505 0.410446
O O2 0.803870 0.501281 0.681048
O O3 0.000000 0.500000 0.500000
O O4 0.908784 0.320687 0.657920
O O5 0.005871 0.129124 0.654870
O O6 0.842606 0.948602 0.778091
O O7 0.127100 0.964426 0.766213
O O8 0.140452 0.151137 0.963511
O O9 0.428647 0.169192 0.159708
O O10 0.291847 0.314871 0.239543
O O11 0.332329 0.627618 0.887057
O O12 0.283760 0.823727 0.786301
O O13 0.983840 0.263667 0.134402
O O14 0.201711 0.444539 0.026859
O O15 0.770686 0.619363 0.256000
O O16 0.500000 0.500000 0.000000
O O17 0.975554 0.732423 0.562215
#
# Coordination Sequence:
#
# PCOD8013755 Si02
#       8
#     2   2   2   2   2   2   2   2
#     4  11  21  39  61  92 123 158 195 247 310 369
#     4  10  21  41  61  87 114 167 213 240 300 356
#     4  10  22  39  61  86 125 158 202 256 295 359
#     4  11  21  41  60  91 126 155 198 260 302 352
#     4  11  20  39  59  92 118 164 197 237 316 365
#     4  12  22  36  61  93 127 153 199 256 301 365
#     4  10  22  38  64  86 115 167 207 242 303 359
#     4  11  20  40  62  87 124 155 203 252 295 363
#
# _framework density 19.965835999999999
#
# number of rings (size 3 to 8) (size 9 to 14) (size 15 to 20)
#    0.000    1.250    6.250    0.375    0.000    3.000 
#    4.500    2.500    0.000    0.000    0.000    0.000 
#    0.000    0.000    0.000    0.000    0.000    0.000 
#
# Total GULP energy -198318.889920 kJ/mol
# GULP energy per Si atom -12394.930620 kJ/mol
# Density = 1.992039 g / cm^3
# Si number density = 19.965836 Si / 1000 Ang^3
#
#
#
# Elastic Constant Matrix: (Units=GPa)
#
#
# Indices 1 2 3 4 5 6 
#
# 1 135.3185 66.6924 50.5151 -6.5200 0.5226 -9.7808
# 2 66.6924 118.7356 36.8787 -12.6347 4.3524 -18.7145
# 3 50.5151 36.8787 65.8704 -2.5968 3.1950 -4.0441
# 4 -6.5200 -12.6347 -2.5968 25.0477 -7.4086 2.4495
# 5 0.5226 4.3524 3.1950 -7.4086 27.8156 5.8445
# 6 -9.7808 -18.7145 -4.0441 2.4495 5.8445 34.0026
#
#
#
# Elastic Compliance Matrix: (Units=1/GPa)
#
#
# Indices 1 2 3 4 5 6 
#
# 1 0.012318 -0.004841 -0.006802 0.000523 0.001494 -0.000224
# 2 -0.004841 0.013564 -0.003284 0.004172 -0.001736 0.005680
# 3 -0.006802 -0.003284 0.022240 -0.001726 -0.002245 -0.000609
# 4 0.000523 0.004172 -0.001726 0.045985 0.012458 -0.003212
# 5 0.001494 -0.001736 -0.002245 0.012458 0.041629 -0.008846
# 6 -0.000224 0.005680 -0.000609 -0.003212 -0.008846 0.034151
#
#
# Mechanical properties :
#
#
# Convention : Reuss Voigt Hill
#
# Bulk Modulus (GPa) = 54.74072 69.78856 62.26464
# Shear Modulus (GPa) = 24.29174 28.42906 26.36040
#
# Velocity S-wave (km/s) = 3.49186 3.77753 3.63750
# Velocity P-wave (km/s) = 6.61318 7.35229 6.99251
#
# Compressibility (1/GPa) = 0.01826794
#
# Stress axis : x y z
#
# Youngs Moduli (GPa) = 81.18035 73.72399 44.96399
#
# Poissons Ratio (x) = 0.35688 0.30585
# Poissons Ratio (y) = 0.39297 0.14768
# Poissons Ratio (z) = 0.55220 0.24213
#
# Static dielectric constant tensor:
#      x y z
#    x 3.633420 -0.219430 -0.042720 
#    y -0.219430 3.759480 -0.054630 
#    z -0.042720 -0.054630 3.618290 
# 
# 
# High freq. dielectric constant tensor:
#      x y z
#    x 1.768870 -0.018790 -0.002480 
#    y -0.018790 1.785650 -0.004630 
#    z -0.002480 -0.004630 1.767370 
# 
# From -- ./inp_files/179371.got.cif
#   From: 2010.06.25/outbox.cif.g09.slc.cpg/sg2_90_cif.got.tgz:179371.got - 2010.06.27 13:26:56.
