data_PCOD8013839
_publ_section_title
;
Structure prediction by ZEFSAII (Michael W. Deem and Ramdas Pophale) SiO2 
 PCOD8013839
Probable space group: P -1
;
_chemical_formula_sum "Si O2"
_cell_formula_units_Z 16
_cell_length_a 19.137429
_cell_length_b 25.000998
_cell_length_c 15.331396
_cell_angle_alpha 160.930433
_cell_angle_beta 29.088336
_cell_angle_gamma 160.128173
_cell_volume 807.201224
_symmetry_space_group_name_H-M "P -1"
_symmetry_group_IT_number 2
_symmetry_cell_setting 'triclinic'
loop_
_space_group_symop_operation_xyz
x,y,z
-x,-y,-z
loop_
_atom_site_type_symbol
_atom_site_label
_atom_site_fract_x
_atom_site_fract_y
_atom_site_fract_z
Si Si1 0.821503 0.358503 0.187934
Si Si2 0.181470 0.256396 0.966472
Si Si3 0.133627 0.015812 0.255533
Si Si4 0.553958 0.864266 0.257123
Si Si5 0.547000 0.998321 0.086055
Si Si6 0.470796 0.214180 0.636904
Si Si7 0.000663 0.831105 0.787478
Si Si8 0.852437 0.645843 0.143169
O O1 0.690225 0.215424 0.197493
O O2 0.914750 0.616894 0.488828
O O3 0.010733 0.386579 0.014129
O O4 0.674698 0.226675 0.060767
O O5 0.296692 0.175500 0.715675
O O6 0.319823 0.507876 0.156603
O O7 0.143711 0.283411 0.147326
O O8 0.964503 0.064467 0.857224
O O9 0.185971 0.245137 0.575811
O O10 0.964862 0.807485 0.184920
O O11 0.341965 0.078919 0.125942
O O12 0.602907 0.887809 0.342660
O O13 0.500000 0.000000 0.500000
O O14 0.374038 0.595661 0.010322
O O15 0.761381 0.000664 0.186164
O O16 0.510898 0.077908 0.333240
O O17 0.000000 0.000000 0.000000
#
# Coordination Sequence:
#
# PCOD8013839 Si02
#       8
#     2   2   2   2   2   2   2   2
#     4  10  21  41  62  92 129 169 205 260 319 370
#     4  11  23  41  65  94 127 166 215 261 307 372
#     4  10  22  37  66  96 124 161 214 269 305 364
#     4  12  25  42  65  94 129 171 208 255 323 381
#     4  10  22  37  66  96 123 161 217 265 308 365
#     4  11  23  41  65  95 125 167 216 259 309 373
#     4  12  25  42  63  94 131 170 206 256 323 380
#     4  10  21  41  62  93 128 167 209 258 317 372
#
# _framework density 19.821576
#
# number of rings (size 3 to 8) (size 9 to 14) (size 15 to 20)
#    0.000    1.250    5.000    0.750    3.500    1.500 
#    0.000    2.500    0.000    0.000    0.000    0.000 
#    0.000    0.000    0.000    0.000    0.000    0.000 
#
# Total GULP energy -198451.940576 kJ/mol
# GULP energy per Si atom -12403.246286 kJ/mol
# Density = 1.977646 g / cm^3
# Si number density = 19.821576 Si / 1000 Ang^3
#
#
#
# Elastic Constant Matrix: (Units=GPa)
#
#
# Indices 1 2 3 4 5 6 
#
# 1 82.7465 14.7653 45.6964 0.1694 1.3586 18.8097
# 2 14.7653 76.5324 37.1742 -7.5565 0.7840 20.2998
# 3 45.6964 37.1742 154.7327 -7.1144 -4.2235 19.5085
# 4 0.1694 -7.5565 -7.1144 32.6994 3.5481 -0.1305
# 5 1.3586 0.7840 -4.2235 3.5481 31.0620 3.0447
# 6 18.8097 20.2998 19.5085 -0.1305 3.0447 37.6447
#
#
#
# Elastic Compliance Matrix: (Units=1/GPa)
#
#
# Indices 1 2 3 4 5 6 
#
# 1 0.015575 0.000433 -0.004014 -0.000816 -0.000567 -0.005893
# 2 0.000433 0.016828 -0.003071 0.003240 -0.000481 -0.007649
# 3 -0.004014 -0.003071 0.008584 0.001024 0.001391 -0.000896
# 4 -0.000816 0.003240 0.001024 0.031921 -0.003408 -0.001484
# 5 -0.000567 -0.000481 0.001391 -0.003408 0.033090 -0.002866
# 6 -0.005893 -0.007649 -0.000896 -0.001484 -0.002866 0.034324
#
#
# Mechanical properties :
#
#
# Convention : Reuss Voigt Hill
#
# Bulk Modulus (GPa) = 36.12149 56.58706 46.35427
# Shear Modulus (GPa) = 30.70250 34.70626 32.70438
#
# Velocity S-wave (km/s) = 3.93993 4.18896 4.06635
# Velocity P-wave (km/s) = 6.24182 7.21156 6.74414
#
# Compressibility (1/GPa) = 0.02768435
#
# Stress axis : x y z
#
# Youngs Moduli (GPa) = 64.20586 59.42438 116.49799
#
# Poissons Ratio (x) = -0.02573 0.46759
# Poissons Ratio (y) = -0.02780 0.35771
# Poissons Ratio (z) = 0.25771 0.18246
#
# Static dielectric constant tensor:
#      x y z
#    x 3.673170 0.303010 0.076050 
#    y 0.303010 3.743090 0.099210 
#    z 0.076050 0.099210 3.807540 
# 
# 
# High freq. dielectric constant tensor:
#      x y z
#    x 1.766760 0.016100 -0.004280 
#    y 0.016100 1.772880 -0.005170 
#    z -0.004280 -0.005170 1.783100 
# 
# From -- ./inp_files/185138.got.cif
#   From: 2010.06.25/outbox.cif.g09.slc.cpg/sg2_93_cif.got.tgz:185138.got - 2010.06.27 13:26:56.
