data_PCOD8013485
_publ_section_title
;
Structure prediction by ZEFSAII (Michael W. Deem and Ramdas Pophale) SiO2 
 PCOD8013485
Probable space group: P -1
;
_chemical_formula_sum "Si O2"
_cell_formula_units_Z 14
_cell_length_a 8.777873
_cell_length_b 11.327904
_cell_length_c 12.182447
_cell_angle_alpha 129.070693
_cell_angle_beta 137.810176
_cell_angle_gamma 64.617471
_cell_volume 629.895435
_symmetry_space_group_name_H-M "P -1"
_symmetry_group_IT_number 2
_symmetry_cell_setting 'triclinic'
loop_
_space_group_symop_operation_xyz
x,y,z
-x,-y,-z
loop_
_atom_site_type_symbol
_atom_site_label
_atom_site_fract_x
_atom_site_fract_y
_atom_site_fract_z
Si Si1 0.643928 0.930278 0.197764
Si Si2 0.191532 0.254566 0.389727
Si Si3 0.258857 0.807098 0.761906
Si Si4 0.409760 0.970469 0.312070
Si Si5 0.275929 0.536932 0.465240
Si Si6 0.534815 0.351714 0.804871
Si Si7 0.823190 0.630760 0.186408
O O1 0.598600 0.000559 0.334772
O O2 0.809452 0.793690 0.215797
O O3 0.763823 0.060808 0.262526
O O4 0.406277 0.865584 0.978741
O O5 0.147779 0.379609 0.348114
O O6 0.432025 0.310265 0.606565
O O7 0.993690 0.245450 0.367175
O O8 0.212356 0.084943 0.250250
O O9 0.358555 0.657452 0.674928
O O10 0.330628 0.789869 0.157801
O O11 0.500000 0.000000 0.500000
O O12 0.500000 0.500000 0.500000
O O13 0.089948 0.613070 0.335788
O O14 0.321153 0.382942 0.786512
O O15 0.714699 0.496101 0.971424
#
# Coordination Sequence:
#
# PCOD8013485 Si02
#       7
#     2   2   2   2   2   2   2
#     4  10  23  44  67  96 140 173 230 276 331 412
#     4  11  22  41  66  95 134 174 224 275 338 407
#     4  11  24  43  67  99 134 186 221 275 341 394
#     4   9  20  40  65  99 131 171 220 282 332 392
#     4  12  26  43  64  98 136 175 228 282 339 393
#     4   9  19  39  66  97 124 166 229 268 334 398
#     4  10  21  40  68  94 125 180 219 278 331 393
#
# _framework density 22.225912000000001
#
# number of rings (size 3 to 8) (size 9 to 14) (size 15 to 20)
#    0.000    1.714    1.429    2.143    6.000    1.143 
#   12.857    1.429    0.000    0.000    0.000    0.000 
#    0.000    0.000    0.000    0.000    0.000    0.000 
#
# Total GULP energy -173566.971391 kJ/mol
# GULP energy per Si atom -12397.640814 kJ/mol
# Density = 2.217533 g / cm^3
# Si number density = 22.225912 Si / 1000 Ang^3
#
#
#
# Elastic Constant Matrix: (Units=GPa)
#
#
# Indices 1 2 3 4 5 6 
#
# 1 118.9911 73.3083 45.9938 8.9352 -3.2529 0.0204
# 2 73.3083 175.6805 31.0887 3.5430 -0.7872 -10.3495
# 3 45.9938 31.0887 75.7408 -0.1434 -0.4614 -7.3632
# 4 8.9352 3.5430 -0.1434 30.7524 0.7830 -7.9989
# 5 -3.2529 -0.7872 -0.4614 0.7830 21.9669 0.5537
# 6 0.0204 -10.3495 -7.3632 -7.9989 0.5537 36.2683
#
#
#
# Elastic Compliance Matrix: (Units=1/GPa)
#
#
# Indices 1 2 3 4 5 6 
#
# 1 0.014701 -0.004977 -0.007270 -0.004827 0.002119 -0.004001
# 2 -0.004977 0.007886 0.000031 0.001211 -0.000561 0.002535
# 3 -0.007270 0.000031 0.018036 0.003369 -0.000928 0.004432
# 4 -0.004827 0.001211 0.003369 0.036204 -0.002119 0.009049
# 5 0.002119 -0.000561 -0.000928 -0.002119 0.045911 -0.001518
# 6 -0.004001 0.002535 0.004432 0.009049 -0.001518 0.031217
#
#
# Mechanical properties :
#
#
# Convention : Reuss Voigt Hill
#
# Bulk Modulus (GPa) = 61.76015 74.57710 68.16863
# Shear Modulus (GPa) = 27.20579 32.46564 29.83571
#
# Velocity S-wave (km/s) = 3.50245 3.82607 3.66783
# Velocity P-wave (km/s) = 6.64861 7.29009 6.97672
#
# Compressibility (1/GPa) = 0.01619167
#
# Stress axis : x y z
#
# Youngs Moduli (GPa) = 68.02150 126.80838 55.44341
#
# Poissons Ratio (x) = 0.63112 0.40306
# Poissons Ratio (y) = 0.33854 -0.00170
# Poissons Ratio (z) = 0.49450 -0.00390
#
# Static dielectric constant tensor:
#      x y z
#    x 3.652560 -0.065700 -0.244670 
#    y -0.065700 4.545590 0.265020 
#    z -0.244670 0.265020 3.894590 
# 
# 
# High freq. dielectric constant tensor:
#      x y z
#    x 1.849250 0.000440 -0.012850 
#    y 0.000440 1.901680 0.012240 
#    z -0.012850 0.012240 1.862650 
# 
# From -- ./inp_files/259739.got.cif
#   From: 2010.06.25/outbox.cif.g09.slc.cpg/sg2_130_cif.got.tgz:259739.got - 2010.06.27 13:26:56.
