data_PCOD8013458
_publ_section_title
;
Structure prediction by ZEFSAII (Michael W. Deem and Ramdas Pophale) SiO2 
 PCOD8013458
Probable space group: P -1
;
_chemical_formula_sum "Si O2"
_cell_formula_units_Z 16
_cell_length_a 10.796064
_cell_length_b 11.781823
_cell_length_c 11.691997
_cell_angle_alpha 103.645304
_cell_angle_beta 146.154925
_cell_angle_gamma 61.791676
_cell_volume 691.730273
_symmetry_space_group_name_H-M "P -1"
_symmetry_group_IT_number 2
_symmetry_cell_setting 'triclinic'
loop_
_space_group_symop_operation_xyz
x,y,z
-x,-y,-z
loop_
_atom_site_type_symbol
_atom_site_label
_atom_site_fract_x
_atom_site_fract_y
_atom_site_fract_z
Si Si1 0.061735 0.460149 0.907038
Si Si2 0.299259 0.369426 0.522455
Si Si3 0.412478 0.575898 0.761381
Si Si4 0.140865 0.181162 0.962604
Si Si5 0.710701 0.976361 0.346852
Si Si6 0.052467 0.751125 0.723982
Si Si7 0.863145 0.162211 0.945900
Si Si8 0.106523 0.821162 0.439356
O O1 0.798899 0.548026 0.653056
O O2 0.278546 0.487272 0.024477
O O3 0.166942 0.299052 0.948164
O O4 0.000000 0.500000 0.000000
O O5 0.342809 0.457716 0.673013
O O6 0.575027 0.229943 0.687586
O O7 0.086198 0.335685 0.392559
O O8 0.303389 0.662791 0.814992
O O9 0.290376 0.664988 0.575435
O O10 0.406086 0.036500 0.135378
O O11 0.024300 0.215685 0.009154
O O12 0.941371 0.159814 0.727971
O O13 0.850787 0.895509 0.549204
O O14 0.830286 0.878043 0.305642
O O15 0.749739 0.102975 0.389457
O O16 0.146262 0.785690 0.920783
O O17 0.000000 0.000000 0.000000
#
# Coordination Sequence:
#
# PCOD8013458 Si02
#       8
#     2   2   2   2   2   2   2   2
#     4  12  27  43  70 105 142 182 228 290 352 421
#     4  12  26  47  71 102 143 188 239 288 355 417
#     4  11  24  46  73 106 144 184 235 294 351 420
#     4  12  23  42  69 100 138 181 229 283 347 414
#     4  10  22  41  69 101 140 176 226 292 344 408
#     4  11  26  47  71 104 143 190 241 287 350 419
#     4  12  29  48  71 104 142 193 237 292 348 424
#     4  10  21  40  68 105 137 177 227 286 349 410
#
# _framework density 23.130403999999999
#
# number of rings (size 3 to 8) (size 9 to 14) (size 15 to 20)
#    0.000    0.750    2.500    4.500    1.750    8.000 
#    2.250    0.000    0.000    0.000    0.000    0.000 
#    0.000    0.000    0.000    0.000    0.000    0.000 
#
# Total GULP energy -198407.770455 kJ/mol
# GULP energy per Si atom -12400.485653 kJ/mol
# Density = 2.307776 g / cm^3
# Si number density = 23.130404 Si / 1000 Ang^3
#
#
#
# Elastic Constant Matrix: (Units=GPa)
#
#
# Indices 1 2 3 4 5 6 
#
# 1 107.8484 31.2193 55.1305 -0.9957 -8.5011 -3.6038
# 2 31.2193 108.5847 55.3983 -11.0513 -0.5004 -1.6602
# 3 55.1305 55.3983 130.8834 -19.4292 -6.8642 -16.8760
# 4 -0.9957 -11.0513 -19.4292 45.6165 -0.8991 1.0689
# 5 -8.5011 -0.5004 -6.8642 -0.8991 35.2855 5.3263
# 6 -3.6038 -1.6602 -16.8760 1.0689 5.3263 34.7560
#
#
#
# Elastic Compliance Matrix: (Units=1/GPa)
#
#
# Indices 1 2 3 4 5 6 
#
# 1 0.012309 -0.001173 -0.005083 -0.002103 0.002134 -0.001510
# 2 -0.001173 0.012018 -0.004725 0.000900 -0.000743 -0.001755
# 3 -0.005083 -0.004725 0.013135 0.004223 0.000554 0.005410
# 4 -0.002103 0.000900 0.004223 0.023884 0.000782 0.001021
# 5 0.002134 -0.000743 0.000554 0.000782 0.029591 -0.004104
# 6 -0.001510 -0.001755 0.005410 0.001021 -0.004104 0.031756
#
#
# Mechanical properties :
#
#
# Convention : Reuss Voigt Hill
#
# Bulk Modulus (GPa) = 64.51381 70.09027 67.30204
# Shear Modulus (GPa) = 33.37308 36.83616 35.10462
#
# Velocity S-wave (km/s) = 3.80257 3.99500 3.89997
# Velocity P-wave (km/s) = 6.87250 7.18666 7.03133
#
# Compressibility (1/GPa) = 0.01550056
#
# Stress axis : x y z
#
# Youngs Moduli (GPa) = 81.24423 83.20587 76.13331
#
# Poissons Ratio (x) = 0.09758 0.38700
# Poissons Ratio (y) = 0.09528 0.35970
# Poissons Ratio (z) = 0.41298 0.39312
#
# Static dielectric constant tensor:
#      x y z
#    x 4.133070 0.065850 -0.038730 
#    y 0.065850 4.307070 -0.206640 
#    z -0.038730 -0.206640 4.166220 
# 
# 
# High freq. dielectric constant tensor:
#      x y z
#    x 1.909200 0.003860 -0.005490 
#    y 0.003860 1.925840 -0.015300 
#    z -0.005490 -0.015300 1.918680 
# 
# From -- ./inp_files/365238.got.cif
#   From: 2010.06.25/outbox.cif.g09.slc.cpg/sg2_183_cif.got.tgz:365238.got - 2010.06.27 13:26:56.
