data_PCOD8013707
_publ_section_title
;
Structure prediction by ZEFSAII (Michael W. Deem and Ramdas Pophale) SiO2 
 PCOD8013707
Probable space group: P -1
;
_chemical_formula_sum "Si O2"
_cell_formula_units_Z 14
_cell_length_a 9.862130
_cell_length_b 10.855372
_cell_length_c 9.692527
_cell_angle_alpha 104.341829
_cell_angle_beta 119.965489
_cell_angle_gamma 117.592308
_cell_volume 622.607649
_symmetry_space_group_name_H-M "P -1"
_symmetry_group_IT_number 2
_symmetry_cell_setting 'triclinic'
loop_
_space_group_symop_operation_xyz
x,y,z
-x,-y,-z
loop_
_atom_site_type_symbol
_atom_site_label
_atom_site_fract_x
_atom_site_fract_y
_atom_site_fract_z
Si Si1 0.416706 0.720454 0.762514
Si Si2 0.833381 0.591665 0.655259
Si Si3 0.603790 0.320334 0.690510
Si Si4 0.234012 0.789726 0.470387
Si Si5 0.925498 0.011631 0.105934
Si Si6 0.184925 0.584874 0.882199
Si Si7 0.142995 0.023149 0.457006
O O1 0.334596 0.548815 0.589590
O O2 0.293040 0.772582 0.648823
O O3 0.374548 0.675961 0.890987
O O4 0.671361 0.897162 0.931122
O O5 0.711200 0.502509 0.716453
O O6 0.920040 0.781025 0.721417
O O7 0.051009 0.631687 0.781259
O O8 0.618307 0.204376 0.564267
O O9 0.357802 0.225371 0.576982
O O10 0.727632 0.352951 0.901985
O O11 0.261348 0.956107 0.529507
O O12 0.977050 0.627066 0.263852
O O13 0.972008 0.927405 0.217652
O O14 0.000000 0.000000 0.000000
O O15 0.000000 0.000000 0.500000
#
# Coordination Sequence:
#
# PCOD8013707 Si02
#       7
#     2   2   2   2   2   2   2
#     4  10  23  45  72  98 128 180 226 281 332 386
#     4  10  23  44  69  97 134 173 230 275 326 404
#     4  10  22  44  71  96 129 181 226 278 330 391
#     4  10  22  44  70  97 134 173 229 276 328 407
#     4  12  28  44  67 100 139 181 222 272 339 410
#     4  10  21  40  74 100 124 166 237 285 326 383
#     4  12  28  43  63 105 143 172 218 280 348 400
#
# _framework density 22.486070000000002
#
# number of rings (size 3 to 8) (size 9 to 14) (size 15 to 20)
#    0.000    1.714    0.000    6.429   10.000    2.857 
#    0.000    1.429    0.000    0.000    0.000    0.000 
#    0.000    0.000    0.000    0.000    0.000    0.000 
#
# Total GULP energy -173488.389808 kJ/mol
# GULP energy per Si atom -12392.027843 kJ/mol
# Density = 2.243489 g / cm^3
# Si number density = 22.486070 Si / 1000 Ang^3
#
#
#
# Elastic Constant Matrix: (Units=GPa)
#
#
# Indices 1 2 3 4 5 6 
#
# 1 90.1429 42.4739 22.6563 9.2605 6.2489 41.5198
# 2 42.4739 64.9316 29.9891 9.6848 -5.8984 23.9765
# 3 22.6563 29.9891 87.1142 -2.9059 6.0271 14.1423
# 4 9.2605 9.6848 -2.9059 41.2540 10.3366 -6.9810
# 5 6.2489 -5.8984 6.0271 10.3366 27.3081 -6.5425
# 6 41.5198 23.9765 14.1423 -6.9810 -6.5425 43.9437
#
#
#
# Elastic Compliance Matrix: (Units=1/GPa)
#
#
# Indices 1 2 3 4 5 6 
#
# 1 0.028148 -0.010536 0.000906 -0.004578 -0.012882 -0.023784
# 2 -0.010536 0.029825 -0.008249 -0.009095 0.013370 -0.003118
# 3 0.000906 -0.008249 0.014992 0.004358 -0.007325 -0.001578
# 4 -0.004578 -0.009095 0.004358 0.032502 -0.011464 0.011342
# 5 -0.012882 0.013370 -0.007325 -0.011464 0.051546 0.013088
# 6 -0.023784 -0.003118 -0.001578 0.011342 0.013088 0.051187
#
#
# Mechanical properties :
#
#
# Convention : Reuss Voigt Hill
#
# Bulk Modulus (GPa) = 26.87724 48.04750 37.46237
# Shear Modulus (GPa) = 19.50367 32.30580 25.90474
#
# Velocity S-wave (km/s) = 2.94830 3.79450 3.39785
# Velocity P-wave (km/s) = 4.85477 6.37273 5.66482
#
# Compressibility (1/GPa) = 0.03720620
#
# Stress axis : x y z
#
# Youngs Moduli (GPa) = 35.52600 33.52865 66.70316
#
# Poissons Ratio (x) = 0.35327 -0.06044
# Poissons Ratio (y) = 0.37431 0.55026
# Poissons Ratio (z) = -0.03219 0.27659
#
# Static dielectric constant tensor:
#      x y z
#    x 3.858600 0.220310 0.050810 
#    y 0.220310 3.807070 -0.175460 
#    z 0.050810 -0.175460 4.011590 
# 
# 
# High freq. dielectric constant tensor:
#      x y z
#    x 1.876100 0.020660 0.010100 
#    y 0.020660 1.892600 -0.008850 
#    z 0.010100 -0.008850 1.891110 
# 
# From -- ./inp_files/189483.got.cif
#   From: 2010.06.25/outbox.cif.g09.slc.cpg/sg2_95_cif.got.tgz:189483.got - 2010.06.27 13:26:56.
