data_PCOD8013272
_publ_section_title
;
Structure prediction by ZEFSAII (Michael W. Deem and Ramdas Pophale) SiO2 
 PCOD8013272
Probable space group: P -1
;
_chemical_formula_sum "Si O2"
_cell_formula_units_Z 16
_cell_length_a 12.995567
_cell_length_b 22.003070
_cell_length_c 9.758020
_cell_angle_alpha 47.807019
_cell_angle_beta 131.711469
_cell_angle_gamma 157.721701
_cell_volume 774.079639
_symmetry_space_group_name_H-M "P -1"
_symmetry_group_IT_number 2
_symmetry_cell_setting 'triclinic'
loop_
_space_group_symop_operation_xyz
x,y,z
-x,-y,-z
loop_
_atom_site_type_symbol
_atom_site_label
_atom_site_fract_x
_atom_site_fract_y
_atom_site_fract_z
Si Si1 0.782026 0.179205 0.029942
Si Si2 0.162779 0.104324 0.623531
Si Si3 0.684029 0.349660 0.336010
Si Si4 0.127934 0.274863 0.407535
Si Si5 0.273357 0.668932 0.304264
Si Si6 0.754489 0.572857 0.147350
Si Si7 0.280723 0.365903 0.706785
Si Si8 0.156536 0.123259 0.073752
O O1 0.747022 0.257315 0.907974
O O2 0.000211 0.270254 0.967936
O O3 0.867028 0.181820 0.244767
O O4 0.500000 0.000000 0.000000
O O5 0.112412 0.170127 0.528668
O O6 0.491943 0.265377 0.656380
O O7 0.000000 0.000000 0.500000
O O8 0.048535 0.981057 0.820365
O O9 0.650533 0.274287 0.553982
O O10 0.687250 0.443733 0.256610
O O11 0.427076 0.207992 0.221234
O O12 0.967941 0.471129 0.326895
O O13 0.106364 0.281952 0.539856
O O14 0.399060 0.455403 0.311178
O O15 0.828384 0.622613 0.298861
O O16 0.500000 0.500000 0.000000
O O17 0.251980 0.262650 0.907834
O O18 0.000000 0.000000 0.000000
#
# Coordination Sequence:
#
# PCOD8013272 Si02
#       8
#     2   2   2   2   2   2   2   2
#     4  11  24  38  62  95 132 164 211 269 325 378
#     4  12  24  40  71 102 127 167 227 272 316 386
#     4  10  21  40  66  95 130 165 220 265 325 392
#     4  11  24  44  66  98 132 173 222 270 322 391
#     4  10  22  39  64  94 130 169 211 269 325 379
#     4  11  20  38  69  96 116 168 225 261 306 390
#     4  11  23  40  68  95 133 169 222 269 326 381
#     4  12  24  41  65  99 138 168 214 276 335 379
#
# _framework density 20.669709000000001
#
# number of rings (size 3 to 8) (size 9 to 14) (size 15 to 20)
#    0.000    1.000    5.000    2.250    3.500    0.000 
#    0.000    1.250    8.250    0.000    0.000    0.000 
#    0.000    0.000    0.000    0.000    0.000    0.000 
#
# Total GULP energy -198397.184646 kJ/mol
# GULP energy per Si atom -12399.824040 kJ/mol
# Density = 2.062266 g / cm^3
# Si number density = 20.669709 Si / 1000 Ang^3
#
#
#
# Elastic Constant Matrix: (Units=GPa)
#
#
# Indices 1 2 3 4 5 6 
#
# 1 76.4620 31.8198 33.0194 15.9513 -8.4998 1.6948
# 2 31.8198 107.0626 44.8062 18.8239 -8.3502 10.9414
# 3 33.0194 44.8062 124.5213 13.8012 -8.8912 4.3473
# 4 15.9513 18.8239 13.8012 48.0057 -2.5731 0.9456
# 5 -8.4998 -8.3502 -8.8912 -2.5731 37.3988 3.8641
# 6 1.6948 10.9414 4.3473 0.9456 3.8641 38.1077
#
#
#
# Elastic Compliance Matrix: (Units=1/GPa)
#
#
# Indices 1 2 3 4 5 6 
#
# 1 0.016462 -0.003003 -0.002766 -0.003388 0.002148 0.000312
# 2 -0.003003 0.012501 -0.003169 -0.002851 0.001487 -0.003174
# 3 -0.002766 -0.003169 0.010060 -0.000671 0.001030 -0.000203
# 4 -0.003388 -0.002851 -0.000671 0.023257 -0.000014 0.000470
# 5 0.002148 0.001487 0.001030 -0.000014 0.028164 -0.003495
# 6 0.000312 -0.003174 -0.000203 0.000470 -0.003495 0.027505
#
#
# Mechanical properties :
#
#
# Convention : Reuss Voigt Hill
#
# Bulk Modulus (GPa) = 47.29373 58.59294 52.94334
# Shear Modulus (GPa) = 34.99610 37.92914 36.46262
#
# Velocity S-wave (km/s) = 4.11921 4.28835 4.20463
# Velocity P-wave (km/s) = 6.74938 7.27521 7.01723
#
# Compressibility (1/GPa) = 0.02114445
#
# Stress axis : x y z
#
# Youngs Moduli (GPa) = 60.74766 79.99591 99.40824
#
# Poissons Ratio (x) = 0.24026 0.27501
# Poissons Ratio (y) = 0.18245 0.31500
# Poissons Ratio (z) = 0.16806 0.25348
#
# Static dielectric constant tensor:
#      x y z
#    x 3.512290 0.084430 0.108760 
#    y 0.084430 3.826030 0.134050 
#    z 0.108760 0.134050 3.734530 
# 
# 
# High freq. dielectric constant tensor:
#      x y z
#    x 1.782940 0.008580 0.001000 
#    y 0.008580 1.813800 -0.006510 
#    z 0.001000 -0.006510 1.826980 
# 
# From -- ./inp_files/320274.got.cif
#   From: 2010.06.25/outbox.cif.g09.slc.cpg/sg2_161_cif.got.tgz:320274.got - 2010.06.27 13:26:56.
