data_PCOD8013641
_publ_section_title
;
Structure prediction by ZEFSAII (Michael W. Deem and Ramdas Pophale) SiO2 
 PCOD8013641
Probable space group: P -1
;
_chemical_formula_sum "Si O2"
_cell_formula_units_Z 14
_cell_length_a 9.145390
_cell_length_b 9.266851
_cell_length_c 24.658475
_cell_angle_alpha 40.190456
_cell_angle_beta 141.814056
_cell_angle_gamma 110.689678
_cell_volume 654.509425
_symmetry_space_group_name_H-M "P -1"
_symmetry_group_IT_number 2
_symmetry_cell_setting 'triclinic'
loop_
_space_group_symop_operation_xyz
x,y,z
-x,-y,-z
loop_
_atom_site_type_symbol
_atom_site_label
_atom_site_fract_x
_atom_site_fract_y
_atom_site_fract_z
Si Si1 0.758524 0.059260 0.204990
Si Si2 0.342289 0.200076 0.447535
Si Si3 0.846996 0.493658 0.145502
Si Si4 0.622743 0.471243 0.485434
Si Si5 0.447671 0.045396 0.223063
Si Si6 0.094997 0.715052 0.078364
Si Si7 0.358442 0.837509 0.647970
O O1 0.883237 0.232069 0.203274
O O2 0.646753 0.008089 0.241570
O O3 0.498424 0.224827 0.035989
O O4 0.017895 0.760001 0.340503
O O5 0.464764 0.379324 0.428991
O O6 0.980232 0.411839 0.268931
O O7 0.500000 0.000000 0.500000
O O8 0.403854 0.035090 0.568697
O O9 0.051520 0.539336 0.157326
O O10 0.500000 0.500000 0.500000
O O11 0.562350 0.745529 0.364690
O O12 0.491647 0.202593 0.238160
O O13 0.105631 0.211538 0.055178
O O14 0.449141 0.485073 0.228957
O O15 0.000000 0.000000 0.000000
O O16 0.000000 0.000000 0.500000
#
# Coordination Sequence:
#
# PCOD8013641 Si02
#       7
#     2   2   2   2   2   2   2
#     4  10  22  42  69  96 132 175 225 270 338 402
#     4  12  22  43  70  91 134 182 223 268 337 409
#     4  10  21  40  70  93 124 178 224 267 327 403
#     4  12  24  43  66 101 136 173 222 281 338 400
#     4  11  25  43  69  99 137 177 225 282 336 404
#     4  11  24  45  70 100 136 180 228 280 345 407
#     4  12  26  43  67 104 136 176 231 283 335 400
#
# _framework density 21.390065
#
# number of rings (size 3 to 8) (size 9 to 14) (size 15 to 20)
#    0.000    0.857    4.286    2.571    0.000    2.286 
#    5.143    0.714    0.000    0.000    0.000    0.000 
#    0.000    0.000    0.000    0.000    0.000    0.000 
#
# Total GULP energy -173515.452856 kJ/mol
# GULP energy per Si atom -12393.960918 kJ/mol
# Density = 2.134138 g / cm^3
# Si number density = 21.390065 Si / 1000 Ang^3
#
#
#
# Elastic Constant Matrix: (Units=GPa)
#
#
# Indices 1 2 3 4 5 6 
#
# 1 84.0633 31.3916 47.2889 -16.6642 7.7393 3.8368
# 2 31.3916 104.5658 45.0345 1.2476 10.5191 -0.4114
# 3 47.2889 45.0345 147.4462 3.3118 15.6468 -12.5924
# 4 -16.6642 1.2476 3.3118 44.5996 -0.5449 -8.6963
# 5 7.7393 10.5191 15.6468 -0.5449 41.8118 -1.2593
# 6 3.8368 -0.4114 -12.5924 -8.6963 -1.2593 31.6123
#
#
#
# Elastic Compliance Matrix: (Units=1/GPa)
#
#
# Indices 1 2 3 4 5 6 
#
# 1 0.017219 -0.003106 -0.004855 0.006422 -0.000575 -0.002321
# 2 -0.003106 0.011725 -0.002472 -0.001504 -0.001498 -0.000928
# 3 -0.004855 -0.002472 0.009675 -0.001737 -0.002007 0.003853
# 4 0.006422 -0.001504 -0.001737 0.026109 0.000352 0.005706
# 5 -0.000575 -0.001498 -0.002007 0.000352 0.025166 0.000350
# 6 -0.002321 -0.000928 0.003853 0.005706 0.000350 0.035021
#
#
# Mechanical properties :
#
#
# Convention : Reuss Voigt Hill
#
# Bulk Modulus (GPa) = 56.32684 64.83393 60.58038
# Shear Modulus (GPa) = 32.96000 37.76210 35.36105
#
# Velocity S-wave (km/s) = 3.92969 4.20623 4.07031
# Velocity P-wave (km/s) = 6.85422 7.34615 7.10444
#
# Compressibility (1/GPa) = 0.01775353
#
# Stress axis : x y z
#
# Youngs Moduli (GPa) = 58.07636 85.28588 103.35677
#
# Poissons Ratio (x) = 0.26491 0.50181
# Poissons Ratio (y) = 0.18039 0.25546
# Poissons Ratio (z) = 0.28197 0.21080
#
# Static dielectric constant tensor:
#      x y z
#    x 3.863310 0.001320 -0.167080 
#    y 0.001320 3.660370 0.105150 
#    z -0.167080 0.105150 4.598260 
# 
# 
# High freq. dielectric constant tensor:
#      x y z
#    x 1.833950 0.010200 -0.006960 
#    y 0.010200 1.834600 0.006480 
#    z -0.006960 0.006480 1.863390 
# 
# From -- ./inp_files/184430.got.cif
#   From: 2010.06.25/outbox.cif.g09.slc.cpg/sg2_93_cif.got.tgz:184430.got - 2010.06.27 13:26:56.
