data_PCOD8013172
_publ_section_title
;
Structure prediction by ZEFSAII (Michael W. Deem and Ramdas Pophale) SiO2 
 PCOD8013172
Probable space group: P -1
;
_chemical_formula_sum "Si O2"
_cell_formula_units_Z 16
_cell_length_a 5.263844
_cell_length_b 25.886533
_cell_length_c 6.779099
_cell_angle_alpha 121.201976
_cell_angle_beta 70.446979
_cell_angle_gamma 118.234299
_cell_volume 691.170659
_symmetry_space_group_name_H-M "P -1"
_symmetry_group_IT_number 2
_symmetry_cell_setting 'triclinic'
loop_
_space_group_symop_operation_xyz
x,y,z
-x,-y,-z
loop_
_atom_site_type_symbol
_atom_site_label
_atom_site_fract_x
_atom_site_fract_y
_atom_site_fract_z
Si Si1 0.933728 0.031626 0.885380
Si Si2 0.908139 0.550892 0.511059
Si Si3 0.545409 0.671375 0.117149
Si Si4 0.812221 0.314100 0.132273
Si Si5 0.596610 0.470513 0.105918
Si Si6 0.418876 0.055603 0.532663
Si Si7 0.839866 0.142829 0.321220
Si Si8 0.506816 0.223713 0.367901
O O1 0.225327 0.076011 0.780381
O O2 0.752351 0.971389 0.677755
O O3 0.763544 0.079088 0.074893
O O4 0.000000 0.000000 0.000000
O O5 0.877957 0.527807 0.241287
O O6 0.618286 0.550003 0.691022
O O7 0.000000 0.500000 0.500000
O O8 0.139431 0.623992 0.614452
O O9 0.505497 0.716859 0.385734
O O10 0.405826 0.683968 0.977988
O O11 0.370676 0.597162 0.091349
O O12 0.888314 0.686850 0.034752
O O13 0.653965 0.249209 0.170046
O O14 0.500000 0.500000 0.000000
O O15 0.697012 0.119318 0.527785
O O16 0.500000 0.000000 0.500000
O O17 0.710516 0.192437 0.361530
O O18 0.184124 0.172447 0.318848
#
# Coordination Sequence:
#
# PCOD8013172 Si02
#       8
#     2   2   2   2   2   2   2   2
#     4  11  24  46  74 110 149 183 229 290 359 414
#     4  10  21  40  65  99 132 170 236 298 361 434
#     4  11  25  47  69 100 142 186 242 296 353 430
#     4  11  25  47  72  95 143 188 236 303 364 412
#     4  10  23  38  66 103 134 177 229 298 373 425
#     4  11  25  44  76 109 145 182 224 297 357 406
#     4  12  27  48  72 108 143 187 244 281 345 429
#     4  12  29  47  70 101 143 196 242 286 341 429
#
# _framework density 23.149132000000002
#
# number of rings (size 3 to 8) (size 9 to 14) (size 15 to 20)
#    0.000    1.000    2.500    2.625    5.250    6.500 
#    0.000    0.000    0.000    0.000    0.000    0.000 
#    0.000    0.000    0.000    0.000    0.000    0.000 
#
# Total GULP energy -198387.431883 kJ/mol
# GULP energy per Si atom -12399.214493 kJ/mol
# Density = 2.309644 g / cm^3
# Si number density = 23.149132 Si / 1000 Ang^3
#
#
#
# Elastic Constant Matrix: (Units=GPa)
#
#
# Indices 1 2 3 4 5 6 
#
# 1 100.0605 26.3825 16.7195 -8.1933 5.3476 -15.1653
# 2 26.3825 108.1304 23.9490 -23.4521 -4.8619 -9.0486
# 3 16.7195 23.9490 99.3612 -1.5218 0.5249 -13.0010
# 4 -8.1933 -23.4521 -1.5218 34.3559 -8.8444 -4.5086
# 5 5.3476 -4.8619 0.5249 -8.8444 47.2714 -4.1561
# 6 -15.1653 -9.0486 -13.0010 -4.5086 -4.1561 47.8622
#
#
#
# Elastic Compliance Matrix: (Units=1/GPa)
#
#
# Indices 1 2 3 4 5 6 
#
# 1 0.011314 -0.002025 -0.000999 0.001419 -0.000949 0.002982
# 2 -0.002025 0.012589 -0.002271 0.009205 0.003473 0.002290
# 3 -0.000999 -0.002271 0.011043 -0.001087 -0.000259 0.002129
# 4 0.001419 0.009205 -0.001087 0.038719 0.008595 0.006288
# 5 -0.000949 0.003473 -0.000259 0.008595 0.023506 0.003136
# 6 0.002982 0.002290 0.002129 0.006288 0.003136 0.023714
#
#
# Mechanical properties :
#
#
# Convention : Reuss Voigt Hill
#
# Bulk Modulus (GPa) = 41.05714 49.07266 45.06490
# Shear Modulus (GPa) = 35.81844 41.93130 38.87487
#
# Velocity S-wave (km/s) = 3.93783 4.26062 4.10240
# Velocity P-wave (km/s) = 6.20079 6.74154 6.47681
#
# Compressibility (1/GPa) = 0.02435630
#
# Stress axis : x y z
#
# Youngs Moduli (GPa) = 88.38990 79.43223 90.55409
#
# Poissons Ratio (x) = 0.16082 0.09045
# Poissons Ratio (y) = 0.17895 0.20569
# Poissons Ratio (z) = 0.08829 0.18042
#
# Static dielectric constant tensor:
#      x y z
#    x 4.138630 0.067680 -0.422600 
#    y 0.067680 4.005260 -1.391800 
#    z -0.422600 -1.391800 -2.087500 
# 
# 
# High freq. dielectric constant tensor:
#      x y z
#    x 1.923270 0.002600 -0.006580 
#    y 0.002600 1.921230 -0.004650 
#    z -0.006580 -0.004650 1.926850 
# 
# From -- ./inp_files/14687.got.cif
#   From: 2010.06.25/outbox.cif.g09.slc.cpg/sg2_8_cif.got.tgz:14687.got - 2010.06.27 13:26:56.
