data_PCOD8013816
_publ_section_title
;
Structure prediction by ZEFSAII (Michael W. Deem and Ramdas Pophale) SiO2 
 PCOD8013816
Probable space group: P -1
;
_chemical_formula_sum "Si O2"
_cell_formula_units_Z 10
_cell_length_a 9.964670
_cell_length_b 8.198608
_cell_length_c 5.149101
_cell_angle_alpha 84.452449
_cell_angle_beta 111.622587
_cell_angle_gamma 94.223650
_cell_volume 388.901148
_symmetry_space_group_name_H-M "P -1"
_symmetry_group_IT_number 2
_symmetry_cell_setting 'triclinic'
loop_
_space_group_symop_operation_xyz
x,y,z
-x,-y,-z
loop_
_atom_site_type_symbol
_atom_site_label
_atom_site_fract_x
_atom_site_fract_y
_atom_site_fract_z
Si Si1 0.966913 0.701171 0.228232
Si Si2 0.346009 0.914312 0.426910
Si Si3 0.120355 0.673364 0.839881
Si Si4 0.570267 0.326311 0.097064
Si Si5 0.298135 0.092150 0.869786
O O1 0.072338 0.762961 0.527577
O O2 0.949893 0.507749 0.213697
O O3 0.809431 0.768576 0.149108
O O4 0.051585 0.766773 0.021754
O O5 0.369069 0.723424 0.563121
O O6 0.500000 0.000000 0.500000
O O7 0.260819 0.008827 0.580469
O O8 0.274695 0.944561 0.088538
O O9 0.293304 0.667560 0.000830
O O10 0.500000 0.500000 0.000000
O O11 0.458915 0.178586 0.955807
#
# Coordination Sequence:
#
# PCOD8013816 Si02
#       5
#     2   2   2   2   2
#     4  10  21  41  62  89 128 167 197 255 324 368
#     4  10  23  41  63  94 132 162 203 260 319 373
#     4  10  22  39  61  94 126 158 210 260 304 366
#     4  11  22  42  66  98 120 165 218 263 298 367
#     4  11  22  44  67  92 126 171 204 253 324 373
#
# _framework density 25.713474000000001
#
# number of rings (size 3 to 8) (size 9 to 14) (size 15 to 20)
#    0.000    1.600    2.000    3.600    0.000    4.800 
#    0.000   16.000    0.000    0.000    0.000    0.000 
#    0.000    0.000    0.000    0.000    0.000    0.000 
#
# Total GULP energy -123908.732547 kJ/mol
# GULP energy per Si atom -12390.873255 kJ/mol
# Density = 2.565495 g / cm^3
# Si number density = 25.713474 Si / 1000 Ang^3
#
#
#
# Elastic Constant Matrix: (Units=GPa)
#
#
# Indices 1 2 3 4 5 6 
#
# 1 164.8544 15.1626 60.8811 25.3183 -8.8608 -6.4813
# 2 15.1626 78.2992 26.8051 -6.3690 -19.3270 0.1750
# 3 60.8811 26.8051 141.2081 -2.2969 -37.0550 -25.6644
# 4 25.3183 -6.3690 -2.2969 19.5107 -7.6113 -4.6109
# 5 -8.8608 -19.3270 -37.0550 -7.6113 39.9253 8.4070
# 6 -6.4813 0.1750 -25.6644 -4.6109 8.4070 42.0919
#
#
#
# Elastic Compliance Matrix: (Units=1/GPa)
#
#
# Indices 1 2 3 4 5 6 
#
# 1 0.012483 -0.004096 -0.008498 -0.023629 -0.010831 -0.003667
# 2 -0.004096 0.017237 0.001944 0.015923 0.012324 -0.000234
# 3 -0.008498 0.001944 0.016641 0.022134 0.017068 0.007846
# 4 -0.023629 0.015923 0.022134 0.108881 0.040911 0.013547
# 5 -0.010831 0.012324 0.017068 0.040911 0.051648 0.002853
# 6 -0.003667 -0.000234 0.007846 0.013547 0.002853 0.028892
#
#
# Mechanical properties :
#
#
# Convention : Reuss Voigt Hill
#
# Bulk Modulus (GPa) = 39.89919 65.56214 52.73067
# Shear Modulus (GPa) = 18.83705 39.07312 28.95509
#
# Velocity S-wave (km/s) = 2.70955 3.90238 3.35933
# Velocity P-wave (km/s) = 5.03383 6.77180 5.96644
#
# Compressibility (1/GPa) = 0.02506316
#
# Stress axis : x y z
#
# Youngs Moduli (GPa) = 80.10575 58.01532 60.09183
#
# Poissons Ratio (x) = 0.23761 0.51065
# Poissons Ratio (y) = 0.32808 -0.11684
# Poissons Ratio (z) = 0.68073 -0.11280
#
# Static dielectric constant tensor:
#      x y z
#    x 4.809420 0.176750 -0.655440 
#    y 0.176750 4.486940 -0.274480 
#    z -0.655440 -0.274480 5.404710 
# 
# 
# High freq. dielectric constant tensor:
#      x y z
#    x 2.051450 0.014840 -0.011650 
#    y 0.014840 2.024860 0.001300 
#    z -0.011650 0.001300 2.022940 
# 
# From -- ./inp_files/17388.got.cif
#   From: 2010.06.25/outbox.cif.g09.slc.cpg/sg2_9_cif.got.tgz:17388.got - 2010.06.27 13:26:56.
