data_PCOD8013215
_publ_section_title
;
Structure prediction by ZEFSAII (Michael W. Deem and Ramdas Pophale) SiO2 
 PCOD8013215
Probable space group: P -1
;
_chemical_formula_sum "Si O2"
_cell_formula_units_Z 16
_cell_length_a 15.694534
_cell_length_b 20.647246
_cell_length_c 9.868583
_cell_angle_alpha 113.022146
_cell_angle_beta 122.818059
_cell_angle_gamma 19.060525
_cell_volume 787.474124
_symmetry_space_group_name_H-M "P -1"
_symmetry_group_IT_number 2
_symmetry_cell_setting 'triclinic'
loop_
_space_group_symop_operation_xyz
x,y,z
-x,-y,-z
loop_
_atom_site_type_symbol
_atom_site_label
_atom_site_fract_x
_atom_site_fract_y
_atom_site_fract_z
Si Si1 0.081712 0.526036 0.068840
Si Si2 0.904713 0.417275 0.377353
Si Si3 0.852304 0.772088 0.289636
Si Si4 0.267440 0.235991 0.295929
Si Si5 0.215230 0.668120 0.794420
Si Si6 0.233329 0.907139 0.573440
Si Si7 0.207555 0.677051 0.486716
Si Si8 0.395045 0.847721 0.382846
O O1 0.436693 0.314807 0.242702
O O2 0.820668 0.741536 0.108633
O O3 0.000000 0.500000 0.000000
O O4 0.039551 0.566089 0.904522
O O5 0.851033 0.370217 0.271861
O O6 0.589828 0.673425 0.297340
O O7 0.014071 0.361384 0.578974
O O8 0.179399 0.259300 0.381658
O O9 0.105188 0.664201 0.372383
O O10 0.530763 0.018745 0.265104
O O11 0.390374 0.233815 0.426288
O O12 0.311838 0.622721 0.686996
O O13 0.500000 0.500000 0.000000
O O14 0.897367 0.922790 0.761171
O O15 0.284255 0.866857 0.421970
O O16 0.000000 0.000000 0.500000
O O17 0.080818 0.083676 0.613733
O O18 0.500000 0.500000 0.500000
#
# Coordination Sequence:
#
# PCOD8013215 Si02
#       8
#     2   2   2   2   2   2   2   2
#     4  12  23  41  64 100 134 167 225 276 320 385
#     4  11  23  41  70  92 130 177 216 264 338 391
#     4  11  21  41  66  93 131 175 212 276 330 388
#     4  12  23  41  65 100 129 170 221 269 327 395
#     4  10  24  44  64  93 132 167 221 273 321 393
#     4  11  22  39  65  91 131 169 215 267 331 390
#     4  10  21  40  66  91 124 173 218 261 336 395
#     4  11  22  44  67  93 133 173 216 272 332 393
#
# _framework density 20.318128000000002
#
# number of rings (size 3 to 8) (size 9 to 14) (size 15 to 20)
#    0.000    1.000    6.250    1.875    1.750    3.500 
#    2.250    0.000    0.000    0.000    0.000    0.000 
#    0.000    0.000    0.000    0.000    0.000    0.000 
#
# Total GULP energy -198373.605403 kJ/mol
# GULP energy per Si atom -12398.350338 kJ/mol
# Density = 2.027188 g / cm^3
# Si number density = 20.318128 Si / 1000 Ang^3
#
#
#
# Elastic Constant Matrix: (Units=GPa)
#
#
# Indices 1 2 3 4 5 6 
#
# 1 126.7409 57.9185 43.6621 5.3771 1.0606 -10.9534
# 2 57.9185 108.2343 27.4734 -8.3234 -2.5045 -4.3456
# 3 43.6621 27.4734 85.8199 -14.3344 0.1226 4.3438
# 4 5.3771 -8.3234 -14.3344 29.6393 0.0729 -3.1421
# 5 1.0606 -2.5045 0.1226 0.0729 18.6619 -3.7662
# 6 -10.9534 -4.3456 4.3438 -3.1421 -3.7662 37.2710
#
#
#
# Elastic Compliance Matrix: (Units=1/GPa)
#
#
# Indices 1 2 3 4 5 6 
#
# 1 0.013310 -0.005965 -0.006148 -0.006713 -0.000828 0.003283
# 2 -0.005965 0.012942 -0.000367 0.004576 0.002141 0.000401
# 3 -0.006148 -0.000367 0.016502 0.008667 -0.000466 -0.003089
# 4 -0.006713 0.004576 0.008667 0.040545 0.000996 0.001069
# 5 -0.000828 0.002141 -0.000466 0.000996 0.055071 0.005709
# 6 0.003283 0.000401 -0.003089 0.001069 0.005709 0.028869
#
#
# Mechanical properties :
#
#
# Convention : Reuss Voigt Hill
#
# Bulk Modulus (GPa) = 56.20156 64.32256 60.26206
# Shear Modulus (GPa) = 25.23583 29.89717 27.56650
#
# Velocity S-wave (km/s) = 3.52808 3.84011 3.68740
# Velocity P-wave (km/s) = 6.65712 7.16857 6.91757
#
# Compressibility (1/GPa) = 0.01779310
#
# Stress axis : x y z
#
# Youngs Moduli (GPa) = 75.13374 77.26700 60.59713
#
# Poissons Ratio (x) = 0.46092 0.37255
# Poissons Ratio (y) = 0.44819 0.02225
# Poissons Ratio (z) = 0.46193 0.02837
#
# Static dielectric constant tensor:
#      x y z
#    x 3.874080 -0.047480 -0.217930 
#    y -0.047480 4.543960 -0.027130 
#    z -0.217930 -0.027130 4.066730 
# 
# 
# High freq. dielectric constant tensor:
#      x y z
#    x 1.802900 0.011460 -0.006980 
#    y 0.011460 1.809240 -0.001450 
#    z -0.006980 -0.001450 1.773560 
# 
# From -- ./inp_files/319406.got.cif
#   From: 2010.06.25/outbox.cif.g09.slc.cpg/sg2_160_cif.got.tgz:319406.got - 2010.06.27 13:26:56.
