data_PCOD8013524
_publ_section_title
;
Structure prediction by ZEFSAII (Michael W. Deem and Ramdas Pophale) SiO2 
 PCOD8013524
Probable space group: P -1
;
_chemical_formula_sum "Si O2"
_cell_formula_units_Z 16
_cell_length_a 9.901194
_cell_length_b 11.787735
_cell_length_c 9.895750
_cell_angle_alpha 92.599398
_cell_angle_beta 137.277029
_cell_angle_gamma 79.003593
_cell_volume 761.370757
_symmetry_space_group_name_H-M "P -1"
_symmetry_group_IT_number 2
_symmetry_cell_setting 'triclinic'
loop_
_space_group_symop_operation_xyz
x,y,z
-x,-y,-z
loop_
_atom_site_type_symbol
_atom_site_label
_atom_site_fract_x
_atom_site_fract_y
_atom_site_fract_z
Si Si1 0.078829 0.248830 0.845155
Si Si2 0.214514 0.749557 0.118857
Si Si3 0.047211 0.863398 0.504937
Si Si4 0.326375 0.496096 0.215764
Si Si5 0.058756 0.496357 0.252921
Si Si6 0.480255 0.750480 0.734917
Si Si7 0.495868 0.134090 0.520607
Si Si8 0.933144 0.745320 0.670461
O O1 0.992720 0.374069 0.713531
O O2 0.967186 0.245218 0.905907
O O3 0.037879 0.152171 0.707461
O O4 0.320114 0.224261 0.047194
O O5 0.377544 0.622815 0.241430
O O6 0.340042 0.848451 0.243975
O O7 0.119613 0.768178 0.900190
O O8 0.287778 0.802248 0.691963
O O9 0.928554 0.805634 0.525998
O O10 0.000000 0.000000 0.500000
O O11 0.501052 0.388712 0.281414
O O12 0.280707 0.473196 0.339146
O O13 0.114870 0.504418 0.984138
O O14 0.055796 0.392989 0.351616
O O15 0.433990 0.816049 0.562765
O O16 0.270546 0.201033 0.395501
O O17 0.500000 0.000000 0.500000
#
# Coordination Sequence:
#
# PCOD8013524 Si02
#       8
#     2   2   2   2   2   2   2   2
#     4  10  21  41  69  92 123 163 205 251 316 379
#     4  10  21  40  68  98 121 158 204 259 315 365
#     4  12  28  43  58  88 131 172 212 250 303 369
#     4   8  15  33  64  97 120 148 202 256 308 375
#     4   8  15  34  63  95 122 151 197 257 314 364
#     4  11  21  42  66  91 121 167 205 253 312 366
#     4  12  24  37  62  94 119 161 223 254 285 364
#     4  11  23  42  62  92 132 158 198 271 310 347
#
# _framework density 21.014728999999999
#
# number of rings (size 3 to 8) (size 9 to 14) (size 15 to 20)
#    0.000    1.750    3.750    2.250    0.000    5.000 
#    0.000    5.625    0.000    0.000    0.000    0.000 
#    0.000    0.000    0.000    0.000    0.000    0.000 
#
# Total GULP energy -198364.072827 kJ/mol
# GULP energy per Si atom -12397.754552 kJ/mol
# Density = 2.096690 g / cm^3
# Si number density = 21.014729 Si / 1000 Ang^3
#
#
#
# Elastic Constant Matrix: (Units=GPa)
#
#
# Indices 1 2 3 4 5 6 
#
# 1 47.2081 20.5302 6.0511 -0.4739 -3.3285 -0.6443
# 2 20.5302 78.2760 3.1339 13.9255 5.0591 -17.0334
# 3 6.0511 3.1339 54.5761 6.8982 10.2872 -12.6684
# 4 -0.4739 13.9255 6.8982 23.7414 7.2284 -6.0839
# 5 -3.3285 5.0591 10.2872 7.2284 32.2310 -1.7920
# 6 -0.6443 -17.0334 -12.6684 -6.0839 -1.7920 24.1310
#
#
#
# Elastic Compliance Matrix: (Units=1/GPa)
#
#
# Indices 1 2 3 4 5 6 
#
# 1 0.026193 -0.009303 -0.005468 0.004313 0.004536 -0.007314
# 2 -0.009303 0.019764 0.004736 -0.008760 -0.002844 0.013769
# 3 -0.005468 0.004736 0.023809 -0.003976 -0.007228 0.014157
# 4 0.004313 -0.008760 -0.003976 0.052169 -0.008367 0.004376
# 5 0.004536 -0.002844 -0.007228 -0.008367 0.035839 -0.005129
# 6 -0.007314 0.013769 0.014157 0.004376 -0.005129 0.059119
#
#
# Mechanical properties :
#
#
# Convention : Reuss Voigt Hill
#
# Bulk Modulus (GPa) = 20.12224 26.61009 23.36616
# Shear Modulus (GPa) = 19.72177 26.04367 22.88272
#
# Velocity S-wave (km/s) = 3.06677 3.52420 3.30341
# Velocity P-wave (km/s) = 4.70492 5.40833 5.06884
#
# Compressibility (1/GPa) = 0.04969627
#
# Stress axis : x y z
#
# Youngs Moduli (GPa) = 38.17863 50.59663 42.00180
#
# Poissons Ratio (x) = 0.47069 0.22966
# Poissons Ratio (y) = 0.35517 -0.19892
# Poissons Ratio (z) = 0.20875 -0.23963
#
# Static dielectric constant tensor:
#      x y z
#    x 3.471460 -0.070270 0.188000 
#    y -0.070270 4.189550 0.135060 
#    z 0.188000 0.135060 3.561210 
# 
# 
# High freq. dielectric constant tensor:
#      x y z
#    x 1.795650 -0.001310 0.017490 
#    y -0.001310 1.831940 0.003960 
#    z 0.017490 0.003960 1.818500 
# 
# From -- ./inp_files/187966.got.cif
#   From: 2010.06.25/outbox.cif.g09.slc.cpg/sg2_94_cif.got.tgz:187966.got - 2010.06.27 13:26:56.
