data_PCOD8013862
_publ_section_title
;
Structure prediction by ZEFSAII (Michael W. Deem and Ramdas Pophale) SiO2 
 PCOD8013862
Probable space group: P -1
;
_chemical_formula_sum "Si O2"
_cell_formula_units_Z 14
_cell_length_a 11.368962
_cell_length_b 14.199670
_cell_length_c 8.776085
_cell_angle_alpha 63.715401
_cell_angle_beta 118.123521
_cell_angle_gamma 149.149646
_cell_volume 638.455808
_symmetry_space_group_name_H-M "P -1"
_symmetry_group_IT_number 2
_symmetry_cell_setting 'triclinic'
loop_
_space_group_symop_operation_xyz
x,y,z
-x,-y,-z
loop_
_atom_site_type_symbol
_atom_site_label
_atom_site_fract_x
_atom_site_fract_y
_atom_site_fract_z
Si Si1 0.690365 0.425291 0.146985
Si Si2 0.650365 0.665571 0.811839
Si Si3 0.148032 0.820939 0.755589
Si Si4 0.463832 0.892612 0.687263
Si Si5 0.089654 0.820978 0.059693
Si Si6 0.746967 0.879583 0.464377
Si Si7 0.375626 0.552626 0.233719
O O1 0.530092 0.422130 0.100732
O O2 0.647632 0.289324 0.309256
O O3 0.957544 0.634762 0.185795
O O4 0.650519 0.384495 0.970124
O O5 0.668943 0.787676 0.646558
O O6 0.551955 0.514842 0.741059
O O7 0.905147 0.796268 0.937480
O O8 0.294602 0.824020 0.765178
O O9 0.871414 0.620778 0.703846
O O10 0.238855 0.986150 0.614036
O O11 0.204310 0.861696 0.940243
O O12 0.500000 0.000000 0.500000
O O13 0.712432 0.017698 0.817690
O O14 0.570088 0.725055 0.337910
O O15 0.000000 0.000000 0.500000
#
# Coordination Sequence:
#
# PCOD8013862 Si02
#       7
#     2   2   2   2   2   2   2
#     4  10  23  43  63  91 126 167 200 250 314 363
#     4  10  21  41  62  97 127 159 201 253 312 363
#     4  10  23  42  62  93 123 164 209 247 300 369
#     4  12  26  42  61  91 123 165 212 250 305 362
#     4  10  22  42  64  88 123 162 208 258 297 365
#     4  12  21  38  65  96 127 156 200 255 310 360
#     4  10  22  39  66  95 122 160 203 255 307 364
#
# _framework density 21.927909
#
# number of rings (size 3 to 8) (size 9 to 14) (size 15 to 20)
#    0.000    1.714    2.857    4.286    0.000    5.714 
#    5.143    0.000    0.000    0.000    0.000    0.000 
#    0.000    0.000    0.000    0.000    0.000    0.000 
#
# Total GULP energy -173555.342190 kJ/mol
# GULP energy per Si atom -12396.810156 kJ/mol
# Density = 2.187800 g / cm^3
# Si number density = 21.927909 Si / 1000 Ang^3
#
#
#
# Elastic Constant Matrix: (Units=GPa)
#
#
# Indices 1 2 3 4 5 6 
#
# 1 100.3952 24.8570 17.6579 -7.9256 7.2234 3.5825
# 2 24.8570 111.8758 35.8758 -4.7660 11.8478 -1.3374
# 3 17.6579 35.8758 58.3303 -16.8534 6.5459 0.9788
# 4 -7.9256 -4.7660 -16.8534 41.0439 -6.0296 8.7892
# 5 7.2234 11.8478 6.5459 -6.0296 25.3825 -14.5981
# 6 3.5825 -1.3374 0.9788 8.7892 -14.5981 24.7022
#
#
#
# Elastic Compliance Matrix: (Units=1/GPa)
#
#
# Indices 1 2 3 4 5 6 
#
# 1 0.011235 -0.001577 -0.001296 0.001859 -0.004579 -0.005031
# 2 -0.001577 0.011871 -0.007028 -0.002318 -0.004082 -0.000438
# 3 -0.001296 -0.007028 0.025546 0.010370 -0.004984 -0.007840
# 4 0.001859 -0.002318 0.010370 0.031215 -0.002359 -0.013307
# 5 -0.004579 -0.004082 -0.004984 -0.002359 0.066930 0.041033
# 6 -0.005031 -0.000438 -0.007840 -0.013307 0.041033 0.070483
#
#
# Mechanical properties :
#
#
# Convention : Reuss Voigt Hill
#
# Bulk Modulus (GPa) = 34.66218 47.48697 41.07458
# Shear Modulus (GPa) = 20.26782 31.03975 25.65378
#
# Velocity S-wave (km/s) = 3.04352 3.76644 3.42411
# Velocity P-wave (km/s) = 5.30964 6.37321 5.86558
#
# Compressibility (1/GPa) = 0.02884989
#
# Stress axis : x y z
#
# Youngs Moduli (GPa) = 89.01055 84.24002 39.14554
#
# Poissons Ratio (x) = 0.13282 0.05073
# Poissons Ratio (y) = 0.14034 0.27512
# Poissons Ratio (z) = 0.11535 0.59204
#
# Static dielectric constant tensor:
#      x y z
#    x 3.800100 -0.027770 0.162400 
#    y -0.027770 4.395230 -0.978950 
#    z 0.162400 -0.978950 5.028760 
# 
# 
# High freq. dielectric constant tensor:
#      x y z
#    x 1.855070 0.006150 -0.000740 
#    y 0.006150 1.868460 -0.026250 
#    z -0.000740 -0.026250 1.859250 
# 
# From -- ./inp_files/269858.got.cif
#   From: 2010.06.25/outbox.cif.g09.slc.cpg/sg2_135_cif.got.tgz:269858.got - 2010.06.27 13:26:56.
