data_PCOD8013874
_publ_section_title
;
Structure prediction by ZEFSAII (Michael W. Deem and Ramdas Pophale) SiO2 
 PCOD8013874
Probable space group: P -1
;
_chemical_formula_sum "Si O2"
_cell_formula_units_Z 16
_cell_length_a 9.536942
_cell_length_b 12.065619
_cell_length_c 15.116642
_cell_angle_alpha 148.614045
_cell_angle_beta 98.843592
_cell_angle_gamma 68.219137
_cell_volume 792.000242
_symmetry_space_group_name_H-M "P -1"
_symmetry_group_IT_number 2
_symmetry_cell_setting 'triclinic'
loop_
_space_group_symop_operation_xyz
x,y,z
-x,-y,-z
loop_
_atom_site_type_symbol
_atom_site_label
_atom_site_fract_x
_atom_site_fract_y
_atom_site_fract_z
Si Si1 0.003208 0.731804 0.617336
Si Si2 0.547833 0.450228 0.236665
Si Si3 0.672446 0.990227 0.832359
Si Si4 0.351614 0.485095 0.520313
Si Si5 0.642718 0.739073 0.319247
Si Si6 0.078944 0.195755 0.546486
Si Si7 0.578982 0.653083 0.071962
Si Si8 0.221080 0.670469 0.280350
O O1 0.177522 0.716758 0.643120
O O2 0.000000 0.500000 0.500000
O O3 0.853025 0.948651 0.799992
O O4 0.976505 0.765767 0.533355
O O5 0.622117 0.516313 0.373032
O O6 0.597635 0.536024 0.210184
O O7 0.354320 0.603004 0.325020
O O8 0.609209 0.163486 0.031250
O O9 0.660421 0.743879 0.677635
O O10 0.564137 0.102889 0.812564
O O11 0.500000 0.500000 0.500000
O O12 0.804839 0.686784 0.349207
O O13 0.671309 0.713952 0.199766
O O14 0.500000 0.000000 0.500000
O O15 0.929071 0.334186 0.690915
O O16 0.175952 0.919718 0.397038
O O17 0.500000 0.500000 0.000000
O O18 0.710136 0.530666 0.925255
#
# Coordination Sequence:
#
# PCOD8013874 Si02
#       8
#     2   2   2   2   2   2   2   2
#     4  10  21  41  63  85 120 165 208 260 304 360
#     4  11  22  40  65  94 119 161 212 257 312 375
#     4  10  22  39  64  90 123 159 205 264 308 364
#     4  11  24  42  64  88 121 168 213 255 312 372
#     4  12  20  34  62  92 118 160 209 249 296 388
#     4  11  22  37  61  88 126 161 202 257 315 371
#     4  11  19  37  62  90 127 157 198 250 316 378
#     4  10  22  38  58  92 128 160 191 256 328 374
#
# _framework density 20.202013999999998
#
# number of rings (size 3 to 8) (size 9 to 14) (size 15 to 20)
#    0.000    1.250    3.750    4.500    0.000    1.500 
#    0.000    3.750    0.000    0.000    0.000    0.000 
#    0.000    0.000    0.000    0.000    0.000    0.000 
#
# Total GULP energy -198313.081182 kJ/mol
# GULP energy per Si atom -12394.567574 kJ/mol
# Density = 2.015603 g / cm^3
# Si number density = 20.202014 Si / 1000 Ang^3
#
#
#
# Elastic Constant Matrix: (Units=GPa)
#
#
# Indices 1 2 3 4 5 6 
#
# 1 136.9797 36.3939 38.6773 3.0705 -19.4346 -18.3729
# 2 36.3939 75.0641 33.5933 -6.5117 -14.9211 -22.1204
# 3 38.6773 33.5933 86.3249 -1.1346 -8.0854 -8.0137
# 4 3.0705 -6.5117 -1.1346 27.6733 -4.3557 4.0030
# 5 -19.4346 -14.9211 -8.0854 -4.3557 30.0270 1.3090
# 6 -18.3729 -22.1204 -8.0137 4.0030 1.3090 38.2014
#
#
#
# Elastic Compliance Matrix: (Units=1/GPa)
#
#
# Indices 1 2 3 4 5 6 
#
# 1 0.009639 -0.001723 -0.002989 -0.001364 0.004249 0.003009
# 2 -0.001723 0.021794 -0.005952 0.004992 0.008412 0.009731
# 3 -0.002989 -0.005952 0.015002 -0.000343 -0.000829 -0.001673
# 4 -0.001364 0.004992 -0.000343 0.038900 0.007243 -0.002162
# 5 0.004249 0.008412 -0.000829 0.007243 0.040861 0.004581
# 6 0.003009 0.009731 -0.001673 -0.002162 0.004581 0.032977
#
#
# Mechanical properties :
#
#
# Convention : Reuss Voigt Hill
#
# Bulk Modulus (GPa) = 39.82996 57.29974 48.56485
# Shear Modulus (GPa) = 26.47314 31.82730 29.15022
#
# Velocity S-wave (km/s) = 3.62390 3.97350 3.80272
# Velocity P-wave (km/s) = 6.10482 7.03396 6.58580
#
# Compressibility (1/GPa) = 0.02510673
#
# Stress axis : x y z
#
# Youngs Moduli (GPa) = 103.74566 45.88455 66.65705
#
# Poissons Ratio (x) = 0.07905 0.19923
# Poissons Ratio (y) = 0.17874 0.39676
# Poissons Ratio (z) = 0.31009 0.27312
#
# Static dielectric constant tensor:
#      x y z
#    x 3.932340 -0.334690 -0.195450 
#    y -0.334690 3.804250 0.054200 
#    z -0.195450 0.054200 3.614100 
# 
# 
# High freq. dielectric constant tensor:
#      x y z
#    x 1.791840 -0.013740 -0.014640 
#    y -0.013740 1.796080 -0.003030 
#    z -0.014640 -0.003030 1.778450 
# 
# From -- ./inp_files/329304.got.cif
#   From: 2010.06.25/outbox.cif.g09.slc.cpg/sg2_165_cif.got.tgz:329304.got - 2010.06.27 13:26:56.
