data_PCOD8013230
_publ_section_title
;
Structure prediction by ZEFSAII (Michael W. Deem and Ramdas Pophale) SiO2 
 PCOD8013230
Probable space group: P -1
;
_chemical_formula_sum "Si O2"
_cell_formula_units_Z 16
_cell_length_a 11.214051
_cell_length_b 16.817264
_cell_length_c 6.606348
_cell_angle_alpha 101.058183
_cell_angle_beta 118.038511
_cell_angle_gamma 124.097620
_cell_volume 712.320036
_symmetry_space_group_name_H-M "P -1"
_symmetry_group_IT_number 2
_symmetry_cell_setting 'triclinic'
loop_
_space_group_symop_operation_xyz
x,y,z
-x,-y,-z
loop_
_atom_site_type_symbol
_atom_site_label
_atom_site_fract_x
_atom_site_fract_y
_atom_site_fract_z
Si Si1 0.192019 0.010787 0.937455
Si Si2 0.129486 0.163056 0.061960
Si Si3 0.598682 0.126535 0.203896
Si Si4 0.291641 0.450076 0.809903
Si Si5 0.171178 0.518648 0.431150
Si Si6 0.431440 0.643755 0.312424
Si Si7 0.264914 0.690002 0.917682
Si Si8 0.965986 0.191441 0.594140
O O1 0.121820 0.928814 0.644131
O O2 0.069175 0.928074 0.997557
O O3 0.157290 0.091619 0.924119
O O4 0.438926 0.106956 0.204183
O O5 0.334931 0.274728 0.408688
O O6 0.090140 0.218811 0.903707
O O7 0.650117 0.190755 0.059202
O O8 0.799190 0.186257 0.517107
O O9 0.500000 0.000000 0.000000
O O10 0.274301 0.487508 0.601288
O O11 0.115838 0.304201 0.614934
O O12 0.500000 0.500000 0.000000
O O13 0.298197 0.514441 0.034551
O O14 0.298066 0.603416 0.380750
O O15 0.183879 0.602476 0.621700
O O16 0.934054 0.388093 0.134174
O O17 0.441287 0.725950 0.209345
#
# Coordination Sequence:
#
# PCOD8013230 Si02
#       8
#     2   2   2   2   2   2   2   2
#     4  10  24  44  67  91 128 175 229 272 320 386
#     4  11  24  42  66  98 129 172 224 271 324 394
#     4  10  22  42  67  95 127 173 217 273 331 379
#     4  11  23  39  64  95 136 171 209 264 331 397
#     4  10  21  40  66  92 128 174 215 266 320 389
#     4  11  24  40  65 101 129 170 217 265 327 390
#     4  10  21  42  65  93 129 169 221 266 322 389
#     4  11  23  43  66  94 132 172 216 270 333 389
#
# _framework density 22.461812999999999
#
# number of rings (size 3 to 8) (size 9 to 14) (size 15 to 20)
#    0.000    1.500    1.250    3.000    0.000   10.500 
#    2.250    0.000    0.000    0.000    0.000    0.000 
#    0.000    0.000    0.000    0.000    0.000    0.000 
#
# Total GULP energy -198304.257171 kJ/mol
# GULP energy per Si atom -12394.016073 kJ/mol
# Density = 2.241069 g / cm^3
# Si number density = 22.461813 Si / 1000 Ang^3
#
#
#
# Elastic Constant Matrix: (Units=GPa)
#
#
# Indices 1 2 3 4 5 6 
#
# 1 104.9307 37.5280 37.6210 -9.3296 32.6452 18.3203
# 2 37.5280 129.5798 33.2952 -8.5688 13.9476 -2.5513
# 3 37.6210 33.2952 99.9333 -14.2459 24.8545 -6.3949
# 4 -9.3296 -8.5688 -14.2459 30.7975 0.8538 10.7658
# 5 32.6452 13.9476 24.8545 0.8538 36.0378 -0.8693
# 6 18.3203 -2.5513 -6.3949 10.7658 -0.8693 37.8301
#
#
#
# Elastic Compliance Matrix: (Units=1/GPa)
#
#
# Indices 1 2 3 4 5 6 
#
# 1 0.019050 -0.003046 -0.001897 0.008885 -0.015285 -0.012632
# 2 -0.003046 0.009063 -0.001897 0.000092 0.000600 0.001753
# 3 -0.001897 -0.001897 0.013975 0.005019 -0.007267 0.001558
# 4 0.008885 0.000092 0.005019 0.043506 -0.012966 -0.016128
# 5 -0.015285 0.000600 -0.007267 -0.012966 0.046947 0.010983
# 6 -0.012632 0.001753 0.001558 -0.016128 0.010983 0.037775
#
#
# Mechanical properties :
#
#
# Convention : Reuss Voigt Hill
#
# Bulk Modulus (GPa) = 35.19949 61.25912 48.22930
# Shear Modulus (GPa) = 25.84447 35.99972 30.92209
#
# Velocity S-wave (km/s) = 3.39572 4.00773 3.71435
# Velocity P-wave (km/s) = 5.57489 6.98195 6.31771
#
# Compressibility (1/GPa) = 0.02840951
#
# Stress axis : x y z
#
# Youngs Moduli (GPa) = 52.49270 110.34198 71.55413
#
# Poissons Ratio (x) = 0.33606 0.13574
# Poissons Ratio (y) = 0.15987 0.13572
# Poissons Ratio (z) = 0.09958 0.20929
#
# Static dielectric constant tensor:
#      x y z
#    x -17.548980 -30.501280 12.335410 
#    y -30.501280 -38.203940 16.318490 
#    z 12.335410 16.318490 -2.282910 
# 
# 
# High freq. dielectric constant tensor:
#      x y z
#    x 1.889360 -0.002120 0.021120 
#    y -0.002120 1.895550 0.005190 
#    z 0.021120 0.005190 1.874150 
# 
# From -- ./inp_files/68537.got.cif
#   From: 2010.06.25/outbox.cif.g09.slc.cpg/sg2_35_cif.got.tgz:68537.got - 2010.06.27 13:26:56.
