data_PCOD8013975
_publ_section_title
;
Structure prediction by ZEFSAII (Michael W. Deem and Ramdas Pophale) SiO2 
 PCOD8013975
Probable space group: P -1
;
_chemical_formula_sum "Si O2"
_cell_formula_units_Z 16
_cell_length_a 14.968711
_cell_length_b 5.295129
_cell_length_c 11.693266
_cell_angle_alpha 85.178434
_cell_angle_beta 113.242676
_cell_angle_gamma 61.457692
_cell_volume 704.146234
_symmetry_space_group_name_H-M "P -1"
_symmetry_group_IT_number 2
_symmetry_cell_setting 'triclinic'
loop_
_space_group_symop_operation_xyz
x,y,z
-x,-y,-z
loop_
_atom_site_type_symbol
_atom_site_label
_atom_site_fract_x
_atom_site_fract_y
_atom_site_fract_z
Si Si1 0.232358 0.904934 0.758277
Si Si2 0.027635 0.656642 0.409541
Si Si3 0.258834 0.412593 0.636887
Si Si4 0.426915 0.287729 0.531024
Si Si5 0.116617 0.360770 0.223436
Si Si6 0.656285 0.219280 0.701466
Si Si7 0.782762 0.052607 0.000570
Si Si8 0.079401 0.652345 0.969005
O O1 0.296038 0.581556 0.736792
O O2 0.284167 0.852202 0.914731
O O3 0.252214 0.145480 0.699212
O O4 0.094102 0.027811 0.693022
O O5 0.132515 0.681848 0.509269
O O6 0.078019 0.450993 0.329802
O O7 0.000000 0.500000 0.500000
O O8 0.356007 0.244803 0.594281
O O9 0.520977 0.334635 0.637299
O O10 0.333955 0.566726 0.392575
O O11 0.500000 0.000000 0.500000
O O12 0.078138 0.645033 0.107767
O O13 0.256825 0.122323 0.291956
O O14 0.053071 0.196915 0.149702
O O15 0.692048 0.249945 0.846388
O O16 0.877814 0.137266 0.056131
O O17 0.841301 0.692870 0.027117
#
# Coordination Sequence:
#
# PCOD8013975 Si02
#       8
#     2   2   2   2   2   2   2   2
#     4  11  24  45  65 101 139 180 221 269 331 416
#     4  10  22  38  65  97 141 183 219 263 330 411
#     4  11  26  43  70  95 135 183 228 276 332 394
#     4  11  26  48  71  97 132 174 235 294 337 391
#     4  10  21  41  64 105 138 176 220 271 338 405
#     4  10  26  42  72 100 130 177 227 291 340 391
#     4  11  23  44  69 100 141 177 219 274 341 402
#     4  10  23  39  65 102 143 175 213 270 337 411
#
# _framework density 22.722553000000001
#
# number of rings (size 3 to 8) (size 9 to 14) (size 15 to 20)
#    0.000    1.500    1.250    1.875   14.000    5.500 
#    0.000    1.250    0.000    0.000    0.000    0.000 
#    0.000    0.000    0.000    0.000    0.000    0.000 
#
# Total GULP energy -198327.924743 kJ/mol
# GULP energy per Si atom -12395.495296 kJ/mol
# Density = 2.267084 g / cm^3
# Si number density = 22.722553 Si / 1000 Ang^3
#
#
#
# Elastic Constant Matrix: (Units=GPa)
#
#
# Indices 1 2 3 4 5 6 
#
# 1 113.3040 37.7159 47.4548 11.1630 -25.6176 -8.1241
# 2 37.7159 95.3299 32.5186 25.2983 -11.7271 -0.2139
# 3 47.4548 32.5186 122.2718 12.8811 -23.2057 -15.5686
# 4 11.1630 25.2983 12.8811 28.7573 -14.3708 -1.6070
# 5 -25.6176 -11.7271 -23.2057 -14.3708 32.9300 7.3522
# 6 -8.1241 -0.2139 -15.5686 -1.6070 7.3522 34.9822
#
#
#
# Elastic Compliance Matrix: (Units=1/GPa)
#
#
# Indices 1 2 3 4 5 6 
#
# 1 0.012859 -0.004238 -0.002687 0.004128 0.008358 0.000198
# 2 -0.004238 0.016051 -0.002282 -0.014022 -0.004973 -0.001500
# 3 -0.002687 -0.002282 0.011030 0.000454 0.004312 0.003385
# 4 0.004128 -0.014022 0.000454 0.057096 0.023743 -0.001292
# 5 0.008358 -0.004973 0.004312 0.023743 0.049734 -0.005532
# 6 0.000198 -0.001500 0.003385 -0.001292 -0.005532 0.031233
#
#
# Mechanical properties :
#
#
# Convention : Reuss Voigt Hill
#
# Bulk Modulus (GPa) = 46.45403 62.92048 54.68726
# Shear Modulus (GPa) = 24.55897 33.54831 29.05364
#
# Velocity S-wave (km/s) = 3.29115 3.84661 3.57967
# Velocity P-wave (km/s) = 5.91021 6.89053 6.41911
#
# Compressibility (1/GPa) = 0.02152666
#
# Stress axis : x y z
#
# Youngs Moduli (GPa) = 77.76590 62.30204 90.66324
#
# Poissons Ratio (x) = 0.26402 0.24362
# Poissons Ratio (y) = 0.32955 0.20687
# Poissons Ratio (z) = 0.20897 0.14216
#
# Static dielectric constant tensor:
#      x y z
#    x 4.221280 -0.048680 0.041930 
#    y -0.048680 3.925900 -0.019610 
#    z 0.041930 -0.019610 4.742140 
# 
# 
# High freq. dielectric constant tensor:
#      x y z
#    x 1.891940 0.000870 -0.012910 
#    y 0.000870 1.882810 0.013970 
#    z -0.012910 0.013970 1.905290 
# 
# From -- ./inp_files/441965.got.cif
#   From: 2010.06.25/outbox.cif.g09.slc.cpg/sg2_221_cif.got.tgz:441965.got - 2010.06.27 13:26:56.
