data_PCOD8013809
_publ_section_title
;
Structure prediction by ZEFSAII (Michael W. Deem and Ramdas Pophale) SiO2 
 PCOD8013809
Probable space group: P -1
;
_chemical_formula_sum "Si O2"
_cell_formula_units_Z 14
_cell_length_a 9.389346
_cell_length_b 6.767561
_cell_length_c 14.238437
_cell_angle_alpha 89.996568
_cell_angle_beta 92.239941
_cell_angle_gamma 49.025631
_cell_volume 682.173172
_symmetry_space_group_name_H-M "P -1"
_symmetry_group_IT_number 2
_symmetry_cell_setting 'triclinic'
loop_
_space_group_symop_operation_xyz
x,y,z
-x,-y,-z
loop_
_atom_site_type_symbol
_atom_site_label
_atom_site_fract_x
_atom_site_fract_y
_atom_site_fract_z
Si Si1 0.307357 0.993747 0.407223
Si Si2 0.692787 0.340990 0.887027
Si Si3 0.961211 0.492279 0.701153
Si Si4 0.355490 0.035989 0.621348
Si Si5 0.344934 0.551421 0.325387
Si Si6 0.991073 0.644824 0.090994
Si Si7 0.602931 0.106888 0.028140
O O1 0.494075 0.923517 0.368097
O O2 0.331456 0.736401 0.401820
O O3 0.118089 0.234283 0.346848
O O4 0.280680 0.077871 0.514192
O O5 0.672298 0.328885 0.775909
O O6 0.526688 0.632292 0.916598
O O7 0.888156 0.266736 0.921236
O O8 0.677922 0.140309 0.934411
O O9 0.830502 0.433763 0.659819
O O10 0.177986 0.254287 0.681001
O O11 0.940469 0.531269 0.813636
O O12 0.456192 0.743968 0.659807
O O13 0.776214 0.904296 0.101294
O O14 0.000000 0.500000 0.000000
O O15 0.500000 0.000000 0.000000
#
# Coordination Sequence:
#
# PCOD8013809 Si02
#       7
#     2   2   2   2   2   2   2
#     4  10  22  39  63  90 120 159 195 248 305 354
#     4  10  23  39  57  87 119 155 202 248 294 355
#     4  10  23  39  59  88 122 156 203 249 293 361
#     4  10  21  41  62  89 123 154 200 247 299 365
#     4  10  22  38  60  88 122 155 196 249 299 355
#     4  11  22  39  59  84 121 160 197 247 297 346
#     4  11  22  39  61  83 114 160 201 247 296 349
#
# _framework density 20.522649000000001
#
# number of rings (size 3 to 8) (size 9 to 14) (size 15 to 20)
#    0.000    1.714    1.429    2.143    2.000    4.000 
#    0.000    0.000    0.000    0.000    0.000    0.000 
#    0.000    0.000    0.000    0.000    0.000    0.000 
#
# Total GULP energy -173644.733569 kJ/mol
# GULP energy per Si atom -12403.195255 kJ/mol
# Density = 2.047594 g / cm^3
# Si number density = 20.522649 Si / 1000 Ang^3
#
#
#
# Elastic Constant Matrix: (Units=GPa)
#
#
# Indices 1 2 3 4 5 6 
#
# 1 99.4249 45.0535 34.2221 -3.5407 2.0987 -7.4924
# 2 45.0535 97.1062 25.4078 -5.4336 11.7941 -8.5516
# 3 34.2221 25.4078 76.9340 -5.1693 4.3845 1.6156
# 4 -3.5407 -5.4336 -5.1693 33.1100 -3.7581 -0.2772
# 5 2.0987 11.7941 4.3845 -3.7581 26.7087 -0.9117
# 6 -7.4924 -8.5516 1.6156 -0.2772 -0.9117 38.8922
#
#
#
# Elastic Compliance Matrix: (Units=1/GPa)
#
#
# Indices 1 2 3 4 5 6 
#
# 1 0.014246 -0.005481 -0.004676 0.000153 0.002151 0.001785
# 2 -0.005481 0.014225 -0.001940 0.000856 -0.005342 0.002033
# 3 -0.004676 -0.001940 0.015934 0.001511 -0.001247 -0.002008
# 4 0.000153 0.000856 0.001511 0.031024 0.003743 0.000464
# 5 0.002151 -0.005342 -0.001247 0.003743 0.040371 0.000265
# 6 0.001785 0.002033 -0.002008 0.000464 0.000265 0.026596
#
#
# Mechanical properties :
#
#
# Convention : Reuss Voigt Hill
#
# Bulk Modulus (GPa) = 49.48488 53.64797 51.56642
# Shear Modulus (GPa) = 28.84708 30.99432 29.92070
#
# Velocity S-wave (km/s) = 3.75323 3.89041 3.82243
# Velocity P-wave (km/s) = 6.55339 6.81014 6.68300
#
# Compressibility (1/GPa) = 0.02020819
#
# Stress axis : x y z
#
# Youngs Moduli (GPa) = 70.19561 70.30052 62.75943
#
# Poissons Ratio (x) = 0.38535 0.29349
# Poissons Ratio (y) = 0.38478 0.12176
# Poissons Ratio (z) = 0.32827 0.13639
#
# Static dielectric constant tensor:
#      x y z
#    x 3.771890 -0.131610 -0.030330 
#    y -0.131610 3.732830 -0.256340 
#    z -0.030330 -0.256340 3.697940 
# 
# 
# High freq. dielectric constant tensor:
#      x y z
#    x 1.802060 -0.007580 0.002390 
#    y -0.007580 1.806890 -0.010180 
#    z 0.002390 -0.010180 1.806760 
# 
# From -- ./inp_files/44373.got.cif
#   From: 2010.06.25/outbox.cif.g09.slc.cpg/sg2_23_cif.got.tgz:44373.got - 2010.06.27 13:26:56.
