data_PCOD8013061
_publ_section_title
;
Structure prediction by ZEFSAII (Michael W. Deem and Ramdas Pophale) SiO2 
 PCOD8013061
Probable space group: P -1
;
_chemical_formula_sum "Si O2"
_cell_formula_units_Z 14
_cell_length_a 15.657260
_cell_length_b 21.305370
_cell_length_c 11.823034
_cell_angle_alpha 29.006460
_cell_angle_beta 154.137017
_cell_angle_gamma 159.710523
_cell_volume 584.285869
_symmetry_space_group_name_H-M "P -1"
_symmetry_group_IT_number 2
_symmetry_cell_setting 'triclinic'
loop_
_space_group_symop_operation_xyz
x,y,z
-x,-y,-z
loop_
_atom_site_type_symbol
_atom_site_label
_atom_site_fract_x
_atom_site_fract_y
_atom_site_fract_z
Si Si1 0.365313 0.795509 0.162401
Si Si2 0.526871 0.691313 0.335831
Si Si3 0.080068 0.285294 0.376499
Si Si4 0.516004 0.873328 0.848259
Si Si5 0.164038 0.729429 0.439347
Si Si6 0.040449 0.996897 0.183752
Si Si7 0.374026 0.653944 0.620706
O O1 0.553233 0.769522 0.368544
O O2 0.297819 0.721287 0.326293
O O3 0.079987 0.676186 0.940284
O O4 0.500000 0.000000 0.000000
O O5 0.325637 0.471767 0.443753
O O6 0.818571 0.772852 0.505812
O O7 0.401068 0.752210 0.015478
O O8 0.891007 0.118061 0.509322
O O9 0.262039 0.781362 0.604820
O O10 0.704052 0.088244 0.758086
O O11 0.733027 0.872737 0.059355
O O12 0.286219 0.662269 0.627364
O O13 0.821855 0.565225 0.289249
O O14 0.289512 0.209560 0.190114
O O15 0.000000 0.000000 0.000000
#
# Coordination Sequence:
#
# PCOD8013061 Si02
#       7
#     2   2   2   2   2   2   2
#     4  12  23  40  66  94 134 168 206 266 329 389
#     4  10  23  42  66  98 125 170 220 262 323 388
#     4  10  23  43  65  96 127 170 219 267 317 383
#     4  10  21  40  65  91 123 170 214 262 316 384
#     4  10  22  40  64  89 128 167 212 264 318 383
#     4  11  22  40  65  90 128 165 215 266 317 382
#     4  11  23  41  60  97 126 166 211 263 326 384
#
# _framework density 23.960875000000001
#
# number of rings (size 3 to 8) (size 9 to 14) (size 15 to 20)
#    0.000    1.429    2.857    2.143    0.000    2.286 
#    2.571    0.000    0.000    0.000    0.000    0.000 
#    0.000    0.000    0.000    0.000    0.000    0.000 
#
# Total GULP energy -173447.252071 kJ/mol
# GULP energy per Si atom -12389.089434 kJ/mol
# Density = 2.390634 g / cm^3
# Si number density = 23.960875 Si / 1000 Ang^3
#
#
#
# Elastic Constant Matrix: (Units=GPa)
#
#
# Indices 1 2 3 4 5 6 
#
# 1 73.5106 25.3390 11.0450 -4.8479 -6.8982 -7.4389
# 2 25.3390 153.4071 26.8725 -14.8789 -14.4844 -10.1229
# 3 11.0450 26.8725 61.1286 -4.5081 -12.6892 -6.3698
# 4 -4.8479 -14.8789 -4.5081 32.9251 -8.8398 0.9844
# 5 -6.8982 -14.4844 -12.6892 -8.8398 29.9478 -7.5858
# 6 -7.4389 -10.1229 -6.3698 0.9844 -7.5858 25.3250
#
#
#
# Elastic Compliance Matrix: (Units=1/GPa)
#
#
# Indices 1 2 3 4 5 6 
#
# 1 0.015295 -0.001402 -0.000424 0.002685 0.004761 0.005147
# 2 -0.001402 0.008231 -0.001493 0.004638 0.005391 0.003937
# 3 -0.000424 -0.001493 0.020591 0.004883 0.011283 0.007647
# 4 0.002685 0.004638 0.004883 0.038180 0.018185 0.007834
# 5 0.004761 0.005391 0.011283 0.018185 0.052681 0.021465
# 6 0.005147 0.003937 0.007647 0.007834 0.021465 0.050621
#
#
# Mechanical properties :
#
#
# Convention : Reuss Voigt Hill
#
# Bulk Modulus (GPa) = 26.68326 46.06217 36.37271
# Shear Modulus (GPa) = 24.42221 32.62555 28.52388
#
# Velocity S-wave (km/s) = 3.19604 3.69401 3.45401
# Velocity P-wave (km/s) = 4.97794 6.12045 5.57852
#
# Compressibility (1/GPa) = 0.03747669
#
# Stress axis : x y z
#
# Youngs Moduli (GPa) = 65.37907 121.49894 48.56433
#
# Poissons Ratio (x) = 0.17040 0.02061
# Poissons Ratio (y) = 0.09169 0.07252
# Poissons Ratio (z) = 0.02775 0.18144
#
# Static dielectric constant tensor:
#      x y z
#    x 4.954660 0.545870 -0.466170 
#    y 0.545870 4.833850 -0.268800 
#    z -0.466170 -0.268800 4.552500 
# 
# 
# High freq. dielectric constant tensor:
#      x y z
#    x 1.942420 0.003890 -0.008890 
#    y 0.003890 1.959640 -0.011490 
#    z -0.008890 -0.011490 1.935230 
# 
# From -- ./inp_files/155254.got.cif
#   From: 2010.06.25/outbox.cif.g09.slc.cpg/sg2_78_cif.got.tgz:155254.got - 2010.06.27 13:26:56.
