data_PCOD8013992
_publ_section_title
;
Structure prediction by ZEFSAII (Michael W. Deem and Ramdas Pophale) SiO2 
 PCOD8013992
Probable space group: P -1
;
_chemical_formula_sum "Si O2"
_cell_formula_units_Z 10
_cell_length_a 14.566857
_cell_length_b 8.966215
_cell_length_c 11.837227
_cell_angle_alpha 56.561130
_cell_angle_beta 30.166488
_cell_angle_gamma 40.194937
_cell_volume 472.048874
_symmetry_space_group_name_H-M "P -1"
_symmetry_group_IT_number 2
_symmetry_cell_setting 'triclinic'
loop_
_space_group_symop_operation_xyz
x,y,z
-x,-y,-z
loop_
_atom_site_type_symbol
_atom_site_label
_atom_site_fract_x
_atom_site_fract_y
_atom_site_fract_z
Si Si1 0.505665 0.983913 0.169452
Si Si2 0.366369 0.997882 0.744630
Si Si3 0.464387 0.604890 0.669188
Si Si4 0.805652 0.470070 0.162573
Si Si5 0.262841 0.904625 0.298661
O O1 0.717603 0.688950 0.082924
O O2 0.445109 0.110345 0.303533
O O3 0.261931 0.051029 0.342611
O O4 0.607693 0.080442 0.948361
O O5 0.331200 0.818193 0.816128
O O6 0.500000 0.000000 0.500000
O O7 0.106070 0.270723 0.942952
O O8 0.674641 0.566134 0.385810
O O9 0.257390 0.674860 0.771315
O O10 0.576872 0.370629 0.719871
O O11 0.000000 0.000000 0.500000
#
# Coordination Sequence:
#
# PCOD8013992 Si02
#       5
#     2   2   2   2   2
#     4  10  22  41  63  92 122 165 207 251 311 369
#     4  12  23  36  64  97 126 154 206 260 309 364
#     4  10  22  40  64  92 120 166 209 250 311 365
#     4  10  21  41  64  89 127 162 204 255 307 370
#     4  10  22  41  66  85 124 169 206 251 309 366
#
# _framework density 21.184246000000002
#
# number of rings (size 3 to 8) (size 9 to 14) (size 15 to 20)
#    0.000    1.600    2.000    2.400    2.800    0.800 
#    3.600    1.000    0.000    0.000    0.000    0.000 
#    0.000    0.000    0.000    0.000    0.000    0.000 
#
# Total GULP energy -123905.242723 kJ/mol
# GULP energy per Si atom -12390.524272 kJ/mol
# Density = 2.113603 g / cm^3
# Si number density = 21.184246 Si / 1000 Ang^3
#
#
#
# Elastic Constant Matrix: (Units=GPa)
#
#
# Indices 1 2 3 4 5 6 
#
# 1 161.9412 -9.1075 29.3396 -1.0566 -10.1315 -9.5553
# 2 -9.1075 39.5839 2.7508 -10.1043 -2.7397 -41.7268
# 3 29.3396 2.7508 68.2043 -8.1393 -14.4681 -28.4055
# 4 -1.0566 -10.1043 -8.1393 32.0994 5.7107 15.0311
# 5 -10.1315 -2.7397 -14.4681 5.7107 40.9518 -12.7167
# 6 -9.5553 -41.7268 -28.4055 15.0311 -12.7167 16.5397
#
#
#
# Elastic Compliance Matrix: (Units=1/GPa)
#
#
# Indices 1 2 3 4 5 6 
#
# 1 0.006742 0.000310 -0.003499 0.000105 -0.000007 -0.001433
# 2 0.000310 0.005950 -0.010175 0.011140 -0.011201 -0.021022
# 3 -0.003499 -0.010175 0.013270 0.004330 -0.000271 -0.009045
# 4 0.000105 0.011140 0.004330 0.034912 -0.001793 0.002494
# 5 -0.000007 -0.011201 -0.000271 -0.001793 0.020240 -0.011537
# 6 -0.001433 -0.021022 -0.009045 0.002494 -0.011537 -0.020072
#
#
# Mechanical properties :
#
#
# Convention : Reuss Voigt Hill
#
# Bulk Modulus (GPa) = -1304.09417 35.07723 -634.50847
# Shear Modulus (GPa) = 57.13356 34.36795 45.75076
#
# Velocity S-wave (km/s) = 5.19888 4.03219 4.65226
# Velocity P-wave (km/s) = 24.10176 6.18645 16.47153
#
# Compressibility (1/GPa) = -0.00076682
#
# Stress axis : x y z
#
# Youngs Moduli (GPa) = 148.32333 168.07707 75.35981
#
# Poissons Ratio (x) = -0.05203 0.26366
# Poissons Ratio (y) = -0.04592 0.76678
# Poissons Ratio (z) = 0.51894 1.71017
#
# Static dielectric constant tensor:
#      x y z
#    x 4.722330 0.506660 -0.050180 
#    y 0.506660 4.272600 -0.144680 
#    z -0.050180 -0.144680 3.579980 
# 
# 
# High freq. dielectric constant tensor:
#      x y z
#    x 1.868090 0.014890 -0.006760 
#    y 0.014890 1.834250 -0.033290 
#    z -0.006760 -0.033290 1.794940 
# 
# From -- ./inp_files/16817.got.cif
#   From: 2010.06.25/outbox.cif.g09.slc.cpg/sg2_9_cif.got.tgz:16817.got - 2010.06.27 13:26:56.
