data_PCOD8013173
_publ_section_title
;
Structure prediction by ZEFSAII (Michael W. Deem and Ramdas Pophale) SiO2 
 PCOD8013173
Probable space group: P -1
;
_chemical_formula_sum "Si O2"
_cell_formula_units_Z 16
_cell_length_a 25.300052
_cell_length_b 27.709314
_cell_length_c 6.781409
_cell_angle_alpha 55.857176
_cell_angle_beta 56.950239
_cell_angle_gamma 10.154340
_cell_volume 692.863569
_symmetry_space_group_name_H-M "P -1"
_symmetry_group_IT_number 2
_symmetry_cell_setting 'triclinic'
loop_
_space_group_symop_operation_xyz
x,y,z
-x,-y,-z
loop_
_atom_site_type_symbol
_atom_site_label
_atom_site_fract_x
_atom_site_fract_y
_atom_site_fract_z
Si Si1 0.927127 0.623646 0.477965
Si Si2 0.741571 0.572761 0.907755
Si Si3 0.612006 0.059438 0.846108
Si Si4 0.211239 0.733294 0.649682
Si Si5 0.415481 0.114083 0.099632
Si Si6 0.393243 0.830506 0.692029
Si Si7 0.273933 0.584234 0.154800
Si Si8 0.817602 0.150743 0.219780
O O1 0.186331 0.437519 0.358891
O O2 0.000000 0.500000 0.500000
O O3 0.887643 0.640041 0.752498
O O4 0.637824 0.912075 0.298256
O O5 0.558811 0.690733 0.883507
O O6 0.040277 0.273053 0.073825
O O7 0.523427 0.792867 0.016644
O O8 0.587845 0.128962 0.567881
O O9 0.409362 0.187898 0.887885
O O10 0.500000 0.500000 0.500000
O O11 0.133682 0.837776 0.767525
O O12 0.251767 0.629450 0.871742
O O13 0.944884 0.978634 0.469707
O O14 0.500000 0.000000 0.000000
O O15 0.563127 0.625232 0.703309
O O16 0.047798 0.127399 0.749841
O O17 0.471229 0.451058 0.188247
O O18 0.000000 0.000000 0.000000
#
# Coordination Sequence:
#
# PCOD8013173 Si02
#       8
#     2   2   2   2   2   2   2   2
#     4  10  21  40  65  99 133 175 230 301 369 420
#     4  11  25  47  72  96 146 185 240 304 356 428
#     4  11  25  47  69  99 139 189 240 293 362 428
#     4  11  25  44  76 109 143 186 229 284 371 408
#     4  10  23  38  66 103 133 175 233 296 370 435
#     4  12  29  47  70 101 143 196 243 287 352 422
#     4  12  27  48  72 108 143 187 243 289 346 432
#     4  11  24  46  74 110 151 182 226 299 353 420
#
# _framework density 23.092569999999998
#
# number of rings (size 3 to 8) (size 9 to 14) (size 15 to 20)
#    0.000    1.000    2.500    2.625    5.250    6.500 
#    0.000    0.000    0.000    0.000    0.000    0.000 
#    0.000    0.000    0.000    0.000    0.000    0.000 
#
# Total GULP energy -198389.272989 kJ/mol
# GULP energy per Si atom -12399.329562 kJ/mol
# Density = 2.304001 g / cm^3
# Si number density = 23.092570 Si / 1000 Ang^3
#
#
#
# Elastic Constant Matrix: (Units=GPa)
#
#
# Indices 1 2 3 4 5 6 
#
# 1 70.5641 16.1193 27.2318 0.2293 7.9122 2.1239
# 2 16.1193 98.7386 24.8986 2.9242 -0.9951 -2.8006
# 3 27.2318 24.8986 144.3422 4.6550 -14.7004 0.8835
# 4 0.2293 2.9242 4.6550 40.9817 11.0837 1.8873
# 5 7.9122 -0.9951 -14.7004 11.0837 45.0426 0.0239
# 6 2.1239 -2.8006 0.8835 1.8873 0.0239 41.7787
#
#
#
# Elastic Compliance Matrix: (Units=1/GPa)
#
#
# Indices 1 2 3 4 5 6 
#
# 1 0.016392 -0.001978 -0.003245 0.001649 -0.004388 -0.000969
# 2 -0.001978 0.010867 -0.001454 -0.000718 0.000289 0.000892
# 3 -0.003245 -0.001454 0.008223 -0.001802 0.003665 -0.000027
# 4 0.001649 -0.000718 -0.001802 0.026728 -0.007470 -0.001297
# 5 -0.004388 0.000289 0.003665 -0.007470 0.026012 0.000488
# 6 -0.000969 0.000892 -0.000027 -0.001297 0.000488 0.024104
#
#
# Mechanical properties :
#
#
# Convention : Reuss Voigt Hill
#
# Bulk Modulus (GPa) = 45.19602 50.01604 47.60603
# Shear Modulus (GPa) = 37.57830 41.92028 39.74929
#
# Velocity S-wave (km/s) = 4.03834 4.26527 4.15336
# Velocity P-wave (km/s) = 6.43105 6.77958 6.60761
#
# Compressibility (1/GPa) = 0.02212584
#
# Stress axis : x y z
#
# Youngs Moduli (GPa) = 61.00686 92.02284 121.61568
#
# Poissons Ratio (x) = 0.18204 0.39468
# Poissons Ratio (y) = 0.12068 0.17685
# Poissons Ratio (z) = 0.19799 0.13381
#
# Static dielectric constant tensor:
#      x y z
#    x 3.914540 -0.141210 -0.143460 
#    y -0.141210 4.277260 -0.443950 
#    z -0.143460 -0.443950 0.691760 
# 
# 
# High freq. dielectric constant tensor:
#      x y z
#    x 1.905760 0.002620 -0.006570 
#    y 0.002620 1.923620 -0.003820 
#    z -0.006570 -0.003820 1.932290 
# 
# From -- ./inp_files/12807.got.cif
#   From: 2010.06.25/outbox.cif.g09.slc.cpg/sg2_7_cif.got.tgz:12807.got - 2010.06.27 13:26:56.
