data_PCOD8013273
_publ_section_title
;
Structure prediction by ZEFSAII (Michael W. Deem and Ramdas Pophale) SiO2 
 PCOD8013273
Probable space group: P -1
;
_chemical_formula_sum "Si O2"
_cell_formula_units_Z 14
_cell_length_a 12.009498
_cell_length_b 21.654584
_cell_length_c 7.145676
_cell_angle_alpha 46.594786
_cell_angle_beta 68.425284
_cell_angle_gamma 33.067354
_cell_volume 626.921467
_symmetry_space_group_name_H-M "P -1"
_symmetry_group_IT_number 2
_symmetry_cell_setting 'triclinic'
loop_
_space_group_symop_operation_xyz
x,y,z
-x,-y,-z
loop_
_atom_site_type_symbol
_atom_site_label
_atom_site_fract_x
_atom_site_fract_y
_atom_site_fract_z
Si Si1 0.470802 0.500181 0.797615
Si Si2 0.986532 0.718917 0.537630
Si Si3 0.434390 0.706227 0.395314
Si Si4 0.736823 0.022618 0.245630
Si Si5 0.798381 0.692758 0.985440
Si Si6 0.124811 0.848071 0.634379
Si Si7 0.038018 0.583218 0.432680
O O1 0.424109 0.620066 0.476113
O O2 0.260164 0.565031 0.747041
O O3 0.500000 0.500000 0.000000
O O4 0.725140 0.300945 0.997368
O O5 0.978409 0.697442 0.369831
O O6 0.828687 0.901025 0.282838
O O7 0.890462 0.702116 0.758663
O O8 0.320845 0.769128 0.539339
O O9 0.712235 0.562035 0.533209
O O10 0.277748 0.871983 0.038034
O O11 0.481658 0.148699 0.216915
O O12 0.934422 0.902954 0.536816
O O13 0.946605 0.513199 0.254347
O O14 0.828332 0.709614 0.144113
O O15 0.000000 0.000000 0.500000
#
# Coordination Sequence:
#
# PCOD8013273 Si02
#       7
#     2   2   2   2   2   2   2
#     4  10  21  40  66  95 131 172 212 267 331 388
#     4  12  23  42  70  96 131 177 226 268 331 394
#     4  10  22  45  63  93 138 164 217 276 319 398
#     4  11  24  43  64  98 135 173 215 277 326 386
#     4  10  23  46  62  95 138 168 225 279 317 395
#     4  11  24  41  66 100 133 172 214 269 343 389
#     4  10  24  42  71  94 126 181 222 270 336 383
#
# _framework density 22.331344999999999
#
# number of rings (size 3 to 8) (size 9 to 14) (size 15 to 20)
#    0.000    1.429    2.857    3.000    4.000    2.286 
#    7.714    0.000    0.000    0.000    0.000    0.000 
#    0.000    0.000    0.000    0.000    0.000    0.000 
#
# Total GULP energy -173563.545400 kJ/mol
# GULP energy per Si atom -12397.396100 kJ/mol
# Density = 2.228052 g / cm^3
# Si number density = 22.331345 Si / 1000 Ang^3
#
#
#
# Elastic Constant Matrix: (Units=GPa)
#
#
# Indices 1 2 3 4 5 6 
#
# 1 126.9898 54.6381 44.2858 -6.9551 -11.2944 -3.6898
# 2 54.6381 84.9319 58.6095 -12.4008 -14.7142 -3.7146
# 3 44.2858 58.6095 101.9296 -18.1278 -17.1644 -10.8002
# 4 -6.9551 -12.4008 -18.1278 28.9190 6.2199 -8.7656
# 5 -11.2944 -14.7142 -17.1644 6.2199 35.4479 -6.3892
# 6 -3.6898 -3.7146 -10.8002 -8.7656 -6.3892 43.4098
#
#
#
# Elastic Compliance Matrix: (Units=1/GPa)
#
#
# Indices 1 2 3 4 5 6 
#
# 1 0.010999 -0.006256 -0.001280 -0.000949 0.000446 -0.000045
# 2 -0.006256 0.023396 -0.010071 0.001571 0.002503 -0.000350
# 3 -0.001280 -0.010071 0.018965 0.008174 0.004246 0.006023
# 4 -0.000949 0.001571 0.008174 0.043700 -0.001432 0.010701
# 5 0.000446 0.002503 0.004246 -0.001432 0.032752 0.005840
# 6 -0.000045 -0.000350 0.006023 0.010701 0.005840 0.027521
#
#
# Mechanical properties :
#
#
# Convention : Reuss Voigt Hill
#
# Bulk Modulus (GPa) = 55.10863 69.87978 62.49421
# Shear Modulus (GPa) = 25.17691 31.97651 28.57671
#
# Velocity S-wave (km/s) = 3.36136 3.78817 3.58113
# Velocity P-wave (km/s) = 6.30843 7.10590 6.71900
#
# Compressibility (1/GPa) = 0.01814598
#
# Stress axis : x y z
#
# Youngs Moduli (GPa) = 90.91692 42.74250 52.72973
#
# Poissons Ratio (x) = 0.26738 0.06751
# Poissons Ratio (y) = 0.56875 0.53104
# Poissons Ratio (z) = 0.11639 0.43046
#
# Static dielectric constant tensor:
#      x y z
#    x 4.288450 -0.074580 -0.236590 
#    y -0.074580 3.917700 -0.288500 
#    z -0.236590 -0.288500 4.829410 
# 
# 
# High freq. dielectric constant tensor:
#      x y z
#    x 1.889140 -0.011100 -0.013530 
#    y -0.011100 1.867040 -0.015410 
#    z -0.013530 -0.015410 1.884490 
# 
# From -- ./inp_files/284614.got.cif
#   From: 2010.06.25/outbox.cif.g09.slc.cpg/sg2_143_cif.got.tgz:284614.got - 2010.06.27 13:26:56.
