data_PCOD8013987
_publ_section_title
;
Structure prediction by ZEFSAII (Michael W. Deem and Ramdas Pophale) SiO2 
 PCOD8013987
Probable space group: P -1
;
_chemical_formula_sum "Si O2"
_cell_formula_units_Z 16
_cell_length_a 16.278311
_cell_length_b 8.676027
_cell_length_c 13.737993
_cell_angle_alpha 87.972942
_cell_angle_beta 22.614562
_cell_angle_gamma 89.678472
_cell_volume 743.762124
_symmetry_space_group_name_H-M "P -1"
_symmetry_group_IT_number 2
_symmetry_cell_setting 'triclinic'
loop_
_space_group_symop_operation_xyz
x,y,z
-x,-y,-z
loop_
_atom_site_type_symbol
_atom_site_label
_atom_site_fract_x
_atom_site_fract_y
_atom_site_fract_z
Si Si1 0.355477 0.645440 0.249775
Si Si2 0.074745 0.179103 0.995434
Si Si3 0.394783 0.569136 0.900470
Si Si4 0.235247 0.131875 0.204618
Si Si5 0.455958 0.364771 0.472311
Si Si6 0.285393 0.890353 0.743218
Si Si7 0.825188 0.218086 0.735284
Si Si8 0.068081 0.293086 0.209375
O O1 0.455079 0.484178 0.172993
O O2 0.231790 0.646982 0.281904
O O3 0.183550 0.682720 0.518933
O O4 0.533897 0.784418 0.048588
O O5 0.232966 0.264858 0.740392
O O6 0.113306 0.997762 0.976140
O O7 0.132386 0.266909 0.029303
O O8 0.825994 0.177978 0.233882
O O9 0.544762 0.579939 0.640066
O O10 0.282230 0.727251 0.047771
O O11 0.200505 0.443285 0.100763
O O12 0.118657 0.149813 0.226914
O O13 0.083613 0.203839 0.452571
O O14 0.272252 0.952025 0.184920
O O15 0.500000 0.500000 0.500000
O O16 0.659398 0.259147 0.253683
O O17 0.500000 0.000000 0.500000
#
# Coordination Sequence:
#
# PCOD8013987 Si02
#       8
#     2   2   2   2   2   2   2   2
#     4  10  22  39  61  91 119 164 201 246 310 367
#     4  10  21  42  63  88 122 165 209 250 306 361
#     4  11  24  39  59  93 125 163 206 247 303 365
#     4   9  21  40  65  89 122 155 200 259 310 356
#     4  11  23  40  62  90 130 164 202 251 305 359
#     4   9  22  40  63  85 115 162 206 256 303 351
#     4  10  21  41  64  89 121 155 202 258 309 361
#     4  10  22  38  61  90 123 164 202 247 303 366
#
# _framework density 21.512253999999999
#
# number of rings (size 3 to 8) (size 9 to 14) (size 15 to 20)
#    0.000    2.000    1.250    0.750    3.500    8.000 
#    4.500    0.000    0.000    0.000    0.000    0.000 
#    0.000    0.000    0.000    0.000    0.000    0.000 
#
# Total GULP energy -198220.965946 kJ/mol
# GULP energy per Si atom -12388.810372 kJ/mol
# Density = 2.146329 g / cm^3
# Si number density = 21.512254 Si / 1000 Ang^3
#
#
#
# Elastic Constant Matrix: (Units=GPa)
#
#
# Indices 1 2 3 4 5 6 
#
# 1 58.2727 24.8974 27.7588 11.3152 1.2505 3.3121
# 2 24.8974 92.9942 30.6566 13.9634 2.0839 -5.9076
# 3 27.7588 30.6566 100.2675 0.0410 4.7447 0.9861
# 4 11.3152 13.9634 0.0410 29.3368 3.0748 0.2338
# 5 1.2505 2.0839 4.7447 3.0748 40.5011 0.9559
# 6 3.3121 -5.9076 0.9861 0.2338 0.9559 27.3833
#
#
#
# Elastic Compliance Matrix: (Units=1/GPa)
#
#
# Indices 1 2 3 4 5 6 
#
# 1 0.022697 -0.003515 -0.005207 -0.007122 0.000708 -0.003280
# 2 -0.003515 0.013786 -0.003279 -0.005240 0.000097 0.003559
# 3 -0.005207 -0.003279 0.012488 0.003703 -0.001402 -0.000510
# 4 -0.007122 -0.005240 0.003703 0.039636 -0.002938 -0.000638
# 5 0.000708 0.000097 -0.001402 -0.002938 0.025072 -0.000864
# 6 -0.003280 0.003559 -0.000510 -0.000638 -0.000864 0.037737
#
#
# Mechanical properties :
#
#
# Convention : Reuss Voigt Hill
#
# Bulk Modulus (GPa) = 40.05204 46.46223 43.25713
# Shear Modulus (GPa) = 27.21213 30.65901 28.93557
#
# Velocity S-wave (km/s) = 3.56049 3.77926 3.67150
# Velocity P-wave (km/s) = 5.96334 6.37877 6.17455
#
# Compressibility (1/GPa) = 0.02496752
#
# Stress axis : x y z
#
# Youngs Moduli (GPa) = 44.05827 72.53604 80.07994
#
# Poissons Ratio (x) = 0.25496 0.41700
# Poissons Ratio (y) = 0.15486 0.26262
# Poissons Ratio (z) = 0.22943 0.23788
#
# Static dielectric constant tensor:
#      x y z
#    x 3.828370 -0.289390 -0.168420 
#    y -0.289390 4.037940 0.217060 
#    z -0.168420 0.217060 3.992480 
# 
# 
# High freq. dielectric constant tensor:
#      x y z
#    x 1.826180 -0.007840 -0.011410 
#    y -0.007840 1.847300 0.005590 
#    z -0.011410 0.005590 1.849040 
# 
# From -- ./inp_files/135323.got.cif
#   From: 2010.06.25/outbox.cif.g09.slc.cpg/sg2_68_cif.got.tgz:135323.got - 2010.06.27 13:26:56.
