data_PCOD8013639
_publ_section_title
;
Structure prediction by ZEFSAII (Michael W. Deem and Ramdas Pophale) SiO2 
 PCOD8013639
Probable space group: P -1
;
_chemical_formula_sum "Si O2"
_cell_formula_units_Z 14
_cell_length_a 8.820733
_cell_length_b 7.881275
_cell_length_c 13.019358
_cell_angle_alpha 93.175326
_cell_angle_beta 108.478371
_cell_angle_gamma 48.135827
_cell_volume 623.480502
_symmetry_space_group_name_H-M "P -1"
_symmetry_group_IT_number 2
_symmetry_cell_setting 'triclinic'
loop_
_space_group_symop_operation_xyz
x,y,z
-x,-y,-z
loop_
_atom_site_type_symbol
_atom_site_label
_atom_site_fract_x
_atom_site_fract_y
_atom_site_fract_z
Si Si1 0.296983 0.770015 0.848716
Si Si2 0.153778 0.757586 0.220910
Si Si3 0.344099 0.372583 0.943978
Si Si4 0.574598 0.129284 0.788387
Si Si5 0.123778 0.369860 0.625938
Si Si6 0.899525 0.583647 0.798652
Si Si7 0.064391 0.031359 0.622355
O O1 0.285740 0.593973 0.887975
O O2 0.255988 0.786494 0.716560
O O3 0.526617 0.696670 0.923315
O O4 0.096815 0.025868 0.864011
O O5 0.319043 0.760632 0.196450
O O6 0.213860 0.515978 0.205414
O O7 0.153584 0.798277 0.345687
O O8 0.499298 0.156577 0.890844
O O9 0.113016 0.445743 0.914817
O O10 0.362683 0.283078 0.673809
O O11 0.736006 0.858717 0.787384
O O12 0.980148 0.537519 0.696776
O O13 0.000000 0.500000 0.500000
O O14 0.169602 0.137375 0.632619
O O15 0.000000 0.000000 0.500000
#
# Coordination Sequence:
#
# PCOD8013639 Si02
#       7
#     2   2   2   2   2   2   2
#     4   9  20  41  67  96 129 171 217 264 323 381
#     4   9  21  41  64  94 132 164 217 266 316 384
#     4  10  21  40  70  92 133 174 209 265 327 384
#     4  11  23  41  67  95 129 169 216 265 327 382
#     4  10  24  41  65  92 126 173 214 266 325 380
#     4  10  21  44  61  96 131 168 216 265 318 388
#     4   9  20  40  67  89 126 168 214 264 318 383
#
# _framework density 22.454591000000001
#
# number of rings (size 3 to 8) (size 9 to 14) (size 15 to 20)
#    0.857    1.429    1.429    0.000    6.000    2.857 
#    0.000    2.143    0.000    0.000    0.000    0.000 
#    0.000    0.000    0.000    0.000    0.000    0.000 
#
# Total GULP energy -173492.916058 kJ/mol
# GULP energy per Si atom -12392.351147 kJ/mol
# Density = 2.240348 g / cm^3
# Si number density = 22.454591 Si / 1000 Ang^3
#
#
#
# Elastic Constant Matrix: (Units=GPa)
#
#
# Indices 1 2 3 4 5 6 
#
# 1 88.0720 55.3733 31.1843 0.1504 17.7306 3.3719
# 2 55.3733 106.7541 43.1698 -2.5392 9.4864 7.5146
# 3 31.1843 43.1698 161.2122 -11.0621 16.9636 -3.5041
# 4 0.1504 -2.5392 -11.0621 29.0288 2.5785 1.9545
# 5 17.7306 9.4864 16.9636 2.5785 23.9117 0.0019
# 6 3.3719 7.5146 -3.5041 1.9545 0.0019 28.6344
#
#
#
# Elastic Compliance Matrix: (Units=1/GPa)
#
#
# Indices 1 2 3 4 5 6 
#
# 1 0.019150 -0.008919 -0.000211 -0.000031 -0.010508 0.000063
# 2 -0.008919 0.015070 -0.002613 0.000370 0.002449 -0.003250
# 3 -0.000211 -0.002613 0.007661 0.003000 -0.004566 0.001444
# 4 -0.000031 0.000370 0.003000 0.036321 -0.006169 -0.002205
# 5 -0.010508 0.002449 -0.004566 -0.006169 0.052545 0.000454
# 6 0.000063 -0.003250 0.001444 -0.002205 0.000454 0.036096
#
#
# Mechanical properties :
#
#
# Convention : Reuss Voigt Hill
#
# Bulk Modulus (GPa) = 54.36258 68.38812 61.37535
# Shear Modulus (GPa) = 25.45030 31.40237 28.42634
#
# Velocity S-wave (km/s) = 3.37027 3.74369 3.56188
# Velocity P-wave (km/s) = 6.27754 7.01493 6.65645
#
# Compressibility (1/GPa) = 0.01839501
#
# Stress axis : x y z
#
# Youngs Moduli (GPa) = 52.21962 66.35550 130.52674
#
# Poissons Ratio (x) = 0.59183 0.02753
# Poissons Ratio (y) = 0.46575 0.34110
# Poissons Ratio (z) = 0.01101 0.17340
#
# Static dielectric constant tensor:
#      x y z
#    x 3.972360 0.118470 0.226610 
#    y 0.118470 3.977460 0.024240 
#    z 0.226610 0.024240 3.775220 
# 
# 
# High freq. dielectric constant tensor:
#      x y z
#    x 1.880880 0.010630 0.009230 
#    y 0.010630 1.888020 0.002460 
#    z 0.009230 0.002460 1.875610 
# 
# From -- ./inp_files/489692.got.cif
#   From: 2010.06.25/outbox.cif.g09.slc.cpg/sg2_245_cif.got.tgz:489692.got - 2010.06.27 13:26:56.
