data_PCOD8013341
_publ_section_title
;
Structure prediction by ZEFSAII (Michael W. Deem and Ramdas Pophale) SiO2 
 PCOD8013341
Probable space group: P -1
;
_chemical_formula_sum "Si O2"
_cell_formula_units_Z 14
_cell_length_a 12.342523
_cell_length_b 29.818861
_cell_length_c 15.057351
_cell_angle_alpha 21.343643
_cell_angle_beta 145.010675
_cell_angle_gamma 157.842372
_cell_volume 721.743834
_symmetry_space_group_name_H-M "P -1"
_symmetry_group_IT_number 2
_symmetry_cell_setting 'triclinic'
loop_
_space_group_symop_operation_xyz
x,y,z
-x,-y,-z
loop_
_atom_site_type_symbol
_atom_site_label
_atom_site_fract_x
_atom_site_fract_y
_atom_site_fract_z
Si Si1 0.769902 0.093212 0.945145
Si Si2 0.293405 0.875563 0.674065
Si Si3 0.795288 0.815714 0.480685
Si Si4 0.889355 0.813366 0.738481
Si Si5 0.166905 0.539594 0.950582
Si Si6 0.533964 0.066355 0.656022
Si Si7 0.620487 0.567138 0.183473
O O1 0.738413 0.114720 0.781947
O O2 0.078604 0.312807 0.782124
O O3 0.500000 0.000000 0.000000
O O4 0.821936 0.974922 0.202141
O O5 0.119444 0.916840 0.495119
O O6 0.500000 0.000000 0.500000
O O7 0.515880 0.969216 0.735734
O O8 0.069888 0.645979 0.933800
O O9 0.694580 0.726035 0.678244
O O10 0.559517 0.652053 0.548849
O O11 0.676772 0.645656 0.977872
O O12 0.000000 0.000000 0.500000
O O13 0.193736 0.890688 0.788332
O O14 0.330064 0.731898 0.652019
O O15 0.414855 0.563753 0.102280
O O16 0.000000 0.500000 0.000000
#
# Coordination Sequence:
#
# PCOD8013341 Si02
#       7
#     2   2   2   2   2   2   2
#     4  12  24  41  59  89 135 169 190 242 313 375
#     4  10  21  40  67  89 115 158 212 260 300 343
#     4  10  23  37  61  91 122 157 207 253 301 358
#     4  11  17  37  62  88 117 158 204 262 294 348
#     4  11  22  39  69  90 115 157 211 263 298 350
#     4  11  22  38  60  93 122 158 205 246 310 365
#     4  11  22  39  62  90 123 158 210 249 304 357
#
# _framework density 19.397465
#
# number of rings (size 3 to 8) (size 9 to 14) (size 15 to 20)
#    0.000    1.143    5.714    1.286    0.000    1.714 
#    0.000    1.429    0.000    0.000    0.000    0.000 
#    0.000    0.000    0.000    0.000    0.000    0.000 
#
# Total GULP energy -173543.298930 kJ/mol
# GULP energy per Si atom -12395.949924 kJ/mol
# Density = 1.935332 g / cm^3
# Si number density = 19.397465 Si / 1000 Ang^3
#
#
#
# Elastic Constant Matrix: (Units=GPa)
#
#
# Indices 1 2 3 4 5 6 
#
# 1 120.2879 46.6475 19.1721 6.1277 1.2607 -8.5528
# 2 46.6475 125.2647 20.4237 1.1494 0.7066 -29.5681
# 3 19.1721 20.4237 42.7119 -0.8266 7.2542 -9.7380
# 4 6.1277 1.1494 -0.8266 27.9225 -3.7905 -4.8257
# 5 1.2607 0.7066 7.2542 -3.7905 26.5147 -2.2609
# 6 -8.5528 -29.5681 -9.7380 -4.8257 -2.2609 37.4102
#
#
#
# Elastic Compliance Matrix: (Units=1/GPa)
#
#
# Indices 1 2 3 4 5 6 
#
# 1 0.010267 -0.003672 -0.003298 -0.002499 0.000007 -0.001736
# 2 -0.003672 0.011599 -0.002268 0.001850 0.001438 0.008063
# 3 -0.003298 -0.002268 0.028222 0.001507 -0.006898 0.004577
# 4 -0.002499 0.001850 0.001507 0.038235 0.005682 0.006559
# 5 0.000007 0.001438 -0.006898 0.005682 0.040592 0.002529
# 6 -0.001736 0.008063 0.004577 0.006559 0.002529 0.034897
#
#
# Mechanical properties :
#
#
# Convention : Reuss Voigt Hill
#
# Bulk Modulus (GPa) = 31.63428 51.19455 41.41442
# Shear Modulus (GPa) = 25.93042 31.83757 28.88400
#
# Velocity S-wave (km/s) = 3.66019 4.05572 3.86302
# Velocity P-wave (km/s) = 5.84863 6.95568 6.42604
#
# Compressibility (1/GPa) = 0.03161127
#
# Stress axis : x y z
#
# Youngs Moduli (GPa) = 97.39972 86.21775 35.43380
#
# Poissons Ratio (x) = 0.31663 0.11685
# Poissons Ratio (y) = 0.35770 0.08036
# Poissons Ratio (z) = 0.32119 0.19553
#
# Static dielectric constant tensor:
#      x y z
#    x 3.831910 -0.228940 0.169320 
#    y -0.228940 3.735210 -0.175000 
#    z 0.169320 -0.175000 3.346220 
# 
# 
# High freq. dielectric constant tensor:
#      x y z
#    x 1.769710 -0.010470 0.007960 
#    y -0.010470 1.757680 -0.020690 
#    z 0.007960 -0.020690 1.734120 
# 
# From -- ./inp_files/246450.got.cif
#   From: 2010.06.25/outbox.cif.g09.slc.cpg/sg2_124_cif.got.tgz:246450.got - 2010.06.27 13:26:56.
