data_PCOD8013778
_publ_section_title
;
Structure prediction by ZEFSAII (Michael W. Deem and Ramdas Pophale) SiO2 
 PCOD8013778
Probable space group: P -1
;
_chemical_formula_sum "Si O2"
_cell_formula_units_Z 12
_cell_length_a 27.428767
_cell_length_b 10.324186
_cell_length_c 11.525768
_cell_angle_alpha 26.819634
_cell_angle_beta 155.538962
_cell_angle_gamma 153.447513
_cell_volume 547.579088
_symmetry_space_group_name_H-M "P -1"
_symmetry_group_IT_number 2
_symmetry_cell_setting 'triclinic'
loop_
_space_group_symop_operation_xyz
x,y,z
-x,-y,-z
loop_
_atom_site_type_symbol
_atom_site_label
_atom_site_fract_x
_atom_site_fract_y
_atom_site_fract_z
Si Si1 0.759911 0.759218 0.939486
Si Si2 0.615126 0.513010 0.156573
Si Si3 0.983859 0.817906 0.227670
Si Si4 0.140989 0.962812 0.839831
Si Si5 0.601086 0.121114 0.227352
Si Si6 0.877075 0.678030 0.687783
O O1 0.644775 0.845799 0.576924
O O2 0.836560 0.729165 0.018389
O O3 0.719294 0.436207 0.182338
O O4 0.861737 0.028927 0.031246
O O5 0.550037 0.225896 0.149716
O O6 0.719533 0.465778 0.504349
O O7 0.703046 0.852212 0.009475
O O8 0.500000 0.500000 0.000000
O O9 0.000000 0.500000 0.500000
O O10 0.091450 0.050991 0.364373
O O11 0.000000 0.000000 0.000000
O O12 0.068415 0.142618 0.464209
O O13 0.073540 0.586556 0.960094
O O14 0.500000 0.000000 0.000000
#
# Coordination Sequence:
#
# PCOD8013778 Si02
#       6
#     2   2   2   2   2   2
#     4  11  22  44  66  91 131 170 214 273 318 390
#     4   9  21  38  63  93 128 165 217 269 316 378
#     4  12  27  43  64  96 133 171 219 266 329 395
#     4   9  19  39  63  92 120 159 222 254 326 373
#     4  11  23  43  64 100 130 173 219 264 330 397
#     4  10  21  41  61  91 128 160 218 261 317 386
#
# _framework density 21.914642000000001
#
# number of rings (size 3 to 8) (size 9 to 14) (size 15 to 20)
#    1.000    0.667    1.667    2.500    0.000    4.667 
#    0.000    0.000    0.000    0.000    0.000    0.000 
#    0.000    0.000    0.000    0.000    0.000    0.000 
#
# Total GULP energy -148694.077512 kJ/mol
# GULP energy per Si atom -12391.173126 kJ/mol
# Density = 2.186476 g / cm^3
# Si number density = 21.914642 Si / 1000 Ang^3
#
#
#
# Elastic Constant Matrix: (Units=GPa)
#
#
# Indices 1 2 3 4 5 6 
#
# 1 148.7581 32.8675 58.5139 -8.3916 9.4347 -10.3176
# 2 32.8675 89.7571 42.5375 -15.0538 -0.4518 -31.8916
# 3 58.5139 42.5375 138.2619 -19.6843 -7.8914 -9.1902
# 4 -8.3916 -15.0538 -19.6843 44.8644 -3.0569 -8.3206
# 5 9.4347 -0.4518 -7.8914 -3.0569 41.0069 0.7159
# 6 -10.3176 -31.8916 -9.1902 -8.3206 0.7159 46.2624
#
#
#
# Elastic Compliance Matrix: (Units=1/GPa)
#
#
# Indices 1 2 3 4 5 6 
#
# 1 0.008539 -0.001639 -0.003343 -0.000594 -0.002671 0.000045
# 2 -0.001639 0.019383 -0.003309 0.007294 0.000259 0.013647
# 3 -0.003343 -0.003309 0.010201 0.002839 0.002917 -0.000535
# 4 -0.000594 0.007294 0.002839 0.027992 0.002668 0.010453
# 5 -0.002671 0.000259 0.002917 0.002668 0.025759 0.000244
# 6 0.000045 0.013647 -0.000535 0.010453 0.000244 0.032804
#
#
# Mechanical properties :
#
#
# Convention : Reuss Voigt Hill
#
# Bulk Modulus (GPa) = 46.42762 71.62390 59.02576
# Shear Modulus (GPa) = 33.68332 42.61729 38.15030
#
# Velocity S-wave (km/s) = 3.92474 4.41465 4.17689
# Velocity P-wave (km/s) = 6.46296 7.66418 7.08906
#
# Compressibility (1/GPa) = 0.02153890
#
# Stress axis : x y z
#
# Youngs Moduli (GPa) = 117.11492 51.59056 98.03102
#
# Poissons Ratio (x) = 0.08458 0.32774
# Poissons Ratio (y) = 0.19200 0.32441
# Poissons Ratio (z) = 0.39154 0.17073
#
# Static dielectric constant tensor:
#      x y z
#    x 4.035290 -0.164080 -0.091580 
#    y -0.164080 4.267950 -0.148000 
#    z -0.091580 -0.148000 3.874270 
# 
# 
# High freq. dielectric constant tensor:
#      x y z
#    x 1.868150 0.000550 -0.012490 
#    y 0.000550 1.866430 -0.005760 
#    z -0.012490 -0.005760 1.860870 
# 
# From -- ./inp_files/63923.got.cif
#   From: 2010.06.25/outbox.cif.g09.slc.cpg/sg2_32_cif.got.tgz:63923.got - 2010.06.27 13:26:56.
