data_PCOD8013307
_publ_section_title
;
Structure prediction by ZEFSAII (Michael W. Deem and Ramdas Pophale) SiO2 
 PCOD8013307
Probable space group: P -1
;
_chemical_formula_sum "Si O2"
_cell_formula_units_Z 16
_cell_length_a 19.119407
_cell_length_b 19.452705
_cell_length_c 10.776300
_cell_angle_alpha 31.115835
_cell_angle_beta 43.642313
_cell_angle_gamma 22.330314
_cell_volume 737.854636
_symmetry_space_group_name_H-M "P -1"
_symmetry_group_IT_number 2
_symmetry_cell_setting 'triclinic'
loop_
_space_group_symop_operation_xyz
x,y,z
-x,-y,-z
loop_
_atom_site_type_symbol
_atom_site_label
_atom_site_fract_x
_atom_site_fract_y
_atom_site_fract_z
Si Si1 0.496031 0.239474 0.983604
Si Si2 0.035562 0.087486 0.737598
Si Si3 0.711621 0.332627 0.140543
Si Si4 0.647756 0.675565 0.303112
Si Si5 0.523823 0.998314 0.761829
Si Si6 0.360474 0.893883 0.716232
Si Si7 0.661269 0.167424 0.652402
Si Si8 0.924252 0.232417 0.211131
O O1 0.564625 0.279733 0.740218
O O2 0.258933 0.510864 0.868862
O O3 0.594402 0.141400 0.142353
O O4 0.567357 0.017715 0.178645
O O5 0.827684 0.374564 0.514804
O O6 0.168834 0.902871 0.733687
O O7 0.144528 0.076292 0.696163
O O8 0.000000 0.000000 0.000000
O O9 0.635428 0.338416 0.352213
O O10 0.847099 0.305579 0.054077
O O11 0.521624 0.610335 0.888042
O O12 0.644769 0.732554 0.360672
O O13 0.442102 0.829943 0.302052
O O14 0.669696 0.772837 0.027625
O O15 0.638175 0.967963 0.569966
O O16 0.893653 0.873357 0.832495
O O17 0.000000 0.000000 0.500000
#
# Coordination Sequence:
#
# PCOD8013307 Si02
#       8
#     2   2   2   2   2   2   2   2
#     4  10  23  42  67  96 130 173 211 270 325 385
#     4  12  25  40  66  99 132 169 219 266 331 387
#     4  10  22  39  65  95 133 167 211 274 325 387
#     4  10  23  42  66  94 126 173 219 274 309 385
#     4  10  22  45  65  87 133 171 223 266 315 379
#     4  11  23  42  64  94 132 178 208 266 330 385
#     4  10  21  40  66  97 131 163 216 268 331 374
#     4   9  21  36  61  98 128 163 210 264 324 384
#
# _framework density 21.68449
#
# number of rings (size 3 to 8) (size 9 to 14) (size 15 to 20)
#    0.000    1.750    0.000    3.000    8.750    5.000 
#    6.750    0.625    0.000    0.000    0.000    0.000 
#    0.000    0.000    0.000    0.000    0.000    0.000 
#
# Total GULP energy -198302.769619 kJ/mol
# GULP energy per Si atom -12393.923101 kJ/mol
# Density = 2.163513 g / cm^3
# Si number density = 21.684490 Si / 1000 Ang^3
#
#
#
# Elastic Constant Matrix: (Units=GPa)
#
#
# Indices 1 2 3 4 5 6 
#
# 1 116.7260 63.2756 31.8873 0.2406 -1.6422 -2.3353
# 2 63.2756 115.1544 43.4882 3.3065 6.3251 -7.7364
# 3 31.8873 43.4882 104.5948 20.2968 3.3980 -4.4228
# 4 0.2406 3.3065 20.2968 33.5834 3.5803 1.9121
# 5 -1.6422 6.3251 3.3980 3.5803 24.0638 -1.0706
# 6 -2.3353 -7.7364 -4.4228 1.9121 -1.0706 43.2599
#
#
#
# Elastic Compliance Matrix: (Units=1/GPa)
#
#
# Indices 1 2 3 4 5 6 
#
# 1 0.012540 -0.006568 -0.001432 0.001183 0.002580 -0.000632
# 2 -0.006568 0.014041 -0.003905 0.001329 -0.003714 0.001607
# 3 -0.001432 -0.003905 0.013130 -0.007619 0.000249 0.000910
# 4 0.001183 0.001329 -0.007619 0.034840 -0.004471 -0.002128
# 5 0.002580 -0.003714 0.000249 -0.004471 0.043373 0.000772
# 6 -0.000632 0.001607 0.000910 -0.002128 0.000772 0.023575
#
#
# Mechanical properties :
#
#
# Convention : Reuss Voigt Hill
#
# Bulk Modulus (GPa) = 62.89116 68.19745 65.54430
# Shear Modulus (GPa) = 29.30658 33.36968 31.33813
#
# Velocity S-wave (km/s) = 3.68026 3.92710 3.80568
# Velocity P-wave (km/s) = 6.86476 7.21672 7.04294
#
# Compressibility (1/GPa) = 0.01590049
#
# Stress axis : x y z
#
# Youngs Moduli (GPa) = 79.74572 71.21799 76.16168
#
# Poissons Ratio (x) = 0.46774 0.10910
# Poissons Ratio (y) = 0.52374 0.29743
# Poissons Ratio (z) = 0.11424 0.27812
#
# Static dielectric constant tensor:
#      x y z
#    x 4.335120 -0.065400 0.050390 
#    y -0.065400 4.061370 -0.033780 
#    z 0.050390 -0.033780 3.889600 
# 
# 
# High freq. dielectric constant tensor:
#      x y z
#    x 1.860770 0.005100 0.004650 
#    y 0.005100 1.839360 0.002950 
#    z 0.004650 0.002950 1.845210 
# 
# From -- ./inp_files/472716.got.cif
#   From: 2010.06.25/outbox.cif.g09.slc.cpg/sg2_237_cif.got.tgz:472716.got - 2010.06.27 13:26:56.
