data_PCOD8013870
_publ_section_title
;
Structure prediction by ZEFSAII (Michael W. Deem and Ramdas Pophale) SiO2 
 PCOD8013870
Probable space group: P -1
;
_chemical_formula_sum "Si O2"
_cell_formula_units_Z 14
_cell_length_a 9.072353
_cell_length_b 13.284145
_cell_length_c 11.755758
_cell_angle_alpha 57.049610
_cell_angle_beta 67.825426
_cell_angle_gamma 114.064782
_cell_volume 676.519132
_symmetry_space_group_name_H-M "P -1"
_symmetry_group_IT_number 2
_symmetry_cell_setting 'triclinic'
loop_
_space_group_symop_operation_xyz
x,y,z
-x,-y,-z
loop_
_atom_site_type_symbol
_atom_site_label
_atom_site_fract_x
_atom_site_fract_y
_atom_site_fract_z
Si Si1 0.102268 0.767283 0.187903
Si Si2 0.562505 0.865587 0.984600
Si Si3 0.885874 0.156894 0.516600
Si Si4 0.322089 0.480202 0.353380
Si Si5 0.238262 0.432899 0.799501
Si Si6 0.875160 0.166322 0.263358
Si Si7 0.636727 0.217617 0.440462
O O1 0.879134 0.595079 0.446614
O O2 0.972217 0.733594 0.129691
O O3 0.271533 0.976783 0.059438
O O4 0.283126 0.760597 0.116466
O O5 0.720597 0.966813 0.757999
O O6 0.522629 0.703698 0.125724
O O7 0.923145 0.128624 0.394373
O O8 0.728163 0.190344 0.538105
O O9 0.169874 0.346870 0.367878
O O10 0.487511 0.467793 0.362673
O O11 0.268587 0.592942 0.682312
O O12 0.140458 0.336999 0.012071
O O13 0.760512 0.232469 0.280202
O O14 0.673699 0.969471 0.368005
#
# Coordination Sequence:
#
# PCOD8013870 Si02
#       7
#     2   2   2   2   2   2   2
#     4  10  23  39  60  86 113 155 202 237 280 341
#     4  10  21  41  63  83 115 153 198 243 284 334
#     4   9  20  39  61  86 113 150 199 238 280 341
#     4  11  24  38  57  90 122 154 188 235 296 349
#     4  12  23  37  61  88 122 155 184 239 300 342
#     4   9  21  38  63  90 111 151 200 238 287 337
#     4   9  20  39  62  87 114 146 203 240 278 340
#
# _framework density 20.694167
#
# number of rings (size 3 to 8) (size 9 to 14) (size 15 to 20)
#    0.857    1.143    0.000    3.000    0.000    8.000 
#    0.000    1.429    0.000    0.000    0.000    0.000 
#    0.000    0.000    0.000    0.000    0.000    0.000 
#
# Total GULP energy -173592.686313 kJ/mol
# GULP energy per Si atom -12399.477594 kJ/mol
# Density = 2.064707 g / cm^3
# Si number density = 20.694167 Si / 1000 Ang^3
#
#
#
# Elastic Constant Matrix: (Units=GPa)
#
#
# Indices 1 2 3 4 5 6 
#
# 1 71.3385 43.3411 24.6709 -8.8078 -4.8917 20.4585
# 2 43.3411 72.5298 33.9715 -6.8667 0.8093 29.6805
# 3 24.6709 33.9715 102.2667 -8.5730 11.8928 -1.4851
# 4 -8.8078 -6.8667 -8.5730 24.5745 6.3225 -2.1483
# 5 -4.8917 0.8093 11.8928 6.3225 21.7851 -0.2172
# 6 20.4585 29.6805 -1.4851 -2.1483 -0.2172 24.5631
#
#
#
# Elastic Compliance Matrix: (Units=1/GPa)
#
#
# Indices 1 2 3 4 5 6 
#
# 1 0.024011 -0.008489 -0.003734 0.002285 0.006985 -0.009705
# 2 -0.008489 0.045234 -0.014176 -0.000572 0.003835 -0.048460
# 3 -0.003734 -0.014176 0.017482 0.005593 -0.011262 0.021685
# 4 0.002285 -0.000572 0.005593 0.047787 -0.016356 0.003160
# 5 0.006985 0.003835 -0.011262 -0.016356 0.058104 -0.012050
# 6 -0.009705 -0.048460 0.021685 0.003160 -0.012050 0.108831
#
#
# Mechanical properties :
#
#
# Convention : Reuss Voigt Hill
#
# Bulk Modulus (GPa) = 29.47403 50.01135 39.74269
# Shear Modulus (GPa) = 13.67779 23.79464 18.73621
#
# Velocity S-wave (km/s) = 2.57368 3.39458 3.01223
# Velocity P-wave (km/s) = 4.80681 6.29155 5.59862
#
# Compressibility (1/GPa) = 0.03392817
#
# Stress axis : x y z
#
# Youngs Moduli (GPa) = 41.64780 22.10743 57.20322
#
# Poissons Ratio (x) = 0.18768 0.21360
# Poissons Ratio (y) = 0.35356 0.81089
# Poissons Ratio (z) = 0.15552 0.31339
#
# Static dielectric constant tensor:
#      x y z
#    x 3.485300 0.188210 -0.099660 
#    y 0.188210 3.638230 0.016080 
#    z -0.099660 0.016080 3.592680 
# 
# 
# High freq. dielectric constant tensor:
#      x y z
#    x 1.791190 0.018860 -0.007890 
#    y 0.018860 1.804910 -0.002170 
#    z -0.007890 -0.002170 1.810220 
# 
# From -- ./inp_files/397052.got.cif
#   From: 2010.06.25/outbox.cif.g09.slc.cpg/sg2_199_cif.got.tgz:397052.got - 2010.06.27 13:26:56.
