data_PCOD8013364
_publ_section_title
;
Structure prediction by ZEFSAII (Michael W. Deem and Ramdas Pophale) SiO2 
 PCOD8013364
Probable space group: P -1
;
_chemical_formula_sum "Si O2"
_cell_formula_units_Z 16
_cell_length_a 16.771674
_cell_length_b 5.312240
_cell_length_c 11.372541
_cell_angle_alpha 86.028459
_cell_angle_beta 59.678777
_cell_angle_gamma 60.348760
_cell_volume 737.775140
_symmetry_space_group_name_H-M "P -1"
_symmetry_group_IT_number 2
_symmetry_cell_setting 'triclinic'
loop_
_space_group_symop_operation_xyz
x,y,z
-x,-y,-z
loop_
_atom_site_type_symbol
_atom_site_label
_atom_site_fract_x
_atom_site_fract_y
_atom_site_fract_z
Si Si1 0.609534 0.811729 0.853967
Si Si2 0.082218 0.169250 0.988890
Si Si3 0.070824 0.922869 0.757618
Si Si4 0.313200 0.959730 0.776050
Si Si5 0.947472 0.835352 0.483286
Si Si6 0.296116 0.819180 0.258969
Si Si7 0.695593 0.507941 0.365290
Si Si8 0.450402 0.343185 0.318312
O O1 0.676473 0.452804 0.843047
O O2 0.572970 0.861102 0.742829
O O3 0.687678 0.933516 0.822611
O O4 0.500000 0.000000 0.000000
O O5 0.093532 0.983724 0.870667
O O6 0.203785 0.090360 0.933648
O O7 0.000000 0.500000 0.000000
O O8 0.032436 0.114214 0.146170
O O9 0.188288 0.626140 0.646515
O O10 0.039794 0.163916 0.668890
O O11 0.310473 0.758050 0.681332
O O12 0.422680 0.761292 0.776220
O O13 0.315643 0.244525 0.722792
O O14 0.000000 0.500000 0.500000
O O15 0.822820 0.024653 0.604997
O O16 0.000000 0.000000 0.500000
O O17 0.381235 0.681844 0.309329
O O18 0.591391 0.675267 0.522174
#
# Coordination Sequence:
#
# PCOD8013364 Si02
#       8
#     2   2   2   2   2   2   2   2
#     4  10  22  41  67  89 125 176 221 262 333 402
#     4  10  21  40  67  92 136 179 216 263 336 408
#     4  10  22  43  66  95 131 180 217 274 341 401
#     4  11  24  37  60 102 129 168 218 261 325 399
#     4  12  27  46  70 104 132 172 236 292 338 397
#     4  10  23  43  67  91 129 173 219 273 344 390
#     4  11  22  38  65  92 133 166 212 268 327 397
#     4  10  24  38  67  92 133 165 218 265 330 391
#
# _framework density 21.686826
#
# number of rings (size 3 to 8) (size 9 to 14) (size 15 to 20)
#    0.750    0.750    2.500    1.875    5.250    0.000 
#    2.250    2.500    0.000    0.000    0.000    0.000 
#    0.000    0.000    0.000    0.000    0.000    0.000 
#
# Total GULP energy -198209.446998 kJ/mol
# GULP energy per Si atom -12388.090437 kJ/mol
# Density = 2.163747 g / cm^3
# Si number density = 21.686826 Si / 1000 Ang^3
#
#
#
# Elastic Constant Matrix: (Units=GPa)
#
#
# Indices 1 2 3 4 5 6 
#
# 1 74.9178 45.0850 30.2446 4.3384 -31.2013 -3.5936
# 2 45.0850 124.6209 47.7780 5.1052 -15.0579 4.6272
# 3 30.2446 47.7780 107.8231 11.0577 -31.1598 2.3671
# 4 4.3384 5.1052 11.0577 30.6358 -5.8782 -8.9641
# 5 -31.2013 -15.0579 -31.1598 -5.8782 40.5709 4.4027
# 6 -3.5936 4.6272 2.3671 -8.9641 4.4027 43.5022
#
#
#
# Elastic Compliance Matrix: (Units=1/GPa)
#
#
# Indices 1 2 3 4 5 6 
#
# 1 0.024291 -0.007279 0.001167 0.000943 0.016882 0.001203
# 2 -0.007279 0.011886 -0.004452 -0.000592 -0.004552 -0.001285
# 3 0.001167 -0.004452 0.014129 -0.003177 0.009837 -0.001849
# 4 0.000943 -0.000592 -0.003177 0.036453 0.002526 0.007570
# 5 0.016882 -0.004552 0.009837 0.002526 0.044146 -0.002604
# 6 0.001203 -0.001285 -0.001849 0.007570 -0.002604 0.025147
#
#
# Mechanical properties :
#
#
# Convention : Reuss Voigt Hill
#
# Bulk Modulus (GPa) = 34.27008 61.50857 47.88933
# Shear Modulus (GPa) = 26.75133 35.22539 30.98836
#
# Velocity S-wave (km/s) = 3.51597 4.03460 3.78418
# Velocity P-wave (km/s) = 5.68501 7.08010 6.42056
#
# Compressibility (1/GPa) = 0.02917997
#
# Stress axis : x y z
#
# Youngs Moduli (GPa) = 41.16691 84.12935 70.77692
#
# Poissons Ratio (x) = 0.61238 -0.08263
# Poissons Ratio (y) = 0.29966 0.31508
# Poissons Ratio (z) = -0.04806 0.37452
#
# Static dielectric constant tensor:
#      x y z
#    x 10.572540 0.260930 -3.815680 
#    y 0.260930 4.069940 -0.053490 
#    z -3.815680 -0.053490 5.685580 
# 
# 
# High freq. dielectric constant tensor:
#      x y z
#    x 1.837370 0.003160 -0.029640 
#    y 0.003160 1.850640 0.012580 
#    z -0.029640 0.012580 1.857220 
# 
# From -- ./inp_files/459122.got.cif
#   From: 2010.06.25/outbox.cif.g09.slc.cpg/sg2_230_cif.got.tgz:459122.got - 2010.06.27 13:26:56.
