data_PCOD8013967
_publ_section_title
;
Structure prediction by ZEFSAII (Michael W. Deem and Ramdas Pophale) SiO2 
 PCOD8013967
Probable space group: P -1
;
_chemical_formula_sum "Si O2"
_cell_formula_units_Z 14
_cell_length_a 14.900265
_cell_length_b 8.626394
_cell_length_c 23.580227
_cell_angle_alpha 43.187972
_cell_angle_beta 18.663129
_cell_angle_gamma 43.020970
_cell_volume 652.439606
_symmetry_space_group_name_H-M "P -1"
_symmetry_group_IT_number 2
_symmetry_cell_setting 'triclinic'
loop_
_space_group_symop_operation_xyz
x,y,z
-x,-y,-z
loop_
_atom_site_type_symbol
_atom_site_label
_atom_site_fract_x
_atom_site_fract_y
_atom_site_fract_z
Si Si1 0.710768 0.683440 0.117999
Si Si2 0.412429 0.049487 0.711922
Si Si3 0.179829 0.855295 0.644049
Si Si4 0.378671 0.014167 0.006191
Si Si5 0.147682 0.382346 0.187794
Si Si6 0.419306 0.539673 0.432971
Si Si7 0.205354 0.865292 0.990290
O O1 0.471160 0.584840 0.323331
O O2 0.616849 0.737414 0.094078
O O3 0.000000 0.500000 0.000000
O O4 0.742826 0.939418 0.049391
O O5 0.683826 0.982912 0.524878
O O6 0.423319 0.294537 0.668194
O O7 0.126621 0.073427 0.841287
O O8 0.407449 0.862459 0.814371
O O9 0.436067 0.716015 0.565717
O O10 0.955009 0.010795 0.779793
O O11 0.010801 0.683855 0.756457
O O12 0.500000 0.000000 0.000000
O O13 0.579424 0.809598 0.906162
O O14 0.276796 0.612674 0.041271
O O15 0.920113 0.414911 0.366725
#
# Coordination Sequence:
#
# PCOD8013967 Si02
#       7
#     2   2   2   2   2   2   2
#     4  11  23  38  56  85 114 147 192 238 281 327
#     4   9  17  30  55  91 112 144 189 230 273 325
#     4  10  16  34  58  85 115 150 187 225 270 338
#     4  10  23  37  59  80 117 151 184 231 289 337
#     4  10  19  35  57  88 112 151 187 222 285 336
#     4  10  17  33  62  82 115 143 192 231 267 336
#     4  10  19  31  57  85 116 146 186 237 273 332
#
# _framework density 21.457927000000002
#
# number of rings (size 3 to 8) (size 9 to 14) (size 15 to 20)
#    0.000    2.000    4.286    0.857    0.000    1.143 
#    0.000    3.571    0.000    3.429    0.000    0.000 
#    0.000    0.000    0.000    0.000    0.000    0.000 
#
# Total GULP energy -173472.967399 kJ/mol
# GULP energy per Si atom -12390.926243 kJ/mol
# Density = 2.140909 g / cm^3
# Si number density = 21.457927 Si / 1000 Ang^3
#
#
#
# Elastic Constant Matrix: (Units=GPa)
#
#
# Indices 1 2 3 4 5 6 
#
# 1 65.0711 30.5051 36.0135 0.4616 27.9247 -26.1577
# 2 30.5051 113.9690 69.8725 15.6521 17.6461 -28.6514
# 3 36.0135 69.8725 173.3069 20.2826 49.3197 -15.2550
# 4 0.4616 15.6521 20.2826 43.9848 3.6211 -0.5466
# 5 27.9247 17.6461 49.3197 3.6211 35.1173 -10.5759
# 6 -26.1577 -28.6514 -15.2550 -0.5466 -10.5759 25.2593
#
#
#
# Elastic Compliance Matrix: (Units=1/GPa)
#
#
# Indices 1 2 3 4 5 6 
#
# 1 0.035186 0.000292 0.000894 0.001190 -0.020895 0.028586
# 2 0.000292 0.016738 -0.006712 -0.003177 0.006497 0.017887
# 3 0.000894 -0.006712 0.012849 -0.002223 -0.016988 -0.006088
# 4 0.001190 -0.003177 -0.002223 0.024816 0.000294 -0.003054
# 5 -0.020895 0.006497 -0.016988 0.000294 0.066678 0.003396
# 6 0.028586 0.017887 -0.006088 -0.003054 0.003396 0.087159
#
#
# Mechanical properties :
#
#
# Convention : Reuss Voigt Hill
#
# Bulk Modulus (GPa) = 18.61462 69.45880 44.03671
# Shear Modulus (GPa) = 18.35645 35.26932 26.81289
#
# Velocity S-wave (km/s) = 2.92800 4.05859 3.53874
# Velocity P-wave (km/s) = 4.48606 7.37584 6.10441
#
# Compressibility (1/GPa) = 0.05372122
#
# Stress axis : x y z
#
# Youngs Moduli (GPa) = 28.42070 59.74481 77.82616
#
# Poissons Ratio (x) = -0.01747 -0.06955
# Poissons Ratio (y) = -0.00831 0.52235
# Poissons Ratio (z) = -0.02540 0.40100
#
# Static dielectric constant tensor:
#      x y z
#    x 3.760440 -0.155090 0.450380 
#    y -0.155090 4.029310 0.179820 
#    z 0.450380 0.179820 4.326780 
# 
# 
# High freq. dielectric constant tensor:
#      x y z
#    x 1.823310 -0.016110 0.028780 
#    y -0.016110 1.817230 0.007500 
#    z 0.028780 0.007500 1.850090 
# 
# From -- ./inp_files/175466.got.cif
#   From: 2010.06.25/outbox.cif.g09.slc.cpg/sg2_88_cif.got.tgz:175466.got - 2010.06.27 13:26:56.
