data_PCOD8013897
_publ_section_title
;
Structure prediction by ZEFSAII (Michael W. Deem and Ramdas Pophale) SiO2 
 PCOD8013897
Probable space group: P -1
;
_chemical_formula_sum "Si O2"
_cell_formula_units_Z 16
_cell_length_a 14.340800
_cell_length_b 11.894600
_cell_length_c 8.988718
_cell_angle_alpha 67.782068
_cell_angle_beta 51.762337
_cell_angle_gamma 107.055113
_cell_volume 767.633433
_symmetry_space_group_name_H-M "P -1"
_symmetry_group_IT_number 2
_symmetry_cell_setting 'triclinic'
loop_
_space_group_symop_operation_xyz
x,y,z
-x,-y,-z
loop_
_atom_site_type_symbol
_atom_site_label
_atom_site_fract_x
_atom_site_fract_y
_atom_site_fract_z
Si Si1 0.899609 0.737687 0.961010
Si Si2 0.314572 0.186954 0.830819
Si Si3 0.276909 0.709615 0.016006
Si Si4 0.585842 0.043040 0.736343
Si Si5 0.329979 0.653555 0.664773
Si Si6 0.850219 0.085367 0.615089
Si Si7 0.943828 0.093894 0.987876
Si Si8 0.980691 0.657837 0.418792
O O1 0.989319 0.854647 0.663177
O O2 0.748240 0.719941 0.165071
O O3 0.837213 0.553452 0.091924
O O4 0.044785 0.834626 0.898857
O O5 0.517416 0.326279 0.540389
O O6 0.254055 0.090421 0.098672
O O7 0.242755 0.048779 0.835838
O O8 0.199383 0.544913 0.278195
O O9 0.119564 0.688395 0.163918
O O10 0.337751 0.703720 0.801204
O O11 0.444884 0.891824 0.834123
O O12 0.669094 0.229920 0.502390
O O13 0.734188 0.055070 0.612652
O O14 0.500000 0.000000 0.000000
O O15 0.925615 0.247237 0.564553
O O16 0.068334 0.256506 0.666024
O O17 0.000000 0.000000 0.000000
#
# Coordination Sequence:
#
# PCOD8013897 Si02
#       8
#     2   2   2   2   2   2   2   2
#     4  11  24  40  65  94 120 163 214 250 299 366
#     4  10  22  44  65  87 128 163 203 254 309 361
#     4  11  24  40  62  91 125 167 202 250 314 368
#     4  12  24  40  62  93 127 160 203 254 314 366
#     4  12  25  41  64  92 126 162 205 258 310 365
#     4  11  22  41  64  94 123 163 202 251 306 372
#     4   9  21  39  64  89 120 162 205 249 299 360
#     4  10  21  41  63  89 130 161 199 255 309 365
#
# _framework density 20.843281000000001
#
# number of rings (size 3 to 8) (size 9 to 14) (size 15 to 20)
#    0.000    1.250    3.750    1.875    5.250    0.500 
#    0.000    0.000    0.000    2.250    0.000    0.000 
#    0.000    0.000    0.000    0.000    0.000    0.000 
#
# Total GULP energy -198306.149449 kJ/mol
# GULP energy per Si atom -12394.134341 kJ/mol
# Density = 2.079584 g / cm^3
# Si number density = 20.843281 Si / 1000 Ang^3
#
#
#
# Elastic Constant Matrix: (Units=GPa)
#
#
# Indices 1 2 3 4 5 6 
#
# 1 95.5046 34.9038 34.5880 -2.8665 20.9357 -2.9861
# 2 34.9038 108.8113 45.4068 1.5091 16.3972 15.2868
# 3 34.5880 45.4068 99.0893 7.1056 17.5708 2.5699
# 4 -2.8665 1.5091 7.1056 35.6894 -7.3362 3.5487
# 5 20.9357 16.3972 17.5708 -7.3362 29.5435 -1.5824
# 6 -2.9861 15.2868 2.5699 3.5487 -1.5824 28.2073
#
#
#
# Elastic Compliance Matrix: (Units=1/GPa)
#
#
# Indices 1 2 3 4 5 6 
#
# 1 0.013958 -0.002846 -0.002464 0.000076 -0.006674 0.002861
# 2 -0.002846 0.013470 -0.004436 0.000168 -0.003175 -0.007396
# 3 -0.002464 -0.004436 0.014156 -0.003992 -0.005145 0.001067
# 4 0.000076 0.000168 -0.003992 0.031133 0.009793 -0.003087
# 5 -0.006674 -0.003175 -0.005145 0.009793 0.045983 0.002831
# 6 0.002861 -0.007396 0.001067 -0.003087 0.002831 0.040213
#
#
# Mechanical properties :
#
#
# Convention : Reuss Voigt Hill
#
# Bulk Modulus (GPa) = 45.26816 59.24473 52.25645
# Shear Modulus (GPa) = 26.91510 31.25515 29.08512
#
# Velocity S-wave (km/s) = 3.59738 3.87658 3.73958
# Velocity P-wave (km/s) = 6.24662 6.96583 6.61601
#
# Compressibility (1/GPa) = 0.02209058
#
# Stress axis : x y z
#
# Youngs Moduli (GPa) = 71.64313 74.24110 70.64294
#
# Poissons Ratio (x) = 0.21132 0.17407
# Poissons Ratio (y) = 0.20392 0.31337
# Poissons Ratio (z) = 0.17653 0.32933
#
# Static dielectric constant tensor:
#      x y z
#    x 3.995590 0.370640 0.064140 
#    y 0.370640 4.106230 -0.053360 
#    z 0.064140 -0.053360 3.792420 
# 
# 
# High freq. dielectric constant tensor:
#      x y z
#    x 1.808990 0.003150 0.014960 
#    y 0.003150 1.823530 -0.002490 
#    z 0.014960 -0.002490 1.815830 
# 
# From -- ./inp_files/206086.got.cif
#   From: 2010.06.25/outbox.cif.g09.slc.cpg/sg2_104_cif.got.tgz:206086.got - 2010.06.27 13:26:56.
