data_PCOD8013156
_publ_section_title
;
Structure prediction by ZEFSAII (Michael W. Deem and Ramdas Pophale) SiO2 
 PCOD8013156
Probable space group: P -1
;
_chemical_formula_sum "Si O2"
_cell_formula_units_Z 12
_cell_length_a 14.992141
_cell_length_b 8.957009
_cell_length_c 8.625756
_cell_angle_alpha 106.888915
_cell_angle_beta 143.059706
_cell_angle_gamma 52.803871
_cell_volume 507.617237
_symmetry_space_group_name_H-M "P -1"
_symmetry_group_IT_number 2
_symmetry_cell_setting 'triclinic'
loop_
_space_group_symop_operation_xyz
x,y,z
-x,-y,-z
loop_
_atom_site_type_symbol
_atom_site_label
_atom_site_fract_x
_atom_site_fract_y
_atom_site_fract_z
Si Si1 0.352501 0.826255 0.566134
Si Si2 0.260302 0.567133 0.508316
Si Si3 0.889332 0.929941 0.243025
Si Si4 0.528016 0.165198 0.602094
Si Si5 0.291110 0.405619 0.818312
Si Si6 0.916308 0.760239 0.538517
O O1 0.353412 0.649237 0.573303
O O2 0.404748 0.801178 0.452585
O O3 0.148104 0.054809 0.381966
O O4 0.520532 0.791157 0.893293
O O5 0.319953 0.376456 0.430945
O O6 0.341757 0.490148 0.774264
O O7 0.027786 0.752407 0.253748
O O8 0.837508 0.843270 0.279744
O O9 0.000000 0.000000 0.500000
O O10 0.688010 0.109822 0.934492
O O11 0.500000 0.000000 0.500000
O O12 0.175339 0.339480 0.560156
O O13 0.151686 0.588105 0.806154
#
# Coordination Sequence:
#
# PCOD8013156 Si02
#       6
#     2   2   2   2   2   2
#     4  12  23  39  65  97 132 172 216 276 328 388
#     4  11  25  42  68  97 133 179 220 271 329 397
#     4  11  24  45  72  98 130 174 225 273 324 395
#     4  12  28  45  66  98 140 176 217 273 336 392
#     4  10  22  38  67  94 131 172 224 265 324 393
#     4  10  21  40  65  97 127 174 222 268 321 392
#
# _framework density 23.639862000000001
#
# number of rings (size 3 to 8) (size 9 to 14) (size 15 to 20)
#    0.000    1.000    1.667    4.500    4.667    2.667 
#    0.000    0.000    0.000    0.000    0.000    0.000 
#    0.000    0.000    0.000    0.000    0.000    0.000 
#
# Total GULP energy -148766.647099 kJ/mol
# GULP energy per Si atom -12397.220592 kJ/mol
# Density = 2.358606 g / cm^3
# Si number density = 23.639862 Si / 1000 Ang^3
#
#
#
# Elastic Constant Matrix: (Units=GPa)
#
#
# Indices 1 2 3 4 5 6 
#
# 1 136.6280 43.9088 20.2582 -1.9660 -0.5069 -1.2845
# 2 43.9088 164.4114 15.8349 -5.8342 15.2875 -22.9403
# 3 20.2582 15.8349 51.0999 3.7329 -1.6192 10.5339
# 4 -1.9660 -5.8342 3.7329 24.8051 3.0966 6.6438
# 5 -0.5069 15.2875 -1.6192 3.0966 23.5404 -6.2039
# 6 -1.2845 -22.9403 10.5339 6.6438 -6.2039 50.0873
#
#
#
# Elastic Compliance Matrix: (Units=1/GPa)
#
#
# Indices 1 2 3 4 5 6 
#
# 1 0.008398 -0.002104 -0.002650 0.000433 0.001285 -0.000089
# 2 -0.002104 0.007843 -0.002546 0.001774 -0.004689 0.003258
# 3 -0.002650 -0.002546 0.022806 -0.003076 0.002158 -0.005355
# 4 0.000433 0.001774 -0.003076 0.043736 -0.008527 -0.005387
# 5 0.001285 -0.004689 0.002158 -0.008527 0.048011 0.004509
# 6 -0.000089 0.003258 -0.005355 -0.005387 0.004509 0.023854
#
#
# Mechanical properties :
#
#
# Convention : Reuss Voigt Hill
#
# Bulk Modulus (GPa) = 40.90435 56.90477 48.90456
# Shear Modulus (GPa) = 28.18520 37.82906 33.00713
#
# Velocity S-wave (km/s) = 3.45668 4.00462 3.74070
# Velocity P-wave (km/s) = 5.76821 6.74584 6.27609
#
# Compressibility (1/GPa) = 0.02444728
#
# Stress axis : x y z
#
# Youngs Moduli (GPa) = 119.06924 127.50379 43.84825
#
# Poissons Ratio (x) = 0.26830 0.11619
# Poissons Ratio (y) = 0.25056 0.11163
# Poissons Ratio (z) = 0.31553 0.32460
#
# Static dielectric constant tensor:
#      x y z
#    x 4.460880 -0.042800 0.065360 
#    y -0.042800 4.388720 -0.401120 
#    z 0.065360 -0.401120 3.831020 
# 
# 
# High freq. dielectric constant tensor:
#      x y z
#    x 1.958820 0.001720 0.007550 
#    y 0.001720 1.949920 -0.026700 
#    z 0.007550 -0.026700 1.891080 
# 
# From -- ./inp_files/156375.got.cif
#   From: 2010.06.25/outbox.cif.g09.slc.cpg/sg2_79_cif.got.tgz:156375.got - 2010.06.27 13:26:56.
