data_PCOD8013802
_publ_section_title
;
Structure prediction by ZEFSAII (Michael W. Deem and Ramdas Pophale) SiO2 
 PCOD8013802
Probable space group: P -1
;
_chemical_formula_sum "Si O2"
_cell_formula_units_Z 16
_cell_length_a 8.859227
_cell_length_b 12.734189
_cell_length_c 19.000700
_cell_angle_alpha 143.636690
_cell_angle_beta 131.294124
_cell_angle_gamma 74.524639
_cell_volume 768.192228
_symmetry_space_group_name_H-M "P -1"
_symmetry_group_IT_number 2
_symmetry_cell_setting 'triclinic'
loop_
_space_group_symop_operation_xyz
x,y,z
-x,-y,-z
loop_
_atom_site_type_symbol
_atom_site_label
_atom_site_fract_x
_atom_site_fract_y
_atom_site_fract_z
Si Si1 0.145784 0.323796 0.426715
Si Si2 0.745418 0.481738 0.196876
Si Si3 0.164837 0.184988 0.705292
Si Si4 0.558784 0.108932 0.843909
Si Si5 0.735025 0.999302 0.579186
Si Si6 0.474414 0.492486 0.242037
Si Si7 0.148091 0.676540 0.538158
Si Si8 0.083995 0.891612 0.151754
O O1 0.416719 0.491674 0.638015
O O2 0.118105 0.454964 0.428198
O O3 0.944467 0.247009 0.385393
O O4 0.101004 0.111739 0.260117
O O5 0.693688 0.588609 0.173299
O O6 0.535642 0.382182 0.140135
O O7 0.008258 0.647337 0.406112
O O8 0.740664 0.285674 0.054370
O O9 0.360181 0.156340 0.786764
O O10 0.000000 0.000000 0.500000
O O11 0.962101 0.160717 0.683600
O O12 0.705742 0.110406 0.823873
O O13 0.431544 0.875268 0.716940
O O14 0.616435 0.743364 0.395096
O O15 0.500000 0.000000 0.500000
O O16 0.865881 0.105634 0.750072
O O17 0.176639 0.336922 0.073709
#
# Coordination Sequence:
#
# PCOD8013802 Si02
#       8
#     2   2   2   2   2   2   2   2
#     4   9  21  43  68  92 118 160 202 266 309 365
#     4  11  23  39  65  90 122 163 207 257 298 368
#     4  12  21  42  64  89 126 162 209 252 303 364
#     4  12  25  39  61  93 124 167 206 250 303 367
#     4  11  24  40  63  90 125 165 202 255 307 361
#     4  10  21  41  62  88 124 161 203 253 308 362
#     4  10  21  42  70  91 118 157 213 254 314 364
#     4  11  25  40  60  91 131 162 204 251 308 367
#
# _framework density 20.828120999999999
#
# number of rings (size 3 to 8) (size 9 to 14) (size 15 to 20)
#    0.000    1.250    2.500    4.125    1.750    3.000 
#    0.000    5.000    0.000    0.000    0.000    0.000 
#    0.000    0.000    0.000    0.000    0.000    0.000 
#
# Total GULP energy -198313.516689 kJ/mol
# GULP energy per Si atom -12394.594793 kJ/mol
# Density = 2.078072 g / cm^3
# Si number density = 20.828121 Si / 1000 Ang^3
#
#
#
# Elastic Constant Matrix: (Units=GPa)
#
#
# Indices 1 2 3 4 5 6 
#
# 1 114.7588 24.1984 37.7696 2.0125 2.8025 2.8439
# 2 24.1984 80.4586 14.9618 1.2204 3.9657 2.2793
# 3 37.7696 14.9618 87.0949 5.2128 6.4077 9.9378
# 4 2.0125 1.2204 5.2128 16.1015 2.1544 3.1296
# 5 2.8025 3.9657 6.4077 2.1544 33.8224 -2.6270
# 6 2.8439 2.2793 9.9378 3.1296 -2.6270 28.0583
#
#
#
# Elastic Compliance Matrix: (Units=1/GPa)
#
#
# Indices 1 2 3 4 5 6 
#
# 1 0.010612 -0.002428 -0.004284 0.000082 0.000263 0.000654
# 2 -0.002428 0.013440 -0.001098 -0.000090 -0.001204 -0.000559
# 3 -0.004284 -0.001098 0.014387 -0.002846 -0.002409 -0.004480
# 4 0.000082 -0.000090 -0.002846 0.064858 -0.004102 -0.006611
# 5 0.000263 -0.001204 -0.002409 -0.004102 0.030734 0.004259
# 6 0.000654 -0.000559 -0.004480 -0.006611 0.004259 0.038342
#
#
# Mechanical properties :
#
#
# Convention : Reuss Voigt Hill
#
# Bulk Modulus (GPa) = 43.82302 48.46357 46.14330
# Shear Modulus (GPa) = 25.56266 29.28858 27.42562
#
# Velocity S-wave (km/s) = 3.50711 3.75401 3.63265
# Velocity P-wave (km/s) = 6.12256 6.48914 6.30851
#
# Compressibility (1/GPa) = 0.02281906
#
# Stress axis : x y z
#
# Youngs Moduli (GPa) = 94.23625 74.40663 69.50813
#
# Poissons Ratio (x) = 0.18063 0.29775
# Poissons Ratio (y) = 0.22877 0.07633
# Poissons Ratio (z) = 0.40368 0.08171
#
# Static dielectric constant tensor:
#      x y z
#    x 3.617580 0.098380 -0.149450 
#    y 0.098380 4.472250 0.020730 
#    z -0.149450 0.020730 3.745520 
# 
# 
# High freq. dielectric constant tensor:
#      x y z
#    x 1.812210 0.004830 -0.005780 
#    y 0.004830 1.808140 -0.000990 
#    z -0.005780 -0.000990 1.824370 
# 
# From -- ./inp_files/255821.got.cif
#   From: 2010.06.25/outbox.cif.g09.slc.cpg/sg2_128_cif.got.tgz:255821.got - 2010.06.27 13:26:56.
