data_PCOD8013917
_publ_section_title
;
Structure prediction by ZEFSAII (Michael W. Deem and Ramdas Pophale) SiO2 
 PCOD8013917
Probable space group: P -1
;
_chemical_formula_sum "Si O2"
_cell_formula_units_Z 16
_cell_length_a 23.655300
_cell_length_b 26.757773
_cell_length_c 9.016378
_cell_angle_alpha 27.016291
_cell_angle_beta 36.735993
_cell_angle_gamma 16.754568
_cell_volume 686.703683
_symmetry_space_group_name_H-M "P -1"
_symmetry_group_IT_number 2
_symmetry_cell_setting 'triclinic'
loop_
_space_group_symop_operation_xyz
x,y,z
-x,-y,-z
loop_
_atom_site_type_symbol
_atom_site_label
_atom_site_fract_x
_atom_site_fract_y
_atom_site_fract_z
Si Si1 0.633043 0.462731 0.371374
Si Si2 0.019405 0.037164 0.515415
Si Si3 0.582476 0.091783 0.701733
Si Si4 0.543365 0.791501 0.670216
Si Si5 0.941213 0.407441 0.057876
Si Si6 0.834822 0.289348 0.693368
Si Si7 0.435459 0.696186 0.619392
Si Si8 0.641603 0.825564 0.802912
O O1 0.500000 0.500000 0.500000
O O2 0.764222 0.289552 0.699827
O O3 0.491762 0.719434 0.018057
O O4 0.797856 0.327304 0.253473
O O5 0.201805 0.940369 0.389347
O O6 0.047121 0.910414 0.910754
O O7 0.000000 0.000000 0.500000
O O8 0.447767 0.210096 0.523115
O O9 0.580043 0.225241 0.397247
O O10 0.472894 0.142995 0.932613
O O11 0.827263 0.793513 0.954046
O O12 0.346185 0.072719 0.398712
O O13 0.767977 0.596373 0.788383
O O14 0.977988 0.241922 0.465883
O O15 0.867274 0.550181 0.985922
O O16 0.614834 0.571320 0.476824
O O17 0.500000 0.500000 0.000000
O O18 0.500000 0.000000 0.500000
#
# Coordination Sequence:
#
# PCOD8013917 Si02
#       8
#     2   2   2   2   2   2   2   2
#     4  11  24  39  64  94 135 178 223 280 343 412
#     4  11  24  38  61  98 134 179 231 275 341 415
#     4  12  24  44  75  99 136 187 228 288 349 408
#     4  10  25  42  69 102 136 175 238 284 340 416
#     4  10  23  46  71 103 136 180 228 286 354 410
#     4  10  21  41  63  92 135 175 222 282 340 406
#     4  10  22  39  65  93 136 176 221 276 341 395
#     4  10  23  48  72 100 141 176 231 292 346 409
#
# _framework density 23.299714999999999
#
# number of rings (size 3 to 8) (size 9 to 14) (size 15 to 20)
#    0.000    1.500    1.250    3.000    8.750    2.500 
#    0.000    2.500    0.000    0.000    0.000    0.000 
#    0.000    0.000    0.000    0.000    0.000    0.000 
#
# Total GULP energy -198227.261247 kJ/mol
# GULP energy per Si atom -12389.203828 kJ/mol
# Density = 2.324668 g / cm^3
# Si number density = 23.299715 Si / 1000 Ang^3
#
#
#
# Elastic Constant Matrix: (Units=GPa)
#
#
# Indices 1 2 3 4 5 6 
#
# 1 157.4816 36.4893 54.0826 -7.0615 -4.4161 29.7974
# 2 36.4893 122.4238 16.2865 -14.0199 -8.5873 17.2464
# 3 54.0826 16.2865 92.2953 2.0207 -7.2106 9.7560
# 4 -7.0615 -14.0199 2.0207 24.3176 10.7551 -0.5695
# 5 -4.4161 -8.5873 -7.2106 10.7551 44.1405 -2.2678
# 6 29.7974 17.2464 9.7560 -0.5695 -2.2678 36.6689
#
#
#
# Elastic Compliance Matrix: (Units=1/GPa)
#
#
# Indices 1 2 3 4 5 6 
#
# 1 0.009505 -0.001093 -0.004896 0.002869 -0.001065 -0.005929
# 2 -0.001093 0.009680 -0.000809 0.005158 0.000212 -0.003356
# 3 -0.004896 -0.000809 0.014077 -0.004246 0.002724 0.000717
# 4 0.002869 0.005158 -0.004246 0.050453 -0.011880 -0.003579
# 5 -0.001065 0.000212 0.002724 -0.011880 0.026005 0.001465
# 6 -0.005929 -0.003356 0.000717 -0.003579 0.001465 0.033512
#
#
# Mechanical properties :
#
#
# Convention : Reuss Voigt Hill
#
# Bulk Modulus (GPa) = 50.85127 65.10196 57.97661
# Shear Modulus (GPa) = 30.60288 38.71487 34.65888
#
# Velocity S-wave (km/s) = 3.62808 4.08070 3.86103
# Velocity P-wave (km/s) = 6.27876 7.08552 6.69430
#
# Compressibility (1/GPa) = 0.01966519
#
# Stress axis : x y z
#
# Youngs Moduli (GPa) = 105.20559 103.30409 71.03925
#
# Poissons Ratio (x) = 0.11287 0.34783
# Poissons Ratio (y) = 0.11495 0.05750
# Poissons Ratio (z) = 0.51512 0.08362
#
# Static dielectric constant tensor:
#      x y z
#    x 4.562560 0.511270 -0.160790 
#    y 0.511270 4.678400 -0.147200 
#    z -0.160790 -0.147200 4.495920 
# 
# 
# High freq. dielectric constant tensor:
#      x y z
#    x 1.934710 0.023210 -0.009900 
#    y 0.023210 1.914690 -0.012030 
#    z -0.009900 -0.012030 1.907570 
# 
# From -- ./inp_files/349955.got.cif
#   From: 2010.06.25/outbox.cif.g09.slc.cpg/sg2_175_cif.got.tgz:349955.got - 2010.06.27 13:26:56.
