data_PCOD8013991
_publ_section_title
;
Structure prediction by ZEFSAII (Michael W. Deem and Ramdas Pophale) SiO2 
 PCOD8013991
Probable space group: P -1
;
_chemical_formula_sum "Si O2"
_cell_formula_units_Z 12
_cell_length_a 6.736359
_cell_length_b 11.138581
_cell_length_c 11.317422
_cell_angle_alpha 50.059145
_cell_angle_beta 63.467433
_cell_angle_gamma 92.973480
_cell_volume 506.565972
_symmetry_space_group_name_H-M "P -1"
_symmetry_group_IT_number 2
_symmetry_cell_setting 'triclinic'
loop_
_space_group_symop_operation_xyz
x,y,z
-x,-y,-z
loop_
_atom_site_type_symbol
_atom_site_label
_atom_site_fract_x
_atom_site_fract_y
_atom_site_fract_z
Si Si1 0.761244 0.250825 0.812325
Si Si2 0.230589 0.017721 0.177752
Si Si3 0.301766 0.573029 0.514825
Si Si4 0.949975 0.718287 0.870598
Si Si5 0.100134 0.188152 0.417199
Si Si6 0.633945 0.336385 0.299424
O O1 0.666329 0.312613 0.683192
O O2 0.010209 0.409557 0.705122
O O3 0.805842 0.082629 0.874478
O O4 0.526597 0.172799 0.018247
O O5 0.051763 0.109497 0.179798
O O6 0.131783 0.853062 0.404271
O O7 0.500000 0.500000 0.500000
O O8 0.355259 0.690671 0.545566
O O9 0.844244 0.670808 0.792414
O O10 0.240845 0.758185 0.753604
O O11 0.780805 0.550005 0.103694
O O12 0.345014 0.251185 0.392347
O O13 0.000000 0.000000 0.500000
#
# Coordination Sequence:
#
# PCOD8013991 Si02
#       6
#     2   2   2   2   2   2
#     4  10  23  43  65  92 127 166 208 257 312 368
#     4  10  21  41  64  89 126 167 203 252 315 371
#     4  11  23  42  68  94 123 165 213 258 307 370
#     4  10  23  41  64  92 125 165 208 260 312 366
#     4  10  22  40  62  89 126 164 201 256 316 367
#     4  11  23  40  65  95 123 164 215 257 307 374
#
# _framework density 23.688918000000001
#
# number of rings (size 3 to 8) (size 9 to 14) (size 15 to 20)
#    0.000    1.667    0.000    3.500    0.000   12.000 
#    0.000   23.333    0.000    0.000    0.000    0.000 
#    0.000    0.000    0.000    0.000    0.000    0.000 
#
# Total GULP energy -148694.575584 kJ/mol
# GULP energy per Si atom -12391.214632 kJ/mol
# Density = 2.363500 g / cm^3
# Si number density = 23.688918 Si / 1000 Ang^3
#
#
#
# Elastic Constant Matrix: (Units=GPa)
#
#
# Indices 1 2 3 4 5 6 
#
# 1 105.0988 12.4331 52.3584 6.8259 4.8134 10.2749
# 2 12.4331 57.9481 5.5368 14.9320 5.6695 -15.3830
# 3 52.3584 5.5368 113.4636 22.0948 -17.2718 2.8414
# 4 6.8259 14.9320 22.0948 25.5333 -4.0542 -2.7127
# 5 4.8134 5.6695 -17.2718 -4.0542 27.8581 -2.1077
# 6 10.2749 -15.3830 2.8414 -2.7127 -2.1077 42.4339
#
#
#
# Elastic Compliance Matrix: (Units=1/GPa)
#
#
# Indices 1 2 3 4 5 6 
#
# 1 0.014521 -0.003896 -0.008164 0.003949 -0.006540 -0.004454
# 2 -0.003896 0.024449 0.002756 -0.015412 -0.004199 0.008428
# 3 -0.008164 0.002756 0.016095 -0.011718 0.009245 0.001608
# 4 0.003949 -0.015412 -0.011718 0.057604 0.003428 -0.001906
# 5 -0.006540 -0.004199 0.009245 0.003428 0.044252 0.001859
# 6 -0.004454 0.008428 0.001608 -0.001906 0.001859 0.027563
#
#
# Mechanical properties :
#
#
# Convention : Reuss Voigt Hill
#
# Bulk Modulus (GPa) = 27.42928 46.35190 36.89059
# Shear Modulus (GPa) = 23.22941 32.91054 28.06997
#
# Velocity S-wave (km/s) = 3.13485 3.73135 3.44603
# Velocity P-wave (km/s) = 4.97063 6.17846 5.60716
#
# Compressibility (1/GPa) = 0.03645740
#
# Stress axis : x y z
#
# Youngs Moduli (GPa) = 68.86437 40.90141 62.13117
#
# Poissons Ratio (x) = 0.15934 0.50723
# Poissons Ratio (y) = 0.26828 -0.17121
# Poissons Ratio (z) = 0.56220 -0.11271
#
# Static dielectric constant tensor:
#      x y z
#    x 4.388630 -0.087410 0.151510 
#    y -0.087410 4.427920 0.492090 
#    z 0.151510 0.492090 5.535850 
# 
# 
# High freq. dielectric constant tensor:
#      x y z
#    x 1.920700 -0.017280 -0.000880 
#    y -0.017280 1.937060 0.013420 
#    z -0.000880 0.013420 1.958560 
# 
# From -- ./inp_files/70807.got.cif
#   From: 2010.06.25/outbox.cif.g09.slc.cpg/sg2_36_cif.got.tgz:70807.got - 2010.06.27 13:26:56.
