data_PCOD8013624
_publ_section_title
;
Structure prediction by ZEFSAII (Michael W. Deem and Ramdas Pophale) SiO2 
 PCOD8013624
Probable space group: P -1
;
_chemical_formula_sum "Si O2"
_cell_formula_units_Z 16
_cell_length_a 13.884511
_cell_length_b 8.469114
_cell_length_c 8.711818
_cell_angle_alpha 127.391626
_cell_angle_beta 109.674402
_cell_angle_gamma 101.493262
_cell_volume 645.229247
_symmetry_space_group_name_H-M "P -1"
_symmetry_group_IT_number 2
_symmetry_cell_setting 'triclinic'
loop_
_space_group_symop_operation_xyz
x,y,z
-x,-y,-z
loop_
_atom_site_type_symbol
_atom_site_label
_atom_site_fract_x
_atom_site_fract_y
_atom_site_fract_z
Si Si1 0.511856 0.653021 0.893569
Si Si2 0.910546 0.387506 0.531095
Si Si3 0.731837 0.952550 0.990679
Si Si4 0.421987 0.916492 0.167140
Si Si5 0.671830 0.823495 0.373827
Si Si6 0.945806 0.113028 0.639988
Si Si7 0.357816 0.748755 0.350885
Si Si8 0.860710 0.691620 0.884852
O O1 0.597746 0.734640 0.838264
O O2 0.402867 0.377693 0.654391
O O3 0.450885 0.807569 0.972031
O O4 0.603441 0.701470 0.108745
O O5 0.961797 0.335401 0.682378
O O6 0.870701 0.569132 0.664279
O O7 0.000000 0.500000 0.500000
O O8 0.794656 0.133054 0.272952
O O9 0.823213 0.879259 0.931248
O O10 0.701421 0.084911 0.922257
O O11 0.406145 0.749926 0.206118
O O12 0.537497 0.179370 0.423533
O O13 0.810292 0.899715 0.480159
O O14 0.680033 0.062138 0.559380
O O15 0.000000 0.000000 0.500000
O O16 0.014522 0.193561 0.887147
O O17 0.244846 0.491174 0.167471
#
# Coordination Sequence:
#
# PCOD8013624 Si02
#       8
#     2   2   2   2   2   2   2   2
#     4  10  21  41  71 104 143 189 232 311 365 429
#     4  12  28  50  74 110 151 195 254 310 373 442
#     4  12  26  49  72 111 153 190 251 304 384 444
#     4  10  24  42  71 104 150 189 242 305 372 445
#     4  10  21  40  70 103 140 178 251 293 360 434
#     4  12  24  48  76 110 146 198 252 306 366 451
#     4  10  23  45  69 107 139 189 253 298 364 452
#     4  12  27  48  80 103 156 199 247 310 376 439
#
# _framework density 24.797388999999999
#
# number of rings (size 3 to 8) (size 9 to 14) (size 15 to 20)
#    0.000    1.000    3.750    1.500   10.500    1.000 
#    4.500    0.000    0.000    0.000    0.000    0.000 
#    0.000    0.000    0.000    0.000    0.000    0.000 
#
# Total GULP energy -198362.382544 kJ/mol
# GULP energy per Si atom -12397.648909 kJ/mol
# Density = 2.474095 g / cm^3
# Si number density = 24.797389 Si / 1000 Ang^3
#
#
#
# Elastic Constant Matrix: (Units=GPa)
#
#
# Indices 1 2 3 4 5 6 
#
# 1 146.1123 35.5289 55.2712 2.8677 -2.5627 -22.8984
# 2 35.5289 62.2598 21.7577 5.2520 8.8370 -12.4330
# 3 55.2712 21.7577 79.4380 16.2694 3.4472 -18.9160
# 4 2.8677 5.2520 16.2694 26.0187 3.3942 6.4974
# 5 -2.5627 8.8370 3.4472 3.3942 50.7328 8.4308
# 6 -22.8984 -12.4330 -18.9160 6.4974 8.4308 53.7055
#
#
#
# Elastic Compliance Matrix: (Units=1/GPa)
#
#
# Indices 1 2 3 4 5 6 
#
# 1 0.010430 -0.003962 -0.006872 0.003656 0.001364 0.000453
# 2 -0.003962 0.020286 -0.001053 -0.003392 -0.004047 0.003682
# 3 -0.006872 -0.001053 0.022283 -0.014399 -0.001829 0.006704
# 4 0.003656 -0.003392 -0.014399 0.050302 0.000117 -0.010402
# 5 0.001364 -0.004047 -0.001829 0.000117 0.021326 -0.004361
# 6 0.000453 0.003682 0.006704 -0.010402 -0.004361 0.023970
#
#
# Mechanical properties :
#
#
# Convention : Reuss Voigt Hill
#
# Bulk Modulus (GPa) = 34.21619 56.99173 45.60396
# Shear Modulus (GPa) = 27.45556 37.77489 32.61522
#
# Velocity S-wave (km/s) = 3.33106 3.90723 3.63060
# Velocity P-wave (km/s) = 5.35004 6.58697 6.00046
#
# Compressibility (1/GPa) = 0.02922593
#
# Stress axis : x y z
#
# Youngs Moduli (GPa) = 95.87566 49.29418 44.87751
#
# Poissons Ratio (x) = 0.19531 0.30840
# Poissons Ratio (y) = 0.37987 0.04724
# Poissons Ratio (z) = 0.65886 0.05189
#
# Static dielectric constant tensor:
#      x y z
#    x 4.712170 -0.011950 0.215910 
#    y -0.011950 4.792980 0.179950 
#    z 0.215910 0.179950 4.515410 
# 
# 
# High freq. dielectric constant tensor:
#      x y z
#    x 2.000220 -0.003950 -0.000730 
#    y -0.003950 1.973170 0.008240 
#    z -0.000730 0.008240 1.980770 
# 
# From -- ./inp_files/299783.got.cif
#   From: 2010.06.25/outbox.cif.g09.slc.cpg/sg2_150_cif.got.tgz:299783.got - 2010.06.27 13:26:56.
