data_PCOD8013678
_publ_section_title
;
Structure prediction by ZEFSAII (Michael W. Deem and Ramdas Pophale) SiO2 
 PCOD8013678
Probable space group: P -1
;
_chemical_formula_sum "Si O2"
_cell_formula_units_Z 16
_cell_length_a 21.205164
_cell_length_b 5.139323
_cell_length_c 12.325948
_cell_angle_alpha 56.142625
_cell_angle_beta 41.640610
_cell_angle_gamma 60.983739
_cell_volume 735.432773
_symmetry_space_group_name_H-M "P -1"
_symmetry_group_IT_number 2
_symmetry_cell_setting 'triclinic'
loop_
_space_group_symop_operation_xyz
x,y,z
-x,-y,-z
loop_
_atom_site_type_symbol
_atom_site_label
_atom_site_fract_x
_atom_site_fract_y
_atom_site_fract_z
Si Si1 0.989620 0.341930 0.214170
Si Si2 0.557606 0.052566 0.020647
Si Si3 0.366573 0.333391 0.273982
Si Si4 0.210459 0.248430 0.670912
Si Si5 0.257643 0.180527 0.063727
Si Si6 0.224187 0.462152 0.259676
Si Si7 0.030612 0.378878 0.605690
Si Si8 0.816086 0.476301 0.135989
O O1 0.884735 0.523259 0.290253
O O2 0.020700 0.395688 0.286951
O O3 0.992157 0.976544 0.265816
O O4 0.071898 0.475787 0.006590
O O5 0.473802 0.156151 0.192834
O O6 0.627249 0.300916 0.838027
O O7 0.500000 0.000000 0.000000
O O8 0.631632 0.788493 0.047567
O O9 0.302324 0.294855 0.469788
O O10 0.316857 0.248660 0.242808
O O11 0.238700 0.337402 0.736251
O O12 0.189869 0.892805 0.765546
O O13 0.195008 0.330504 0.211074
O O14 0.235222 0.830471 0.146576
O O15 0.234925 0.390473 0.938606
O O16 0.143118 0.406252 0.464060
O O17 0.000000 0.500000 0.500000
#
# Coordination Sequence:
#
# PCOD8013678 Si02
#       8
#     2   2   2   2   2   2   2   2
#     4  12  24  42  64  92 132 177 229 259 309 380
#     4  10  21  40  71  97 128 158 207 271 341 402
#     4  10  23  40  65 102 123 163 212 270 327 384
#     4  12  26  44  68  91 133 175 231 262 305 380
#     4  11  23  41  66  94 133 171 211 267 333 387
#     4  11  21  38  65  94 131 163 210 268 333 386
#     4  12  23  37  62  99 134 167 207 275 330 381
#     4  12  26  45  63  93 131 184 223 265 307 375
#
# _framework density 21.755897999999998
#
# number of rings (size 3 to 8) (size 9 to 14) (size 15 to 20)
#    0.000    0.750    2.500    5.625    3.500    0.000 
#    0.000    1.250    0.000    0.000    0.000    0.000 
#    0.000    0.000    0.000    0.000    0.000    0.000 
#
# Total GULP energy -198300.767081 kJ/mol
# GULP energy per Si atom -12393.797943 kJ/mol
# Density = 2.170638 g / cm^3
# Si number density = 21.755898 Si / 1000 Ang^3
#
#
#
# Elastic Constant Matrix: (Units=GPa)
#
#
# Indices 1 2 3 4 5 6 
#
# 1 81.3678 4.8982 27.4293 3.3625 3.4899 8.6538
# 2 4.8982 62.3056 28.3482 -1.5934 -2.6679 11.9653
# 3 27.4293 28.3482 119.9158 0.7842 4.2176 -2.8925
# 4 3.3625 -1.5934 0.7842 12.0603 11.5819 4.2028
# 5 3.4899 -2.6679 4.2176 11.5819 30.5864 9.1758
# 6 8.6538 11.9653 -2.8925 4.2028 9.1758 29.8135
#
#
#
# Elastic Compliance Matrix: (Units=1/GPa)
#
#
# Indices 1 2 3 4 5 6 
#
# 1 0.014079 0.001599 -0.003769 -0.003529 0.001948 -0.005196
# 2 0.001599 0.020994 -0.005795 0.001627 0.005218 -0.011287
# 3 -0.003769 -0.005795 0.010823 0.001194 -0.003647 0.005424
# 4 -0.003529 0.001627 0.001194 0.131786 -0.048580 -0.003139
# 5 0.001948 0.005218 -0.003647 -0.048580 0.055830 -0.013348
# 6 -0.005196 -0.011287 0.005424 -0.003139 -0.013348 0.044657
#
#
# Mechanical properties :
#
#
# Convention : Reuss Voigt Hill
#
# Bulk Modulus (GPa) = 33.37232 42.77117 38.07175
# Shear Modulus (GPa) = 16.44269 28.01959 22.23114
#
# Velocity S-wave (km/s) = 2.75213 3.59264 3.20010
# Velocity P-wave (km/s) = 5.04695 6.07550 5.58495
#
# Compressibility (1/GPa) = 0.02996495
#
# Stress axis : x y z
#
# Youngs Moduli (GPa) = 71.02693 47.63369 92.39907
#
# Poissons Ratio (x) = -0.07617 0.34828
# Poissons Ratio (y) = -0.11358 0.53546
# Poissons Ratio (z) = 0.26772 0.27604
#
# Static dielectric constant tensor:
#      x y z
#    x 3.068460 0.370830 0.531050 
#    y 0.370830 4.036760 0.106830 
#    z 0.531050 0.106830 3.740640 
# 
# 
# High freq. dielectric constant tensor:
#      x y z
#    x 1.871200 0.009400 -0.003050 
#    y 0.009400 1.855830 0.013760 
#    z -0.003050 0.013760 1.851010 
# 
# From -- ./inp_files/78241.got.cif
#   From: 2010.06.25/outbox.cif.g09.slc.cpg/sg2_40_cif.got.tgz:78241.got - 2010.06.27 13:26:56.
