data_PCOD8013892
_publ_section_title
;
Structure prediction by ZEFSAII (Michael W. Deem and Ramdas Pophale) SiO2 
 PCOD8013892
Probable space group: P -1
;
_chemical_formula_sum "Si O2"
_cell_formula_units_Z 16
_cell_length_a 20.387209
_cell_length_b 11.891077
_cell_length_c 11.961841
_cell_angle_alpha 138.220078
_cell_angle_beta 148.777350
_cell_angle_gamma 31.771505
_cell_volume 789.618951
_symmetry_space_group_name_H-M "P -1"
_symmetry_group_IT_number 2
_symmetry_cell_setting 'triclinic'
loop_
_space_group_symop_operation_xyz
x,y,z
-x,-y,-z
loop_
_atom_site_type_symbol
_atom_site_label
_atom_site_fract_x
_atom_site_fract_y
_atom_site_fract_z
Si Si1 0.662970 0.907525 0.726432
Si Si2 0.044330 0.391224 0.216484
Si Si3 0.739057 0.579742 0.782907
Si Si4 0.095023 0.578713 0.746709
Si Si5 0.342044 0.726231 0.898236
Si Si6 0.292952 0.774219 0.603732
Si Si7 0.955975 0.230643 0.411143
Si Si8 0.572251 0.758502 0.906759
O O1 0.786188 0.804440 0.727285
O O2 0.689132 0.742575 0.732433
O O3 0.500000 0.000000 0.500000
O O4 0.662730 0.088580 0.916062
O O5 0.045213 0.580889 0.402342
O O6 0.991972 0.305776 0.176830
O O7 0.921577 0.475827 0.998563
O O8 0.730596 0.397857 0.592222
O O9 0.627300 0.698927 0.815309
O O10 0.082010 0.738988 0.755306
O O11 0.000000 0.500000 0.500000
O O12 0.281592 0.386238 0.900426
O O13 0.349318 0.744291 0.790387
O O14 0.180336 0.761124 0.718730
O O15 0.500000 0.500000 0.000000
O O16 0.434422 0.733726 0.704556
O O17 0.128729 0.009278 0.519945
O O18 0.500000 0.000000 0.000000
#
# Coordination Sequence:
#
# PCOD8013892 Si02
#       8
#     2   2   2   2   2   2   2   2
#     4  12  25  41  63  91 122 161 205 258 314 369
#     4  10  21  41  63  89 123 163 206 252 307 372
#     4  11  24  42  62  89 125 164 208 255 308 373
#     4   9  20  38  62  91 121 158 201 248 304 367
#     4  12  25  43  63  91 125 162 208 260 312 374
#     4  12  24  41  63  92 124 165 209 258 312 370
#     4  11  22  40  65  92 124 165 208 257 311 371
#     4  11  22  40  65  93 125 164 207 258 313 370
#
# _framework density 20.262937999999998
#
# number of rings (size 3 to 8) (size 9 to 14) (size 15 to 20)
#    0.000    1.000    0.000    8.625    0.000    4.000 
#    0.000    6.875    0.000    0.000    0.000    0.000 
#    0.000    0.000    0.000    0.000    0.000    0.000 
#
# Total GULP energy -198429.961607 kJ/mol
# GULP energy per Si atom -12401.872600 kJ/mol
# Density = 2.021682 g / cm^3
# Si number density = 20.262938 Si / 1000 Ang^3
#
#
#
# Elastic Constant Matrix: (Units=GPa)
#
#
# Indices 1 2 3 4 5 6 
#
# 1 98.8683 42.8109 29.4640 -10.8700 -0.4216 -12.5646
# 2 42.8109 132.7426 50.5300 -1.6108 -7.7763 -15.0761
# 3 29.4640 50.5300 116.0965 -1.6343 2.1536 -10.7613
# 4 -10.8700 -1.6108 -1.6343 55.3013 -1.2660 1.2667
# 5 -0.4216 -7.7763 2.1536 -1.2660 43.1337 -5.7283
# 6 -12.5646 -15.0761 -10.7613 1.2667 -5.7283 36.9030
#
#
#
# Elastic Compliance Matrix: (Units=1/GPa)
#
#
# Indices 1 2 3 4 5 6 
#
# 1 0.012492 -0.003132 -0.001549 0.002263 0.000026 0.002448
# 2 -0.003132 0.010290 -0.003502 -0.000423 0.002318 0.002490
# 3 -0.001549 -0.003502 0.010640 -0.000139 -0.001051 0.000986
# 4 0.002263 -0.000423 -0.000139 0.018523 0.000496 -0.000002
# 5 0.000026 0.002318 -0.001051 0.000496 0.024253 0.004397
# 6 0.002448 0.002490 0.000986 -0.000002 0.004397 0.029919
#
#
# Mechanical properties :
#
#
# Convention : Reuss Voigt Hill
#
# Bulk Modulus (GPa) = 58.62921 65.92416 62.27668
# Shear Modulus (GPa) = 39.01123 42.06110 40.53617
#
# Velocity S-wave (km/s) = 4.39253 4.56100 4.47756
# Velocity P-wave (km/s) = 7.39748 7.76801 7.58501
#
# Compressibility (1/GPa) = 0.01705635
#
# Stress axis : x y z
#
# Youngs Moduli (GPa) = 80.04859 97.18104 93.98753
#
# Poissons Ratio (x) = 0.30440 0.14557
# Poissons Ratio (y) = 0.25073 0.32913
# Poissons Ratio (z) = 0.12398 0.34031
#
# Static dielectric constant tensor:
#      x y z
#    x 4.225730 0.075920 -0.079750 
#    y 0.075920 3.875140 -0.065760 
#    z -0.079750 -0.065760 3.957210 
# 
# 
# High freq. dielectric constant tensor:
#      x y z
#    x 1.815090 -0.001400 0.000420 
#    y -0.001400 1.793280 -0.009060 
#    z 0.000420 -0.009060 1.809320 
# 
# From -- ./inp_files/185933.got.cif
#   From: 2010.06.25/outbox.cif.g09.slc.cpg/sg2_93_cif.got.tgz:185933.got - 2010.06.27 13:26:56.
