data_PCOD8013801
_publ_section_title
;
Structure prediction by ZEFSAII (Michael W. Deem and Ramdas Pophale) SiO2 
 PCOD8013801
Probable space group: P -1
;
_chemical_formula_sum "Si O2"
_cell_formula_units_Z 14
_cell_length_a 11.813056
_cell_length_b 20.656690
_cell_length_c 9.380025
_cell_angle_alpha 60.868006
_cell_angle_beta 95.595907
_cell_angle_gamma 149.097061
_cell_volume 719.197073
_symmetry_space_group_name_H-M "P -1"
_symmetry_group_IT_number 2
_symmetry_cell_setting 'triclinic'
loop_
_space_group_symop_operation_xyz
x,y,z
-x,-y,-z
loop_
_atom_site_type_symbol
_atom_site_label
_atom_site_fract_x
_atom_site_fract_y
_atom_site_fract_z
Si Si1 0.767249 0.205076 0.622362
Si Si2 0.372107 0.526865 0.236071
Si Si3 0.380063 0.100712 0.724056
Si Si4 0.434478 0.394891 0.325204
Si Si5 0.872124 0.849805 0.720141
Si Si6 0.676741 0.784238 0.262878
Si Si7 0.885841 0.207893 0.927836
O O1 0.702871 0.255051 0.550140
O O2 0.923243 0.279673 0.714414
O O3 0.999410 0.321411 0.397067
O O4 0.423098 0.954750 0.842498
O O5 0.409187 0.461583 0.312267
O O6 0.452926 0.607860 0.313948
O O7 0.594350 0.700096 0.959600
O O8 0.474765 0.230675 0.685324
O O9 0.169218 0.991930 0.677268
O O10 0.171779 0.914532 0.989828
O O11 0.281540 0.299676 0.252263
O O12 0.251302 0.226268 0.584750
O O13 0.801003 0.593039 0.152140
O O14 0.000000 0.000000 0.500000
O O15 0.000000 0.000000 0.000000
#
# Coordination Sequence:
#
# PCOD8013801 Si02
#       7
#     2   2   2   2   2   2   2
#     4   9  21  38  63  94 126 159 204 259 305 373
#     4  12  23  38  65  97 118 159 222 251 302 370
#     4  10  21  41  62  87 136 159 197 257 320 359
#     4  12  23  39  67  89 123 167 207 254 312 368
#     4  12  24  44  61  91 127 167 203 257 319 364
#     4  12  22  36  63  99 123 154 209 269 299 353
#     4   9  19  40  62  91 123 162 200 248 318 358
#
# _framework density 19.466152000000001
#
# number of rings (size 3 to 8) (size 9 to 14) (size 15 to 20)
#    0.857    0.286    5.714    0.857    2.000    0.571 
#    0.000    3.571    0.000    0.000    0.000    0.000 
#    0.000    0.000    0.000    0.000    0.000    0.000 
#
# Total GULP energy -173452.108631 kJ/mol
# GULP energy per Si atom -12389.436331 kJ/mol
# Density = 1.942185 g / cm^3
# Si number density = 19.466152 Si / 1000 Ang^3
#
#
#
# Elastic Constant Matrix: (Units=GPa)
#
#
# Indices 1 2 3 4 5 6 
#
# 1 120.5663 59.3001 61.7449 -1.4021 -0.9033 18.3811
# 2 59.3001 111.2080 17.2077 4.5400 -6.1729 -3.4544
# 3 61.7449 17.2077 107.7618 -2.6799 -7.6571 11.4969
# 4 -1.4021 4.5400 -2.6799 24.6303 4.0529 0.5552
# 5 -0.9033 -6.1729 -7.6571 4.0529 29.7151 -5.1217
# 6 18.3811 -3.4544 11.4969 0.5552 -5.1217 24.8844
#
#
#
# Elastic Compliance Matrix: (Units=1/GPa)
#
#
# Indices 1 2 3 4 5 6 
#
# 1 0.019707 -0.010088 -0.008629 0.003412 -0.006492 -0.013383
# 2 -0.010088 0.014730 0.002714 -0.004139 0.005654 0.009499
# 3 -0.008629 0.002714 0.013956 -0.000177 0.004121 0.001155
# 4 0.003412 -0.004139 -0.000177 0.042915 -0.007609 -0.005537
# 5 -0.006492 0.005654 0.004121 -0.007609 0.038768 0.011826
# 6 -0.013383 0.009499 0.001155 -0.005537 0.011826 0.053413
#
#
# Mechanical properties :
#
#
# Convention : Reuss Voigt Hill
#
# Bulk Modulus (GPa) = 61.03342 68.44906 64.74124
# Shear Modulus (GPa) = 22.62872 29.26483 25.94678
#
# Velocity S-wave (km/s) = 3.41319 3.88154 3.65488
# Velocity P-wave (km/s) = 6.85236 7.43827 7.15132
#
# Compressibility (1/GPa) = 0.01638447
#
# Stress axis : x y z
#
# Youngs Moduli (GPa) = 50.74430 67.89043 71.65449
#
# Poissons Ratio (x) = 0.68491 0.61832
# Poissons Ratio (y) = 0.51193 -0.19445
# Poissons Ratio (z) = 0.43788 -0.18424
#
# Static dielectric constant tensor:
#      x y z
#    x 3.760520 0.012280 0.102190 
#    y 0.012280 4.105100 -0.319920 
#    z 0.102190 -0.319920 3.719880 
# 
# 
# High freq. dielectric constant tensor:
#      x y z
#    x 1.749750 0.012210 0.009290 
#    y 0.012210 1.744730 -0.016940 
#    z 0.009290 -0.016940 1.761460 
# 
# From -- ./inp_files/280921.got.cif
#   From: 2010.06.25/outbox.cif.g09.slc.cpg/sg2_141_cif.got.tgz:280921.got - 2010.06.27 13:26:56.
