data_PCOD8013674
_publ_section_title
;
Structure prediction by ZEFSAII (Michael W. Deem and Ramdas Pophale) SiO2 
 PCOD8013674
Probable space group: P -1
;
_chemical_formula_sum "Si O2"
_cell_formula_units_Z 16
_cell_length_a 8.914441
_cell_length_b 11.734988
_cell_length_c 13.583504
_cell_angle_alpha 45.307814
_cell_angle_beta 51.791656
_cell_angle_gamma 50.175933
_cell_volume 738.133675
_symmetry_space_group_name_H-M "P -1"
_symmetry_group_IT_number 2
_symmetry_cell_setting 'triclinic'
loop_
_space_group_symop_operation_xyz
x,y,z
-x,-y,-z
loop_
_atom_site_type_symbol
_atom_site_label
_atom_site_fract_x
_atom_site_fract_y
_atom_site_fract_z
Si Si1 0.845523 0.642894 0.610448
Si Si2 0.993073 0.276603 0.691931
Si Si3 0.195524 0.615270 0.616582
Si Si4 0.431228 0.665870 0.859090
Si Si5 0.299964 0.994251 0.851633
Si Si6 0.504211 0.236007 0.683740
Si Si7 0.206837 0.535265 0.880698
Si Si8 0.598278 0.215817 0.873617
O O1 0.855326 0.761667 0.441337
O O2 0.612875 0.667864 0.712586
O O3 0.984967 0.448045 0.645018
O O4 0.959312 0.682066 0.635653
O O5 0.763633 0.304955 0.732771
O O6 0.073837 0.119479 0.832686
O O7 0.319222 0.420140 0.650354
O O8 0.294224 0.745542 0.454018
O O9 0.197857 0.629644 0.723983
O O10 0.369210 0.831881 0.851138
O O11 0.239136 0.661924 0.874138
O O12 0.500000 0.500000 0.000000
O O13 0.446684 0.105024 0.716298
O O14 0.301116 0.942822 0.996591
O O15 0.548470 0.153740 0.825709
O O16 0.396232 0.353679 0.921088
O O17 0.000000 0.500000 0.000000
#
# Coordination Sequence:
#
# PCOD8013674 Si02
#       8
#     2   2   2   2   2   2   2   2
#     4  11  22  42  72  96 136 179 229 277 329 407
#     4  11  23  41  69 103 131 178 231 277 338 386
#     4  10  21  40  71  95 133 172 231 273 334 398
#     4  12  25  46  68  97 140 181 221 272 343 406
#     4  12  25  42  68  99 143 175 226 278 340 395
#     4  10  22  41  66 101 130 176 221 286 335 387
#     4  11  24  43  71  98 131 183 224 268 343 415
#     4  11  22  44  66  98 136 173 227 285 327 404
#
# _framework density 21.676290999999999
#
# number of rings (size 3 to 8) (size 9 to 14) (size 15 to 20)
#    0.000    1.000    5.000    1.500    1.750    0.500 
#    6.750    0.625    0.000    0.000    0.000    0.000 
#    0.000    0.000    0.000    0.000    0.000    0.000 
#
# Total GULP energy -198419.621191 kJ/mol
# GULP energy per Si atom -12401.226324 kJ/mol
# Density = 2.162696 g / cm^3
# Si number density = 21.676291 Si / 1000 Ang^3
#
#
#
# Elastic Constant Matrix: (Units=GPa)
#
#
# Indices 1 2 3 4 5 6 
#
# 1 148.9664 39.9725 41.8208 -0.2685 -16.6916 13.8252
# 2 39.9725 64.7089 32.3085 -3.9515 -5.5155 13.4667
# 3 41.8208 32.3085 95.1075 7.9142 -8.3281 -1.5462
# 4 -0.2685 -3.9515 7.9142 31.7088 -6.2536 -7.3092
# 5 -16.6916 -5.5155 -8.3281 -6.2536 46.4482 -1.3416
# 6 13.8252 13.4667 -1.5462 -7.3092 -1.3416 40.2637
#
#
#
# Elastic Compliance Matrix: (Units=1/GPa)
#
#
# Indices 1 2 3 4 5 6 
#
# 1 0.008804 -0.003608 -0.002499 0.000286 0.002274 -0.001785
# 2 -0.003608 0.022272 -0.006289 0.003049 0.000461 -0.005883
# 3 -0.002499 -0.006289 0.014137 -0.003574 0.000492 0.002872
# 4 0.000286 0.003049 -0.003574 0.034943 0.004680 0.005244
# 5 0.002274 0.000461 0.000492 0.004680 0.023140 0.000704
# 6 -0.001785 -0.005883 0.002872 0.005244 0.000704 0.028502
#
#
# Mechanical properties :
#
#
# Convention : Reuss Voigt Hill
#
# Bulk Modulus (GPa) = 48.96807 59.66515 54.31661
# Shear Modulus (GPa) = 30.60048 36.66288 33.63168
#
# Velocity S-wave (km/s) = 3.76134 4.11710 3.94324
# Velocity P-wave (km/s) = 6.44230 7.08421 6.77087
#
# Compressibility (1/GPa) = 0.02042147
#
# Stress axis : x y z
#
# Youngs Moduli (GPa) = 113.59045 44.89928 70.73742
#
# Poissons Ratio (x) = 0.16198 0.17679
# Poissons Ratio (y) = 0.40980 0.44484
# Poissons Ratio (z) = 0.28389 0.28235
#
# Static dielectric constant tensor:
#      x y z
#    x 4.198790 0.097630 0.054730 
#    y 0.097630 3.546250 0.025830 
#    z 0.054730 0.025830 4.012220 
# 
# 
# High freq. dielectric constant tensor:
#      x y z
#    x 1.877330 0.006510 -0.000570 
#    y 0.006510 1.810790 0.004400 
#    z -0.000570 0.004400 1.861250 
# 
# From -- ./inp_files/200826.got.cif
#   From: 2010.06.25/outbox.cif.g09.slc.cpg/sg2_101_cif.got.tgz:200826.got - 2010.06.27 13:26:56.
