data_PCOD8013228
_publ_section_title
;
Structure prediction by ZEFSAII (Michael W. Deem and Ramdas Pophale) SiO2 
 PCOD8013228
Probable space group: P -1
;
_chemical_formula_sum "Si O2"
_cell_formula_units_Z 16
_cell_length_a 13.379879
_cell_length_b 19.774830
_cell_length_c 8.741020
_cell_angle_alpha 138.509050
_cell_angle_beta 105.331742
_cell_angle_gamma 41.745583
_cell_volume 759.563295
_symmetry_space_group_name_H-M "P -1"
_symmetry_group_IT_number 2
_symmetry_cell_setting 'triclinic'
loop_
_space_group_symop_operation_xyz
x,y,z
-x,-y,-z
loop_
_atom_site_type_symbol
_atom_site_label
_atom_site_fract_x
_atom_site_fract_y
_atom_site_fract_z
Si Si1 0.570217 0.239136 0.402984
Si Si2 0.545814 0.245851 0.766569
Si Si3 0.040611 0.406989 0.569301
Si Si4 0.400703 0.191393 0.818972
Si Si5 0.047689 0.150752 0.605707
Si Si6 0.130823 0.542297 0.706241
Si Si7 0.655878 0.384910 0.734576
Si Si8 0.258345 0.059255 0.249144
O O1 0.564089 0.222910 0.553318
O O2 0.345989 0.411967 0.539407
O O3 0.648946 0.286157 0.467633
O O4 0.734457 0.026032 0.032562
O O5 0.434730 0.238914 0.771416
O O6 0.764997 0.073236 0.637213
O O7 0.411987 0.457448 0.121057
O O8 0.991782 0.366601 0.347167
O O9 0.161626 0.402817 0.550881
O O10 0.188032 0.229092 0.448964
O O11 0.835448 0.619471 0.925297
O O12 0.500000 0.000000 0.500000
O O13 0.515037 0.132978 0.918041
O O14 0.097532 0.163052 0.487232
O O15 0.871614 0.219042 0.619471
O O16 0.994065 0.281949 0.930351
O O17 0.500000 0.500000 0.000000
#
# Coordination Sequence:
#
# PCOD8013228 Si02
#       8
#     2   2   2   2   2   2   2   2
#     4  11  23  44  63  94 129 166 211 268 309 369
#     4  10  22  40  67  94 127 167 209 259 317 375
#     4  11  24  41  65  92 127 174 206 260 318 370
#     4  11  24  42  64  98 130 163 210 260 317 377
#     4  11  22  42  65  96 124 163 213 259 307 390
#     4  11  23  42  64  92 130 163 220 256 309 384
#     4  10  21  40  66  92 127 165 211 261 316 364
#     4  11  25  41  65  92 131 162 210 263 315 373
#
# _framework density 21.064734999999999
#
# number of rings (size 3 to 8) (size 9 to 14) (size 15 to 20)
#    0.000    1.250    3.750    3.000    1.750    5.000 
#    2.250    2.500    0.000    0.000    0.000    0.000 
#    0.000    0.000    0.000    0.000    0.000    0.000 
#
# Total GULP energy -198406.355852 kJ/mol
# GULP energy per Si atom -12400.397241 kJ/mol
# Density = 2.101679 g / cm^3
# Si number density = 21.064735 Si / 1000 Ang^3
#
#
#
# Elastic Constant Matrix: (Units=GPa)
#
#
# Indices 1 2 3 4 5 6 
#
# 1 84.9742 20.0639 18.9903 -2.0591 19.2744 -7.1251
# 2 20.0639 70.7953 16.1596 3.4131 7.9410 5.3416
# 3 18.9903 16.1596 103.3881 -4.6014 15.0386 4.3174
# 4 -2.0591 3.4131 -4.6014 31.5953 -0.1484 -0.8483
# 5 19.2744 7.9410 15.0386 -0.1484 33.8512 4.6439
# 6 -7.1251 5.3416 4.3174 -0.8483 4.6439 38.8173
#
#
#
# Elastic Compliance Matrix: (Units=1/GPa)
#
#
# Indices 1 2 3 4 5 6 
#
# 1 0.015023 -0.003497 -0.001205 0.001261 -0.007787 0.004332
# 2 -0.003497 0.015890 -0.001744 -0.002271 -0.000613 -0.002611
# 3 -0.001205 -0.001744 0.010792 0.001646 -0.003594 -0.000716
# 4 0.001261 -0.002271 0.001646 0.032245 -0.000936 0.001178
# 5 -0.007787 -0.000613 -0.003594 -0.000936 0.036442 -0.005325
# 6 0.004332 -0.002611 -0.000716 0.001178 -0.005325 0.027659
#
#
# Mechanical properties :
#
#
# Convention : Reuss Voigt Hill
#
# Bulk Modulus (GPa) = 34.70627 41.06502 37.88564
# Shear Modulus (GPa) = 31.14359 34.44902 32.79631
#
# Velocity S-wave (km/s) = 3.84926 4.04838 3.95008
# Velocity P-wave (km/s) = 6.02225 6.43347 6.23125
#
# Compressibility (1/GPa) = 0.02881324
#
# Stress axis : x y z
#
# Youngs Moduli (GPa) = 66.56288 62.93400 92.66039
#
# Poissons Ratio (x) = 0.22007 0.11166
# Poissons Ratio (y) = 0.23276 0.16161
# Poissons Ratio (z) = 0.08021 0.10976
#
# Static dielectric constant tensor:
#      x y z
#    x 5.302540 0.004570 0.858690 
#    y 0.004570 3.937280 0.067350 
#    z 0.858690 0.067350 4.302180 
# 
# 
# High freq. dielectric constant tensor:
#      x y z
#    x 1.827540 -0.004440 0.002570 
#    y -0.004440 1.823170 0.003640 
#    z 0.002570 0.003640 1.830190 
# 
# From -- ./inp_files/187235.got.cif
#   From: 2010.06.25/outbox.cif.g09.slc.cpg/sg2_94_cif.got.tgz:187235.got - 2010.06.27 13:26:56.
