data_PCOD8013160
_publ_section_title
;
Structure prediction by ZEFSAII (Michael W. Deem and Ramdas Pophale) SiO2 
 PCOD8013160
Probable space group: P -1
;
_chemical_formula_sum "Si O2"
_cell_formula_units_Z 12
_cell_length_a 14.686761
_cell_length_b 9.413274
_cell_length_c 9.149627
_cell_angle_alpha 132.813610
_cell_angle_beta 68.607825
_cell_angle_gamma 140.335035
_cell_volume 557.363142
_symmetry_space_group_name_H-M "P -1"
_symmetry_group_IT_number 2
_symmetry_cell_setting 'triclinic'
loop_
_space_group_symop_operation_xyz
x,y,z
-x,-y,-z
loop_
_atom_site_type_symbol
_atom_site_label
_atom_site_fract_x
_atom_site_fract_y
_atom_site_fract_z
Si Si1 0.172117 0.729522 0.009645
Si Si2 0.284364 0.120993 0.959519
Si Si3 0.023926 0.237710 0.228327
Si Si4 0.482024 0.200723 0.683683
Si Si5 0.026886 0.229941 0.552631
Si Si6 0.231526 0.850383 0.370026
O O1 0.169720 0.549046 0.770209
O O2 0.270877 0.836709 0.172145
O O3 0.000000 0.500000 0.000000
O O4 0.238619 0.010932 0.077255
O O5 0.356952 0.446198 0.151235
O O6 0.395770 0.123916 0.831995
O O7 0.135809 0.889094 0.779303
O O8 0.073567 0.265033 0.383019
O O9 0.154173 0.559101 0.300524
O O10 0.000000 0.000000 0.000000
O O11 0.500000 0.000000 0.500000
O O12 0.386263 0.145213 0.566014
O O13 0.873478 0.121965 0.566467
O O14 0.000000 0.000000 0.500000
#
# Coordination Sequence:
#
# PCOD8013160 Si02
#       6
#     2   2   2   2   2   2
#     4  10  21  40  65  97 132 167 215 283 342 392
#     4  11  23  44  67  98 139 178 224 288 332 405
#     4  12  22  38  70 100 129 179 224 280 351 400
#     4  11  25  45  68  95 135 188 235 271 336 410
#     4  11  22  36  62 101 135 166 219 282 339 397
#     4  11  22  43  66  94 138 171 223 280 337 407
#
# _framework density 21.529948000000001
#
# number of rings (size 3 to 8) (size 9 to 14) (size 15 to 20)
#    0.000    1.000    5.000    3.500    2.333    0.667 
#    0.000    0.833    0.000    0.000    0.000    0.000 
#    0.000    0.000    0.000    0.000    0.000    0.000 
#
# Total GULP energy -148751.474074 kJ/mol
# GULP energy per Si atom -12395.956173 kJ/mol
# Density = 2.148095 g / cm^3
# Si number density = 21.529948 Si / 1000 Ang^3
#
#
#
# Elastic Constant Matrix: (Units=GPa)
#
#
# Indices 1 2 3 4 5 6 
#
# 1 62.7456 24.1692 19.8785 -10.0074 -2.7756 -25.3145
# 2 24.1692 125.9529 40.0911 -14.9744 5.4420 -31.5546
# 3 19.8785 40.0911 123.5680 -20.0896 7.0742 -17.5793
# 4 -10.0074 -14.9744 -20.0896 37.9407 -7.5205 8.9318
# 5 -2.7756 5.4420 7.0742 -7.5205 51.3088 -1.8732
# 6 -25.3145 -31.5546 -17.5793 8.9318 -1.8732 37.9397
#
#
#
# Elastic Compliance Matrix: (Units=1/GPa)
#
#
# Indices 1 2 3 4 5 6 
#
# 1 0.022468 -0.000275 -0.001324 0.002339 0.002271 0.013710
# 2 -0.000275 0.010694 -0.002155 0.001181 -0.000408 0.007414
# 3 -0.001324 -0.002155 0.009767 0.003621 -0.000624 0.000966
# 4 0.002339 0.001181 0.003621 0.030801 0.003913 -0.002838
# 5 0.002271 -0.000408 -0.000624 0.003913 0.020351 0.000970
# 6 0.013710 0.007414 0.000966 -0.002838 0.000970 0.042835
#
#
# Mechanical properties :
#
#
# Convention : Reuss Voigt Hill
#
# Bulk Modulus (GPa) = 28.23368 53.39378 40.81373
# Shear Modulus (GPa) = 32.00402 40.64635 36.32518
#
# Velocity S-wave (km/s) = 3.85968 4.34971 4.11200
# Velocity P-wave (km/s) = 5.74500 7.07674 6.44536
#
# Compressibility (1/GPa) = 0.03541869
#
# Stress axis : x y z
#
# Youngs Moduli (GPa) = 44.50830 93.51387 102.38777
#
# Poissons Ratio (x) = 0.02572 0.13561
# Poissons Ratio (y) = 0.01224 0.22067
# Poissons Ratio (z) = 0.05895 0.20154
#
# Static dielectric constant tensor:
#      x y z
#    x 3.039970 0.092670 -0.068100 
#    y 0.092670 4.148050 -0.235490 
#    z -0.068100 -0.235490 4.502380 
# 
# 
# High freq. dielectric constant tensor:
#      x y z
#    x 1.820650 -0.012700 0.006270 
#    y -0.012700 1.839620 -0.005760 
#    z 0.006270 -0.005760 1.871180 
# 
# From -- ./inp_files/160314.got.cif
#   From: 2010.06.25/outbox.cif.g09.slc.cpg/sg2_81_cif.got.tgz:160314.got - 2010.06.27 13:26:56.
