data_PCOD8013212
_publ_section_title
;
Structure prediction by ZEFSAII (Michael W. Deem and Ramdas Pophale) SiO2 
 PCOD8013212
Probable space group: P -1
;
_chemical_formula_sum "Si O2"
_cell_formula_units_Z 16
_cell_length_a 18.133105
_cell_length_b 11.732302
_cell_length_c 8.800018
_cell_angle_alpha 116.574789
_cell_angle_beta 128.478347
_cell_angle_gamma 29.518945
_cell_volume 700.303342
_symmetry_space_group_name_H-M "P -1"
_symmetry_group_IT_number 2
_symmetry_cell_setting 'triclinic'
loop_
_space_group_symop_operation_xyz
x,y,z
-x,-y,-z
loop_
_atom_site_type_symbol
_atom_site_label
_atom_site_fract_x
_atom_site_fract_y
_atom_site_fract_z
Si Si1 0.311923 0.315680 0.838605
Si Si2 0.332329 0.202931 0.117963
Si Si3 0.658026 0.550945 0.542737
Si Si4 0.500881 0.358663 0.132107
Si Si5 0.779403 0.155104 0.580075
Si Si6 0.807135 0.902274 0.059804
Si Si7 0.918752 0.315586 0.487987
Si Si8 0.701825 0.162480 0.808791
O O1 0.151417 0.512046 0.632330
O O2 0.461218 0.063321 0.794447
O O3 0.248041 0.316608 0.909421
O O4 0.382347 0.371530 0.020969
O O5 0.308139 0.351420 0.282141
O O6 0.230825 0.203915 0.071108
O O7 0.735958 0.354246 0.636752
O O8 0.756329 0.431841 0.433654
O O9 0.452301 0.763183 0.377206
O O10 0.612605 0.265096 0.370259
O O11 0.378064 0.618621 0.085569
O O12 0.634346 0.174512 0.058373
O O13 0.808999 0.078653 0.745413
O O14 0.955507 0.933269 0.575679
O O15 0.973592 0.724735 0.276801
O O16 0.843247 0.929924 0.960876
#
# Coordination Sequence:
#
# PCOD8013212 Si02
#       8
#     2   2   2   2   2   2   2   2
#     4  10  21  40  66  91 120 162 207 256 301 360
#     4  10  22  41  64  90 121 162 213 250 295 367
#     4  11  22  41  67  94 122 160 208 254 300 365
#     4   9  18  38  63  91 120 160 210 252 303 360
#     4  10  22  40  64  96 128 156 196 257 318 362
#     4  10  23  39  58  89 128 165 201 251 308 364
#     4  11  25  41  60  91 129 162 200 255 314 359
#     4  11  21  38  66  92 122 164 208 251 299 364
#
# _framework density 22.847241
#
# number of rings (size 3 to 8) (size 9 to 14) (size 15 to 20)
#    0.000    1.750    0.000    5.250    0.000    8.000 
#    0.000    1.875    0.000    0.000    0.000    0.000 
#    0.000    0.000    0.000    0.000    0.000    0.000 
#
# Total GULP energy -198447.890416 kJ/mol
# GULP energy per Si atom -12402.993151 kJ/mol
# Density = 2.279524 g / cm^3
# Si number density = 22.847241 Si / 1000 Ang^3
#
#
#
# Elastic Constant Matrix: (Units=GPa)
#
#
# Indices 1 2 3 4 5 6 
#
# 1 103.5496 41.2455 38.6950 7.3006 -14.5742 22.4693
# 2 41.2455 83.9559 59.4974 5.5753 -1.4551 16.0294
# 3 38.6950 59.4974 89.0478 5.0909 -11.9589 24.8954
# 4 7.3006 5.5753 5.0909 36.6687 13.2539 -4.2940
# 5 -14.5742 -1.4551 -11.9589 13.2539 28.9271 -8.0487
# 6 22.4693 16.0294 24.8954 -4.2940 -8.0487 38.2332
#
#
#
# Elastic Compliance Matrix: (Units=1/GPa)
#
#
# Indices 1 2 3 4 5 6 
#
# 1 0.014589 -0.006126 0.000714 -0.005768 0.008498 -0.005330
# 2 -0.006126 0.026052 -0.016777 0.003318 -0.009694 0.001934
# 3 0.000714 -0.016777 0.026463 -0.006225 0.010792 -0.009044
# 4 -0.005768 0.003318 -0.006225 0.036909 -0.020593 0.005862
# 5 0.008498 -0.009694 0.010792 -0.020593 0.052476 0.000778
# 6 -0.005330 0.001934 -0.009044 0.005862 0.000778 0.035188
#
#
# Mechanical properties :
#
#
# Convention : Reuss Voigt Hill
#
# Bulk Modulus (GPa) = 43.99953 61.71431 52.85692
# Shear Modulus (GPa) = 20.52272 29.90682 25.21477
#
# Velocity S-wave (km/s) = 3.00035 3.62192 3.32569
# Velocity P-wave (km/s) = 5.59488 6.67544 6.15890
#
# Compressibility (1/GPa) = 0.02272752
#
# Stress axis : x y z
#
# Youngs Moduli (GPa) = 68.54259 38.38405 37.78834
#
# Poissons Ratio (x) = 0.23513 -0.02699
# Poissons Ratio (y) = 0.41986 0.63399
# Poissons Ratio (z) = -0.04895 0.64398
#
# Static dielectric constant tensor:
#      x y z
#    x 4.100880 0.070910 -0.095700 
#    y 0.070910 4.090800 0.014350 
#    z -0.095700 0.014350 3.908920 
# 
# 
# High freq. dielectric constant tensor:
#      x y z
#    x 1.904420 0.005960 -0.010160 
#    y 0.005960 1.897660 0.005710 
#    z -0.010160 0.005710 1.891710 
# 
# From -- ./inp_files/333635.got.cif
#   From: 2010.06.25/outbox.cif.g09.slc.cpg/sg2_167_cif.got.tgz:333635.got - 2010.06.27 13:26:56.
