data_PCOD8013950
_publ_section_title
;
Structure prediction by ZEFSAII (Michael W. Deem and Ramdas Pophale) SiO2 
 PCOD8013950
Probable space group: P -1
;
_chemical_formula_sum "Si O2"
_cell_formula_units_Z 12
_cell_length_a 12.760608
_cell_length_b 8.242348
_cell_length_c 14.237441
_cell_angle_alpha 59.188423
_cell_angle_beta 152.181727
_cell_angle_gamma 105.243656
_cell_volume 528.381954
_symmetry_space_group_name_H-M "P -1"
_symmetry_group_IT_number 2
_symmetry_cell_setting 'triclinic'
loop_
_space_group_symop_operation_xyz
x,y,z
-x,-y,-z
loop_
_atom_site_type_symbol
_atom_site_label
_atom_site_fract_x
_atom_site_fract_y
_atom_site_fract_z
Si Si1 0.646456 0.853884 0.439226
Si Si2 0.715279 0.149668 0.265525
Si Si3 0.698682 0.045504 0.701757
Si Si4 0.619545 0.488308 0.431902
Si Si5 0.041570 0.702770 0.952841
Si Si6 0.268881 0.493418 0.698698
O O1 0.372337 0.946394 0.247080
O O2 0.744626 0.611483 0.551644
O O3 0.856730 0.846646 0.680503
O O4 0.612319 0.007625 0.279997
O O5 0.720004 0.323425 0.286454
O O6 0.511435 0.264930 0.985960
O O7 0.000000 0.000000 0.500000
O O8 0.694685 0.264584 0.605744
O O9 0.500000 0.000000 0.500000
O O10 0.977229 0.848424 0.954543
O O11 0.712825 0.454593 0.409769
O O12 0.318410 0.638668 0.154585
O O13 0.000000 0.500000 0.000000
O O14 0.000000 0.500000 0.500000
#
# Coordination Sequence:
#
# PCOD8013950 Si02
#       6
#     2   2   2   2   2   2
#     4  11  24  42  66  99 136 174 226 277 340 407
#     4  11  25  47  71 100 138 180 233 288 341 405
#     4  10  21  41  63  96 131 170 219 272 333 400
#     4  12  24  43  67  97 137 174 225 281 337 407
#     4  11  23  41  67  94 135 179 218 276 342 402
#     4  11  26  46  72 101 136 183 234 283 342 407
#
# _framework density 22.710844000000002
#
# number of rings (size 3 to 8) (size 9 to 14) (size 15 to 20)
#    0.000    1.000    3.333    4.500    0.000    7.333 
#    0.000    0.000    0.000    0.000    0.000    0.000 
#    0.000    0.000    0.000    0.000    0.000    0.000 
#
# Total GULP energy -148810.308708 kJ/mol
# GULP energy per Si atom -12400.859059 kJ/mol
# Density = 2.265915 g / cm^3
# Si number density = 22.710844 Si / 1000 Ang^3
#
#
#
# Elastic Constant Matrix: (Units=GPa)
#
#
# Indices 1 2 3 4 5 6 
#
# 1 166.5119 40.5738 46.7410 -7.9046 16.3157 16.2661
# 2 40.5738 112.1004 26.3227 -24.1651 2.0333 14.6272
# 3 46.7410 26.3227 105.9937 -3.6445 24.4497 8.1149
# 4 -7.9046 -24.1651 -3.6445 37.9470 1.0420 2.1447
# 5 16.3157 2.0333 24.4497 1.0420 37.4802 -4.1897
# 6 16.2661 14.6272 8.1149 2.1447 -4.1897 42.3624
#
#
#
# Elastic Compliance Matrix: (Units=1/GPa)
#
#
# Indices 1 2 3 4 5 6 
#
# 1 0.007478 -0.001804 -0.002235 0.000362 -0.001936 -0.002030
# 2 -0.001804 0.012002 -0.001852 0.007260 0.000761 -0.003389
# 3 -0.002235 -0.001852 0.012710 -0.000127 -0.007400 -0.001663
# 4 0.000362 0.007260 -0.000127 0.031337 -0.001831 -0.004389
# 5 -0.001936 0.000761 -0.007400 -0.001831 0.032947 0.005249
# 6 -0.002030 -0.003389 -0.001663 -0.004389 0.005249 0.026615
#
#
# Mechanical properties :
#
#
# Convention : Reuss Voigt Hill
#
# Bulk Modulus (GPa) = 48.99901 67.98679 58.49290
# Shear Modulus (GPa) = 35.29262 41.62249 38.45756
#
# Velocity S-wave (km/s) = 3.94636 4.28567 4.11951
# Velocity P-wave (km/s) = 6.51053 7.38174 6.95978
#
# Compressibility (1/GPa) = 0.02040857
#
# Stress axis : x y z
#
# Youngs Moduli (GPa) = 133.73103 83.32272 78.67885
#
# Poissons Ratio (x) = 0.15027 0.17585
# Poissons Ratio (y) = 0.24119 0.14569
# Poissons Ratio (z) = 0.29890 0.15429
#
# Static dielectric constant tensor:
#      x y z
#    x 4.460180 -0.154310 0.228550 
#    y -0.154310 4.193980 -0.053370 
#    z 0.228550 -0.053370 4.341380 
# 
# 
# High freq. dielectric constant tensor:
#      x y z
#    x 1.908730 -0.005790 0.010000 
#    y -0.005790 1.915050 -0.001600 
#    z 0.010000 -0.001600 1.895620 
# 
# From -- ./inp_files/301124.got.cif
#   From: 2010.06.25/outbox.cif.g09.slc.cpg/sg2_151_cif.got.tgz:301124.got - 2010.06.27 13:26:56.
