data_PCOD8013057
_publ_section_title
;
Structure prediction by ZEFSAII (Michael W. Deem and Ramdas Pophale) SiO2 
 PCOD8013057
Probable space group: P -1
;
_chemical_formula_sum "Si O2"
_cell_formula_units_Z 16
_cell_length_a 5.310658
_cell_length_b 17.252337
_cell_length_c 9.854823
_cell_angle_alpha 100.395085
_cell_angle_beta 135.900289
_cell_angle_gamma 86.246122
_cell_volume 615.314860
_symmetry_space_group_name_H-M "P -1"
_symmetry_group_IT_number 2
_symmetry_cell_setting 'triclinic'
loop_
_space_group_symop_operation_xyz
x,y,z
-x,-y,-z
loop_
_atom_site_type_symbol
_atom_site_label
_atom_site_fract_x
_atom_site_fract_y
_atom_site_fract_z
Si Si1 0.706384 0.425949 0.465079
Si Si2 0.816347 0.945588 0.634896
Si Si3 0.948088 0.695120 0.771871
Si Si4 0.262717 0.546208 0.821393
Si Si5 0.527314 0.159126 0.739905
Si Si6 0.075857 0.280440 0.531769
Si Si7 0.735307 0.901667 0.098568
Si Si8 0.585643 0.831590 0.749599
O O1 0.401499 0.367744 0.396818
O O2 0.592186 0.452491 0.277482
O O3 0.058323 0.373891 0.577627
O O4 0.847150 0.501039 0.639217
O O5 0.824382 0.887794 0.489158
O O6 0.739697 0.898186 0.727886
O O7 0.500000 0.000000 0.500000
O O8 0.186956 0.003647 0.819230
O O9 0.897286 0.767616 0.880794
O O10 0.265808 0.637155 0.906819
O O11 0.998685 0.738462 0.661455
O O12 0.500000 0.500000 0.000000
O O13 0.890071 0.137842 0.798649
O O14 0.459476 0.252121 0.724346
O O15 0.497608 0.135706 0.878245
O O16 0.749507 0.224204 0.461395
O O17 0.487432 0.877907 0.863237
#
# Coordination Sequence:
#
# PCOD8013057 Si02
#       8
#     2   2   2   2   2   2   2   2
#     4   9  21  40  63  95 131 168 221 269 333 407
#     4  10  21  43  67  93 127 178 227 278 339 409
#     4  10  21  40  65  90 130 174 216 267 342 398
#     4  10  21  40  66  97 128 170 216 273 334 403
#     4  11  23  43  65  95 133 177 228 277 339 411
#     4  10  21  40  66  88 130 180 217 270 334 402
#     4  11  26  40  64 100 134 171 231 289 343 399
#     4  11  23  42  64  94 133 173 222 284 342 397
#
# _framework density 26.002946999999999
#
# number of rings (size 3 to 8) (size 9 to 14) (size 15 to 20)
#    0.000    1.750    1.250    2.625    3.500    2.500 
#    4.500    3.750    0.000    0.000    0.000    0.000 
#    0.000    0.000    0.000    0.000    0.000    0.000 
#
# Total GULP energy -198260.724366 kJ/mol
# GULP energy per Si atom -12391.295273 kJ/mol
# Density = 2.594376 g / cm^3
# Si number density = 26.002947 Si / 1000 Ang^3
#
#
#
# Elastic Constant Matrix: (Units=GPa)
#
#
# Indices 1 2 3 4 5 6 
#
# 1 53.4673 17.6373 3.3025 -11.0698 -10.1932 2.7353
# 2 17.6373 126.2087 24.7657 -16.2480 -14.1095 -6.5157
# 3 3.3025 24.7657 74.3440 -8.5627 -16.7681 1.3956
# 4 -11.0698 -16.2480 -8.5627 41.3541 -1.9506 -8.6488
# 5 -10.1932 -14.1095 -16.7681 -1.9506 35.5757 12.0479
# 6 2.7353 -6.5157 1.3956 -8.6488 12.0479 32.3250
#
#
#
# Elastic Compliance Matrix: (Units=1/GPa)
#
#
# Indices 1 2 3 4 5 6 
#
# 1 0.022102 -0.002175 0.002252 0.005055 0.008200 -0.004110
# 2 -0.002175 0.009389 -0.002426 0.003201 0.001264 0.002567
# 3 0.002252 -0.002426 0.016573 0.002661 0.009009 -0.004041
# 4 0.005055 0.003201 0.002661 0.028878 0.003324 0.006590
# 5 0.008200 0.001264 0.009009 0.003324 0.040477 -0.015025
# 6 -0.004110 0.002567 -0.004041 0.006590 -0.015025 0.039339
#
#
# Mechanical properties :
#
#
# Convention : Reuss Voigt Hill
#
# Bulk Modulus (GPa) = 23.05953 38.38121 30.72037
# Shear Modulus (GPa) = 28.42340 35.73859 32.08100
#
# Velocity S-wave (km/s) = 3.30977 3.71132 3.51628
# Velocity P-wave (km/s) = 4.84700 5.75826 5.32217
#
# Compressibility (1/GPa) = 0.04336601
#
# Stress axis : x y z
#
# Youngs Moduli (GPa) = 45.24555 106.50540 60.33784
#
# Poissons Ratio (x) = 0.23166 -0.13586
# Poissons Ratio (y) = 0.09841 0.14636
# Poissons Ratio (z) = -0.10188 0.25835
#
# Static dielectric constant tensor:
#      x y z
#    x 4.723600 -0.521840 -0.003080 
#    y -0.521840 5.620720 0.304330 
#    z -0.003080 0.304330 4.618990 
# 
# 
# High freq. dielectric constant tensor:
#      x y z
#    x 2.039900 -0.018370 0.003710 
#    y -0.018370 2.076750 -0.002450 
#    z 0.003710 -0.002450 2.016340 
# 
# From -- ./inp_files/139097.got.cif
#   From: 2010.06.25/outbox.cif.g09.slc.cpg/sg2_70_cif.got.tgz:139097.got - 2010.06.27 13:26:56.
