data_PCOD8013886
_publ_section_title
;
Structure prediction by ZEFSAII (Michael W. Deem and Ramdas Pophale) SiO2 
 PCOD8013886
Probable space group: P -1
;
_chemical_formula_sum "Si O2"
_cell_formula_units_Z 16
_cell_length_a 9.018897
_cell_length_b 8.465478
_cell_length_c 15.670899
_cell_angle_alpha 50.642950
_cell_angle_beta 79.750406
_cell_angle_gamma 108.149946
_cell_volume 755.626076
_symmetry_space_group_name_H-M "P -1"
_symmetry_group_IT_number 2
_symmetry_cell_setting 'triclinic'
loop_
_space_group_symop_operation_xyz
x,y,z
-x,-y,-z
loop_
_atom_site_type_symbol
_atom_site_label
_atom_site_fract_x
_atom_site_fract_y
_atom_site_fract_z
Si Si1 0.838320 0.953371 0.690124
Si Si2 0.018765 0.850085 0.217794
Si Si3 0.176095 0.032166 0.547497
Si Si4 0.712043 0.898459 0.158273
Si Si5 0.433560 0.219823 0.603935
Si Si6 0.285707 0.822311 0.080876
Si Si7 0.371355 0.464219 0.253502
Si Si8 0.213939 0.712165 0.518534
O O1 0.642868 0.708211 0.765936
O O2 0.968156 0.946401 0.607357
O O3 0.894672 0.952093 0.781604
O O4 0.845050 0.201920 0.587925
O O5 0.187566 0.902065 0.128034
O O6 0.886413 0.890941 0.161638
O O7 0.905554 0.579685 0.362100
O O8 0.195702 0.833990 0.563614
O O9 0.245804 0.054091 0.629355
O O10 0.294257 0.304210 0.402007
O O11 0.602119 0.876568 0.262008
O O12 0.579461 0.680544 0.179129
O O13 0.776652 0.156918 0.015661
O O14 0.500000 0.500000 0.500000
O O15 0.577589 0.187941 0.551891
O O16 0.243870 0.559133 0.203694
O O17 0.500000 0.000000 0.000000
#
# Coordination Sequence:
#
# PCOD8013886 Si02
#       8
#     2   2   2   2   2   2   2   2
#     4  11  23  37  63  98 128 160 205 263 310 368
#     4  12  22  41  65  93 122 164 212 255 310 370
#     4  11  20  39  60  96 131 163 200 259 314 369
#     4  11  23  41  65  87 127 168 208 253 304 368
#     4  12  21  38  63  94 132 162 208 254 310 371
#     4  10  24  42  67  87 121 168 214 254 308 368
#     4  10  21  41  63  87 128 164 200 255 307 362
#     4  11  23  35  64  96 130 165 199 253 321 374
#
# _framework density 21.174492000000001
#
# number of rings (size 3 to 8) (size 9 to 14) (size 15 to 20)
#    0.000    1.000    3.750    4.125    3.500    1.000 
#    0.000    3.125    2.750    0.000    0.000    0.000 
#    0.000    0.000    0.000    0.000    0.000    0.000 
#
# Total GULP energy -198325.539750 kJ/mol
# GULP energy per Si atom -12395.346234 kJ/mol
# Density = 2.112630 g / cm^3
# Si number density = 21.174492 Si / 1000 Ang^3
#
#
#
# Elastic Constant Matrix: (Units=GPa)
#
#
# Indices 1 2 3 4 5 6 
#
# 1 114.8382 28.6265 26.9891 6.1052 13.1201 1.1933
# 2 28.6265 81.4544 25.1438 8.4440 18.5210 14.3264
# 3 26.9891 25.1438 72.4748 17.1015 14.8517 1.5000
# 4 6.1052 8.4440 17.1015 20.0575 2.3462 -1.5754
# 5 13.1201 18.5210 14.8517 2.3462 38.7438 7.0268
# 6 1.1933 14.3264 1.5000 -1.5754 7.0268 36.3975
#
#
#
# Elastic Compliance Matrix: (Units=1/GPa)
#
#
# Indices 1 2 3 4 5 6 
#
# 1 0.010126 -0.002669 -0.002740 0.000622 -0.001344 0.001118
# 2 -0.002669 0.016495 -0.002796 -0.003635 -0.004684 -0.005543
# 3 -0.002740 -0.002796 0.020184 -0.014598 -0.004704 0.000635
# 4 0.000622 -0.003635 -0.014598 0.063690 0.002488 0.004288
# 5 -0.001344 -0.004684 -0.004704 0.002488 0.030840 -0.003765
# 6 0.001118 -0.005543 0.000635 0.004288 -0.003765 0.030506
#
#
# Mechanical properties :
#
#
# Convention : Reuss Voigt Hill
#
# Bulk Modulus (GPa) = 32.90037 47.80958 40.35497
# Shear Modulus (GPa) = 25.20415 31.57361 28.38888
#
# Velocity S-wave (km/s) = 3.45383 3.86569 3.66554
# Velocity P-wave (km/s) = 5.61041 6.52323 6.08396
#
# Compressibility (1/GPa) = 0.03039480
#
# Stress axis : x y z
#
# Youngs Moduli (GPa) = 98.75792 60.62583 49.54523
#
# Poissons Ratio (x) = 0.16178 0.13573
# Poissons Ratio (y) = 0.26354 0.13855
# Poissons Ratio (z) = 0.27055 0.16954
#
# Static dielectric constant tensor:
#      x y z
#    x 4.210110 0.025590 0.337310 
#    y 0.025590 3.761930 0.041540 
#    z 0.337310 0.041540 4.049660 
# 
# 
# High freq. dielectric constant tensor:
#      x y z
#    x 1.842290 0.007260 0.011170 
#    y 0.007260 1.821720 0.008150 
#    z 0.011170 0.008150 1.820200 
# 
# From -- ./inp_files/181789.got.cif
#   From: 2010.06.25/outbox.cif.g09.slc.cpg/sg2_91_cif.got.tgz:181789.got - 2010.06.27 13:26:56.
