data_PCOD8013585
_publ_section_title
;
Structure prediction by ZEFSAII (Michael W. Deem and Ramdas Pophale) SiO2 
 PCOD8013585
Probable space group: P -1
;
_chemical_formula_sum "Si O2"
_cell_formula_units_Z 14
_cell_length_a 4.921401
_cell_length_b 21.627990
_cell_length_c 11.955855
_cell_angle_alpha 144.395979
_cell_angle_beta 60.937101
_cell_angle_gamma 121.970412
_cell_volume 624.549300
_symmetry_space_group_name_H-M "P -1"
_symmetry_group_IT_number 2
_symmetry_cell_setting 'triclinic'
loop_
_space_group_symop_operation_xyz
x,y,z
-x,-y,-z
loop_
_atom_site_type_symbol
_atom_site_label
_atom_site_fract_x
_atom_site_fract_y
_atom_site_fract_z
Si Si1 0.502508 0.880127 0.125948
Si Si2 0.843978 0.555641 0.963327
Si Si3 0.785805 0.749693 0.388458
Si Si4 0.046875 0.661570 0.857765
Si Si5 0.037732 0.661460 0.406024
Si Si6 0.268624 0.305494 0.260743
Si Si7 0.972764 0.994414 0.630279
O O1 0.354518 0.968826 0.220215
O O2 0.699714 0.928902 0.269509
O O3 0.186089 0.778760 0.068049
O O4 0.731943 0.825221 0.921909
O O5 0.054696 0.466756 0.804999
O O6 0.826408 0.577761 0.866240
O O7 0.500000 0.500000 0.000000
O O8 0.978875 0.671073 0.171196
O O9 0.410198 0.717939 0.389145
O O10 0.829041 0.730077 0.482867
O O11 0.944610 0.874225 0.506841
O O12 0.358984 0.620815 0.693350
O O13 0.836387 0.672384 0.809741
O O14 0.963422 0.665844 0.558659
O O15 0.000000 0.000000 0.500000
#
# Coordination Sequence:
#
# PCOD8013585 Si02
#       7
#     2   2   2   2   2   2   2
#     4  10  21  41  62  97 127 161 213 263 315 365
#     4  10  24  44  67  95 133 168 211 266 326 375
#     4  11  25  41  65  96 130 169 215 260 326 377
#     4  10  21  40  69  94 130 164 214 258 320 375
#     4  11  24  45  64  93 133 170 212 266 314 386
#     4  10  22  41  68  92 134 164 218 258 315 375
#     4  12  23  40  66  95 129 168 212 262 317 379
#
# _framework density 22.416163000000001
#
# number of rings (size 3 to 8) (size 9 to 14) (size 15 to 20)
#    0.857    0.571    1.429    3.429    0.000    6.857 
#    0.000    4.286    0.000    0.000    0.000    0.000 
#    0.000    0.000    0.000    0.000    0.000    0.000 
#
# Total GULP energy -173434.820001 kJ/mol
# GULP energy per Si atom -12388.201429 kJ/mol
# Density = 2.236514 g / cm^3
# Si number density = 22.416163 Si / 1000 Ang^3
#
#
#
# Elastic Constant Matrix: (Units=GPa)
#
#
# Indices 1 2 3 4 5 6 
#
# 1 99.6175 23.0035 23.8943 9.0954 -9.7429 -20.7859
# 2 23.0035 115.3266 51.3974 3.4886 -9.7077 -15.0179
# 3 23.8943 51.3974 96.9508 -0.1604 -16.9748 3.3197
# 4 9.0954 3.4886 -0.1604 23.9511 -7.2076 -1.8596
# 5 -9.7429 -9.7077 -16.9748 -7.2076 22.7064 3.4638
# 6 -20.7859 -15.0179 3.3197 -1.8596 3.4638 28.5931
#
#
#
# Elastic Compliance Matrix: (Units=1/GPa)
#
#
# Indices 1 2 3 4 5 6 
#
# 1 0.013387 0.000546 -0.003926 -0.004368 0.000103 0.010177
# 2 0.000546 0.012909 -0.007576 -0.002049 -0.001803 0.008142
# 3 -0.003926 -0.007576 0.017663 0.005406 0.011511 -0.009927
# 4 -0.004368 -0.002049 0.005406 0.048661 0.017319 -0.003812
# 5 0.000103 -0.001803 0.011511 0.017319 0.058666 -0.008189
# 6 0.010177 0.008142 -0.009927 -0.003812 -0.008189 0.048545
#
#
# Mechanical properties :
#
#
# Convention : Reuss Voigt Hill
#
# Bulk Modulus (GPa) = 45.36049 56.49836 50.92942
# Shear Modulus (GPa) = 21.82542 29.29012 25.55777
#
# Velocity S-wave (km/s) = 3.12372 3.61869 3.38027
# Velocity P-wave (km/s) = 5.76972 6.53597 6.16476
#
# Compressibility (1/GPa) = 0.02204562
#
# Stress axis : x y z
#
# Youngs Moduli (GPa) = 74.70158 77.46610 56.61671
#
# Poissons Ratio (x) = -0.04228 0.22229
# Poissons Ratio (y) = -0.04077 0.42892
# Poissons Ratio (z) = 0.29329 0.58687
#
# Static dielectric constant tensor:
#      x y z
#    x 3.962490 -0.115420 -0.222480 
#    y -0.115420 3.755170 0.259810 
#    z -0.222480 0.259810 4.509690 
# 
# 
# High freq. dielectric constant tensor:
#      x y z
#    x 1.885730 -0.012630 -0.008610 
#    y -0.012630 1.860010 0.010990 
#    z -0.008610 0.010990 1.888940 
# 
# From -- ./inp_files/369123.got.cif
#   From: 2010.06.25/outbox.cif.g09.slc.cpg/sg2_185_cif.got.tgz:369123.got - 2010.06.27 13:26:56.
