data_PCOD8013514
_publ_section_title
;
Structure prediction by ZEFSAII (Michael W. Deem and Ramdas Pophale) SiO2 
 PCOD8013514
Probable space group: P -1
;
_chemical_formula_sum "Si O2"
_cell_formula_units_Z 16
_cell_length_a 14.339522
_cell_length_b 11.105832
_cell_length_c 9.211096
_cell_angle_alpha 107.918374
_cell_angle_beta 109.270158
_cell_angle_gamma 129.144613
_cell_volume 761.822852
_symmetry_space_group_name_H-M "P -1"
_symmetry_group_IT_number 2
_symmetry_cell_setting 'triclinic'
loop_
_space_group_symop_operation_xyz
x,y,z
-x,-y,-z
loop_
_atom_site_type_symbol
_atom_site_label
_atom_site_fract_x
_atom_site_fract_y
_atom_site_fract_z
Si Si1 0.329108 0.054864 0.133132
Si Si2 0.344453 0.636452 0.415723
Si Si3 0.711267 0.470612 0.978028
Si Si4 0.000364 0.132974 0.127357
Si Si5 0.831889 0.366355 0.174305
Si Si6 0.878552 0.902988 0.270026
Si Si7 0.626602 0.851297 0.139216
Si Si8 0.213518 0.717177 0.556018
O O1 0.479757 0.244378 0.394665
O O2 0.395597 0.166306 0.051340
O O3 0.156981 0.950046 0.049189
O O4 0.292698 0.866768 0.048603
O O5 0.353259 0.652616 0.252929
O O6 0.333590 0.766333 0.524971
O O7 0.180413 0.388299 0.292915
O O8 0.557132 0.343928 0.956431
O O9 0.829565 0.491350 0.126026
O O10 0.818156 0.709497 0.092509
O O11 0.977141 0.090934 0.272268
O O12 0.000000 0.000000 0.000000
O O13 0.770323 0.329219 0.293538
O O14 0.020262 0.504288 0.322289
O O15 0.721209 0.820647 0.220423
O O16 0.000000 0.000000 0.500000
O O17 0.733254 0.081400 0.338948
#
# Coordination Sequence:
#
# PCOD8013514 Si02
#       8
#     2   2   2   2   2   2   2   2
#     4  10  23  43  70  95 125 177 218 266 320 381
#     4  12  25  42  67  99 133 174 209 266 336 382
#     4  12  25  41  61 101 135 166 212 270 328 384
#     4  11  24  48  65  95 134 169 223 261 318 402
#     4  10  21  40  68  97 128 165 224 268 315 385
#     4  11  25  43  68  94 126 174 217 270 325 372
#     4  10  23  43  64  96 130 165 225 267 311 392
#     4  10  21  41  70  96 124 175 216 266 326 378
#
# _framework density 21.002257
#
# number of rings (size 3 to 8) (size 9 to 14) (size 15 to 20)
#    0.000    1.250    2.500    2.625    5.250    6.000 
#    2.250    0.000    0.000    0.000    0.000    0.000 
#    0.000    0.000    0.000    0.000    0.000    0.000 
#
# Total GULP energy -198483.374064 kJ/mol
# GULP energy per Si atom -12405.210879 kJ/mol
# Density = 2.095445 g / cm^3
# Si number density = 21.002257 Si / 1000 Ang^3
#
#
#
# Elastic Constant Matrix: (Units=GPa)
#
#
# Indices 1 2 3 4 5 6 
#
# 1 99.5097 20.4240 48.2038 -6.8660 0.5356 -18.6923
# 2 20.4240 70.6031 30.5943 0.9687 9.7370 -14.1353
# 3 48.2038 30.5943 128.6761 -6.1436 11.2232 -7.6206
# 4 -6.8660 0.9687 -6.1436 27.5213 3.2923 5.9503
# 5 0.5356 9.7370 11.2232 3.2923 32.1289 0.4961
# 6 -18.6923 -14.1353 -7.6206 5.9503 0.4961 29.1546
#
#
#
# Elastic Compliance Matrix: (Units=1/GPa)
#
#
# Indices 1 2 3 4 5 6 
#
# 1 0.013851 -0.000766 -0.004677 0.000727 0.001451 0.007113
# 2 -0.000766 0.018031 -0.003298 -0.002804 -0.004137 0.008032
# 3 -0.004677 -0.003298 0.010519 0.002112 -0.002779 -0.002232
# 4 0.000727 -0.002804 0.002112 0.039338 -0.003803 -0.008305
# 5 0.001451 -0.004137 -0.002779 -0.003803 0.033739 -0.001600
# 6 0.007113 0.008032 -0.002232 -0.008305 -0.001600 0.043894
#
#
# Mechanical properties :
#
#
# Convention : Reuss Voigt Hill
#
# Bulk Modulus (GPa) = 40.12950 55.24815 47.68882
# Shear Modulus (GPa) = 27.00386 31.06540 29.03463
#
# Velocity S-wave (km/s) = 3.58964 3.85014 3.72217
# Velocity P-wave (km/s) = 6.02739 6.79174 6.42095
#
# Compressibility (1/GPa) = 0.02491933
#
# Stress axis : x y z
#
# Youngs Moduli (GPa) = 72.19868 55.45949 95.06912
#
# Poissons Ratio (x) = 0.04248 0.44465
# Poissons Ratio (y) = 0.05530 0.31350
# Poissons Ratio (z) = 0.33768 0.18288
#
# Static dielectric constant tensor:
#      x y z
#    x 4.037510 -0.078590 -0.078360 
#    y -0.078590 3.838730 0.092760 
#    z -0.078360 0.092760 3.771450 
# 
# 
# High freq. dielectric constant tensor:
#      x y z
#    x 1.832910 -0.003270 0.002180 
#    y -0.003270 1.818480 0.006090 
#    z 0.002180 0.006090 1.824780 
# 
# From -- ./inp_files/216716.got.cif
#   From: 2010.06.25/outbox.cif.g09.slc.cpg/sg2_109_cif.got.tgz:216716.got - 2010.06.27 13:26:56.
