data_PCOD8013914
_publ_section_title
;
Structure prediction by ZEFSAII (Michael W. Deem and Ramdas Pophale) SiO2 
 PCOD8013914
Probable space group: P -1
;
_chemical_formula_sum "Si O2"
_cell_formula_units_Z 14
_cell_length_a 8.148317
_cell_length_b 13.562516
_cell_length_c 13.685911
_cell_angle_alpha 143.698018
_cell_angle_beta 75.867682
_cell_angle_gamma 123.868041
_cell_volume 675.796329
_symmetry_space_group_name_H-M "P -1"
_symmetry_group_IT_number 2
_symmetry_cell_setting 'triclinic'
loop_
_space_group_symop_operation_xyz
x,y,z
-x,-y,-z
loop_
_atom_site_type_symbol
_atom_site_label
_atom_site_fract_x
_atom_site_fract_y
_atom_site_fract_z
Si Si1 0.052486 0.026691 0.272760
Si Si2 0.806928 0.817273 0.950698
Si Si3 0.951251 0.298020 0.620067
Si Si4 0.829519 0.018925 0.585896
Si Si5 0.478731 0.167671 0.261995
Si Si6 0.646815 0.350328 0.585751
Si Si7 0.382868 0.739801 0.894767
O O1 0.088489 0.904724 0.253260
O O2 0.289262 0.191353 0.317771
O O3 0.978795 0.153670 0.432820
O O4 0.873384 0.856805 0.086239
O O5 0.736323 0.590158 0.748632
O O6 0.608254 0.820598 0.972717
O O7 0.000000 0.000000 0.000000
O O8 0.830927 0.184025 0.649757
O O9 0.813655 0.349700 0.625080
O O10 0.184679 0.515108 0.789737
O O11 0.587760 0.791282 0.440452
O O12 0.000000 0.000000 0.500000
O O13 0.631136 0.257265 0.406713
O O14 0.625605 0.297920 0.250799
O O15 0.354507 0.916037 0.063464
#
# Coordination Sequence:
#
# PCOD8013914 Si02
#       7
#     2   2   2   2   2   2   2
#     4  10  21  41  63  92 126 161 209 252 308 366
#     4  12  24  39  62  92 126 164 207 253 308 369
#     4  11  23  40  67  93 125 166 204 256 309 366
#     4   9  20  43  66  91 122 162 209 256 305 365
#     4  10  22  40  61  90 125 166 203 260 305 369
#     4  11  24  41  64  92 129 161 210 251 313 365
#     4  11  23  39  62  90 129 160 212 251 311 365
#
# _framework density 20.716301000000001
#
# number of rings (size 3 to 8) (size 9 to 14) (size 15 to 20)
#    0.000    1.429    1.429    4.714    4.000    1.714 
#    0.000   14.286    0.000    0.000    0.000    0.000 
#    0.000    0.000    0.000    0.000    0.000    0.000 
#
# Total GULP energy -173588.422222 kJ/mol
# GULP energy per Si atom -12399.173016 kJ/mol
# Density = 2.066915 g / cm^3
# Si number density = 20.716301 Si / 1000 Ang^3
#
#
#
# Elastic Constant Matrix: (Units=GPa)
#
#
# Indices 1 2 3 4 5 6 
#
# 1 103.9751 36.6037 15.5080 4.1924 16.6307 1.8237
# 2 36.6037 115.9852 59.3835 17.5484 9.1121 -2.4820
# 3 15.5080 59.3835 84.7185 9.1789 13.3248 -1.8794
# 4 4.1924 17.5484 9.1789 33.4462 -0.4086 2.6042
# 5 16.6307 9.1121 13.3248 -0.4086 37.5334 -0.9692
# 6 1.8237 -2.4820 -1.8794 2.6042 -0.9692 31.2100
#
#
#
# Elastic Compliance Matrix: (Units=1/GPa)
#
#
# Indices 1 2 3 4 5 6 
#
# 1 0.011601 -0.004096 0.001423 0.000332 -0.004676 -0.001091
# 2 -0.004096 0.015650 -0.009876 -0.005075 0.001501 0.001359
# 3 0.001423 -0.009876 0.019310 -0.000371 -0.005088 0.000167
# 4 0.000332 -0.005075 -0.000371 0.032885 0.001493 -0.003143
# 5 -0.004676 0.001501 -0.005088 0.001493 0.030196 0.000899
# 6 -0.001091 0.001359 0.000167 -0.003143 0.000899 0.032513
#
#
# Mechanical properties :
#
#
# Convention : Reuss Voigt Hill
#
# Bulk Modulus (GPa) = 46.59352 58.62992 52.61172
# Shear Modulus (GPa) = 28.66849 33.31682 30.99266
#
# Velocity S-wave (km/s) = 3.72406 4.01464 3.87208
# Velocity P-wave (km/s) = 6.40559 7.06063 6.74107
#
# Compressibility (1/GPa) = 0.02146221
#
# Stress axis : x y z
#
# Youngs Moduli (GPa) = 86.19965 63.89843 51.78589
#
# Poissons Ratio (x) = 0.26171 -0.07367
# Poissons Ratio (y) = 0.35305 0.51145
# Poissons Ratio (z) = -0.12262 0.63107
#
# Static dielectric constant tensor:
#      x y z
#    x 3.917400 -0.212500 0.064920 
#    y -0.212500 4.410580 -0.099630 
#    z 0.064920 -0.099630 3.642680 
# 
# 
# High freq. dielectric constant tensor:
#      x y z
#    x 1.824890 -0.003850 0.007010 
#    y -0.003850 1.817630 -0.005310 
#    z 0.007010 -0.005310 1.797650 
# 
# From -- ./inp_files/188172.got.cif
#   From: 2010.06.25/outbox.cif.g09.slc.cpg/sg2_95_cif.got.tgz:188172.got - 2010.06.27 13:26:56.
