data_PCOD8013155
_publ_section_title
;
Structure prediction by ZEFSAII (Michael W. Deem and Ramdas Pophale) SiO2 
 PCOD8013155
Probable space group: P -1
;
_chemical_formula_sum "Si O2"
_cell_formula_units_Z 14
_cell_length_a 11.890430
_cell_length_b 18.679671
_cell_length_c 9.326701
_cell_angle_alpha 44.669448
_cell_angle_beta 64.388790
_cell_angle_gamma 31.218121
_cell_volume 660.993849
_symmetry_space_group_name_H-M "P -1"
_symmetry_group_IT_number 2
_symmetry_cell_setting 'triclinic'
loop_
_space_group_symop_operation_xyz
x,y,z
-x,-y,-z
loop_
_atom_site_type_symbol
_atom_site_label
_atom_site_fract_x
_atom_site_fract_y
_atom_site_fract_z
Si Si1 0.618061 0.744216 0.960354
Si Si2 0.506338 0.975199 0.199136
Si Si3 0.035520 0.699227 0.943853
Si Si4 0.216695 0.861213 0.963509
Si Si5 0.907799 0.139983 0.475258
Si Si6 0.601880 0.460828 0.842585
Si Si7 0.156379 0.382996 0.275530
O O1 0.885202 0.526404 0.191680
O O2 0.444793 0.767308 0.028851
O O3 0.660288 0.762912 0.752343
O O4 0.480100 0.926971 0.867901
O O5 0.734332 0.745364 0.457658
O O6 0.258364 0.087631 0.203963
O O7 0.500000 0.000000 0.000000
O O8 0.116728 0.724355 0.746407
O O9 0.149058 0.648986 0.109170
O O10 0.138816 0.516455 0.108840
O O11 0.094798 0.005388 0.693514
O O12 0.325818 0.677965 0.110263
O O13 0.000000 0.000000 0.000000
O O14 0.620853 0.314291 0.425741
O O15 0.000000 0.000000 0.500000
O O16 0.500000 0.500000 0.000000
#
# Coordination Sequence:
#
# PCOD8013155 Si02
#       7
#     2   2   2   2   2   2   2
#     4  10  23  42  66  97 129 176 226 270 333 403
#     4  11  25  41  67  97 130 172 215 278 345 394
#     4  10  22  38  69  98 122 169 228 271 324 397
#     4  12  26  42  65 103 146 175 216 285 349 399
#     4  11  22  40  70  98 130 182 231 275 322 404
#     4  10  21  40  65  97 126 173 228 263 328 399
#     4  10  22  44  71  95 126 172 231 283 323 395
#
# _framework density 21.180226999999999
#
# number of rings (size 3 to 8) (size 9 to 14) (size 15 to 20)
#    0.000    1.429    2.857    3.000    4.000    6.286 
#    2.571    0.000    0.000    0.000    0.000    0.000 
#    0.000    0.000    0.000    0.000    0.000    0.000 
#
# Total GULP energy -173508.839513 kJ/mol
# GULP energy per Si atom -12393.488537 kJ/mol
# Density = 2.113202 g / cm^3
# Si number density = 21.180227 Si / 1000 Ang^3
#
#
#
# Elastic Constant Matrix: (Units=GPa)
#
#
# Indices 1 2 3 4 5 6 
#
# 1 166.2071 57.6735 51.7971 -14.1609 17.1073 6.0146
# 2 57.6735 105.0857 48.9972 -9.5540 -3.8240 16.1301
# 3 51.7971 48.9972 144.0991 -11.3516 15.4623 7.6965
# 4 -14.1609 -9.5540 -11.3516 35.3781 -3.2621 2.5803
# 5 17.1073 -3.8240 15.4623 -3.2621 25.1944 -11.9279
# 6 6.0146 16.1301 7.6965 2.5803 -11.9279 28.6711
#
#
#
# Elastic Compliance Matrix: (Units=1/GPa)
#
#
# Indices 1 2 3 4 5 6 
#
# 1 0.008609 -0.004154 -0.000685 0.001634 -0.006943 -0.002321
# 2 -0.004154 0.014521 -0.003666 0.001898 0.005542 -0.004179
# 3 -0.000685 -0.003666 0.009532 0.001368 -0.007458 -0.003578
# 4 0.001634 0.001898 0.001368 0.030209 0.000152 -0.004433
# 5 -0.006943 0.005542 -0.007458 0.000152 0.062262 0.026230
# 6 -0.002321 -0.004179 -0.003578 -0.004433 0.026230 0.049988
#
#
# Mechanical properties :
#
#
# Convention : Reuss Voigt Hill
#
# Bulk Modulus (GPa) = 63.88706 81.36971 72.62839
# Shear Modulus (GPa) = 25.33609 34.97699 30.15654
#
# Velocity S-wave (km/s) = 3.46239 4.06815 3.77743
# Velocity P-wave (km/s) = 6.79803 7.78252 7.30687
#
# Compressibility (1/GPa) = 0.01565262
#
# Stress axis : x y z
#
# Youngs Moduli (GPa) = 116.15722 68.86701 104.91497
#
# Poissons Ratio (x) = 0.28604 0.07182
# Poissons Ratio (y) = 0.48246 0.38465
# Poissons Ratio (z) = 0.07952 0.25249
#
# Static dielectric constant tensor:
#      x y z
#    x 4.654870 -0.776670 0.949760 
#    y -0.776670 4.688560 -1.000470 
#    z 0.949760 -1.000470 4.465590 
# 
# 
# High freq. dielectric constant tensor:
#      x y z
#    x 1.847470 0.002870 0.021720 
#    y 0.002870 1.818290 -0.026640 
#    z 0.021720 -0.026640 1.826670 
# 
# From -- ./inp_files/71320.got.cif
#   From: 2010.06.25/outbox.cif.g09.slc.cpg/sg2_36_cif.got.tgz:71320.got - 2010.06.27 13:26:56.
