data_PCOD8013094
_publ_section_title
;
Structure prediction by ZEFSAII (Michael W. Deem and Ramdas Pophale) SiO2 
 PCOD8013094
Probable space group: P -1
;
_chemical_formula_sum "Si O2"
_cell_formula_units_Z 16
_cell_length_a 16.580434
_cell_length_b 9.467451
_cell_length_c 13.047997
_cell_angle_alpha 42.311173
_cell_angle_beta 145.362644
_cell_angle_gamma 137.933404
_cell_volume 734.079972
_symmetry_space_group_name_H-M "P -1"
_symmetry_group_IT_number 2
_symmetry_cell_setting 'triclinic'
loop_
_space_group_symop_operation_xyz
x,y,z
-x,-y,-z
loop_
_atom_site_type_symbol
_atom_site_label
_atom_site_fract_x
_atom_site_fract_y
_atom_site_fract_z
Si Si1 0.107409 0.602591 0.464898
Si Si2 0.887398 0.455101 0.137258
Si Si3 0.247901 0.080057 0.419642
Si Si4 0.526204 0.887516 0.195114
Si Si5 0.592975 0.567946 0.768844
Si Si6 0.003303 0.272569 0.078844
Si Si7 0.248705 0.957994 0.924260
Si Si8 0.603350 0.525300 0.193865
O O1 0.270907 0.578706 0.647717
O O2 0.000000 0.500000 0.500000
O O3 0.006803 0.461831 0.344109
O O4 0.137842 0.867041 0.356973
O O5 0.851661 0.211141 0.177532
O O6 0.733316 0.491501 0.993201
O O7 0.980019 0.678505 0.050068
O O8 0.324349 0.996533 0.641544
O O9 0.363390 0.226352 0.375353
O O10 0.149829 0.214576 0.296984
O O11 0.523545 0.639375 0.303706
O O12 0.390956 0.880210 0.134906
O O13 0.500000 0.000000 0.000000
O O14 0.505853 0.611418 0.754615
O O15 0.850020 0.071585 0.059028
O O16 0.000000 0.500000 0.000000
O O17 0.311613 0.217916 0.818547
O O18 0.500000 0.500000 0.000000
#
# Coordination Sequence:
#
# PCOD8013094 Si02
#       8
#     2   2   2   2   2   2   2   2
#     4  12  27  40  62  92 130 174 218 268 321 396
#     4   9  22  41  64  91 124 168 218 262 332 381
#     4  11  25  43  66  96 133 173 216 269 333 384
#     4  11  22  41  69  98 129 172 213 268 329 389
#     4  10  23  42  66  94 128 171 218 269 320 392
#     4   9  20  42  66  96 130 164 214 272 322 388
#     4  10  21  40  65  93 126 170 209 276 315 380
#     4  12  25  40  62  95 131 174 220 266 323 384
#
# _framework density 21.795991000000001
#
# number of rings (size 3 to 8) (size 9 to 14) (size 15 to 20)
#    0.000    1.500    1.250    3.375    3.500    7.000 
#    0.000    0.000    0.000    0.000    0.000    0.000 
#    0.000    0.000    0.000    0.000    0.000    0.000 
#
# Total GULP energy -198212.564435 kJ/mol
# GULP energy per Si atom -12388.285277 kJ/mol
# Density = 2.174638 g / cm^3
# Si number density = 21.795991 Si / 1000 Ang^3
#
#
#
# Elastic Constant Matrix: (Units=GPa)
#
#
# Indices 1 2 3 4 5 6 
#
# 1 164.2939 32.9337 53.5740 -1.1009 16.0744 21.6075
# 2 32.9337 120.3746 37.7637 -1.9619 -8.4995 4.6832
# 3 53.5740 37.7637 111.5130 12.5675 2.4085 -4.1694
# 4 -1.1009 -1.9619 12.5675 32.0891 1.6256 -1.4908
# 5 16.0744 -8.4995 2.4085 1.6256 30.5930 -4.9304
# 6 21.6075 4.6832 -4.1694 -1.4908 -4.9304 33.5222
#
#
#
# Elastic Compliance Matrix: (Units=1/GPa)
#
#
# Indices 1 2 3 4 5 6 
#
# 1 0.009354 -0.001301 -0.004409 0.001947 -0.006196 -0.007221
# 2 -0.001301 0.009887 -0.002985 0.001535 0.003531 -0.000326
# 3 -0.004409 -0.002985 0.012832 -0.005212 0.001536 0.004849
# 4 0.001947 0.001535 -0.005212 0.033428 -0.002114 -0.000942
# 5 -0.006196 0.003531 0.001536 -0.002114 0.038405 0.009246
# 6 -0.007221 -0.000326 0.004849 -0.000942 0.009246 0.036452
#
#
# Mechanical properties :
#
#
# Convention : Reuss Voigt Hill
#
# Bulk Modulus (GPa) = 68.10167 71.63602 69.86884
# Shear Modulus (GPa) = 30.74240 37.36821 34.05531
#
# Velocity S-wave (km/s) = 3.75969 4.14509 3.95708
# Velocity P-wave (km/s) = 7.08236 7.47308 7.28034
#
# Compressibility (1/GPa) = 0.01468393
#
# Stress axis : x y z
#
# Youngs Moduli (GPa) = 106.90546 101.14645 77.93055
#
# Poissons Ratio (x) = 0.13158 0.34359
# Poissons Ratio (y) = 0.13907 0.23259
# Poissons Ratio (z) = 0.47134 0.30187
#
# Static dielectric constant tensor:
#      x y z
#    x 4.600190 0.346340 0.164450 
#    y 0.346340 4.699150 0.060360 
#    z 0.164450 0.060360 3.556960 
# 
# 
# High freq. dielectric constant tensor:
#      x y z
#    x 1.872610 0.011590 0.009890 
#    y 0.011590 1.857680 -0.003410 
#    z 0.009890 -0.003410 1.836870 
# 
# From -- ./inp_files/446850.got.cif
#   From: 2010.06.25/outbox.cif.g09.slc.cpg/sg2_224_cif.got.tgz:446850.got - 2010.06.27 13:26:56.
