data_PCOD8013266
_publ_section_title
;
Structure prediction by ZEFSAII (Michael W. Deem and Ramdas Pophale) SiO2 
 PCOD8013266
Probable space group: P -1
;
_chemical_formula_sum "Si O2"
_cell_formula_units_Z 16
_cell_length_a 13.954228
_cell_length_b 18.082305
_cell_length_c 7.787093
_cell_angle_alpha 138.249114
_cell_angle_beta 144.748278
_cell_angle_gamma 43.264893
_cell_volume 718.087042
_symmetry_space_group_name_H-M "P -1"
_symmetry_group_IT_number 2
_symmetry_cell_setting 'triclinic'
loop_
_space_group_symop_operation_xyz
x,y,z
-x,-y,-z
loop_
_atom_site_type_symbol
_atom_site_label
_atom_site_fract_x
_atom_site_fract_y
_atom_site_fract_z
Si Si1 0.883391 0.184854 0.098442
Si Si2 0.469855 0.533335 0.318789
Si Si3 0.161277 0.949921 0.523275
Si Si4 0.168344 0.343621 0.317453
Si Si5 0.471003 0.715801 0.097161
Si Si6 0.807954 0.836497 0.236204
Si Si7 0.883086 0.398980 0.263327
Si Si8 0.494988 0.234357 0.162190
O O1 0.856650 0.316663 0.231028
O O2 0.044443 0.143839 0.391263
O O3 0.917130 0.096937 0.836992
O O4 0.704633 0.184829 0.931997
O O5 0.500000 0.500000 0.500000
O O6 0.544080 0.641928 0.575529
O O7 0.556754 0.412282 0.134461
O O8 0.263829 0.576183 0.055105
O O9 0.309862 0.845744 0.649874
O O10 0.247303 0.050075 0.770835
O O11 0.000000 0.000000 0.500000
O O12 0.372698 0.278466 0.539855
O O13 0.120368 0.480690 0.440083
O O14 0.065005 0.334019 0.323097
O O15 0.112930 0.279001 0.963861
O O16 0.519902 0.738247 0.013763
O O17 0.644910 0.828426 0.095823
#
# Coordination Sequence:
#
# PCOD8013266 Si02
#       8
#     2   2   2   2   2   2   2   2
#     4  12  25  43  69  99 134 171 232 266 337 401
#     4   9  20  37  68  96 135 175 219 260 337 396
#     4  12  26  48  72  93 130 180 228 277 334 394
#     4  10  23  41  64  98 137 172 221 275 336 387
#     4  10  23  42  68  99 137 177 216 275 335 403
#     4  12  27  42  67 100 137 175 227 276 329 390
#     4  10  21  40  66  94 136 178 218 275 332 396
#     4  11  23  44  67  98 135 175 227 276 333 390
#
# _framework density 22.281421999999999
#
# number of rings (size 3 to 8) (size 9 to 14) (size 15 to 20)
#    0.000    1.250    1.250    3.750    5.250    2.500 
#    0.000    1.875    0.000    0.000    0.000    0.000 
#    0.000    0.000    0.000    0.000    0.000    0.000 
#
# Total GULP energy -198403.846347 kJ/mol
# GULP energy per Si atom -12400.240397 kJ/mol
# Density = 2.223071 g / cm^3
# Si number density = 22.281422 Si / 1000 Ang^3
#
#
#
# Elastic Constant Matrix: (Units=GPa)
#
#
# Indices 1 2 3 4 5 6 
#
# 1 94.6123 37.7386 31.1068 12.7119 9.1082 -10.9176
# 2 37.7386 87.9175 27.9445 4.7843 2.6346 2.2362
# 3 31.1068 27.9445 86.9525 3.7611 -1.8595 -11.4728
# 4 12.7119 4.7843 3.7611 39.3855 0.2746 6.8821
# 5 9.1082 2.6346 -1.8595 0.2746 38.9633 4.7901
# 6 -10.9176 2.2362 -11.4728 6.8821 4.7901 37.3900
#
#
#
# Elastic Compliance Matrix: (Units=1/GPa)
#
#
# Indices 1 2 3 4 5 6 
#
# 1 0.015345 -0.005406 -0.002922 -0.004919 -0.003981 0.005323
# 2 -0.005406 0.014784 -0.003336 0.000915 0.000557 -0.003726
# 3 -0.002922 -0.003336 0.014154 -0.000651 0.001138 0.003663
# 4 -0.004919 0.000915 -0.000651 0.028157 0.001731 -0.007095
# 5 -0.003981 0.000557 0.001138 0.001731 0.027171 -0.004646
# 6 0.005323 -0.003726 0.003663 -0.007095 -0.004646 0.031547
#
#
# Mechanical properties :
#
#
# Convention : Reuss Voigt Hill
#
# Bulk Modulus (GPa) = 47.72604 51.45136 49.58870
# Shear Modulus (GPa) = 30.96501 34.66060 32.81280
#
# Velocity S-wave (km/s) = 3.73194 3.94837 3.84168
# Velocity P-wave (km/s) = 6.32740 6.62781 6.47935
#
# Compressibility (1/GPa) = 0.02095292
#
# Stress axis : x y z
#
# Youngs Moduli (GPa) = 65.16732 67.64163 70.65129
#
# Poissons Ratio (x) = 0.36570 0.20645
# Poissons Ratio (y) = 0.35233 0.23572
# Poissons Ratio (z) = 0.19043 0.22568
#
# Static dielectric constant tensor:
#      x y z
#    x 4.130800 -0.255650 -0.049780 
#    y -0.255650 4.537560 0.301250 
#    z -0.049780 0.301250 4.153920 
# 
# 
# High freq. dielectric constant tensor:
#      x y z
#    x 1.874630 0.003540 -0.000270 
#    y 0.003540 1.882140 0.004690 
#    z -0.000270 0.004690 1.881830 
# 
# From -- ./inp_files/318190.got.cif
#   From: 2010.06.25/outbox.cif.g09.slc.cpg/sg2_160_cif.got.tgz:318190.got - 2010.06.27 13:26:56.
