data_PCOD8013919
_publ_section_title
;
Structure prediction by ZEFSAII (Michael W. Deem and Ramdas Pophale) SiO2 
 PCOD8013919
Probable space group: P -1
;
_chemical_formula_sum "Si O2"
_cell_formula_units_Z 14
_cell_length_a 11.954410
_cell_length_b 9.192806
_cell_length_c 8.460388
_cell_angle_alpha 109.081381
_cell_angle_beta 131.392414
_cell_angle_gamma 73.619339
_cell_volume 656.323548
_symmetry_space_group_name_H-M "P -1"
_symmetry_group_IT_number 2
_symmetry_cell_setting 'triclinic'
loop_
_space_group_symop_operation_xyz
x,y,z
-x,-y,-z
loop_
_atom_site_type_symbol
_atom_site_label
_atom_site_fract_x
_atom_site_fract_y
_atom_site_fract_z
Si Si1 0.173539 0.190855 0.573260
Si Si2 0.658352 0.541609 0.103539
Si Si3 0.290534 0.658478 0.420145
Si Si4 0.203317 0.070842 0.892368
Si Si5 0.089853 0.930366 0.211001
Si Si6 0.175891 0.735687 0.693795
Si Si7 0.365262 0.343964 0.234526
O O1 0.277173 0.327374 0.678923
O O2 0.241077 0.106515 0.761395
O O3 0.002645 0.252785 0.470052
O O4 0.190236 0.066579 0.404281
O O5 0.774469 0.392298 0.176141
O O6 0.500000 0.500000 0.000000
O O7 0.649923 0.594750 0.935474
O O8 0.196130 0.769365 0.242462
O O9 0.239076 0.695634 0.563868
O O10 0.275541 0.476993 0.305717
O O11 0.463034 0.687967 0.565792
O O12 0.026640 0.103429 0.772421
O O13 0.245595 0.887254 0.884276
O O14 0.292761 0.180658 0.128911
O O15 0.000000 0.000000 0.000000
#
# Coordination Sequence:
#
# PCOD8013919 Si02
#       7
#     2   2   2   2   2   2   2
#     4  10  21  41  63  93 124 158 213 258 306 371
#     4  11  23  39  63  95 124 163 211 254 303 373
#     4  11  22  42  62  87 132 165 202 255 319 365
#     4  10  21  42  64  92 120 162 215 252 311 377
#     4  11  23  40  64  95 124 162 210 262 312 363
#     4  11  20  39  66  88 125 162 205 261 306 363
#     4  10  25  41  61  93 129 165 207 251 315 377
#
# _framework density 21.330940999999999
#
# number of rings (size 3 to 8) (size 9 to 14) (size 15 to 20)
#    0.000    1.429    4.286    1.286    4.000    3.429 
#    0.000    0.714    0.000    0.000    0.000    0.000 
#    0.000    0.000    0.000    0.000    0.000    0.000 
#
# Total GULP energy -173507.539441 kJ/mol
# GULP energy per Si atom -12393.395674 kJ/mol
# Density = 2.128239 g / cm^3
# Si number density = 21.330941 Si / 1000 Ang^3
#
#
#
# Elastic Constant Matrix: (Units=GPa)
#
#
# Indices 1 2 3 4 5 6 
#
# 1 55.5844 27.3409 15.4621 17.5950 7.4069 -1.6521
# 2 27.3409 122.9837 61.2949 19.5647 5.4169 8.2570
# 3 15.4621 61.2949 96.4448 25.1632 7.1458 4.0352
# 4 17.5950 19.5647 25.1632 59.0464 8.2302 4.3302
# 5 7.4069 5.4169 7.1458 8.2302 25.4345 8.2951
# 6 -1.6521 8.2570 4.0352 4.3302 8.2951 31.4142
#
#
#
# Elastic Compliance Matrix: (Units=1/GPa)
#
#
# Indices 1 2 3 4 5 6 
#
# 1 0.022554 -0.004730 0.000951 -0.005102 -0.005645 0.004501
# 2 -0.004730 0.013071 -0.007625 0.000329 0.001670 -0.003191
# 3 0.000951 -0.007625 0.016351 -0.004508 -0.002162 0.001146
# 4 -0.005102 0.000329 -0.004508 0.020884 -0.003512 -0.001727
# 5 -0.005645 0.001670 -0.002162 -0.003512 0.046330 -0.012208
# 6 0.004501 -0.003191 0.001146 -0.001727 -0.012208 0.036223
#
#
# Mechanical properties :
#
#
# Convention : Reuss Voigt Hill
#
# Bulk Modulus (GPa) = 34.28424 53.68987 43.98705
# Shear Modulus (GPa) = 26.60378 34.57336 30.58857
#
# Velocity S-wave (km/s) = 3.53539 4.03029 3.79093
# Velocity P-wave (km/s) = 5.72475 6.84706 6.31090
#
# Compressibility (1/GPa) = 0.02916792
#
# Stress axis : x y z
#
# Youngs Moduli (GPa) = 44.33870 76.50251 61.15990
#
# Poissons Ratio (x) = 0.36186 -0.05819
# Poissons Ratio (y) = 0.20973 0.46636
# Poissons Ratio (z) = -0.04219 0.58335
#
# Static dielectric constant tensor:
#      x y z
#    x 3.934590 0.245570 0.047840 
#    y 0.245570 4.459570 0.158620 
#    z 0.047840 0.158620 4.119350 
# 
# 
# High freq. dielectric constant tensor:
#      x y z
#    x 1.814330 -0.000090 0.005700 
#    y -0.000090 1.852780 0.008070 
#    z 0.005700 0.008070 1.838220 
# 
# From -- ./inp_files/153859.got.cif
#   From: 2010.06.25/outbox.cif.g09.slc.cpg/sg2_77_cif.got.tgz:153859.got - 2010.06.27 13:26:56.
