data_PCOD8013682
_publ_section_title
;
Structure prediction by ZEFSAII (Michael W. Deem and Ramdas Pophale) SiO2 
 PCOD8013682
Probable space group: P -1
;
_chemical_formula_sum "Si O2"
_cell_formula_units_Z 16
_cell_length_a 9.119491
_cell_length_b 11.427541
_cell_length_c 12.033007
_cell_angle_alpha 51.306039
_cell_angle_beta 47.735537
_cell_angle_gamma 67.387237
_cell_volume 722.912220
_symmetry_space_group_name_H-M "P -1"
_symmetry_group_IT_number 2
_symmetry_cell_setting 'triclinic'
loop_
_space_group_symop_operation_xyz
x,y,z
-x,-y,-z
loop_
_atom_site_type_symbol
_atom_site_label
_atom_site_fract_x
_atom_site_fract_y
_atom_site_fract_z
Si Si1 0.277459 0.962169 0.792827
Si Si2 0.031384 0.793450 0.191085
Si Si3 0.133717 0.845708 0.709550
Si Si4 0.297120 0.802859 0.260193
Si Si5 0.335488 0.548637 0.715516
Si Si6 0.244075 0.470539 0.567366
Si Si7 0.299481 0.023851 0.330933
Si Si8 0.704225 0.747163 0.974527
O O1 0.272873 0.910349 0.698488
O O2 0.155878 0.107719 0.788207
O O3 0.501459 0.005952 0.686379
O O4 0.190613 0.824631 0.994069
O O5 0.952864 0.619400 0.325254
O O6 0.136374 0.831856 0.230993
O O7 0.215778 0.693313 0.711404
O O8 0.127437 0.967690 0.539116
O O9 0.909840 0.812200 0.887415
O O10 0.236845 0.644338 0.439937
O O11 0.284853 0.930966 0.280386
O O12 0.519947 0.813220 0.092844
O O13 0.253627 0.454753 0.705314
O O14 0.565821 0.598584 0.546857
O O15 0.311753 0.434465 0.900801
O O16 0.292052 0.198066 0.190268
#
# Coordination Sequence:
#
# PCOD8013682 Si02
#       8
#     2   2   2   2   2   2   2   2
#     4  11  26  40  68  97 133 177 217 274 328 390
#     4  11  23  41  67 102 130 170 225 272 325 389
#     4  12  24  44  66  96 135 177 222 265 333 392
#     4  11  23  42  68  98 133 172 220 275 327 385
#     4  10  22  42  68  99 131 176 217 271 328 395
#     4  10  21  40  71  99 130 169 221 273 329 390
#     4  12  24  44  67  98 136 173 220 273 330 389
#     4  11  24  39  67  98 131 174 217 270 327 389
#
# _framework density 22.132702999999999
#
# number of rings (size 3 to 8) (size 9 to 14) (size 15 to 20)
#    0.000    1.000    2.500    4.125    7.000    0.000 
#    0.000    0.625    5.500    0.000    0.000    0.000 
#    0.000    0.000    0.000    0.000    0.000    0.000 
#
# Total GULP energy -198445.262128 kJ/mol
# GULP energy per Si atom -12402.828883 kJ/mol
# Density = 2.208233 g / cm^3
# Si number density = 22.132703 Si / 1000 Ang^3
#
#
#
# Elastic Constant Matrix: (Units=GPa)
#
#
# Indices 1 2 3 4 5 6 
#
# 1 81.1076 13.0364 24.0719 -11.2030 13.7222 15.7588
# 2 13.0364 42.0714 27.6694 -10.8316 1.9156 8.3684
# 3 24.0719 27.6694 124.4553 -16.0645 9.8233 11.1152
# 4 -11.2030 -10.8316 -16.0645 20.9497 -1.7620 5.2245
# 5 13.7222 1.9156 9.8233 -1.7620 35.7720 -2.1148
# 6 15.7588 8.3684 11.1152 5.2245 -2.1148 31.8646
#
#
#
# Elastic Compliance Matrix: (Units=1/GPa)
#
#
# Indices 1 2 3 4 5 6 
#
# 1 0.017118 0.000255 -0.000484 0.011009 -0.006532 -0.010602
# 2 0.000255 0.032668 -0.004310 0.016147 -0.000452 -0.009879
# 3 -0.000484 -0.004310 0.010363 0.006112 -0.002329 -0.003400
# 4 0.011009 0.016147 0.006112 0.072244 -0.004625 -0.023969
# 5 -0.006532 -0.000452 -0.002329 -0.004625 0.031310 0.006998
# 6 -0.010602 -0.009879 -0.003400 -0.023969 0.006998 0.044801
#
#
# Mechanical properties :
#
#
# Convention : Reuss Voigt Hill
#
# Bulk Modulus (GPa) = 19.58080 41.90996 30.74538
# Shear Modulus (GPa) = 21.31241 29.90770 25.61006
#
# Velocity S-wave (km/s) = 3.10649 3.67998 3.40533
# Velocity P-wave (km/s) = 4.66189 6.08549 5.42063
#
# Compressibility (1/GPa) = 0.05107045
#
# Stress axis : x y z
#
# Youngs Moduli (GPa) = 58.41940 30.61141 96.49509
#
# Poissons Ratio (x) = -0.00780 0.04671
# Poissons Ratio (y) = -0.01489 0.41587
# Poissons Ratio (z) = 0.02828 0.13193
#
# Static dielectric constant tensor:
#      x y z
#    x 4.076020 -0.188510 0.084400 
#    y -0.188510 3.614910 -0.096060 
#    z 0.084400 -0.096060 4.337320 
# 
# 
# High freq. dielectric constant tensor:
#      x y z
#    x 1.876080 -0.013380 0.000520 
#    y -0.013380 1.845300 -0.009060 
#    z 0.000520 -0.009060 1.895630 
# 
# From -- ./inp_files/261677.got.cif
#   From: 2010.06.25/outbox.cif.g09.slc.cpg/sg2_131_cif.got.tgz:261677.got - 2010.06.27 13:26:56.
