data_PCOD8013339
_publ_section_title
;
Structure prediction by ZEFSAII (Michael W. Deem and Ramdas Pophale) SiO2 
 PCOD8013339
Probable space group: P -1
;
_chemical_formula_sum "Si O2"
_cell_formula_units_Z 16
_cell_length_a 14.981496
_cell_length_b 8.806256
_cell_length_c 14.661417
_cell_angle_alpha 57.623329
_cell_angle_beta 150.569734
_cell_angle_gamma 114.524863
_cell_volume 796.536767
_symmetry_space_group_name_H-M "P -1"
_symmetry_group_IT_number 2
_symmetry_cell_setting 'triclinic'
loop_
_space_group_symop_operation_xyz
x,y,z
-x,-y,-z
loop_
_atom_site_type_symbol
_atom_site_label
_atom_site_fract_x
_atom_site_fract_y
_atom_site_fract_z
Si Si1 0.070658 0.794210 0.145434
Si Si2 0.439988 0.345584 0.057252
Si Si3 0.631201 0.346389 0.409719
Si Si4 0.590253 0.069040 0.147135
Si Si5 0.231175 0.310027 0.516261
Si Si6 0.716115 0.490470 0.684173
Si Si7 0.179769 0.632738 0.820737
Si Si8 0.747801 0.579272 0.883368
O O1 0.185712 0.769886 0.350470
O O2 0.203414 0.713780 0.207156
O O3 0.894233 0.689281 0.027549
O O4 0.000000 0.000000 0.000000
O O5 0.592837 0.293228 0.288970
O O6 0.435198 0.169068 0.045578
O O7 0.500000 0.500000 0.000000
O O8 0.245668 0.433277 0.897986
O O9 0.648438 0.561782 0.360905
O O10 0.456091 0.311269 0.327447
O O11 0.736061 0.204242 0.206362
O O12 0.687317 0.898339 0.343430
O O13 0.500000 0.000000 0.000000
O O14 0.222171 0.375448 0.381832
O O15 0.037111 0.326519 0.389041
O O16 0.500000 0.500000 0.500000
O O17 0.804903 0.540749 0.842202
O O18 0.247555 0.609110 0.994374
#
# Coordination Sequence:
#
# PCOD8013339 Si02
#       8
#     2   2   2   2   2   2   2   2
#     4  11  24  40  62  95 128 167 221 269 314 380
#     4   9  20  40  64  88 123 170 207 254 329 385
#     4  10  21  42  65  88 132 173 210 260 330 385
#     4  11  23  41  64  98 126 163 214 269 319 382
#     4  11  21  40  64  95 127 165 222 264 311 381
#     4  11  22  42  67  93 130 178 213 261 331 381
#     4  10  21  40  67  88 131 171 210 259 324 380
#     4  11  20  42  67  91 129 176 212 262 324 390
#
# _framework density 20.086959
#
# number of rings (size 3 to 8) (size 9 to 14) (size 15 to 20)
#    0.000    1.500    5.000    3.000    0.000    1.500 
#    4.500    6.875    0.000    0.000    0.000    0.000 
#    0.000    0.000    0.000    0.000    0.000    0.000 
#
# Total GULP energy -198271.295446 kJ/mol
# GULP energy per Si atom -12391.955965 kJ/mol
# Density = 2.004124 g / cm^3
# Si number density = 20.086959 Si / 1000 Ang^3
#
#
#
# Elastic Constant Matrix: (Units=GPa)
#
#
# Indices 1 2 3 4 5 6 
#
# 1 115.9333 50.8795 42.9375 -7.1391 1.4120 -16.8955
# 2 50.8795 95.9648 55.5998 -24.3079 4.2678 -16.9560
# 3 42.9375 55.5998 106.2145 -16.1089 13.0430 -10.8304
# 4 -7.1391 -24.3079 -16.1089 41.3537 1.8985 -1.1910
# 5 1.4120 4.2678 13.0430 1.8985 43.4132 8.6841
# 6 -16.8955 -16.9560 -10.8304 -1.1910 8.6841 34.8177
#
#
#
# Elastic Compliance Matrix: (Units=1/GPa)
#
#
# Indices 1 2 3 4 5 6 
#
# 1 0.011914 -0.005035 -0.002231 -0.001717 0.000355 0.002488
# 2 -0.005035 0.020130 -0.006380 0.008720 -0.001489 0.006045
# 3 -0.002231 -0.006380 0.014563 0.001763 -0.004034 0.001407
# 4 -0.001717 0.008720 0.001763 0.030045 -0.003834 0.005946
# 5 0.000355 -0.001489 -0.004034 -0.003834 0.026246 -0.008485
# 6 0.002488 0.006045 0.001407 0.005946 -0.008485 0.035629
#
#
# Mechanical properties :
#
#
# Convention : Reuss Voigt Hill
#
# Bulk Modulus (GPa) = 51.77484 68.54958 60.16221
# Shear Modulus (GPa) = 29.02633 35.16330 32.09481
#
# Velocity S-wave (km/s) = 3.80548 4.18850 4.00158
# Velocity P-wave (km/s) = 6.71865 7.58893 7.16701
#
# Compressibility (1/GPa) = 0.01931440
#
# Stress axis : x y z
#
# Youngs Moduli (GPa) = 83.93295 49.67812 68.66909
#
# Poissons Ratio (x) = 0.25015 0.15319
# Poissons Ratio (y) = 0.42263 0.43810
# Poissons Ratio (z) = 0.18724 0.31694
#
# Static dielectric constant tensor:
#      x y z
#    x 4.233420 -0.222240 0.145080 
#    y -0.222240 3.685440 -0.187580 
#    z 0.145080 -0.187580 3.864630 
# 
# 
# High freq. dielectric constant tensor:
#      x y z
#    x 1.794900 -0.000020 0.001730 
#    y -0.000020 1.758100 -0.000480 
#    z 0.001730 -0.000480 1.792520 
# 
# From -- ./inp_files/528342.got.cif
#   From: 2010.06.25/outbox.cif.g09.slc.cpg/sg2_265_cif.got.tgz:528342.got - 2010.06.27 13:26:56.
