data_PCOD8013336
_publ_section_title
;
Structure prediction by ZEFSAII (Michael W. Deem and Ramdas Pophale) SiO2 
 PCOD8013336
Probable space group: P -1
;
_chemical_formula_sum "Si O2"
_cell_formula_units_Z 12
_cell_length_a 9.112560
_cell_length_b 12.085239
_cell_length_c 17.415883
_cell_angle_alpha 32.136507
_cell_angle_beta 37.016874
_cell_angle_gamma 38.688222
_cell_volume 580.656518
_symmetry_space_group_name_H-M "P -1"
_symmetry_group_IT_number 2
_symmetry_cell_setting 'triclinic'
loop_
_space_group_symop_operation_xyz
x,y,z
-x,-y,-z
loop_
_atom_site_type_symbol
_atom_site_label
_atom_site_fract_x
_atom_site_fract_y
_atom_site_fract_z
Si Si1 0.562851 0.973957 0.839952
Si Si2 0.174856 0.255609 0.731163
Si Si3 0.470181 0.552304 0.363383
Si Si4 0.035916 0.220761 0.329168
Si Si5 0.692110 0.339888 0.799823
Si Si6 0.697888 0.531473 0.838207
O O1 0.381990 0.029708 0.806025
O O2 0.586735 0.196023 0.735541
O O3 0.837374 0.813395 0.789002
O O4 0.448294 0.844269 0.025428
O O5 0.315168 0.438024 0.550189
O O6 0.005540 0.226782 0.745067
O O7 0.973696 0.333891 0.840536
O O8 0.368090 0.545408 0.324169
O O9 0.772491 0.422093 0.316468
O O10 0.232582 0.254572 0.291627
O O11 0.000000 0.000000 0.500000
O O12 0.589772 0.531530 0.796020
O O13 0.500000 0.500000 0.000000
#
# Coordination Sequence:
#
# PCOD8013336 Si02
#       6
#     2   2   2   2   2   2
#     4  12  22  41  67  95 123 173 214 252 314 382
#     4  10  21  40  67  87 126 170 209 254 309 372
#     4  12  23  43  63  98 134 159 209 270 316 372
#     4  12  23  40  67  93 124 168 217 255 308 380
#     4  10  24  39  67  93 130 170 202 266 326 360
#     4  10  21  42  63  92 124 164 217 252 305 382
#
# _framework density 20.666263000000001
#
# number of rings (size 3 to 8) (size 9 to 14) (size 15 to 20)
#    1.000    0.000    5.000    3.000    0.000    0.667 
#    0.000    2.500    0.000    0.000    0.000    0.000 
#    0.000    0.000    0.000    0.000    0.000    0.000 
#
# Total GULP energy -148658.223968 kJ/mol
# GULP energy per Si atom -12388.185331 kJ/mol
# Density = 2.061923 g / cm^3
# Si number density = 20.666263 Si / 1000 Ang^3
#
#
#
# Elastic Constant Matrix: (Units=GPa)
#
#
# Indices 1 2 3 4 5 6 
#
# 1 92.6357 26.5161 13.2117 7.3006 -1.8730 6.9262
# 2 26.5161 99.9900 26.2934 20.1328 -8.6197 7.8490
# 3 13.2117 26.2934 82.3389 12.9350 -17.2969 -9.0108
# 4 7.3006 20.1328 12.9350 29.8241 1.0772 -7.9980
# 5 -1.8730 -8.6197 -17.2969 1.0772 33.4495 -0.8199
# 6 6.9262 7.8490 -9.0108 -7.9980 -0.8199 23.1268
#
#
#
# Elastic Compliance Matrix: (Units=1/GPa)
#
#
# Indices 1 2 3 4 5 6 
#
# 1 0.012081 -0.002135 -0.001564 -0.001938 -0.000723 -0.004198
# 2 -0.002135 0.014345 -0.003176 -0.010255 0.002046 -0.008941
# 3 -0.001564 -0.003176 0.016284 -0.002895 0.007783 0.007165
# 4 -0.001938 -0.010255 -0.002895 0.047517 -0.005309 0.019178
# 5 -0.000723 0.002046 0.007783 -0.005309 0.034626 0.001946
# 6 -0.004198 -0.008941 0.007165 0.019178 0.001946 0.057025
#
#
# Mechanical properties :
#
#
# Convention : Reuss Voigt Hill
#
# Bulk Modulus (GPa) = 34.52887 45.22301 39.87594
# Shear Modulus (GPa) = 24.35673 31.20964 27.78318
#
# Velocity S-wave (km/s) = 3.43676 3.89031 3.67055
# Velocity P-wave (km/s) = 5.70022 6.48918 6.10745
#
# Compressibility (1/GPa) = 0.02896127
#
# Stress axis : x y z
#
# Youngs Moduli (GPa) = 82.77356 69.70840 61.40978
#
# Poissons Ratio (x) = 0.14884 0.09602
# Poissons Ratio (y) = 0.17674 0.19503
# Poissons Ratio (z) = 0.12942 0.22139
#
# Static dielectric constant tensor:
#      x y z
#    x 3.258800 -0.549050 0.045170 
#    y -0.549050 3.442540 0.609170 
#    z 0.045170 0.609170 3.500020 
# 
# 
# High freq. dielectric constant tensor:
#      x y z
#    x 1.799250 0.008270 -0.028990 
#    y 0.008270 1.801590 0.016870 
#    z -0.028990 0.016870 1.811380 
# 
# From -- ./inp_files/173730.got.cif
#   From: 2010.06.25/outbox.cif.g09.slc.cpg/sg2_87_cif.got.tgz:173730.got - 2010.06.27 13:26:56.
