data_PCOD8013320
_publ_section_title
;
Structure prediction by ZEFSAII (Michael W. Deem and Ramdas Pophale) SiO2 
 PCOD8013320
Probable space group: P -1
;
_chemical_formula_sum "Si O2"
_cell_formula_units_Z 12
_cell_length_a 9.298066
_cell_length_b 15.000817
_cell_length_c 5.366400
_cell_angle_alpha 65.598919
_cell_angle_beta 96.217742
_cell_angle_gamma 131.199798
_cell_volume 498.005067
_symmetry_space_group_name_H-M "P -1"
_symmetry_group_IT_number 2
_symmetry_cell_setting 'triclinic'
loop_
_space_group_symop_operation_xyz
x,y,z
-x,-y,-z
loop_
_atom_site_type_symbol
_atom_site_label
_atom_site_fract_x
_atom_site_fract_y
_atom_site_fract_z
Si Si1 0.534522 0.324380 0.127973
Si Si2 0.431903 0.874448 0.479283
Si Si3 0.981834 0.248064 0.628066
Si Si4 0.349454 0.517190 0.518048
Si Si5 0.131243 0.172215 0.417781
Si Si6 0.811751 0.995991 0.180233
O O1 0.563497 0.220860 0.242896
O O2 0.601997 0.402768 0.312955
O O3 0.301717 0.243085 0.157779
O O4 0.651753 0.413974 0.804790
O O5 0.212253 0.780787 0.439005
O O6 0.500000 0.000000 0.500000
O O7 0.587382 0.932207 0.216947
O O8 0.124674 0.376217 0.684278
O O9 0.120277 0.280199 0.383509
O O10 0.926125 0.114194 0.869608
O O11 0.500000 0.500000 0.500000
O O12 0.913973 0.052368 0.406140
O O13 0.182332 0.119512 0.719945
#
# Coordination Sequence:
#
# PCOD8013320 Si02
#       6
#     2   2   2   2   2   2
#     4  11  27  47  71 105 139 183 232 285 343 407
#     4  11  25  46  68 102 139 179 228 288 351 412
#     4  12  24  39  70  95 136 184 228 276 349 409
#     4  12  26  46  74 102 141 183 236 284 335 411
#     4  10  21  40  66  99 131 176 229 292 336 403
#     4  10  22  40  64  98 135 172 232 285 349 397
#
# _framework density 24.096139999999998
#
# number of rings (size 3 to 8) (size 9 to 14) (size 15 to 20)
#    0.000    1.000    3.333    2.500    2.333    5.333 
#    0.000    0.000    0.000    0.000    0.000    0.000 
#    0.000    0.000    0.000    0.000    0.000    0.000 
#
# Total GULP energy -148684.928626 kJ/mol
# GULP energy per Si atom -12390.410719 kJ/mol
# Density = 2.404130 g / cm^3
# Si number density = 24.096140 Si / 1000 Ang^3
#
#
#
# Elastic Constant Matrix: (Units=GPa)
#
#
# Indices 1 2 3 4 5 6 
#
# 1 157.5349 52.4977 20.9244 -1.4473 10.7302 13.9726
# 2 52.4977 112.6251 14.6588 1.9997 -0.0933 6.2373
# 3 20.9244 14.6588 81.8696 2.0225 -3.3778 -3.2173
# 4 -1.4473 1.9997 2.0225 28.0810 3.4256 -4.5457
# 5 10.7302 -0.0933 -3.3778 3.4256 16.6715 -6.3843
# 6 13.9726 6.2373 -3.2173 -4.5457 -6.3843 47.6224
#
#
#
# Elastic Compliance Matrix: (Units=1/GPa)
#
#
# Indices 1 2 3 4 5 6 
#
# 1 0.008603 -0.003608 -0.002009 0.001252 -0.007393 -0.003059
# 2 -0.003608 0.010709 -0.000875 -0.001208 0.002376 -0.000200
# 3 -0.002009 -0.000875 0.013209 -0.001260 0.005048 0.002153
# 4 0.001252 -0.001208 -0.001260 0.037168 -0.007863 0.002199
# 5 -0.007393 0.002376 0.005048 -0.007863 0.071625 0.011051
# 6 -0.003059 -0.000200 0.002153 0.002199 0.011051 0.023759
#
#
# Mechanical properties :
#
#
# Convention : Reuss Voigt Hill
#
# Bulk Modulus (GPa) = 51.18532 58.68794 54.93663
# Shear Modulus (GPa) = 27.09012 36.07155 31.58083
#
# Velocity S-wave (km/s) = 3.35662 3.87329 3.62417
# Velocity P-wave (km/s) = 6.02584 6.66421 6.35305
#
# Compressibility (1/GPa) = 0.01953685
#
# Stress axis : x y z
#
# Youngs Moduli (GPa) = 116.23439 93.37870 75.70731
#
# Poissons Ratio (x) = 0.33688 0.15210
# Poissons Ratio (y) = 0.41934 0.06627
# Poissons Ratio (z) = 0.23352 0.08174
#
# Static dielectric constant tensor:
#      x y z
#    x 4.515740 0.053130 0.159110 
#    y 0.053130 4.416490 -0.296800 
#    z 0.159110 -0.296800 4.186830 
# 
# 
# High freq. dielectric constant tensor:
#      x y z
#    x 1.964170 0.003740 0.005780 
#    y 0.003740 1.960750 -0.016050 
#    z 0.005780 -0.016050 1.942370 
# 
# From -- ./inp_files/22795.got.cif
#   From: 2010.06.25/outbox.cif.g09.slc.cpg/sg2_12_cif.got.tgz:22795.got - 2010.06.27 13:26:56.
