data_PCOD8013882
_publ_section_title
;
Structure prediction by ZEFSAII (Michael W. Deem and Ramdas Pophale) SiO2 
 PCOD8013882
Probable space group: P -1
;
_chemical_formula_sum "Si O2"
_cell_formula_units_Z 14
_cell_length_a 10.968569
_cell_length_b 14.180654
_cell_length_c 13.855306
_cell_angle_alpha 41.016689
_cell_angle_beta 148.402033
_cell_angle_gamma 138.511794
_cell_volume 704.653861
_symmetry_space_group_name_H-M "P -1"
_symmetry_group_IT_number 2
_symmetry_cell_setting 'triclinic'
loop_
_space_group_symop_operation_xyz
x,y,z
-x,-y,-z
loop_
_atom_site_type_symbol
_atom_site_label
_atom_site_fract_x
_atom_site_fract_y
_atom_site_fract_z
Si Si1 0.790672 0.356125 0.931538
Si Si2 0.967612 0.447753 0.790463
Si Si3 0.764043 0.948288 0.950878
Si Si4 0.537993 0.364708 0.940715
Si Si5 0.770032 0.426443 0.465434
Si Si6 0.000368 0.841159 0.888641
Si Si7 0.489550 0.089496 0.520324
O O1 0.749273 0.414232 0.750540
O O2 0.567157 0.313378 0.889060
O O3 0.000000 0.500000 0.000000
O O4 0.876927 0.206299 0.088040
O O5 0.202420 0.593255 0.860561
O O6 0.844207 0.471420 0.590588
O O7 0.068063 0.301180 0.972320
O O8 0.542615 0.997463 0.718113
O O9 0.663932 0.767282 0.036853
O O10 0.822110 0.017467 0.043282
O O11 0.000000 0.000000 0.000000
O O12 0.450421 0.512130 0.761751
O O13 0.698731 0.249314 0.535411
O O14 0.000000 0.500000 0.500000
O O15 0.770602 0.886129 0.660630
O O16 0.500000 0.000000 0.500000
#
# Coordination Sequence:
#
# PCOD8013882 Si02
#       7
#     2   2   2   2   2   2   2
#     4   8  17  41  65  88 121 162 210 261 305 360
#     4   9  21  41  64  88 123 161 201 262 306 357
#     4  12  25  40  59  94 130 164 204 252 315 376
#     4  11  24  40  65  92 124 162 210 258 308 366
#     4  12  25  38  62  96 121 162 216 251 307 383
#     4  10  21  41  63  86 126 162 204 257 308 366
#     4  12  23  39  62  85 122 172 195 249 321 363
#
# _framework density 19.867909999999998
#
# number of rings (size 3 to 8) (size 9 to 14) (size 15 to 20)
#    0.857    0.571    4.286    0.857    2.000    1.714 
#    0.000    2.143    0.000    0.000    0.000    0.000 
#    0.000    0.000    0.000    0.000    0.000    0.000 
#
# Total GULP energy -173451.938244 kJ/mol
# GULP energy per Si atom -12389.424160 kJ/mol
# Density = 1.982269 g / cm^3
# Si number density = 19.867910 Si / 1000 Ang^3
#
#
#
# Elastic Constant Matrix: (Units=GPa)
#
#
# Indices 1 2 3 4 5 6 
#
# 1 94.1745 34.5827 15.0664 0.0676 -2.6587 -0.8969
# 2 34.5827 101.1073 22.6776 2.3969 -13.1623 -4.6682
# 3 15.0664 22.6776 84.1077 0.5376 -9.8563 0.8411
# 4 0.0676 2.3969 0.5376 29.2651 -4.9936 -2.7156
# 5 -2.6587 -13.1623 -9.8563 -4.9936 29.5144 -4.3239
# 6 -0.8969 -4.6682 0.8411 -2.7156 -4.3239 34.9214
#
#
#
# Elastic Compliance Matrix: (Units=1/GPa)
#
#
# Indices 1 2 3 4 5 6 
#
# 1 0.012283 -0.004095 -0.001230 0.000100 -0.001163 -0.000339
# 2 -0.004095 0.012491 -0.002090 0.000056 0.004838 0.002218
# 3 -0.001230 -0.002090 0.013068 0.000495 0.003380 -0.000169
# 4 0.000100 0.000056 0.000495 0.035644 0.006759 0.003607
# 5 -0.001163 0.004838 0.003380 0.006759 0.039071 0.005899
# 6 -0.000339 0.002218 -0.000169 0.003607 0.005899 0.029939
#
#
# Mechanical properties :
#
#
# Convention : Reuss Voigt Hill
#
# Bulk Modulus (GPa) = 43.45436 47.11589 45.28513
# Shear Modulus (GPa) = 30.30386 32.54434 31.42410
#
# Velocity S-wave (km/s) = 3.90970 4.05166 3.98131
# Velocity P-wave (km/s) = 6.50386 6.75677 6.63152
#
# Compressibility (1/GPa) = 0.02301265
#
# Stress axis : x y z
#
# Youngs Moduli (GPa) = 81.41408 80.05924 76.52309
#
# Poissons Ratio (x) = 0.32783 0.09410
# Poissons Ratio (y) = 0.33338 0.15993
# Poissons Ratio (z) = 0.10012 0.16732
#
# Static dielectric constant tensor:
#      x y z
#    x 3.662360 -0.155400 0.039370 
#    y -0.155400 3.603400 0.151430 
#    z 0.039370 0.151430 2.437990 
# 
# 
# High freq. dielectric constant tensor:
#      x y z
#    x 1.764350 -0.016760 -0.004800 
#    y -0.016760 1.779600 0.000660 
#    z -0.004800 0.000660 1.764340 
# 
# From -- ./inp_files/521500.got.cif
#   From: 2010.06.25/outbox.cif.g09.slc.cpg/sg2_261_cif.got.tgz:521500.got - 2010.06.27 13:26:56.
