data_PCOD8013406
_publ_section_title
;
Structure prediction by ZEFSAII (Michael W. Deem and Ramdas Pophale) SiO2 
 PCOD8013406
Probable space group: P -1
;
_chemical_formula_sum "Si O2"
_cell_formula_units_Z 14
_cell_length_a 13.313161
_cell_length_b 12.689391
_cell_length_c 9.016477
_cell_angle_alpha 122.427647
_cell_angle_beta 99.143475
_cell_angle_gamma 33.712672
_cell_volume 563.835819
_symmetry_space_group_name_H-M "P -1"
_symmetry_group_IT_number 2
_symmetry_cell_setting 'triclinic'
loop_
_space_group_symop_operation_xyz
x,y,z
-x,-y,-z
loop_
_atom_site_type_symbol
_atom_site_label
_atom_site_fract_x
_atom_site_fract_y
_atom_site_fract_z
Si Si1 0.243981 0.914171 0.631404
Si Si2 0.613995 0.856671 0.762565
Si Si3 0.330407 0.004477 0.322753
Si Si4 0.270821 0.549162 0.560012
Si Si5 0.215632 0.611174 0.940873
Si Si6 0.780574 0.783244 0.249307
Si Si7 0.831545 0.086444 0.706825
O O1 0.494591 0.630564 0.554010
O O2 0.198154 0.874649 0.449216
O O3 0.276944 0.011302 0.638476
O O4 0.036639 0.143788 0.871833
O O5 0.744545 0.581283 0.587028
O O6 0.737587 0.851650 0.741003
O O7 0.430213 0.064565 0.743564
O O8 0.500000 0.000000 0.000000
O O9 0.603079 0.693383 0.194228
O O10 0.235653 0.968555 0.270870
O O11 0.197388 0.243447 0.587832
O O12 0.198735 0.640775 0.782947
O O13 0.098767 0.812867 0.609799
O O14 0.304450 0.646704 0.053288
O O15 0.000000 0.500000 0.000000
#
# Coordination Sequence:
#
# PCOD8013406 Si02
#       7
#     2   2   2   2   2   2   2
#     4  10  24  44  68 102 137 187 227 288 349 409
#     4  11  25  42  65 101 139 175 230 294 342 418
#     4  11  24  43  72 102 138 190 227 284 358 417
#     4  11  26  46  67 105 140 175 248 280 351 416
#     4  12  23  47  73  99 143 185 233 286 350 414
#     4  10  21  40  67  96 137 177 230 280 348 418
#     4  11  25  46  71 103 140 185 235 288 341 419
#
# _framework density 24.829920999999999
#
# number of rings (size 3 to 8) (size 9 to 14) (size 15 to 20)
#    0.000    1.143    4.286    2.571    8.000    3.429 
#    0.000    0.000    0.000    0.000    0.000    0.000 
#    0.000    0.000    0.000    0.000    0.000    0.000 
#
# Total GULP energy -173467.432687 kJ/mol
# GULP energy per Si atom -12390.530906 kJ/mol
# Density = 2.477341 g / cm^3
# Si number density = 24.829921 Si / 1000 Ang^3
#
#
#
# Elastic Constant Matrix: (Units=GPa)
#
#
# Indices 1 2 3 4 5 6 
#
# 1 65.5982 16.3814 39.0875 -6.2556 -10.8518 0.0808
# 2 16.3814 59.4913 14.8288 -9.1220 9.8537 7.2715
# 3 39.0875 14.8288 160.1453 -19.1085 2.2519 13.8401
# 4 -6.2556 -9.1220 -19.1085 27.5896 2.9233 2.1676
# 5 -10.8518 9.8537 2.2519 2.9233 44.4910 -0.1136
# 6 0.0808 7.2715 13.8401 2.1676 -0.1136 27.5783
#
#
#
# Elastic Compliance Matrix: (Units=1/GPa)
#
#
# Indices 1 2 3 4 5 6 
#
# 1 0.020932 -0.006480 -0.005246 -0.002119 0.006957 0.004475
# 2 -0.006480 0.021467 0.001210 0.007741 -0.006922 -0.006885
# 3 -0.005246 0.001210 0.008577 0.005801 -0.002376 -0.005074
# 4 -0.002119 0.007741 0.005801 0.043575 -0.005409 -0.008393
# 5 0.006957 -0.006922 -0.002376 -0.005409 0.026191 0.003530
# 6 0.004475 -0.006885 -0.005074 -0.008393 0.003530 0.041283
#
#
# Mechanical properties :
#
#
# Convention : Reuss Voigt Hill
#
# Bulk Modulus (GPa) = 33.39734 47.31446 40.35590
# Shear Modulus (GPa) = 25.90143 34.26092 30.08117
#
# Velocity S-wave (km/s) = 3.23329 3.71863 3.48442
# Velocity P-wave (km/s) = 5.23627 6.12653 5.69881
#
# Compressibility (1/GPa) = 0.02994250
#
# Stress axis : x y z
#
# Youngs Moduli (GPa) = 47.77367 46.58302 116.59242
#
# Poissons Ratio (x) = 0.30187 0.61169
# Poissons Ratio (y) = 0.30959 -0.14107
# Poissons Ratio (z) = 0.25064 -0.05636
#
# Static dielectric constant tensor:
#      x y z
#    x 4.691110 -0.277050 0.293430 
#    y -0.277050 4.538420 0.015340 
#    z 0.293430 0.015340 4.659540 
# 
# 
# High freq. dielectric constant tensor:
#      x y z
#    x 2.008830 0.000450 0.005120 
#    y 0.000450 1.979590 0.004260 
#    z 0.005120 0.004260 1.993330 
# 
# From -- ./inp_files/297366.got.cif
#   From: 2010.06.25/outbox.cif.g09.slc.cpg/sg2_149_cif.got.tgz:297366.got - 2010.06.27 13:26:56.
