data_PCOD8013647
_publ_section_title
;
Structure prediction by ZEFSAII (Michael W. Deem and Ramdas Pophale) SiO2 
 PCOD8013647
Probable space group: P -1
;
_chemical_formula_sum "Si O2"
_cell_formula_units_Z 16
_cell_length_a 6.693412
_cell_length_b 20.999109
_cell_length_c 7.500792
_cell_angle_alpha 117.222286
_cell_angle_beta 95.214568
_cell_angle_gamma 52.366744
_cell_volume 715.371992
_symmetry_space_group_name_H-M "P -1"
_symmetry_group_IT_number 2
_symmetry_cell_setting 'triclinic'
loop_
_space_group_symop_operation_xyz
x,y,z
-x,-y,-z
loop_
_atom_site_type_symbol
_atom_site_label
_atom_site_fract_x
_atom_site_fract_y
_atom_site_fract_z
Si Si1 0.668894 0.205572 0.654530
Si Si2 0.093116 0.737909 0.489708
Si Si3 0.968087 0.288956 0.161579
Si Si4 0.429808 0.454218 0.295220
Si Si5 0.457580 0.101558 0.446634
Si Si6 0.805238 0.426700 0.890935
Si Si7 0.241886 0.350714 0.093796
Si Si8 0.804921 0.895524 0.237716
O O1 0.686114 0.257070 0.554634
O O2 0.580501 0.151167 0.494269
O O3 0.474332 0.278084 0.883816
O O4 0.957143 0.127902 0.657836
O O5 0.076614 0.679922 0.263039
O O6 0.157326 0.686930 0.619372
O O7 0.810304 0.840856 0.613705
O O8 0.716692 0.369299 0.119820
O O9 0.190251 0.298285 0.163167
O O10 0.084180 0.184610 0.000461
O O11 0.500000 0.500000 0.500000
O O12 0.196223 0.532093 0.245982
O O13 0.318120 0.402509 0.286800
O O14 0.400412 0.099896 0.648540
O O15 0.658178 0.994904 0.254701
O O16 0.982097 0.426253 0.050883
O O17 0.500000 0.500000 0.000000
#
# Coordination Sequence:
#
# PCOD8013647 Si02
#       8
#     2   2   2   2   2   2   2   2
#     4  11  20  41  69  97 126 172 227 271 331 400
#     4  11  25  41  64  96 138 172 217 287 337 392
#     4  12  24  45  64  98 139 175 218 282 345 395
#     4  12  26  45  64 100 140 173 223 286 344 395
#     4  10  21  41  66 100 127 175 225 271 334 402
#     4  12  23  45  69  95 133 181 231 278 330 403
#     4  12  24  44  75  97 129 185 232 272 336 407
#     4  10  21  40  70  95 133 170 221 282 330 396
#
# _framework density 22.365985999999999
#
# number of rings (size 3 to 8) (size 9 to 14) (size 15 to 20)
#    0.000    0.750    6.250    2.250    0.000    2.000 
#    0.000    0.625    0.000    0.000    0.000    0.000 
#    0.000    0.000    0.000    0.000    0.000    0.000 
#
# Total GULP energy -198278.953616 kJ/mol
# GULP energy per Si atom -12392.434601 kJ/mol
# Density = 2.231508 g / cm^3
# Si number density = 22.365986 Si / 1000 Ang^3
#
#
#
# Elastic Constant Matrix: (Units=GPa)
#
#
# Indices 1 2 3 4 5 6 
#
# 1 144.1354 44.8825 46.8887 8.1231 9.8714 20.3204
# 2 44.8825 95.7554 35.6595 18.8132 -1.5179 1.6199
# 3 46.8887 35.6595 94.6907 18.9050 11.8810 7.4881
# 4 8.1231 18.8132 18.9050 37.1351 1.6930 -5.5397
# 5 9.8714 -1.5179 11.8810 1.6930 39.3938 4.6297
# 6 20.3204 1.6199 7.4881 -5.5397 4.6297 43.5375
#
#
#
# Elastic Compliance Matrix: (Units=1/GPa)
#
#
# Indices 1 2 3 4 5 6 
#
# 1 0.009577 -0.003416 -0.003180 0.000776 -0.001186 -0.003571
# 2 -0.003416 0.014159 -0.003026 -0.004891 0.002441 0.000706
# 3 -0.003180 -0.003026 0.014881 -0.005382 -0.003426 -0.001283
# 4 0.000776 -0.004891 -0.005382 0.032756 -0.000754 0.004994
# 5 -0.001186 0.002441 -0.003426 -0.000754 0.027068 -0.001922
# 6 -0.003571 0.000706 -0.001283 0.004994 -0.001922 0.025670
#
#
# Mechanical properties :
#
#
# Convention : Reuss Voigt Hill
#
# Bulk Modulus (GPa) = 51.61703 65.49367 58.55535
# Shear Modulus (GPa) = 33.37536 37.82333 35.59935
#
# Velocity S-wave (km/s) = 3.86714 4.11677 3.99391
# Velocity P-wave (km/s) = 6.56263 7.20717 6.89244
#
# Compressibility (1/GPa) = 0.01937345
#
# Stress axis : x y z
#
# Youngs Moduli (GPa) = 104.41888 70.62632 67.20097
#
# Poissons Ratio (x) = 0.24123 0.21367
# Poissons Ratio (y) = 0.35664 0.20338
# Poissons Ratio (z) = 0.33201 0.21375
#
# Static dielectric constant tensor:
#      x y z
#    x 4.217250 -0.043210 -0.040750 
#    y -0.043210 4.551460 0.241750 
#    z -0.040750 0.241750 3.791460 
# 
# 
# High freq. dielectric constant tensor:
#      x y z
#    x 1.889480 0.002650 -0.001560 
#    y 0.002650 1.884520 0.022190 
#    z -0.001560 0.022190 1.859980 
# 
# From -- ./inp_files/90331.got.cif
#   From: 2010.06.25/outbox.cif.g09.slc.cpg/sg2_46_cif.got.tgz:90331.got - 2010.06.27 13:26:56.
