data_PCOD8013328
_publ_section_title
;
Structure prediction by ZEFSAII (Michael W. Deem and Ramdas Pophale) SiO2 
 PCOD8013328
Probable space group: P -1
;
_chemical_formula_sum "Si O2"
_cell_formula_units_Z 16
_cell_length_a 8.061014
_cell_length_b 11.202729
_cell_length_c 8.253011
_cell_angle_alpha 86.364053
_cell_angle_beta 60.362457
_cell_angle_gamma 94.688586
_cell_volume 640.962692
_symmetry_space_group_name_H-M "P -1"
_symmetry_group_IT_number 2
_symmetry_cell_setting 'triclinic'
loop_
_space_group_symop_operation_xyz
x,y,z
-x,-y,-z
loop_
_atom_site_type_symbol
_atom_site_label
_atom_site_fract_x
_atom_site_fract_y
_atom_site_fract_z
Si Si1 0.546145 0.199751 0.583561
Si Si2 0.552623 0.155729 0.220585
Si Si3 0.114850 0.834585 0.360590
Si Si4 0.059092 0.590135 0.249834
Si Si5 0.782186 0.949148 0.077110
Si Si6 0.407173 0.575240 0.900946
Si Si7 0.317477 0.535006 0.433047
Si Si8 0.837095 0.897476 0.719481
O O1 0.620634 0.165577 0.373814
O O2 0.668462 0.158053 0.678219
O O3 0.566157 0.343996 0.563075
O O4 0.328398 0.132279 0.719866
O O5 0.682570 0.068927 0.073438
O O6 0.551605 0.280410 0.111763
O O7 0.332953 0.095666 0.327214
O O8 0.061451 0.734881 0.255431
O O9 0.977960 0.805877 0.589461
O O10 0.062168 0.963663 0.314363
O O11 0.183776 0.551689 0.343177
O O12 0.836340 0.529477 0.356037
O O13 0.172402 0.551974 0.036510
O O14 0.766876 0.858118 0.937428
O O15 0.000000 0.000000 0.000000
O O16 0.506256 0.542273 0.686732
O O17 0.500000 0.500000 0.000000
#
# Coordination Sequence:
#
# PCOD8013328 Si02
#       8
#     2   2   2   2   2   2   2   2
#     4  11  25  45  68  97 150 187 228 298 361 418
#     4  12  25  44  71 104 142 187 238 291 358 428
#     4  10  21  40  67 100 141 182 233 294 355 420
#     4   9  18  38  65  97 132 177 232 284 342 421
#     4  12  27  45  68 104 147 187 237 292 356 425
#     4  10  22  40  70 101 138 180 239 295 348 417
#     4   9  20  40  64  95 132 183 227 285 353 409
#     4  11  24  38  71 104 133 183 238 285 358 434
#
# _framework density 24.962451000000001
#
# number of rings (size 3 to 8) (size 9 to 14) (size 15 to 20)
#    0.000    1.500    1.250    3.000    8.750    1.500 
#    4.500    0.625    0.000    0.000    0.000    0.000 
#    0.000    0.000    0.000    0.000    0.000    0.000 
#
# Total GULP energy -198219.809103 kJ/mol
# GULP energy per Si atom -12388.738069 kJ/mol
# Density = 2.490563 g / cm^3
# Si number density = 24.962451 Si / 1000 Ang^3
#
#
#
# Elastic Constant Matrix: (Units=GPa)
#
#
# Indices 1 2 3 4 5 6 
#
# 1 68.2449 22.5603 23.9640 -7.5115 -24.9467 14.6368
# 2 22.5603 116.2811 32.6714 -9.7497 -28.6167 5.6935
# 3 23.9640 32.6714 141.3951 11.3740 -47.6185 4.7655
# 4 -7.5115 -9.7497 11.3740 39.8732 -3.0459 -3.6794
# 5 -24.9467 -28.6167 -47.6185 -3.0459 46.2932 -5.8650
# 6 14.6368 5.6935 4.7655 -3.6794 -5.8650 26.4225
#
#
#
# Elastic Compliance Matrix: (Units=1/GPa)
#
#
# Indices 1 2 3 4 5 6 
#
# 1 0.020782 -0.000891 -0.000032 0.003655 0.009762 -0.008639
# 2 -0.000891 0.010587 -0.000658 0.003035 0.005587 -0.000006
# 3 -0.000032 -0.000658 0.011067 -0.002476 0.010826 0.000221
# 4 0.003655 0.003035 -0.002476 0.027698 0.003423 0.002385
# 5 0.009762 0.005587 0.010826 0.003423 0.041828 0.001197
# 6 -0.008639 -0.000006 0.000221 0.002385 0.001197 0.043191
#
#
# Mechanical properties :
#
#
# Convention : Reuss Voigt Hill
#
# Bulk Modulus (GPa) = 25.46129 53.81250 39.63689
# Shear Modulus (GPa) = 29.17031 38.96613 34.06822
#
# Velocity S-wave (km/s) = 3.42214 3.95522 3.69830
# Velocity P-wave (km/s) = 5.08298 6.51633 5.84377
#
# Compressibility (1/GPa) = 0.03927531
#
# Stress axis : x y z
#
# Youngs Moduli (GPa) = 48.11775 94.45374 90.35662
#
# Poissons Ratio (x) = 0.08420 0.00285
# Poissons Ratio (y) = 0.04289 0.05943
# Poissons Ratio (z) = 0.00152 0.06213
#
# Static dielectric constant tensor:
#      x y z
#    x 3.987800 -0.013770 -0.368080 
#    y -0.013770 4.510300 0.131550 
#    z -0.368080 0.131550 5.081070 
# 
# 
# High freq. dielectric constant tensor:
#      x y z
#    x 1.967190 -0.000590 -0.019630 
#    y -0.000590 1.989150 0.003660 
#    z -0.019630 0.003660 2.012430 
# 
# From -- ./inp_files/188208.got.cif
#   From: 2010.06.25/outbox.cif.g09.slc.cpg/sg2_95_cif.got.tgz:188208.got - 2010.06.27 13:26:56.
