data_PCOD8013274
_publ_section_title
;
Structure prediction by ZEFSAII (Michael W. Deem and Ramdas Pophale) SiO2 
 PCOD8013274
Probable space group: P -1
;
_chemical_formula_sum "Si O2"
_cell_formula_units_Z 14
_cell_length_a 8.307275
_cell_length_b 11.706273
_cell_length_c 17.100974
_cell_angle_alpha 30.091090
_cell_angle_beta 134.540911
_cell_angle_gamma 126.636900
_cell_volume 594.051065
_symmetry_space_group_name_H-M "P -1"
_symmetry_group_IT_number 2
_symmetry_cell_setting 'triclinic'
loop_
_space_group_symop_operation_xyz
x,y,z
-x,-y,-z
loop_
_atom_site_type_symbol
_atom_site_label
_atom_site_fract_x
_atom_site_fract_y
_atom_site_fract_z
Si Si1 0.042628 0.399911 0.489955
Si Si2 0.318686 0.671005 0.006369
Si Si3 0.489169 0.872052 0.194374
Si Si4 0.621215 0.213710 0.377461
Si Si5 0.930111 0.269272 0.963444
Si Si6 0.862357 0.124161 0.811964
Si Si7 0.269220 0.640203 0.834573
O O1 0.272573 0.255033 0.653181
O O2 0.057501 0.619766 0.310517
O O3 0.000000 0.500000 0.500000
O O4 0.838654 0.246505 0.485524
O O5 0.231097 0.749356 0.843384
O O6 0.484558 0.866002 0.978922
O O7 0.449512 0.429587 0.194525
O O8 0.105421 0.665481 0.996187
O O9 0.311322 0.750932 0.149109
O O10 0.401320 0.873420 0.254181
O O11 0.708880 0.179914 0.336797
O O12 0.500000 0.000000 0.500000
O O13 0.065829 0.469330 0.849106
O O14 0.080381 0.029268 0.154665
O O15 0.000000 0.000000 0.000000
O O16 0.500000 0.500000 0.000000
#
# Coordination Sequence:
#
# PCOD8013274 Si02
#       7
#     2   2   2   2   2   2   2
#     4  12  25  42  67 102 136 170 222 280 336 400
#     4  11  23  43  70 100 131 178 229 273 334 405
#     4  11  23  40  68 103 134 173 221 277 338 400
#     4  11  25  47  68  97 138 180 222 279 338 399
#     4  11  21  41  70 100 133 175 223 278 335 398
#     4  10  21  40  66  95 131 175 216 269 332 396
#     4  10  23  43  67  95 130 177 226 270 326 400
#
# _framework density 23.566997000000001
#
# number of rings (size 3 to 8) (size 9 to 14) (size 15 to 20)
#    0.000    1.143    0.000    8.143    0.000    6.857 
#    0.000    5.714    0.000    0.000    0.000    1.000 
#    0.000    0.000    0.000    0.000    0.000    0.000 
#
# Total GULP energy -173525.028211 kJ/mol
# GULP energy per Si atom -12394.644872 kJ/mol
# Density = 2.351336 g / cm^3
# Si number density = 23.566997 Si / 1000 Ang^3
#
#
#
# Elastic Constant Matrix: (Units=GPa)
#
#
# Indices 1 2 3 4 5 6 
#
# 1 198.0520 77.1651 70.1483 -3.3406 -2.2231 -6.7245
# 2 77.1651 115.1418 67.1848 -2.6178 -8.5076 14.5705
# 3 70.1483 67.1848 105.8250 -14.0475 -7.1895 6.6746
# 4 -3.3406 -2.6178 -14.0475 37.5862 3.4017 -11.3803
# 5 -2.2231 -8.5076 -7.1895 3.4017 47.3139 -11.0110
# 6 -6.7245 14.5705 6.6746 -11.3803 -11.0110 53.3559
#
#
#
# Elastic Compliance Matrix: (Units=1/GPa)
#
#
# Indices 1 2 3 4 5 6 
#
# 1 0.007577 -0.003759 -0.002785 0.000088 -0.000213 0.002305
# 2 -0.003759 0.016503 -0.008134 -0.003683 0.000751 -0.004594
# 3 -0.002785 -0.008134 0.017228 0.005895 0.000869 0.001152
# 4 0.000088 -0.003683 0.005895 0.030634 -0.000398 0.006731
# 5 -0.000213 0.000751 0.000869 -0.000398 0.022398 0.004197
# 6 0.002305 -0.004594 0.001152 0.006731 0.004197 0.022445
#
#
# Mechanical properties :
#
#
# Convention : Reuss Voigt Hill
#
# Bulk Modulus (GPa) = 83.65332 94.22391 88.93861
# Shear Modulus (GPa) = 33.30572 41.28591 37.29582
#
# Velocity S-wave (km/s) = 3.76338 4.19005 3.98244
# Velocity P-wave (km/s) = 7.37950 7.96724 7.67899
#
# Compressibility (1/GPa) = 0.01195410
#
# Stress axis : x y z
#
# Youngs Moduli (GPa) = 131.97396 60.59496 58.04392
#
# Poissons Ratio (x) = 0.22775 0.16163
# Poissons Ratio (y) = 0.49604 0.47213
# Poissons Ratio (z) = 0.36750 0.49288
#
# Static dielectric constant tensor:
#      x y z
#    x 5.388050 -0.353260 -0.089360 
#    y -0.353260 4.528310 -0.048090 
#    z -0.089360 -0.048090 3.916820 
# 
# 
# High freq. dielectric constant tensor:
#      x y z
#    x 1.966200 0.003270 -0.004900 
#    y 0.003270 1.936370 -0.005850 
#    z -0.004900 -0.005850 1.904660 
# 
# From -- ./inp_files/559615.got.cif
#   From: 2010.06.25/outbox.cif.g09.slc.cpg/sg2_280_cif.got.tgz:559615.got - 2010.06.27 13:26:56.
