data_PCOD8013018
_publ_section_title
;
Structure prediction by ZEFSAII (Michael W. Deem and Ramdas Pophale) SiO2 
 PCOD8013018
Probable space group: P -1
;
_chemical_formula_sum "Si O2"
_cell_formula_units_Z 16
_cell_length_a 18.605094
_cell_length_b 13.627050
_cell_length_c 9.626678
_cell_angle_alpha 123.895138
_cell_angle_beta 54.694593
_cell_angle_gamma 158.584184
_cell_volume 725.689455
_symmetry_space_group_name_H-M "P -1"
_symmetry_group_IT_number 2
_symmetry_cell_setting 'triclinic'
loop_
_space_group_symop_operation_xyz
x,y,z
-x,-y,-z
loop_
_atom_site_type_symbol
_atom_site_label
_atom_site_fract_x
_atom_site_fract_y
_atom_site_fract_z
Si Si1 0.082481 0.489246 0.315901
Si Si2 0.999540 0.380308 0.820313
Si Si3 0.703181 0.312909 0.506179
Si Si4 0.742456 0.933614 0.324555
Si Si5 0.331217 0.971261 0.277658
Si Si6 0.957629 0.963443 0.180013
Si Si7 0.312856 0.444883 0.367714
Si Si8 0.222780 0.435553 0.740980
O O1 0.206000 0.558265 0.341279
O O2 0.226775 0.714115 0.210388
O O3 0.000000 0.500000 0.500000
O O4 0.900336 0.180253 0.228954
O O5 0.145607 0.573315 0.676309
O O6 0.056969 0.334908 0.810641
O O7 0.772627 0.090492 0.787187
O O8 0.000000 0.500000 0.000000
O O9 0.645991 0.368034 0.550075
O O10 0.500000 0.000000 0.500000
O O11 0.831577 0.931700 0.311128
O O12 0.528665 0.638996 0.262053
O O13 0.702312 0.989790 0.520291
O O14 0.569060 0.244991 0.207433
O O15 0.833107 0.700013 0.162559
O O16 0.159043 0.207395 0.240629
O O17 0.000000 0.000000 0.000000
O O18 0.232730 0.345396 0.538363
#
# Coordination Sequence:
#
# PCOD8013018 Si02
#       8
#     2   2   2   2   2   2   2   2
#     4  10  16  33  62  95 126 154 207 272 306 378
#     4  11  23  40  61  96 137 173 210 264 338 393
#     4  11  19  37  64  98 131 165 221 265 315 387
#     4  10  20  39  65  94 119 170 218 262 322 383
#     4  10  21  40  67  95 127 170 216 267 323 386
#     4  12  26  45  62  93 133 170 214 278 328 380
#     4  10  22  41  69  94 121 169 225 265 317 385
#     4  10  24  45  65  92 127 171 226 265 316 396
#
# _framework density 22.047998
#
# number of rings (size 3 to 8) (size 9 to 14) (size 15 to 20)
#    0.000    1.500    3.750    4.125    0.000    5.000 
#    2.250    0.000    0.000    0.000    0.000    0.000 
#    0.000    0.000    0.000    0.000    0.000    0.000 
#
# Total GULP energy -198296.293180 kJ/mol
# GULP energy per Si atom -12393.518324 kJ/mol
# Density = 2.199782 g / cm^3
# Si number density = 22.047998 Si / 1000 Ang^3
#
#
#
# Elastic Constant Matrix: (Units=GPa)
#
#
# Indices 1 2 3 4 5 6 
#
# 1 127.4397 68.2104 21.8000 -8.7206 15.1927 9.2478
# 2 68.2104 126.5221 36.6126 0.7934 17.0329 8.2896
# 3 21.8000 36.6126 56.6372 -3.3310 15.7406 0.9518
# 4 -8.7206 0.7934 -3.3310 17.7550 -2.3700 13.6268
# 5 15.1927 17.0329 15.7406 -2.3700 24.1130 2.6186
# 6 9.2478 8.2896 0.9518 13.6268 2.6186 46.3313
#
#
#
# Elastic Compliance Matrix: (Units=1/GPa)
#
#
# Indices 1 2 3 4 5 6 
#
# 1 0.012296 -0.006282 0.000589 0.009092 -0.002379 -0.003882
# 2 -0.006282 0.013279 -0.005898 -0.005695 -0.002219 0.000800
# 3 0.000589 -0.005898 0.024799 0.003546 -0.012052 0.000067
# 4 0.009092 -0.005695 0.003546 0.082115 0.006809 -0.025405
# 5 -0.002379 -0.002219 -0.012052 0.006809 0.053499 -0.003907
# 6 -0.003882 0.000800 0.000067 -0.025405 -0.003907 0.029907
#
#
# Mechanical properties :
#
#
# Convention : Reuss Voigt Hill
#
# Bulk Modulus (GPa) = 36.77420 62.64945 49.71183
# Shear Modulus (GPa) = 20.14994 29.90494 25.02744
#
# Velocity S-wave (km/s) = 3.02638 3.68687 3.37283
# Velocity P-wave (km/s) = 5.37841 6.82647 6.14524
#
# Compressibility (1/GPa) = 0.02719297
#
# Stress axis : x y z
#
# Youngs Moduli (GPa) = 81.32830 75.30595 40.32402
#
# Poissons Ratio (x) = 0.47306 -0.02376
# Poissons Ratio (y) = 0.51089 0.23783
# Poissons Ratio (z) = -0.04793 0.44416
#
# Static dielectric constant tensor:
#      x y z
#    x 5.506990 0.101940 0.194010 
#    y 0.101940 4.471950 -0.260790 
#    z 0.194010 -0.260790 3.676380 
# 
# 
# High freq. dielectric constant tensor:
#      x y z
#    x 1.880370 0.011170 0.010240 
#    y 0.011170 1.872060 0.001330 
#    z 0.010240 0.001330 1.827700 
# 
# From -- ./inp_files/347320.got.cif
#   From: 2010.06.25/outbox.cif.g09.slc.cpg/sg2_174_cif.got.tgz:347320.got - 2010.06.27 13:26:56.
