data_PCOD8013330
_publ_section_title
;
Structure prediction by ZEFSAII (Michael W. Deem and Ramdas Pophale) SiO2 
 PCOD8013330
Probable space group: P -1
;
_chemical_formula_sum "Si O2"
_cell_formula_units_Z 16
_cell_length_a 8.917342
_cell_length_b 13.551930
_cell_length_c 7.799206
_cell_angle_alpha 83.426414
_cell_angle_beta 97.573053
_cell_angle_gamma 134.795505
_cell_volume 662.684066
_symmetry_space_group_name_H-M "P -1"
_symmetry_group_IT_number 2
_symmetry_cell_setting 'triclinic'
loop_
_space_group_symop_operation_xyz
x,y,z
-x,-y,-z
loop_
_atom_site_type_symbol
_atom_site_label
_atom_site_fract_x
_atom_site_fract_y
_atom_site_fract_z
Si Si1 0.314573 0.339864 0.532438
Si Si2 0.727973 0.104147 0.344544
Si Si3 0.036522 0.732717 0.312847
Si Si4 0.364277 0.000275 0.108166
Si Si5 0.851940 0.508891 0.075750
Si Si6 0.747568 0.895330 0.501536
Si Si7 0.888935 0.726657 0.850026
Si Si8 0.376088 0.216320 0.119823
O O1 0.500000 0.500000 0.500000
O O2 0.373313 0.250717 0.588618
O O3 0.178154 0.281204 0.352170
O O4 0.186702 0.315792 0.683355
O O5 0.839832 0.214255 0.498372
O O6 0.856725 0.159751 0.167648
O O7 0.510196 0.063648 0.291106
O O8 0.671090 0.964616 0.404178
O O9 0.141272 0.845772 0.153204
O O10 0.980678 0.599003 0.250930
O O11 0.335178 0.100780 0.014991
O O12 0.500000 0.000000 0.000000
O O13 0.622794 0.360224 0.118558
O O14 0.807273 0.584077 0.935238
O O15 0.000000 0.500000 0.000000
O O16 0.678776 0.858401 0.693444
O O17 0.000000 0.000000 0.500000
O O18 0.785876 0.766924 0.944469
#
# Coordination Sequence:
#
# PCOD8013330 Si02
#       8
#     2   2   2   2   2   2   2   2
#     4  10  21  40  67 101 132 163 227 279 325 389
#     4  11  22  42  70  98 132 171 224 278 331 391
#     4  11  22  41  69  94 129 175 221 269 323 397
#     4  12  25  44  63  98 141 176 218 270 331 397
#     4  12  26  47  64  94 142 179 218 273 334 401
#     4  11  18  40  68  99 133 166 217 284 329 381
#     4  10  22  43  69  93 132 173 217 277 334 387
#     4  11  22  41  71  94 130 178 221 270 331 396
#
# _framework density 24.144237
#
# number of rings (size 3 to 8) (size 9 to 14) (size 15 to 20)
#    0.000    1.000    5.000    4.500    0.000    0.000 
#    6.750    6.875    0.000    0.000    0.000    0.000 
#    0.000    0.000    0.000    0.000    0.000    0.000 
#
# Total GULP energy -198236.030644 kJ/mol
# GULP energy per Si atom -12389.751915 kJ/mol
# Density = 2.408928 g / cm^3
# Si number density = 24.144237 Si / 1000 Ang^3
#
#
#
# Elastic Constant Matrix: (Units=GPa)
#
#
# Indices 1 2 3 4 5 6 
#
# 1 123.4785 51.4211 27.3284 -4.5285 -25.7917 -13.6266
# 2 51.4211 158.1256 20.0017 -11.3602 -25.2142 -0.7338
# 3 27.3284 20.0017 64.4177 -14.2971 -26.7088 -6.9834
# 4 -4.5285 -11.3602 -14.2971 46.0644 -5.2630 -14.2828
# 5 -25.7917 -25.2142 -26.7088 -5.2630 36.3185 -3.9155
# 6 -13.6266 -0.7338 -6.9834 -14.2828 -3.9155 50.9918
#
#
#
# Elastic Compliance Matrix: (Units=1/GPa)
#
#
# Indices 1 2 3 4 5 6 
#
# 1 0.011097 -0.002256 0.000019 0.002673 0.007173 0.004235
# 2 -0.002256 0.008013 0.001757 0.003320 0.005856 0.001133
# 3 0.000019 0.001757 0.031645 0.016975 0.028181 0.011283
# 4 0.002673 0.003320 0.016975 0.035313 0.023397 0.014775
# 5 0.007173 0.005856 0.028181 0.023397 0.062666 0.017226
# 6 0.004235 0.001133 0.011283 0.014775 0.017226 0.027765
#
#
# Mechanical properties :
#
#
# Convention : Reuss Voigt Hill
#
# Bulk Modulus (GPa) = 20.08235 60.39160 40.23698
# Shear Modulus (GPa) = 25.76541 43.15965 34.46253
#
# Velocity S-wave (km/s) = 3.27026 4.23256 3.78214
# Velocity P-wave (km/s) = 4.75344 6.99666 5.98116
#
# Compressibility (1/GPa) = 0.04979496
#
# Stress axis : x y z
#
# Youngs Moduli (GPa) = 90.11139 124.79718 31.60017
#
# Poissons Ratio (x) = 0.28151 -0.00059
# Poissons Ratio (y) = 0.20327 -0.05551
# Poissons Ratio (z) = -0.00169 -0.21922
#
# Static dielectric constant tensor:
#      x y z
#    x 4.736890 -0.379910 -0.276630 
#    y -0.379910 3.663740 -0.109080 
#    z -0.276630 -0.109080 4.482280 
# 
# 
# High freq. dielectric constant tensor:
#      x y z
#    x 1.968370 -0.000580 -0.027470 
#    y -0.000580 1.966190 -0.006880 
#    z -0.027470 -0.006880 1.964170 
# 
# From -- ./inp_files/187715.got.cif
#   From: 2010.06.25/outbox.cif.g09.slc.cpg/sg2_94_cif.got.tgz:187715.got - 2010.06.27 13:26:56.
