data_PCOD8013234
_publ_section_title
;
Structure prediction by ZEFSAII (Michael W. Deem and Ramdas Pophale) SiO2 
 PCOD8013234
Probable space group: P -1
;
_chemical_formula_sum "Si O2"
_cell_formula_units_Z 16
_cell_length_a 12.598204
_cell_length_b 11.191915
_cell_length_c 12.689302
_cell_angle_alpha 85.409148
_cell_angle_beta 50.544007
_cell_angle_gamma 125.348753
_cell_volume 792.450663
_symmetry_space_group_name_H-M "P -1"
_symmetry_group_IT_number 2
_symmetry_cell_setting 'triclinic'
loop_
_space_group_symop_operation_xyz
x,y,z
-x,-y,-z
loop_
_atom_site_type_symbol
_atom_site_label
_atom_site_fract_x
_atom_site_fract_y
_atom_site_fract_z
Si Si1 0.826905 0.364231 0.520196
Si Si2 0.819719 0.455091 0.888850
Si Si3 0.497268 0.373975 0.953754
Si Si4 0.035229 0.382666 0.996012
Si Si5 0.933789 0.081601 0.807599
Si Si6 0.326265 0.484434 0.393399
Si Si7 0.664611 0.087430 0.091672
Si Si8 0.699585 0.632093 0.276918
O O1 0.722451 0.416297 0.542250
O O2 0.000000 0.500000 0.500000
O O3 0.953303 0.395209 0.339337
O O4 0.617163 0.125988 0.704183
O O5 0.597188 0.349073 0.974197
O O6 0.907516 0.604126 0.918781
O O7 0.727164 0.264879 0.005418
O O8 0.675067 0.512035 0.732378
O O9 0.500000 0.500000 0.000000
O O10 0.225891 0.144699 0.111219
O O11 0.245607 0.466869 0.788097
O O12 0.000000 0.500000 0.000000
O O13 0.790391 0.149939 0.121564
O O14 0.122635 0.250730 0.584299
O O15 0.066706 0.144598 0.829762
O O16 0.755007 0.064421 0.943650
O O17 0.595432 0.635728 0.245663
O O18 0.500000 0.500000 0.500000
#
# Coordination Sequence:
#
# PCOD8013234 Si02
#       8
#     2   2   2   2   2   2   2   2
#     4  12  23  38  63  98 122 159 214 261 308 372
#     4  11  23  40  65  89 131 163 202 265 315 373
#     4  12  26  41  59  92 126 167 206 256 319 377
#     4   9  20  40  63  92 126 163 207 260 316 370
#     4  10  21  41  65  90 122 163 206 260 309 373
#     4  11  22  40  64  92 126 157 211 262 307 378
#     4  10  21  40  66  93 119 162 213 254 317 369
#     4   9  20  39  66  94 121 167 211 255 313 377
#
# _framework density 20.190529999999999
#
# number of rings (size 3 to 8) (size 9 to 14) (size 15 to 20)
#    0.000    1.500    3.750    0.750    3.500    2.500 
#    2.250    5.000    0.000    0.000    0.000    0.000 
#    0.000    0.000    0.000    0.000    0.000    0.000 
#
# Total GULP energy -198277.982263 kJ/mol
# GULP energy per Si atom -12392.373891 kJ/mol
# Density = 2.014458 g / cm^3
# Si number density = 20.190530 Si / 1000 Ang^3
#
#
#
# Elastic Constant Matrix: (Units=GPa)
#
#
# Indices 1 2 3 4 5 6 
#
# 1 99.8460 46.4493 32.5764 -1.1685 -15.3501 12.3527
# 2 46.4493 132.9555 60.9988 2.2330 -8.6805 16.6975
# 3 32.5764 60.9988 128.6496 -5.7211 -4.9558 14.3009
# 4 -1.1685 2.2330 -5.7211 36.8158 -1.7255 -2.2148
# 5 -15.3501 -8.6805 -4.9558 -1.7255 31.2826 7.0846
# 6 12.3527 16.6975 14.3009 -2.2148 7.0846 34.2056
#
#
#
# Elastic Compliance Matrix: (Units=1/GPa)
#
#
# Indices 1 2 3 4 5 6 
#
# 1 0.013392 -0.003233 -0.001133 0.000501 0.006448 -0.004087
# 2 -0.003233 0.011007 -0.004094 -0.001515 0.001388 -0.002879
# 3 -0.001133 -0.004094 0.010305 0.001722 0.000462 -0.001885
# 4 0.000501 -0.001515 0.001722 0.027681 0.001318 0.001358
# 5 0.006448 0.001388 0.000462 0.001318 0.038157 -0.011017
# 6 -0.004087 -0.002879 -0.001885 0.001358 -0.011017 0.035274
#
#
# Mechanical properties :
#
#
# Convention : Reuss Voigt Hill
#
# Bulk Modulus (GPa) = 56.23132 71.27779 63.75455
# Shear Modulus (GPa) = 31.51315 35.22256 33.36786
#
# Velocity S-wave (km/s) = 3.95497 4.18126 4.06969
# Velocity P-wave (km/s) = 6.98330 7.66093 7.32995
#
# Compressibility (1/GPa) = 0.01778368
#
# Stress axis : x y z
#
# Youngs Moduli (GPa) = 74.67182 90.85397 97.03953
#
# Poissons Ratio (x) = 0.29371 0.10997
# Poissons Ratio (y) = 0.24140 0.39728
# Poissons Ratio (z) = 0.08462 0.37196
#
# Static dielectric constant tensor:
#      x y z
#    x 4.451270 0.435880 -0.333140 
#    y 0.435880 3.934990 0.147270 
#    z -0.333140 0.147270 3.650050 
# 
# 
# High freq. dielectric constant tensor:
#      x y z
#    x 1.798250 0.015350 -0.014130 
#    y 0.015350 1.788570 0.013110 
#    z -0.014130 0.013110 1.778340 
# 
# From -- ./inp_files/428119.got.cif
#   From: 2010.06.25/outbox.cif.g09.slc.cpg/sg2_215_cif.got.tgz:428119.got - 2010.06.27 13:26:56.
