data_PCOD8013083
_publ_section_title
;
Structure prediction by ZEFSAII (Michael W. Deem and Ramdas Pophale) SiO2 
 PCOD8013083
Probable space group: P -1
;
_chemical_formula_sum "Si O2"
_cell_formula_units_Z 16
_cell_length_a 12.088693
_cell_length_b 11.191213
_cell_length_c 8.960837
_cell_angle_alpha 66.415430
_cell_angle_beta 122.596759
_cell_angle_gamma 129.313101
_cell_volume 786.977829
_symmetry_space_group_name_H-M "P -1"
_symmetry_group_IT_number 2
_symmetry_cell_setting 'triclinic'
loop_
_space_group_symop_operation_xyz
x,y,z
-x,-y,-z
loop_
_atom_site_type_symbol
_atom_site_label
_atom_site_fract_x
_atom_site_fract_y
_atom_site_fract_z
Si Si1 0.285116 0.189942 0.840718
Si Si2 0.485860 0.871192 0.448736
Si Si3 0.943117 0.945645 0.715573
Si Si4 0.036398 0.708934 0.807528
Si Si5 0.540106 0.458040 0.708673
Si Si6 0.230232 0.625831 0.201020
Si Si7 0.328692 0.234627 0.190673
Si Si8 0.742479 0.009714 0.329375
O O1 0.376358 0.346157 0.730874
O O2 0.307793 0.062516 0.838256
O O3 0.355805 0.227186 0.039233
O O4 0.099039 0.117963 0.754534
O O5 0.308520 0.750175 0.329495
O O6 0.538295 0.771118 0.622527
O O7 0.500000 0.000000 0.500000
O O8 0.591237 0.962325 0.336980
O O9 0.842919 0.908436 0.813454
O O10 0.979596 0.813025 0.788148
O O11 0.840030 0.941586 0.504192
O O12 0.146658 0.803143 0.698732
O O13 0.886520 0.545051 0.728902
O O14 0.136656 0.678552 0.009867
O O15 0.500000 0.500000 0.500000
O O16 0.632988 0.372647 0.794292
O O17 0.649448 0.604657 0.821027
#
# Coordination Sequence:
#
# PCOD8013083 Si02
#       8
#     2   2   2   2   2   2   2   2
#     4  11  22  36  63  97 123 159 208 270 310 361
#     4  11  25  42  63  92 128 166 207 262 326 378
#     4  10  21  40  65  92 129 166 215 256 317 374
#     4  10  22  38  66  93 122 169 215 258 310 379
#     4  12  22  41  65  90 126 168 214 256 315 380
#     4  11  23  41  63  91 127 169 208 255 323 370
#     4  11  23  40  62  95 126 165 211 266 311 373
#     4  10  22  41  66  94 120 171 216 254 318 378
#
# _framework density 20.330943000000001
#
# number of rings (size 3 to 8) (size 9 to 14) (size 15 to 20)
#    0.000    1.250    3.750    3.000    5.250    1.500 
#    0.000    0.625    0.000    0.000    0.000    0.000 
#    0.000    0.000    0.000    0.000    0.000    0.000 
#
# Total GULP energy -198359.899784 kJ/mol
# GULP energy per Si atom -12397.493736 kJ/mol
# Density = 2.028467 g / cm^3
# Si number density = 20.330943 Si / 1000 Ang^3
#
#
#
# Elastic Constant Matrix: (Units=GPa)
#
#
# Indices 1 2 3 4 5 6 
#
# 1 73.1722 64.5651 45.8482 9.3599 -17.8385 7.1748
# 2 64.5651 142.3324 60.5378 5.6071 -11.7494 21.4811
# 3 45.8482 60.5378 82.7146 2.4828 -11.3976 9.7833
# 4 9.3599 5.6071 2.4828 36.0011 -1.2853 -3.8219
# 5 -17.8385 -11.7494 -11.3976 -1.2853 39.6694 -4.1757
# 6 7.1748 21.4811 9.7833 -3.8219 -4.1757 42.8164
#
#
#
# Elastic Compliance Matrix: (Units=1/GPa)
#
#
# Indices 1 2 3 4 5 6 
#
# 1 0.029668 -0.009186 -0.008672 -0.005186 0.008166 0.001952
# 2 -0.009186 0.013690 -0.004662 0.000039 -0.001882 -0.004444
# 3 -0.008672 -0.004662 0.020422 0.001520 0.000564 -0.000683
# 4 -0.005186 0.000039 0.001520 0.029317 -0.000612 0.003059
# 5 0.008166 -0.001882 0.000564 -0.000612 0.028696 0.002191
# 6 0.001952 -0.004444 -0.000683 0.003059 0.002191 0.025901
#
#
# Mechanical properties :
#
#
# Convention : Reuss Voigt Hill
#
# Bulk Modulus (GPa) = 53.36404 71.12462 62.24433
# Shear Modulus (GPa) = 25.12811 32.18191 28.65501
#
# Velocity S-wave (km/s) = 3.51943 3.98289 3.75831
# Velocity P-wave (km/s) = 6.54369 7.49737 7.03670
#
# Compressibility (1/GPa) = 0.01873921
#
# Stress axis : x y z
#
# Youngs Moduli (GPa) = 33.70609 73.04831 48.96737
#
# Poissons Ratio (x) = 0.67102 0.42463
# Poissons Ratio (y) = 0.30963 0.22831
# Poissons Ratio (z) = 0.29229 0.34058
#
# Static dielectric constant tensor:
#      x y z
#    x 4.680630 -0.229580 0.270840 
#    y -0.229580 4.404440 -0.166480 
#    z 0.270840 -0.166480 3.646350 
# 
# 
# High freq. dielectric constant tensor:
#      x y z
#    x 1.783770 0.019560 0.001140 
#    y 0.019560 1.809450 0.001580 
#    z 0.001140 0.001580 1.784190 
# 
# From -- ./inp_files/257701.got.cif
#   From: 2010.06.25/outbox.cif.g09.slc.cpg/sg2_129_cif.got.tgz:257701.got - 2010.06.27 13:26:56.
