data_PCOD8013704
_publ_section_title
;
Structure prediction by ZEFSAII (Michael W. Deem and Ramdas Pophale) SiO2 
 PCOD8013704
Probable space group: P -1
;
_chemical_formula_sum "Si O2"
_cell_formula_units_Z 12
_cell_length_a 12.056369
_cell_length_b 13.221514
_cell_length_c 7.248818
_cell_angle_alpha 101.031564
_cell_angle_beta 135.634345
_cell_angle_gamma 47.512863
_cell_volume 491.462154
_symmetry_space_group_name_H-M "P -1"
_symmetry_group_IT_number 2
_symmetry_cell_setting 'triclinic'
loop_
_space_group_symop_operation_xyz
x,y,z
-x,-y,-z
loop_
_atom_site_type_symbol
_atom_site_label
_atom_site_fract_x
_atom_site_fract_y
_atom_site_fract_z
Si Si1 0.775716 0.331064 0.202668
Si Si2 0.455199 0.764626 0.121874
Si Si3 0.171316 0.010182 0.178572
Si Si4 0.042352 0.604633 0.302312
Si Si5 0.508398 0.109697 0.131672
Si Si6 0.203347 0.627528 0.161536
O O1 0.961020 0.279006 0.565060
O O2 0.500000 0.500000 0.000000
O O3 0.764033 0.213467 0.118845
O O4 0.843088 0.360942 0.107511
O O5 0.748133 0.575075 0.412864
O O6 0.407210 0.865776 0.271996
O O7 0.413157 0.847333 0.912723
O O8 0.273055 0.002417 0.491735
O O9 0.983746 0.188037 0.922089
O O10 0.000000 0.000000 0.000000
O O11 0.753535 0.713883 0.024926
O O12 0.878457 0.429717 0.832812
O O13 0.500000 0.000000 0.000000
O O14 0.500000 0.500000 0.500000
#
# Coordination Sequence:
#
# PCOD8013704 Si02
#       6
#     2   2   2   2   2   2
#     4  10  21  40  73 107 137 183 239 291 353 424
#     4  11  25  46  75 108 144 192 245 295 360 432
#     4  12  27  45  73 108 143 190 244 297 359 428
#     4  11  25  45  75 107 144 194 237 299 360 431
#     4  12  29  49  70 107 152 193 237 302 367 426
#     4  12  22  43  73 103 143 183 244 295 360 424
#
# _framework density 24.416937000000001
#
# number of rings (size 3 to 8) (size 9 to 14) (size 15 to 20)
#    0.000    0.667    5.000    2.500    2.333    8.000 
#    0.000    1.667    0.000    0.000    0.000    0.000 
#    0.000    0.000    0.000    0.000    0.000    0.000 
#
# Total GULP energy -148737.268581 kJ/mol
# GULP energy per Si atom -12394.772382 kJ/mol
# Density = 2.436136 g / cm^3
# Si number density = 24.416937 Si / 1000 Ang^3
#
#
#
# Elastic Constant Matrix: (Units=GPa)
#
#
# Indices 1 2 3 4 5 6 
#
# 1 149.3536 21.9648 37.1358 1.3912 -27.3820 -12.2941
# 2 21.9648 98.1104 38.6260 -11.9186 -10.3794 -12.0312
# 3 37.1358 38.6260 118.0275 -11.8014 -2.4804 -5.2107
# 4 1.3912 -11.9186 -11.8014 42.2463 -6.8233 -2.2847
# 5 -27.3820 -10.3794 -2.4804 -6.8233 34.4213 -6.4412
# 6 -12.2941 -12.0312 -5.2107 -2.2847 -6.4412 35.1738
#
#
#
# Elastic Compliance Matrix: (Units=1/GPa)
#
#
# Indices 1 2 3 4 5 6 
#
# 1 0.009141 0.000480 -0.002593 0.000681 0.008211 0.004523
# 2 0.000480 0.013353 -0.003756 0.003964 0.005958 0.005528
# 3 -0.002593 -0.003756 0.010584 0.001560 -0.002300 -0.000943
# 4 0.000681 0.003964 0.001560 0.026784 0.008103 0.005048
# 5 0.008211 0.005958 -0.002300 0.008103 0.041185 0.012636
# 6 0.004523 0.005528 -0.000943 0.005048 0.012636 0.034404
#
#
# Mechanical properties :
#
#
# Convention : Reuss Voigt Hill
#
# Bulk Modulus (GPa) = 46.85717 62.32717 54.59217
# Shear Modulus (GPa) = 32.40412 40.21928 36.31170
#
# Velocity S-wave (km/s) = 3.64691 4.06296 3.86054
# Velocity P-wave (km/s) = 6.07992 6.89868 6.50220
#
# Compressibility (1/GPa) = 0.02134145
#
# Stress axis : x y z
#
# Youngs Moduli (GPa) = 109.39795 74.88772 94.48631
#
# Poissons Ratio (x) = -0.03598 0.24500
# Poissons Ratio (y) = -0.05256 0.35486
# Poissons Ratio (z) = 0.28367 0.28125
#
# Static dielectric constant tensor:
#      x y z
#    x 4.663420 -0.211080 0.058450 
#    y -0.211080 4.638480 0.674730 
#    z 0.058450 0.674730 5.119980 
# 
# 
# High freq. dielectric constant tensor:
#      x y z
#    x 1.983750 -0.021480 -0.002650 
#    y -0.021480 1.971370 -0.016470 
#    z -0.002650 -0.016470 1.964400 
# 
# From -- ./inp_files/308230.got.cif
#   From: 2010.06.25/outbox.cif.g09.slc.cpg/sg2_155_cif.got.tgz:308230.got - 2010.06.27 13:26:56.
