data_PCOD8013826
_publ_section_title
;
Structure prediction by ZEFSAII (Michael W. Deem and Ramdas Pophale) SiO2 
 PCOD8013826
Probable space group: P -1
;
_chemical_formula_sum "Si O2"
_cell_formula_units_Z 16
_cell_length_a 9.577079
_cell_length_b 9.213939
_cell_length_c 17.294968
_cell_angle_alpha 148.099079
_cell_angle_beta 88.962212
_cell_angle_gamma 91.111663
_cell_volume 806.343059
_symmetry_space_group_name_H-M "P -1"
_symmetry_group_IT_number 2
_symmetry_cell_setting 'triclinic'
loop_
_space_group_symop_operation_xyz
x,y,z
-x,-y,-z
loop_
_atom_site_type_symbol
_atom_site_label
_atom_site_fract_x
_atom_site_fract_y
_atom_site_fract_z
Si Si1 0.217118 0.668223 0.893249
Si Si2 0.294995 0.415172 0.516769
Si Si3 0.449726 0.029357 0.100050
Si Si4 0.200526 0.039684 0.576473
Si Si5 0.250244 0.923581 0.842404
Si Si6 0.401656 0.582731 0.426291
Si Si7 0.948141 0.589000 0.957078
Si Si8 0.104808 0.959992 0.368339
O O1 0.213811 0.853675 0.899984
O O2 0.071980 0.700707 0.952775
O O3 0.250041 0.353930 0.729618
O O4 0.334373 0.790195 0.006238
O O5 0.215865 0.662436 0.671706
O O6 0.327655 0.488975 0.462569
O O7 0.436470 0.337079 0.525831
O O8 0.185030 0.165728 0.403540
O O9 0.586681 0.993123 0.135684
O O10 0.386344 0.331704 0.252345
O O11 0.500000 0.000000 0.000000
O O12 0.326518 0.850105 0.515795
O O13 0.171921 0.981344 0.461335
O O14 0.060847 0.975842 0.598524
O O15 0.161057 0.170314 0.921935
O O16 0.870502 0.341482 0.802073
O O17 0.000000 0.500000 0.000000
#
# Coordination Sequence:
#
# PCOD8013826 Si02
#       8
#     2   2   2   2   2   2   2   2
#     4  10  21  41  62  91 121 159 201 243 298 361
#     4  10  22  42  61  91 122 159 201 244 305 355
#     4   9  21  39  62  90 118 156 203 240 297 361
#     4  10  22  40  62  91 121 156 205 250 288 353
#     4  10  21  42  63  86 122 161 198 249 295 359
#     4  10  23  39  64  91 122 157 201 249 296 357
#     4  11  26  40  60  91 124 158 201 247 304 356
#     4  10  23  41  59  90 123 156 204 245 297 359
#
# _framework density 19.842672
#
# number of rings (size 3 to 8) (size 9 to 14) (size 15 to 20)
#    0.000    2.000    1.250    0.375    8.750    3.000 
#    0.000    0.625    0.000    0.000    0.000    0.000 
#    0.000    0.000    0.000    0.000    0.000    0.000 
#
# Total GULP energy -198413.676158 kJ/mol
# GULP energy per Si atom -12400.854760 kJ/mol
# Density = 1.979751 g / cm^3
# Si number density = 19.842672 Si / 1000 Ang^3
#
#
#
# Elastic Constant Matrix: (Units=GPa)
#
#
# Indices 1 2 3 4 5 6 
#
# 1 80.0111 25.8781 57.4230 28.1936 -0.4489 -5.3034
# 2 25.8781 55.2478 29.5824 12.5899 -8.1438 -6.4734
# 3 57.4230 29.5824 87.5506 20.6319 -0.4886 -5.5011
# 4 28.1936 12.5899 20.6319 30.4855 1.5508 -6.5976
# 5 -0.4489 -8.1438 -0.4886 1.5508 42.8323 12.7817
# 6 -5.3034 -6.4734 -5.5011 -6.5976 12.7817 34.1402
#
#
#
# Elastic Compliance Matrix: (Units=1/GPa)
#
#
# Indices 1 2 3 4 5 6 
#
# 1 0.029755 -0.002178 -0.014887 -0.016978 0.000880 -0.001800
# 2 -0.002178 0.023765 -0.005564 -0.004066 0.004320 0.000868
# 3 -0.014887 -0.005564 0.022926 0.000823 -0.001269 0.000960
# 4 -0.016978 -0.004066 0.000823 0.051800 -0.005434 0.008769
# 5 0.000880 0.004320 -0.001269 -0.005434 0.027524 -0.010603
# 6 -0.001800 0.000868 0.000960 0.008769 -0.010603 0.034995
#
#
# Mechanical properties :
#
#
# Convention : Reuss Voigt Hill
#
# Bulk Modulus (GPa) = 32.06548 49.84185 40.95367
# Shear Modulus (GPa) = 20.29050 28.82000 24.55525
#
# Velocity S-wave (km/s) = 3.20123 3.81520 3.52162
# Velocity P-wave (km/s) = 5.46432 6.67688 6.10080
#
# Compressibility (1/GPa) = 0.03118619
#
# Stress axis : x y z
#
# Youngs Moduli (GPa) = 33.60760 42.07832 43.61907
#
# Poissons Ratio (x) = 0.09166 0.64937
# Poissons Ratio (y) = 0.07321 0.24271
# Poissons Ratio (z) = 0.50032 0.23414
#
# Static dielectric constant tensor:
#      x y z
#    x 4.112450 0.283240 0.419650 
#    y 0.283240 3.468010 0.060110 
#    z 0.419650 0.060110 4.134890 
# 
# 
# High freq. dielectric constant tensor:
#      x y z
#    x 1.779270 0.011090 0.002840 
#    y 0.011090 1.756300 -0.008440 
#    z 0.002840 -0.008440 1.790310 
# 
# From -- ./inp_files/187785.got.cif
#   From: 2010.06.25/outbox.cif.g09.slc.cpg/sg2_94_cif.got.tgz:187785.got - 2010.06.27 13:26:56.
