data_PCOD8013433
_publ_section_title
;
Structure prediction by ZEFSAII (Michael W. Deem and Ramdas Pophale) SiO2 
 PCOD8013433
Probable space group: P -1
;
_chemical_formula_sum "Si O2"
_cell_formula_units_Z 16
_cell_length_a 8.241425
_cell_length_b 9.017159
_cell_length_c 11.853528
_cell_angle_alpha 120.551903
_cell_angle_beta 91.266859
_cell_angle_gamma 97.771398
_cell_volume 747.352276
_symmetry_space_group_name_H-M "P -1"
_symmetry_group_IT_number 2
_symmetry_cell_setting 'triclinic'
loop_
_space_group_symop_operation_xyz
x,y,z
-x,-y,-z
loop_
_atom_site_type_symbol
_atom_site_label
_atom_site_fract_x
_atom_site_fract_y
_atom_site_fract_z
Si Si1 0.964788 0.193144 0.084261
Si Si2 0.860022 0.199925 0.839847
Si Si3 0.760764 0.223868 0.312449
Si Si4 0.465506 0.014957 0.321407
Si Si5 0.824909 0.603999 0.404356
Si Si6 0.481310 0.268857 0.627016
Si Si7 0.995566 0.061091 0.394984
Si Si8 0.154127 0.549148 0.257980
O O1 0.834327 0.191302 0.180410
O O2 0.126717 0.337410 0.170213
O O3 0.891695 0.253623 0.990346
O O4 0.000000 0.000000 0.000000
O O5 0.843199 0.374047 0.838734
O O6 0.701725 0.051070 0.771258
O O7 0.000187 0.101534 0.750791
O O8 0.573495 0.127785 0.271001
O O9 0.782669 0.431787 0.414583
O O10 0.832159 0.135943 0.388224
O O11 0.439574 0.137470 0.472301
O O12 0.534424 0.843643 0.301814
O O13 0.663786 0.612291 0.326229
O O14 0.855370 0.773204 0.552718
O O15 0.996542 0.607026 0.340111
O O16 0.666635 0.380750 0.656635
O O17 0.000000 0.000000 0.500000
#
# Coordination Sequence:
#
# PCOD8013433 Si02
#       8
#     2   2   2   2   2   2   2   2
#     4  11  24  44  64  89 131 180 218 259 324 387
#     4  11  22  41  67  92 128 175 216 265 316 379
#     4  11  25  40  61  95 135 170 215 267 324 397
#     4  10  22  39  61  99 131 167 217 268 319 396
#     4  11  22  39  64 100 136 168 203 271 341 384
#     4  10  21  40  67  99 134 165 216 270 330 383
#     4  12  21  38  67  96 126 168 213 268 330 386
#     4  10  23  41  68  99 127 170 227 269 309 390
#
# _framework density 21.408912999999998
#
# number of rings (size 3 to 8) (size 9 to 14) (size 15 to 20)
#    0.000    1.250    3.750    2.250    1.750    3.000 
#    0.000    1.250    0.000    8.250    0.000    0.000 
#    0.000    0.000    0.000    0.000    0.000    0.000 
#
# Total GULP energy -198272.523330 kJ/mol
# GULP energy per Si atom -12392.032708 kJ/mol
# Density = 2.136019 g / cm^3
# Si number density = 21.408913 Si / 1000 Ang^3
#
#
#
# Elastic Constant Matrix: (Units=GPa)
#
#
# Indices 1 2 3 4 5 6 
#
# 1 96.0246 18.0802 4.3131 6.5255 5.8783 9.7500
# 2 18.0802 91.0983 11.4271 14.7171 -10.2797 14.4728
# 3 4.3131 11.4271 58.8781 2.0846 2.1313 5.2423
# 4 6.5255 14.7171 2.0846 41.1860 0.4953 2.9578
# 5 5.8783 -10.2797 2.1313 0.4953 22.3709 1.7654
# 6 9.7500 14.4728 5.2423 2.9578 1.7654 43.7649
#
#
#
# Elastic Compliance Matrix: (Units=1/GPa)
#
#
# Indices 1 2 3 4 5 6 
#
# 1 0.011298 -0.002295 -0.000076 -0.000809 -0.003877 -0.001538
# 2 -0.002295 0.013880 -0.002309 -0.004297 0.007598 -0.003818
# 3 -0.000076 -0.002309 0.017640 0.000064 -0.002626 -0.001231
# 4 -0.000809 -0.004297 0.000064 0.025973 -0.002338 -0.000068
# 5 -0.003877 0.007598 -0.002626 -0.002338 0.049764 -0.003184
# 6 -0.001538 -0.003818 -0.001231 -0.000068 -0.003184 0.024735
#
#
# Mechanical properties :
#
#
# Convention : Reuss Voigt Hill
#
# Bulk Modulus (GPa) = 29.88796 34.84908 32.36852
# Shear Modulus (GPa) = 30.52422 35.60972 33.06697
#
# Velocity S-wave (km/s) = 3.78004 4.08280 3.93433
# Velocity P-wave (km/s) = 5.74825 6.20796 5.98253
#
# Compressibility (1/GPa) = 0.03345829
#
# Stress axis : x y z
#
# Youngs Moduli (GPa) = 88.51104 72.04430 56.68843
#
# Poissons Ratio (x) = 0.16536 0.00432
# Poissons Ratio (y) = 0.20315 0.13088
# Poissons Ratio (z) = 0.00675 0.16633
#
# Static dielectric constant tensor:
#      x y z
#    x 3.947900 -0.065010 0.044350 
#    y -0.065010 4.302970 0.332600 
#    z 0.044350 0.332600 3.900480 
# 
# 
# High freq. dielectric constant tensor:
#      x y z
#    x 1.834050 0.004780 0.011490 
#    y 0.004780 1.860960 0.008330 
#    z 0.011490 0.008330 1.813670 
# 
# From -- ./inp_files/176287.got.cif
#   From: 2010.06.25/outbox.cif.g09.slc.cpg/sg2_89_cif.got.tgz:176287.got - 2010.06.27 13:26:56.
