data_PCOD8013257
_publ_section_title
;
Structure prediction by ZEFSAII (Michael W. Deem and Ramdas Pophale) SiO2 
 PCOD8013257
Probable space group: P -1
;
_chemical_formula_sum "Si O2"
_cell_formula_units_Z 14
_cell_length_a 8.619433
_cell_length_b 4.967931
_cell_length_c 15.004919
_cell_angle_alpha 85.630242
_cell_angle_beta 74.448040
_cell_angle_gamma 97.515823
_cell_volume 609.501630
_symmetry_space_group_name_H-M "P -1"
_symmetry_group_IT_number 2
_symmetry_cell_setting 'triclinic'
loop_
_space_group_symop_operation_xyz
x,y,z
-x,-y,-z
loop_
_atom_site_type_symbol
_atom_site_label
_atom_site_fract_x
_atom_site_fract_y
_atom_site_fract_z
Si Si1 0.953602 0.648764 0.091368
Si Si2 0.880948 0.302463 0.429095
Si Si3 0.807174 0.188291 0.254944
Si Si4 0.901450 0.141228 0.612513
Si Si5 0.526311 0.652194 0.900020
Si Si6 0.852260 0.014334 0.809912
Si Si7 0.352895 0.131597 0.858002
O O1 0.834181 0.454390 0.181294
O O2 0.833719 0.866565 0.076011
O O3 0.118488 0.777682 0.115647
O O4 0.000000 0.500000 0.000000
O O5 0.939034 0.626330 0.414375
O O6 0.761083 0.244761 0.363179
O O7 0.794747 0.200590 0.539828
O O8 0.040252 0.152240 0.399575
O O9 0.976256 0.075538 0.233963
O O10 0.662984 0.967833 0.240309
O O11 0.801165 0.150349 0.721192
O O12 0.718116 0.756029 0.859084
O O13 0.465145 0.428632 0.838823
O O14 0.500000 0.500000 0.000000
O O15 0.569903 0.090308 0.090974
#
# Coordination Sequence:
#
# PCOD8013257 Si02
#       7
#     2   2   2   2   2   2   2
#     4  11  24  41  67  94 125 164 215 267 310 368
#     4   9  17  31  60  93 123 154 191 259 314 374
#     4  10  21  40  66  94 125 157 213 255 320 363
#     4   9  17  33  56  93 127 150 197 254 322 358
#     4  12  28  45  63  87 127 174 219 254 314 371
#     4  10  24  39  65  95 125 166 211 266 305 372
#     4  11  26  46  63  88 126 171 208 262 316 375
#
# _framework density 22.969586
#
# number of rings (size 3 to 8) (size 9 to 14) (size 15 to 20)
#    0.000    1.714    2.857    0.429    6.000    1.143 
#    0.000    2.143    0.000    1.714    0.000    0.000 
#    0.000    0.000    0.000    0.000    0.000    0.000 
#
# Total GULP energy -173467.656674 kJ/mol
# GULP energy per Si atom -12390.546905 kJ/mol
# Density = 2.291731 g / cm^3
# Si number density = 22.969586 Si / 1000 Ang^3
#
#
#
# Elastic Constant Matrix: (Units=GPa)
#
#
# Indices 1 2 3 4 5 6 
#
# 1 35.7790 32.4173 25.2893 8.3355 14.5190 0.5496
# 2 32.4173 138.1964 56.7273 18.0101 9.9650 19.6392
# 3 25.2893 56.7273 171.5852 15.5129 25.0172 19.1232
# 4 8.3355 18.0101 15.5129 41.8762 4.2136 9.7210
# 5 14.5190 9.9650 25.0172 4.2136 16.9701 3.5414
# 6 0.5496 19.6392 19.1232 9.7210 3.5414 45.8439
#
#
#
# Elastic Compliance Matrix: (Units=1/GPa)
#
#
# Indices 1 2 3 4 5 6 
#
# 1 0.055492 -0.010966 0.001314 -0.004233 -0.043540 0.007745
# 2 -0.010966 0.011055 -0.002637 -0.001513 0.007946 -0.003797
# 3 0.001314 -0.002637 0.008400 -0.000773 -0.011488 -0.001339
# 4 -0.004233 -0.001513 -0.000773 0.026740 -0.000020 -0.004648
# 5 -0.043540 0.007946 -0.011488 -0.000020 0.109824 -0.006569
# 6 0.007745 -0.003797 -0.001339 -0.004648 -0.006569 0.025398
#
#
# Mechanical properties :
#
#
# Convention : Reuss Voigt Hill
#
# Bulk Modulus (GPa) = 19.85337 63.82538 41.83937
# Shear Modulus (GPa) = 17.96775 36.34649 27.15712
#
# Velocity S-wave (km/s) = 2.79989 3.98222 3.44220
# Velocity P-wave (km/s) = 4.37203 6.99938 5.83549
#
# Compressibility (1/GPa) = 0.05036929
#
# Stress axis : x y z
#
# Youngs Moduli (GPa) = 18.02076 90.45949 119.04498
#
# Poissons Ratio (x) = 0.99196 -0.15647
# Poissons Ratio (y) = 0.19761 0.31394
# Poissons Ratio (z) = -0.02369 0.23855
#
# Static dielectric constant tensor:
#      x y z
#    x 3.729310 -0.221160 0.531870 
#    y -0.221160 4.316380 0.231780 
#    z 0.531870 0.231780 4.872280 
# 
# 
# High freq. dielectric constant tensor:
#      x y z
#    x 1.853060 -0.020930 0.040110 
#    y -0.020930 1.921450 0.020130 
#    z 0.040110 0.020130 1.915360 
# 
# From -- ./inp_files/30089.got.cif
#   From: 2010.06.25/outbox.cif.g09.slc.cpg/sg2_16_cif.got.tgz:30089.got - 2010.06.27 13:26:56.
