data_PCOD8013232
_publ_section_title
;
Structure prediction by ZEFSAII (Michael W. Deem and Ramdas Pophale) SiO2 
 PCOD8013232
Probable space group: P -1
;
_chemical_formula_sum "Si O2"
_cell_formula_units_Z 16
_cell_length_a 24.887784
_cell_length_b 7.028804
_cell_length_c 14.006711
_cell_angle_alpha 67.798159
_cell_angle_beta 27.947324
_cell_angle_gamma 49.577013
_cell_volume 732.169695
_symmetry_space_group_name_H-M "P -1"
_symmetry_group_IT_number 2
_symmetry_cell_setting 'triclinic'
loop_
_space_group_symop_operation_xyz
x,y,z
-x,-y,-z
loop_
_atom_site_type_symbol
_atom_site_label
_atom_site_fract_x
_atom_site_fract_y
_atom_site_fract_z
Si Si1 0.039348 0.302461 0.560574
Si Si2 0.577123 0.184937 0.912855
Si Si3 0.584922 0.605151 0.363048
Si Si4 0.213217 0.702155 0.066923
Si Si5 0.861053 0.581589 0.271345
Si Si6 0.467526 0.899137 0.214484
Si Si7 0.677017 0.721376 0.365484
Si Si8 0.901783 0.711832 0.880836
O O1 0.000000 0.500000 0.500000
O O2 0.959786 0.192194 0.669085
O O3 0.967307 0.483187 0.738016
O O4 0.233183 0.030032 0.317870
O O5 0.555686 0.174478 0.836960
O O6 0.500000 0.500000 0.000000
O O7 0.494495 0.109343 0.119138
O O8 0.500000 0.500000 0.500000
O O9 0.623976 0.584873 0.418273
O O10 0.482592 0.933903 0.420494
O O11 0.754572 0.370976 0.082478
O O12 0.191593 0.969802 0.077187
O O13 0.368515 0.413188 0.937275
O O14 0.777420 0.522446 0.341299
O O15 0.949622 0.389124 0.265305
O O16 0.700471 0.926848 0.491845
O O17 0.000000 0.500000 0.000000
O O18 0.780002 0.734044 0.130839
#
# Coordination Sequence:
#
# PCOD8013232 Si02
#       8
#     2   2   2   2   2   2   2   2
#     4  12  26  46  67 101 137 177 231 291 355 410
#     4  11  27  48  72  97 136 181 235 289 353 412
#     4  11  21  39  63 100 133 177 225 277 334 415
#     4  12  25  40  71 100 136 179 231 278 350 417
#     4  10  22  43  69  99 140 188 223 281 351 409
#     4  11  24  47  70 101 139 179 231 294 339 419
#     4  10  21  40  66  92 140 181 224 280 341 404
#     4  11  24  43  67  97 141 181 223 289 347 411
#
# _framework density 21.852858999999999
#
# number of rings (size 3 to 8) (size 9 to 14) (size 15 to 20)
#    0.000    1.000    6.250    0.000    3.500    0.500 
#    2.250    1.875    0.000    0.000    0.000    0.000 
#    0.000    0.000    0.000    0.000    0.000    0.000 
#
# Total GULP energy -198221.325207 kJ/mol
# GULP energy per Si atom -12388.832825 kJ/mol
# Density = 2.180312 g / cm^3
# Si number density = 21.852859 Si / 1000 Ang^3
#
#
#
# Elastic Constant Matrix: (Units=GPa)
#
#
# Indices 1 2 3 4 5 6 
#
# 1 120.6616 41.3583 27.5222 2.7773 -28.4031 0.2728
# 2 41.3583 104.6652 32.6556 9.0715 -8.7265 13.6119
# 3 27.5222 32.6556 112.8268 7.9735 -10.3845 9.9623
# 4 2.7773 9.0715 7.9735 28.4330 -3.4148 -3.7096
# 5 -28.4031 -8.7265 -10.3845 -3.4148 31.2695 -3.0574
# 6 0.2728 13.6119 9.9623 -3.7096 -3.0574 25.0077
#
#
#
# Elastic Compliance Matrix: (Units=1/GPa)
#
#
# Indices 1 2 3 4 5 6 
#
# 1 0.012490 -0.004430 -0.001374 0.002401 0.010350 0.004444
# 2 -0.004430 0.013046 -0.001954 -0.004386 -0.002215 -0.007196
# 3 -0.001374 -0.001954 0.010321 -0.002437 0.001049 -0.003266
# 4 0.002401 -0.004386 -0.002437 0.038935 0.005354 0.009762
# 5 0.010350 -0.002215 0.001049 0.005354 0.042346 0.006646
# 6 0.004444 -0.007196 -0.003266 0.009762 0.006646 0.047418
#
#
# Mechanical properties :
#
#
# Convention : Reuss Voigt Hill
#
# Bulk Modulus (GPa) = 49.16105 60.13619 54.64862
# Shear Modulus (GPa) = 26.75913 32.71656 29.73784
#
# Velocity S-wave (km/s) = 3.50310 3.87347 3.69293
# Velocity P-wave (km/s) = 6.23759 6.89808 6.57613
#
# Compressibility (1/GPa) = 0.02034131
#
# Stress axis : x y z
#
# Youngs Moduli (GPa) = 80.06117 76.65371 96.89011
#
# Poissons Ratio (x) = 0.33958 0.13315
# Poissons Ratio (y) = 0.35467 0.18929
# Poissons Ratio (z) = 0.11002 0.14976
#
# Static dielectric constant tensor:
#      x y z
#    x 4.574720 -0.091390 0.103100 
#    y -0.091390 3.649170 -0.088260 
#    z 0.103100 -0.088260 4.304590 
# 
# 
# High freq. dielectric constant tensor:
#      x y z
#    x 1.883660 0.006470 -0.004830 
#    y 0.006470 1.827810 0.003340 
#    z -0.004830 0.003340 1.875180 
# 
# From -- ./inp_files/542142.got.cif
#   From: 2010.06.25/outbox.cif.g09.slc.cpg/sg2_272_cif.got.tgz:542142.got - 2010.06.27 13:26:56.
