data_PCOD8013236
_publ_section_title
;
Structure prediction by ZEFSAII (Michael W. Deem and Ramdas Pophale) SiO2 
 PCOD8013236
Probable space group: P -1
;
_chemical_formula_sum "Si O2"
_cell_formula_units_Z 14
_cell_length_a 20.364054
_cell_length_b 11.763265
_cell_length_c 9.123001
_cell_angle_alpha 41.321054
_cell_angle_beta 147.641338
_cell_angle_gamma 139.128870
_cell_volume 724.992963
_symmetry_space_group_name_H-M "P -1"
_symmetry_group_IT_number 2
_symmetry_cell_setting 'triclinic'
loop_
_space_group_symop_operation_xyz
x,y,z
-x,-y,-z
loop_
_atom_site_type_symbol
_atom_site_label
_atom_site_fract_x
_atom_site_fract_y
_atom_site_fract_z
Si Si1 0.296432 0.592541 0.748398
Si Si2 0.334272 0.216031 0.194630
Si Si3 0.352803 0.930772 0.738554
Si Si4 0.425488 0.793719 0.511026
Si Si5 0.215785 0.868206 0.845640
Si Si6 0.945242 0.592608 0.684993
Si Si7 0.848921 0.881483 0.315568
O O1 0.330642 0.742660 0.793770
O O2 0.385113 0.668912 0.699298
O O3 0.143485 0.550785 0.461010
O O4 0.314695 0.405565 0.021524
O O5 0.476650 0.275439 0.331756
O O6 0.324866 0.087711 0.440680
O O7 0.220719 0.090212 0.993590
O O8 0.258429 0.892554 0.735897
O O9 0.500000 0.000000 0.000000
O O10 0.500000 0.000000 0.500000
O O11 0.299965 0.777184 0.190415
O O12 0.063793 0.742423 0.680509
O O13 0.228507 0.067545 0.745184
O O14 0.844634 0.672587 0.504037
O O15 0.000000 0.500000 0.000000
O O16 0.000000 0.000000 0.500000
#
# Coordination Sequence:
#
# PCOD8013236 Si02
#       7
#     2   2   2   2   2   2   2
#     4  11  24  42  65  94 127 165 218 268 312 379
#     4  11  23  41  64  96 127 168 216 261 319 369
#     4  12  25  43  62  92 140 174 201 257 324 388
#     4  12  19  38  68  92 125 166 214 270 313 361
#     4  11  21  40  63  94 127 169 213 256 323 378
#     4  10  21  40  66  93 120 162 216 272 313 359
#     4   9  20  38  64  91 119 159 218 263 303 371
#
# _framework density 19.310533
#
# number of rings (size 3 to 8) (size 9 to 14) (size 15 to 20)
#    0.000    1.143    5.714    0.429    2.000    1.143 
#    2.571    6.429    0.000    0.000    0.000    0.000 
#    0.000    0.000    0.000    0.000    0.000    0.000 
#
# Total GULP energy -173539.204633 kJ/mol
# GULP energy per Si atom -12395.657474 kJ/mol
# Density = 1.926658 g / cm^3
# Si number density = 19.310533 Si / 1000 Ang^3
#
#
#
# Elastic Constant Matrix: (Units=GPa)
#
#
# Indices 1 2 3 4 5 6 
#
# 1 142.5001 54.3792 56.9488 -8.7549 -10.0693 -9.0678
# 2 54.3792 120.2656 56.0303 7.0585 -6.1093 -12.1954
# 3 56.9488 56.0303 126.8600 1.5506 -0.0703 -12.5076
# 4 -8.7549 7.0585 1.5506 37.0529 6.4418 -0.9827
# 5 -10.0693 -6.1093 -0.0703 6.4418 28.2918 2.3367
# 6 -9.0678 -12.1954 -12.5076 -0.9827 2.3367 28.4312
#
#
#
# Elastic Compliance Matrix: (Units=1/GPa)
#
#
# Indices 1 2 3 4 5 6 
#
# 1 0.009706 -0.002979 -0.003034 0.002620 0.002175 0.000395
# 2 -0.002979 0.011874 -0.003645 -0.003103 0.002014 0.002267
# 3 -0.003034 -0.003645 0.011102 -0.000067 -0.002032 0.002518
# 4 0.002620 -0.003103 -0.000067 0.029360 -0.006507 0.001025
# 5 0.002175 0.002014 -0.002032 -0.006507 0.038255 -0.002705
# 6 0.000395 0.002267 0.002518 0.001025 -0.002705 0.037637
#
#
# Mechanical properties :
#
#
# Convention : Reuss Voigt Hill
#
# Bulk Modulus (GPa) = 74.80116 80.48246 77.64181
# Shear Modulus (GPa) = 30.92059 33.57301 32.24680
#
# Velocity S-wave (km/s) = 4.00588 4.17416 4.09088
# Velocity P-wave (km/s) = 7.75990 8.06225 7.91252
#
# Compressibility (1/GPa) = 0.01336878
#
# Stress axis : x y z
#
# Youngs Moduli (GPa) = 103.02505 84.21626 90.07242
#
# Poissons Ratio (x) = 0.25086 0.27324
# Poissons Ratio (y) = 0.30689 0.32829
# Poissons Ratio (z) = 0.31253 0.30694
#
# Static dielectric constant tensor:
#      x y z
#    x 3.593800 -0.063490 0.321690 
#    y -0.063490 4.129910 0.208590 
#    z 0.321690 0.208590 3.818490 
# 
# 
# High freq. dielectric constant tensor:
#      x y z
#    x 1.735400 -0.005050 0.014600 
#    y -0.005050 1.759920 0.009550 
#    z 0.014600 0.009550 1.767770 
# 
# From -- ./inp_files/179108.got.cif
#   From: 2010.06.25/outbox.cif.g09.slc.cpg/sg2_90_cif.got.tgz:179108.got - 2010.06.27 13:26:56.
