data_PCOD8013812
_publ_section_title
;
Structure prediction by ZEFSAII (Michael W. Deem and Ramdas Pophale) SiO2 
 PCOD8013812
Probable space group: P -1
;
_chemical_formula_sum "Si O2"
_cell_formula_units_Z 16
_cell_length_a 7.378310
_cell_length_b 22.777692
_cell_length_c 7.362122
_cell_angle_alpha 59.234524
_cell_angle_beta 120.798890
_cell_angle_gamma 138.960331
_cell_volume 680.361110
_symmetry_space_group_name_H-M "P -1"
_symmetry_group_IT_number 2
_symmetry_cell_setting 'triclinic'
loop_
_space_group_symop_operation_xyz
x,y,z
-x,-y,-z
loop_
_atom_site_type_symbol
_atom_site_label
_atom_site_fract_x
_atom_site_fract_y
_atom_site_fract_z
Si Si1 0.700303 0.401346 0.972003
Si Si2 0.182818 0.348762 0.980494
Si Si3 0.594123 0.911807 0.877473
Si Si4 0.286120 0.832809 0.193745
Si Si5 0.001845 0.115038 0.836249
Si Si6 0.159225 0.598606 0.345058
Si Si7 0.455631 0.740046 0.604612
Si Si8 0.959652 0.790211 0.627168
O O1 0.674549 0.321983 0.183486
O O2 0.481470 0.407298 0.939666
O O3 0.646163 0.379619 0.763113
O O4 0.000000 0.500000 0.000000
O O5 0.964187 0.255366 0.905924
O O6 0.092458 0.407468 0.850391
O O7 0.175545 0.314575 0.235692
O O8 0.299523 0.863056 0.704150
O O9 0.811661 0.020023 0.775006
O O10 0.556520 0.899042 0.096626
O O11 0.736706 0.869626 0.958561
O O12 0.193198 0.888505 0.113535
O O13 0.369814 0.801591 0.456331
O O14 0.119176 0.199416 0.629112
O O15 0.341308 0.676144 0.467108
O O16 0.000000 0.500000 0.500000
O O17 0.797964 0.805058 0.667410
#
# Coordination Sequence:
#
# PCOD8013812 Si02
#       8
#     2   2   2   2   2   2   2   2
#     4  11  23  42  63  92 130 166 219 272 324 392
#     4   9  24  40  62  92 123 167 216 266 315 398
#     4  10  22  42  61  93 133 162 218 267 321 394
#     4  10  21  41  62  89 127 163 216 265 321 386
#     4  11  22  38  68  93 122 176 210 264 336 380
#     4  11  23  43  66  90 132 169 214 276 331 381
#     4  10  22  44  63  97 128 171 220 272 325 396
#     4  10  21  42  63  88 134 163 212 271 318 386
#
# _framework density 23.516922999999998
#
# number of rings (size 3 to 8) (size 9 to 14) (size 15 to 20)
#    0.000    1.750    2.500    0.750    3.500    1.000 
#    4.500    0.625    0.000    0.000    0.000    0.000 
#    0.000    0.000    0.000    0.000    0.000    0.000 
#
# Total GULP energy -198307.734337 kJ/mol
# GULP energy per Si atom -12394.233396 kJ/mol
# Density = 2.346340 g / cm^3
# Si number density = 23.516923 Si / 1000 Ang^3
#
#
#
# Elastic Constant Matrix: (Units=GPa)
#
#
# Indices 1 2 3 4 5 6 
#
# 1 95.4718 26.6390 21.8640 -8.0968 26.2253 11.4224
# 2 26.6390 58.6417 14.4182 -4.2854 9.8524 13.3754
# 3 21.8640 14.4182 100.7567 -21.0312 14.7883 0.2223
# 4 -8.0968 -4.2854 -21.0312 27.1739 1.0075 3.3549
# 5 26.2253 9.8524 14.7883 1.0075 52.0422 -3.5017
# 6 11.4224 13.3754 0.2223 3.3549 -3.5017 36.0304
#
#
#
# Elastic Compliance Matrix: (Units=1/GPa)
#
#
# Indices 1 2 3 4 5 6 
#
# 1 0.014405 -0.004037 -0.000773 0.003804 -0.006622 -0.004061
# 2 -0.004037 0.021342 -0.001436 0.001997 -0.002109 -0.007025
# 3 -0.000773 -0.001436 0.012773 0.009609 -0.003188 -0.000505
# 4 0.003804 0.001997 0.009609 0.046785 -0.006401 -0.006985
# 5 -0.006622 -0.002109 -0.003188 -0.006401 0.024376 0.005867
# 6 -0.004061 -0.007025 -0.000505 -0.006985 0.005867 0.032873
#
#
# Mechanical properties :
#
#
# Convention : Reuss Voigt Hill
#
# Bulk Modulus (GPa) = 27.75618 42.30139 35.02879
# Shear Modulus (GPa) = 28.23942 35.84589 32.04265
#
# Velocity S-wave (km/s) = 3.46903 3.90841 3.69526
# Velocity P-wave (km/s) = 5.27957 6.19631 5.75622
#
# Compressibility (1/GPa) = 0.03602801
#
# Stress axis : x y z
#
# Youngs Moduli (GPa) = 69.41876 46.85538 78.28993
#
# Poissons Ratio (x) = 0.18915 0.06054
# Poissons Ratio (y) = 0.28023 0.11243
# Poissons Ratio (z) = 0.05368 0.06729
#
# Static dielectric constant tensor:
#      x y z
#    x 4.420090 0.279580 0.156850 
#    y 0.279580 3.911420 -0.206050 
#    z 0.156850 -0.206050 4.748300 
# 
# 
# High freq. dielectric constant tensor:
#      x y z
#    x 1.933250 0.024110 0.014100 
#    y 0.024110 1.908530 -0.015910 
#    z 0.014100 -0.015910 1.941480 
# 
# From -- ./inp_files/142275.got.cif
#   From: 2010.06.25/outbox.cif.g09.slc.cpg/sg2_72_cif.got.tgz:142275.got - 2010.06.27 13:26:56.
