data_PCOD8013087
_publ_section_title
;
Structure prediction by ZEFSAII (Michael W. Deem and Ramdas Pophale) SiO2 
 PCOD8013087
Probable space group: P -1
;
_chemical_formula_sum "Si O2"
_cell_formula_units_Z 16
_cell_length_a 12.165504
_cell_length_b 8.522206
_cell_length_c 12.218718
_cell_angle_alpha 48.465805
_cell_angle_beta 106.833547
_cell_angle_gamma 128.087125
_cell_volume 730.868361
_symmetry_space_group_name_H-M "P -1"
_symmetry_group_IT_number 2
_symmetry_cell_setting 'triclinic'
loop_
_space_group_symop_operation_xyz
x,y,z
-x,-y,-z
loop_
_atom_site_type_symbol
_atom_site_label
_atom_site_fract_x
_atom_site_fract_y
_atom_site_fract_z
Si Si1 0.678242 0.458793 0.049559
Si Si2 0.786027 0.295680 0.336352
Si Si3 0.113414 0.535013 0.308717
Si Si4 0.631671 0.862797 0.910458
Si Si5 0.279266 0.552961 0.535765
Si Si6 0.338469 0.164959 0.829288
Si Si7 0.856640 0.418738 0.942337
Si Si8 0.450817 0.207043 0.620285
O O1 0.766376 0.480993 0.170836
O O2 0.517860 0.187474 0.145149
O O3 0.667272 0.696303 0.926499
O O4 0.759480 0.467578 0.961779
O O5 0.736585 0.288870 0.448555
O O6 0.953290 0.436147 0.326337
O O7 0.695904 0.004294 0.391149
O O8 0.150280 0.415124 0.473534
O O9 0.121399 0.441161 0.233260
O O10 0.231185 0.846206 0.202806
O O11 0.584601 0.728560 0.081125
O O12 0.284736 0.327586 0.691903
O O13 0.420975 0.778170 0.407209
O O14 0.428763 0.134508 0.776961
O O15 0.208488 0.879306 0.958671
O O16 0.000000 0.500000 0.000000
O O17 0.500000 0.500000 0.500000
#
# Coordination Sequence:
#
# PCOD8013087 Si02
#       8
#     2   2   2   2   2   2   2   2
#     4  11  22  41  69  93 135 168 229 270 328 382
#     4  12  22  44  66  92 135 176 216 277 331 394
#     4  11  25  41  66 100 133 173 223 266 337 391
#     4  10  24  41  66 102 127 172 225 278 325 389
#     4  11  24  42  65  94 132 179 216 269 324 398
#     4  10  21  40  65  92 134 166 217 267 330 387
#     4  11  22  41  68  97 132 175 216 274 332 390
#     4  10  22  40  63  93 124 171 220 265 325 390
#
# _framework density 21.891769
#
# number of rings (size 3 to 8) (size 9 to 14) (size 15 to 20)
#    0.000    1.250    3.750    1.500    1.750    2.500 
#    2.250    5.625    0.000    0.000    0.000    0.000 
#    0.000    0.000    0.000    0.000    0.000    0.000 
#
# Total GULP energy -198218.547101 kJ/mol
# GULP energy per Si atom -12388.659194 kJ/mol
# Density = 2.184194 g / cm^3
# Si number density = 21.891769 Si / 1000 Ang^3
#
#
#
# Elastic Constant Matrix: (Units=GPa)
#
#
# Indices 1 2 3 4 5 6 
#
# 1 143.9971 51.5786 28.0102 5.5008 -20.1940 8.2557
# 2 51.5786 77.1273 13.1469 16.6497 -13.9484 2.7765
# 3 28.0102 13.1469 70.5187 24.0921 -7.3957 -3.0224
# 4 5.5008 16.6497 24.0921 31.3681 3.4102 -2.2670
# 5 -20.1940 -13.9484 -7.3957 3.4102 30.3303 11.5023
# 6 8.2557 2.7765 -3.0224 -2.2670 11.5023 42.6724
#
#
#
# Elastic Compliance Matrix: (Units=1/GPa)
#
#
# Indices 1 2 3 4 5 6 
#
# 1 0.010591 -0.006552 -0.004181 0.004255 0.003545 -0.002648
# 2 -0.006552 0.021713 0.004633 -0.015222 0.009692 -0.003238
# 3 -0.004181 0.004633 0.022513 -0.019895 0.007437 -0.000960
# 4 0.004255 -0.015222 -0.019895 0.056920 -0.017927 0.006614
# 5 0.003545 0.009692 0.007437 -0.017927 0.049319 -0.015036
# 6 -0.002648 -0.003238 -0.000960 0.006614 -0.015036 0.028494
#
#
# Mechanical properties :
#
#
# Convention : Reuss Voigt Hill
#
# Bulk Modulus (GPa) = 23.46474 53.01273 38.23874
# Shear Modulus (GPa) = 23.15280 34.13464 28.64372
#
# Velocity S-wave (km/s) = 3.25561 3.95301 3.62114
# Velocity P-wave (km/s) = 4.98736 6.71591 5.91512
#
# Compressibility (1/GPa) = 0.04261713
#
# Stress axis : x y z
#
# Youngs Moduli (GPa) = 94.41802 46.05531 44.41811
#
# Poissons Ratio (x) = 0.30177 0.18569
# Poissons Ratio (y) = 0.61865 -0.20577
# Poissons Ratio (z) = 0.39472 -0.21336
#
# Static dielectric constant tensor:
#      x y z
#    x 4.097250 0.072770 -0.163240 
#    y 0.072770 3.815360 0.052140 
#    z -0.163240 0.052140 4.043730 
# 
# 
# High freq. dielectric constant tensor:
#      x y z
#    x 1.865690 -0.001920 -0.012670 
#    y -0.001920 1.864530 0.013290 
#    z -0.012670 0.013290 1.863910 
# 
# From -- ./inp_files/243706.got.cif
#   From: 2010.06.25/outbox.cif.g09.slc.cpg/sg2_122_cif.got.tgz:243706.got - 2010.06.27 13:26:56.
