data_PCOD8013348
_publ_section_title
;
Structure prediction by ZEFSAII (Michael W. Deem and Ramdas Pophale) SiO2 
 PCOD8013348
Probable space group: P -1
;
_chemical_formula_sum "Si O2"
_cell_formula_units_Z 16
_cell_length_a 7.415884
_cell_length_b 19.239764
_cell_length_c 21.838227
_cell_angle_alpha 159.003933
_cell_angle_beta 143.692775
_cell_angle_gamma 48.508050
_cell_volume 598.867815
_symmetry_space_group_name_H-M "P -1"
_symmetry_group_IT_number 2
_symmetry_cell_setting 'triclinic'
loop_
_space_group_symop_operation_xyz
x,y,z
-x,-y,-z
loop_
_atom_site_type_symbol
_atom_site_label
_atom_site_fract_x
_atom_site_fract_y
_atom_site_fract_z
Si Si1 0.667166 0.543441 0.489937
Si Si2 0.043535 0.307783 0.736358
Si Si3 0.232306 0.716003 0.586151
Si Si4 0.531221 0.107899 0.743480
Si Si5 0.159480 0.256795 0.598811
Si Si6 0.399165 0.785041 0.889831
Si Si7 0.800646 0.252907 0.812626
Si Si8 0.587434 0.818111 0.100549
O O1 0.459591 0.671234 0.560446
O O2 0.782494 0.424705 0.476013
O O3 0.466560 0.364849 0.236141
O O4 0.021983 0.726414 0.713391
O O5 0.250965 0.169306 0.688518
O O6 0.170010 0.406659 0.783236
O O7 0.647418 0.148945 0.504116
O O8 0.135303 0.499838 0.966098
O O9 0.858328 0.641850 0.389527
O O10 0.375435 0.963095 0.850888
O O11 0.813713 0.167106 0.815785
O O12 0.648858 0.222943 0.937273
O O13 0.436590 0.151633 0.593091
O O14 0.784340 0.069168 0.346682
O O15 0.375357 0.712193 0.894906
O O16 0.111954 0.253184 0.859655
#
# Coordination Sequence:
#
# PCOD8013348 Si02
#       8
#     2   2   2   2   2   2   2   2
#     4  10  22  40  67  91 116 164 203 257 324 373
#     4   9  19  34  56  82 115 160 202 248 286 351
#     4  10  21  40  67  91 121 161 207 252 319 376
#     4   9  19  39  54  80 123 158 204 249 295 357
#     4   9  19  36  59  85 125 158 196 253 300 361
#     4  10  22  42  61  92 130 152 202 270 305 370
#     4  11  21  37  62  87 122 171 200 247 303 356
#     4  10  22  38  61  90 125 163 203 251 305 366
#
# _framework density 26.717082999999999
#
# number of rings (size 3 to 8) (size 9 to 14) (size 15 to 20)
#    0.000    2.250    0.000    3.375    1.750    2.500 
#    2.250    5.000   11.000    0.000    0.000    0.000 
#    0.000    0.000    0.000    0.000    0.000    0.000 
#
# Total GULP energy -198212.324810 kJ/mol
# GULP energy per Si atom -12388.270301 kJ/mol
# Density = 2.665627 g / cm^3
# Si number density = 26.717083 Si / 1000 Ang^3
#
#
#
# Elastic Constant Matrix: (Units=GPa)
#
#
# Indices 1 2 3 4 5 6 
#
# 1 75.2725 5.7780 14.7455 0.1296 -21.3708 3.2471
# 2 5.7780 82.0506 2.2824 -14.9360 -4.0855 16.3909
# 3 14.7455 2.2824 71.7268 -13.1868 -23.7483 -1.3834
# 4 0.1296 -14.9360 -13.1868 27.1885 7.7642 -1.2306
# 5 -21.3708 -4.0855 -23.7483 7.7642 33.5154 -3.3292
# 6 3.2471 16.3909 -1.3834 -1.2306 -3.3292 31.7765
#
#
#
# Elastic Compliance Matrix: (Units=1/GPa)
#
#
# Indices 1 2 3 4 5 6 
#
# 1 0.016639 -0.001374 -0.000489 -0.004235 0.011075 -0.000016
# 2 -0.001374 0.015309 0.000888 0.008843 -0.001175 -0.007498
# 3 -0.000489 0.000888 0.019258 0.006451 0.012142 0.001952
# 4 -0.004235 0.008843 0.006451 0.047006 -0.008228 -0.002889
# 5 0.011075 -0.001175 0.012142 -0.008228 0.047730 0.004685
# 6 -0.000016 -0.007498 0.001952 -0.002889 0.004685 0.035803
#
#
# Mechanical properties :
#
#
# Convention : Reuss Voigt Hill
#
# Bulk Modulus (GPa) = 20.30277 30.51796 25.41036
# Shear Modulus (GPa) = 24.98576 32.24567 28.61571
#
# Velocity S-wave (km/s) = 3.06142 3.47786 3.27626
# Velocity P-wave (km/s) = 4.48465 5.25117 4.88297
#
# Compressibility (1/GPa) = 0.04925436
#
# Stress axis : x y z
#
# Youngs Moduli (GPa) = 60.10102 65.32190 51.92702
#
# Poissons Ratio (x) = 0.08977 0.02538
# Poissons Ratio (y) = 0.08259 -0.04609
# Poissons Ratio (z) = 0.02938 -0.05798
#
# Static dielectric constant tensor:
#      x y z
#    x 4.982560 0.359450 -0.193350 
#    y 0.359450 4.613860 -0.032490 
#    z -0.193350 -0.032490 4.963440 
# 
# 
# High freq. dielectric constant tensor:
#      x y z
#    x 2.064100 0.018160 -0.017660 
#    y 0.018160 2.047230 0.012100 
#    z -0.017660 0.012100 2.090170 
# 
# From -- ./inp_files/608682.got.cif
#   From: 2010.06.25/outbox.cif.g09.slc.cpg/sg2_305_cif.got.tgz:608682.got - 2010.06.27 13:26:56.
