data_PCOD8013217
_publ_section_title
;
Structure prediction by ZEFSAII (Michael W. Deem and Ramdas Pophale) SiO2 
 PCOD8013217
Probable space group: P -1
;
_chemical_formula_sum "Si O2"
_cell_formula_units_Z 16
_cell_length_a 11.987923
_cell_length_b 9.624843
_cell_length_c 10.122132
_cell_angle_alpha 119.617489
_cell_angle_beta 108.891491
_cell_angle_gamma 108.226006
_cell_volume 786.075739
_symmetry_space_group_name_H-M "P -1"
_symmetry_group_IT_number 2
_symmetry_cell_setting 'triclinic'
loop_
_space_group_symop_operation_xyz
x,y,z
-x,-y,-z
loop_
_atom_site_type_symbol
_atom_site_label
_atom_site_fract_x
_atom_site_fract_y
_atom_site_fract_z
Si Si1 0.874014 0.770051 0.698911
Si Si2 0.882634 0.411815 0.526756
Si Si3 0.972036 0.598461 0.153217
Si Si4 0.798580 0.881925 0.972397
Si Si5 0.603893 0.761415 0.221252
Si Si6 0.889252 0.978516 0.557234
Si Si7 0.630281 0.005502 0.113580
Si Si8 0.693328 0.548386 0.987316
O O1 0.831604 0.552648 0.600582
O O2 0.841080 0.797855 0.550033
O O3 0.778224 0.800423 0.777796
O O4 0.041754 0.927942 0.860300
O O5 0.745931 0.204906 0.327925
O O6 0.000000 0.500000 0.500000
O O7 0.955509 0.399025 0.681171
O O8 0.799396 0.488242 0.046096
O O9 0.034127 0.819762 0.238429
O O10 0.000000 0.500000 0.000000
O O11 0.765262 0.710168 0.977165
O O12 0.698463 0.956445 0.996756
O O13 0.656763 0.624565 0.138282
O O14 0.743975 0.946342 0.430317
O O15 0.561950 0.830465 0.109504
O O16 0.462444 0.646531 0.207902
O O17 0.000000 0.000000 0.500000
O O18 0.500000 0.000000 0.000000
#
# Coordination Sequence:
#
# PCOD8013217 Si02
#       8
#     2   2   2   2   2   2   2   2
#     4  11  23  38  69  95 131 173 218 269 336 385
#     4  12  25  40  66 103 131 167 224 277 323 389
#     4  12  25  41  67  98 135 169 220 279 333 381
#     4  10  21  42  63  96 130 173 218 271 327 403
#     4  10  22  39  66  95 123 173 222 265 322 389
#     4  12  21  43  68  95 127 174 229 269 313 402
#     4  11  24  43  65  96 135 171 217 277 334 389
#     4  10  21  40  66  91 128 168 219 269 323 390
#
# _framework density 20.354271000000001
#
# number of rings (size 3 to 8) (size 9 to 14) (size 15 to 20)
#    0.000    1.000    5.000    2.250    3.500    2.000 
#    0.000    4.375    0.000    0.000    0.000    0.000 
#    0.000    0.000    0.000    0.000    0.000    0.000 
#
# Total GULP energy -198343.545767 kJ/mol
# GULP energy per Si atom -12396.471610 kJ/mol
# Density = 2.030794 g / cm^3
# Si number density = 20.354271 Si / 1000 Ang^3
#
#
#
# Elastic Constant Matrix: (Units=GPa)
#
#
# Indices 1 2 3 4 5 6 
#
# 1 151.3273 56.5987 79.7282 0.1816 2.7128 -14.8123
# 2 56.5987 90.3299 41.9735 0.5907 -3.5285 -11.3275
# 3 79.7282 41.9735 108.2265 -2.4250 2.3193 -2.3648
# 4 0.1816 0.5907 -2.4250 37.3597 -3.0816 6.5866
# 5 2.7128 -3.5285 2.3193 -3.0816 38.7658 -0.6508
# 6 -14.8123 -11.3275 -2.3648 6.5866 -0.6508 26.4074
#
#
#
# Elastic Compliance Matrix: (Units=1/GPa)
#
#
# Indices 1 2 3 4 5 6 
#
# 1 0.012579 -0.003655 -0.007753 -0.001478 -0.000780 0.005143
# 2 -0.003655 0.015559 -0.003305 -0.001109 0.001860 0.004651
# 3 -0.007753 -0.003305 0.016186 0.001936 -0.000654 -0.004816
# 4 -0.001478 -0.001109 0.001936 0.028529 0.002017 -0.008197
# 5 -0.000780 0.001860 -0.000654 0.002017 0.026227 0.000445
# 6 0.005143 0.004651 -0.004816 -0.008197 0.000445 0.044372
#
#
# Mechanical properties :
#
#
# Convention : Reuss Voigt Hill
#
# Bulk Modulus (GPa) = 67.12485 78.49828 72.81157
# Shear Modulus (GPa) = 28.11439 31.94548 30.02993
#
# Velocity S-wave (km/s) = 3.72055 3.96596 3.84521
# Velocity P-wave (km/s) = 7.17681 7.72149 7.45413
#
# Compressibility (1/GPa) = 0.01489761
#
# Stress axis : x y z
#
# Youngs Moduli (GPa) = 79.49505 64.26950 61.78337
#
# Poissons Ratio (x) = 0.23491 0.47903
# Poissons Ratio (y) = 0.29056 0.20419
# Poissons Ratio (z) = 0.61636 0.21241
#
# Static dielectric constant tensor:
#      x y z
#    x 4.518430 -1.179050 1.586810 
#    y -1.179050 6.038340 -2.514630 
#    z 1.586810 -2.514630 7.476000 
# 
# 
# High freq. dielectric constant tensor:
#      x y z
#    x 1.793620 -0.002320 0.004510 
#    y -0.002320 1.802560 0.005730 
#    z 0.004510 0.005730 1.786480 
# 
# From -- ./inp_files/245137.got.cif
#   From: 2010.06.25/outbox.cif.g09.slc.cpg/sg2_123_cif.got.tgz:245137.got - 2010.06.27 13:26:56.
