data_PCOD8013142
_publ_section_title
;
Structure prediction by ZEFSAII (Michael W. Deem and Ramdas Pophale) SiO2 
 PCOD8013142
Probable space group: P -1
;
_chemical_formula_sum "Si O2"
_cell_formula_units_Z 16
_cell_length_a 13.820123
_cell_length_b 23.064734
_cell_length_c 25.574371
_cell_angle_alpha 169.807768
_cell_angle_beta 151.416615
_cell_angle_gamma 29.732400
_cell_volume 689.346404
_symmetry_space_group_name_H-M "P -1"
_symmetry_group_IT_number 2
_symmetry_cell_setting 'triclinic'
loop_
_space_group_symop_operation_xyz
x,y,z
-x,-y,-z
loop_
_atom_site_type_symbol
_atom_site_label
_atom_site_fract_x
_atom_site_fract_y
_atom_site_fract_z
Si Si1 0.624506 0.739226 0.662311
Si Si2 0.306909 0.922562 0.305593
Si Si3 0.076773 0.628160 0.204503
Si Si4 0.755231 0.573054 0.082614
Si Si5 0.450519 0.506951 0.697659
Si Si6 0.683293 0.535825 0.659708
Si Si7 0.881654 0.216601 0.382671
Si Si8 0.487583 0.830152 0.469487
O O1 0.660724 0.698683 0.581618
O O2 0.401233 0.605096 0.451193
O O3 0.801679 0.539100 0.599461
O O4 0.629558 0.120045 0.016468
O O5 0.500000 0.000000 0.500000
O O6 0.368020 0.918650 0.269551
O O7 0.234604 0.576742 0.986784
O O8 0.119513 0.182352 0.454073
O O9 0.311509 0.539082 0.240642
O O10 0.969391 0.481008 0.074607
O O11 0.000000 0.000000 0.500000
O O12 0.000000 0.500000 0.000000
O O13 0.701003 0.961694 0.408575
O O14 0.581978 0.430450 0.837177
O O15 0.392508 0.368689 0.604374
O O16 0.500000 0.500000 0.500000
O O17 0.860975 0.299187 0.508456
O O18 0.753622 0.905887 0.028844
#
# Coordination Sequence:
#
# PCOD8013142 Si02
#       8
#     2   2   2   2   2   2   2   2
#     4  11  23  39  64  97 133 171 217 259 334 404
#     4  10  26  46  70  97 128 176 233 280 328 384
#     4  12  22  39  61  96 134 168 211 266 333 398
#     4  11  22  41  65  92 128 169 216 266 340 386
#     4  12  23  39  63  95 134 175 209 268 327 398
#     4  10  21  40  65  95 135 171 212 269 333 391
#     4  11  23  44  67  97 135 175 219 280 329 390
#     4  11  23  44  62  89 131 170 218 277 316 381
#
# _framework density 23.210391999999999
#
# number of rings (size 3 to 8) (size 9 to 14) (size 15 to 20)
#    0.000    1.000    2.500    5.625    3.500    4.000 
#    0.000    1.250    0.000    0.000    0.000    0.000 
#    0.000    0.000    0.000    0.000    0.000    0.000 
#
# Total GULP energy -198305.397458 kJ/mol
# GULP energy per Si atom -12394.087341 kJ/mol
# Density = 2.315756 g / cm^3
# Si number density = 23.210392 Si / 1000 Ang^3
#
#
#
# Elastic Constant Matrix: (Units=GPa)
#
#
# Indices 1 2 3 4 5 6 
#
# 1 125.8519 33.1845 27.3175 8.6584 6.7350 7.7229
# 2 33.1845 94.1157 27.8012 18.5106 -3.2000 -9.4387
# 3 27.3175 27.8012 102.6275 17.6387 -19.9240 3.1562
# 4 8.6584 18.5106 17.6387 28.4856 -0.6921 -1.7585
# 5 6.7350 -3.2000 -19.9240 -0.6921 42.5727 8.0397
# 6 7.7229 -9.4387 3.1562 -1.7585 8.0397 35.3611
#
#
#
# Elastic Compliance Matrix: (Units=1/GPa)
#
#
# Indices 1 2 3 4 5 6 
#
# 1 0.009446 -0.003047 -0.002108 0.000225 -0.002300 -0.002154
# 2 -0.003047 0.014040 -0.002047 -0.006670 -0.000350 0.004343
# 3 -0.002108 -0.002047 0.013398 -0.006352 0.006946 -0.003177
# 4 0.000225 -0.006670 -0.006352 0.043328 -0.003107 0.001599
# 5 -0.002300 -0.000350 0.006946 -0.003107 0.028312 -0.006803
# 6 -0.002154 0.004343 -0.003177 0.001599 -0.006803 0.031819
#
#
# Mechanical properties :
#
#
# Convention : Reuss Voigt Hill
#
# Bulk Modulus (GPa) = 44.48385 55.46683 49.97534
# Shear Modulus (GPa) = 30.81848 36.90334 33.86091
#
# Velocity S-wave (km/s) = 3.64784 3.99174 3.82366
# Velocity P-wave (km/s) = 6.07860 6.72270 6.40874
#
# Compressibility (1/GPa) = 0.02248007
#
# Stress axis : x y z
#
# Youngs Moduli (GPa) = 105.85938 71.22640 74.63921
#
# Poissons Ratio (x) = 0.21699 0.15734
# Poissons Ratio (y) = 0.32250 0.15282
# Poissons Ratio (z) = 0.22315 0.14583
#
# Static dielectric constant tensor:
#      x y z
#    x 2.458260 -0.878000 -0.115050 
#    y -0.878000 3.668060 0.099430 
#    z -0.115050 0.099430 4.130660 
# 
# 
# High freq. dielectric constant tensor:
#      x y z
#    x 1.935440 0.012040 -0.010290 
#    y 0.012040 1.899040 0.015380 
#    z -0.010290 0.015380 1.912090 
# 
# From -- ./inp_files/619924.got.cif
#   From: 2010.06.25/outbox.cif.g09.slc.cpg/sg2_310_cif.got.tgz:619924.got - 2010.06.27 13:26:56.
