data_PCOD8013988
_publ_section_title
;
Structure prediction by ZEFSAII (Michael W. Deem and Ramdas Pophale) SiO2 
 PCOD8013988
Probable space group: P -1
;
_chemical_formula_sum "Si O2"
_cell_formula_units_Z 16
_cell_length_a 23.187583
_cell_length_b 9.357349
_cell_length_c 16.438107
_cell_angle_alpha 63.480930
_cell_angle_beta 17.761695
_cell_angle_gamma 54.290845
_cell_volume 792.721775
_symmetry_space_group_name_H-M "P -1"
_symmetry_group_IT_number 2
_symmetry_cell_setting 'triclinic'
loop_
_space_group_symop_operation_xyz
x,y,z
-x,-y,-z
loop_
_atom_site_type_symbol
_atom_site_label
_atom_site_fract_x
_atom_site_fract_y
_atom_site_fract_z
Si Si1 0.612402 0.593487 0.280738
Si Si2 0.892910 0.174965 0.743211
Si Si3 0.898335 0.538403 0.390814
Si Si4 0.400277 0.078774 0.701817
Si Si5 0.557502 0.572654 0.173944
Si Si6 0.434352 0.898790 0.865780
Si Si7 0.101628 0.758805 0.639698
Si Si8 0.837841 0.722118 0.756836
O O1 0.500000 0.500000 0.500000
O O2 0.515341 0.793198 0.409223
O O3 0.520800 0.631246 0.302512
O O4 0.894108 0.468868 0.932979
O O5 0.061301 0.219984 0.464199
O O6 0.734043 0.337980 0.983515
O O7 0.727405 0.179931 0.894390
O O8 0.056542 0.959955 0.617334
O O9 0.670423 0.759768 0.633863
O O10 0.835306 0.393753 0.478469
O O11 0.964087 0.479526 0.411967
O O12 0.500000 0.000000 0.500000
O O13 0.478840 0.909949 0.706900
O O14 0.126023 0.201691 0.022654
O O15 0.307498 0.655399 0.453578
O O16 0.662222 0.680378 0.962563
O O17 0.293747 0.114648 0.037576
#
# Coordination Sequence:
#
# PCOD8013988 Si02
#       8
#     2   2   2   2   2   2   2   2
#     4  10  23  42  64  91 126 157 200 256 306 364
#     4  11  23  38  67  90 122 170 204 250 307 360
#     4  10  21  41  64  89 124 164 204 253 304 360
#     4  10  22  43  65  91 122 159 205 251 302 369
#     4  11  23  42  60  92 130 158 202 255 307 361
#     4  11  21  40  65  91 122 164 206 252 302 359
#     4  10  22  40  63  91 125 160 210 249 298 371
#     4  11  23  42  60  93 130 155 210 261 297 359
#
# _framework density 20.183627000000001
#
# number of rings (size 3 to 8) (size 9 to 14) (size 15 to 20)
#    0.000    1.500    6.250    0.750    3.500    5.000 
#    0.000    3.750    0.000    0.000    0.000    0.000 
#    0.000    0.000    0.000    0.000    0.000    0.000 
#
# Total GULP energy -198338.592238 kJ/mol
# GULP energy per Si atom -12396.162015 kJ/mol
# Density = 2.013769 g / cm^3
# Si number density = 20.183627 Si / 1000 Ang^3
#
#
#
# Elastic Constant Matrix: (Units=GPa)
#
#
# Indices 1 2 3 4 5 6 
#
# 1 90.0740 35.4995 45.3900 5.4043 -6.5141 4.4226
# 2 35.4995 101.0604 46.4134 -13.5044 -5.4598 0.7063
# 3 45.3900 46.4134 74.7392 -4.8652 -10.4610 -10.5468
# 4 5.4043 -13.5044 -4.8652 39.1783 0.9201 -4.7809
# 5 -6.5141 -5.4598 -10.4610 0.9201 32.6355 -3.2072
# 6 4.4226 0.7063 -10.5468 -4.7809 -3.2072 31.2516
#
#
#
# Elastic Compliance Matrix: (Units=1/GPa)
#
#
# Indices 1 2 3 4 5 6 
#
# 1 0.018211 -0.001887 -0.011399 -0.005449 -0.000899 -0.007307
# 2 -0.001887 0.014875 -0.008277 0.004097 -0.000885 -0.002327
# 3 -0.011399 -0.008277 0.028378 0.003627 0.006573 0.012607
# 4 -0.005449 0.004097 0.003627 0.028904 0.000573 0.006383
# 5 -0.000899 -0.000885 0.006573 0.000573 0.032978 0.005838
# 6 -0.007307 -0.002327 0.012607 0.006383 0.005838 0.038915
#
#
# Mechanical properties :
#
#
# Convention : Reuss Voigt Hill
#
# Bulk Modulus (GPa) = 54.53514 57.83104 56.18309
# Shear Modulus (GPa) = 23.64055 29.85113 26.74584
#
# Velocity S-wave (km/s) = 3.42610 3.84992 3.64418
# Velocity P-wave (km/s) = 6.53675 6.96255 6.75301
#
# Compressibility (1/GPa) = 0.01833680
#
# Stress axis : x y z
#
# Youngs Moduli (GPa) = 54.91240 67.22615 35.23850
#
# Poissons Ratio (x) = 0.12687 0.40170
# Poissons Ratio (y) = 0.10363 0.29167
# Poissons Ratio (z) = 0.62597 0.55643
#
# Static dielectric constant tensor:
#      x y z
#    x 3.532090 0.229940 -0.133750 
#    y 0.229940 3.822910 -0.122220 
#    z -0.133750 -0.122220 3.699920 
# 
# 
# High freq. dielectric constant tensor:
#      x y z
#    x 1.780140 0.018590 -0.008770 
#    y 0.018590 1.796330 -0.009070 
#    z -0.008770 -0.009070 1.782730 
# 
# From -- ./inp_files/201288.got.cif
#   From: 2010.06.25/outbox.cif.g09.slc.cpg/sg2_101_cif.got.tgz:201288.got - 2010.06.27 13:26:56.
