data_PCOD8013128
_publ_section_title
;
Structure prediction by ZEFSAII (Michael W. Deem and Ramdas Pophale) SiO2 
 PCOD8013128
Probable space group: P -1
;
_chemical_formula_sum "Si O2"
_cell_formula_units_Z 16
_cell_length_a 12.589884
_cell_length_b 18.439485
_cell_length_c 9.226248
_cell_angle_alpha 94.545381
_cell_angle_beta 125.460917
_cell_angle_gamma 39.923846
_cell_volume 800.082724
_symmetry_space_group_name_H-M "P -1"
_symmetry_group_IT_number 2
_symmetry_cell_setting 'triclinic'
loop_
_space_group_symop_operation_xyz
x,y,z
-x,-y,-z
loop_
_atom_site_type_symbol
_atom_site_label
_atom_site_fract_x
_atom_site_fract_y
_atom_site_fract_z
Si Si1 0.175056 0.713039 0.135999
Si Si2 0.855069 0.624533 0.206714
Si Si3 0.775199 0.062617 0.251020
Si Si4 0.827281 0.395236 0.625231
Si Si5 0.209712 0.311400 0.498653
Si Si6 0.214708 0.149561 0.389680
Si Si7 0.842091 0.020401 0.974554
Si Si8 0.226625 0.103554 0.717929
O O1 0.502880 0.570887 0.354535
O O2 0.136630 0.662788 0.201961
O O3 0.043663 0.761931 0.882349
O O4 0.015099 0.860370 0.102312
O O5 0.829481 0.668100 0.356198
O O6 0.012723 0.607100 0.232910
O O7 0.026119 0.465215 0.304275
O O8 0.543276 0.764179 0.916635
O O9 0.838779 0.946160 0.297514
O O10 0.000000 0.000000 0.500000
O O11 0.799482 0.076005 0.106953
O O12 0.954797 0.284701 0.577989
O O13 0.111530 0.283162 0.353046
O O14 0.535365 0.158291 0.684507
O O15 0.273952 0.082934 0.580365
O O16 0.500000 0.000000 0.500000
O O17 0.000000 0.000000 0.000000
O O18 0.500000 0.000000 0.000000
#
# Coordination Sequence:
#
# PCOD8013128 Si02
#       8
#     2   2   2   2   2   2   2   2
#     4  11  25  40  65 100 131 168 223 277 325 395
#     4  10  21  42  67  91 129 174 218 266 333 396
#     4  11  25  40  66 100 128 171 227 271 325 399
#     4  11  22  44  67  92 128 182 220 263 336 398
#     4  10  21  40  65  95 125 171 216 268 328 394
#     4  12  24  40  68 102 130 163 226 278 321 393
#     4  11  22  42  63  88 135 172 208 266 341 393
#     4  12  22  44  72  91 132 183 221 266 333 402
#
# _framework density 19.997931999999999
#
# number of rings (size 3 to 8) (size 9 to 14) (size 15 to 20)
#    0.000    1.000    5.000    2.250    1.750    1.500 
#    0.000    0.625    0.000    0.000    0.000    0.000 
#    0.000    0.000    0.000    0.000    0.000    0.000 
#
# Total GULP energy -198467.467486 kJ/mol
# GULP energy per Si atom -12404.216718 kJ/mol
# Density = 1.995242 g / cm^3
# Si number density = 19.997932 Si / 1000 Ang^3
#
#
#
# Elastic Constant Matrix: (Units=GPa)
#
#
# Indices 1 2 3 4 5 6 
#
# 1 124.8037 24.9837 49.1442 -3.6792 11.1728 2.5466
# 2 24.9837 90.8767 42.2452 -22.4197 7.2597 7.8526
# 3 49.1442 42.2452 146.5647 -9.9123 16.4089 -0.5146
# 4 -3.6792 -22.4197 -9.9123 41.4452 -3.2885 -1.6644
# 5 11.1728 7.2597 16.4089 -3.2885 34.0855 3.1506
# 6 2.5466 7.8526 -0.5146 -1.6644 3.1506 38.8355
#
#
#
# Elastic Compliance Matrix: (Units=1/GPa)
#
#
# Indices 1 2 3 4 5 6 
#
# 1 0.009457 -0.001391 -0.002641 -0.000680 -0.001572 -0.000276
# 2 -0.001391 0.014920 -0.003347 0.007025 -0.000187 -0.002654
# 3 -0.002641 -0.003347 0.008994 -0.000074 -0.002869 0.001199
# 4 -0.000680 0.007025 -0.000074 0.027957 0.001487 -0.000299
# 5 -0.001572 -0.000187 -0.002869 0.001487 0.031640 -0.002400
# 6 -0.000276 -0.002654 0.001199 -0.000299 -0.002400 0.026502
#
#
# Mechanical properties :
#
#
# Convention : Reuss Voigt Hill
#
# Bulk Modulus (GPa) = 53.72710 66.11016 59.91863
# Shear Modulus (GPa) = 35.60452 39.26471 37.43461
#
# Velocity S-wave (km/s) = 4.22407 4.43588 4.33127
# Velocity P-wave (km/s) = 7.12145 7.70495 7.41894
#
# Compressibility (1/GPa) = 0.01861258
#
# Stress axis : x y z
#
# Youngs Moduli (GPa) = 105.73808 67.02532 111.18787
#
# Poissons Ratio (x) = 0.09320 0.29367
# Poissons Ratio (y) = 0.14704 0.37218
# Poissons Ratio (z) = 0.27928 0.22436
#
# Static dielectric constant tensor:
#      x y z
#    x 3.813090 -0.005530 -0.093210 
#    y -0.005530 3.690790 -0.195160 
#    z -0.093210 -0.195160 3.755360 
# 
# 
# High freq. dielectric constant tensor:
#      x y z
#    x 1.790420 0.003620 0.003890 
#    y 0.003620 1.783860 -0.014850 
#    z 0.003890 -0.014850 1.775470 
# 
# From -- ./inp_files/261695.got.cif
#   From: 2010.06.25/outbox.cif.g09.slc.cpg/sg2_131_cif.got.tgz:261695.got - 2010.06.27 13:26:56.
