data_PCOD8013523
_publ_section_title
;
Structure prediction by ZEFSAII (Michael W. Deem and Ramdas Pophale) SiO2 
 PCOD8013523
Probable space group: P -1
;
_chemical_formula_sum "Si O2"
_cell_formula_units_Z 14
_cell_length_a 9.399133
_cell_length_b 8.480791
_cell_length_c 17.883406
_cell_angle_alpha 64.802595
_cell_angle_beta 49.511797
_cell_angle_gamma 105.257403
_cell_volume 608.865504
_symmetry_space_group_name_H-M "P -1"
_symmetry_group_IT_number 2
_symmetry_cell_setting 'triclinic'
loop_
_space_group_symop_operation_xyz
x,y,z
-x,-y,-z
loop_
_atom_site_type_symbol
_atom_site_label
_atom_site_fract_x
_atom_site_fract_y
_atom_site_fract_z
Si Si1 0.925977 0.246967 0.085809
Si Si2 0.247411 0.835606 0.255334
Si Si3 0.349640 0.918460 0.418058
Si Si4 0.766863 0.518938 0.600843
Si Si5 0.295213 0.480982 0.775335
Si Si6 0.009156 0.462465 0.744266
Si Si7 0.672628 0.456383 0.974543
O O1 0.099932 0.308499 0.087717
O O2 0.051401 0.241858 0.969749
O O3 0.566008 0.960533 0.280410
O O4 0.000000 0.500000 0.000000
O O5 0.403777 0.775938 0.248055
O O6 0.908901 0.592616 0.454935
O O7 0.219028 0.799364 0.182718
O O8 0.441951 0.144814 0.150387
O O9 0.278635 0.751201 0.548890
O O10 0.048822 0.764617 0.510406
O O11 0.535796 0.221314 0.318637
O O12 0.534954 0.505208 0.677018
O O13 0.125584 0.395456 0.772782
O O14 0.843393 0.494254 0.839471
O O15 0.500000 0.500000 0.000000
#
# Coordination Sequence:
#
# PCOD8013523 Si02
#       7
#     2   2   2   2   2   2   2
#     4  10  21  41  65  99 136 169 217 281 329 380
#     4  10  24  46  63  97 139 174 222 273 333 397
#     4  10  21  40  68  97 139 171 222 276 329 392
#     4  10  23  41  73  93 131 183 219 274 331 394
#     4  11  22  39  69 105 130 174 227 269 333 394
#     4  11  24  42  67  99 139 176 212 283 335 385
#     4  12  26  42  71  98 133 178 225 273 332 398
#
# _framework density 22.993583999999998
#
# number of rings (size 3 to 8) (size 9 to 14) (size 15 to 20)
#    0.000    1.429    2.857    3.000    6.000    0.571 
#    0.000    5.000    0.000    0.000    0.000    0.000 
#    0.000    0.000    0.000    0.000    0.000    0.000 
#
# Total GULP energy -173568.611302 kJ/mol
# GULP energy per Si atom -12397.757950 kJ/mol
# Density = 2.294125 g / cm^3
# Si number density = 22.993584 Si / 1000 Ang^3
#
#
#
# Elastic Constant Matrix: (Units=GPa)
#
#
# Indices 1 2 3 4 5 6 
#
# 1 153.0579 51.8672 54.2318 29.9020 -7.8266 7.6152
# 2 51.8672 57.3722 28.1773 16.3536 4.7973 8.2793
# 3 54.2318 28.1773 126.9264 22.4073 7.7286 -11.2910
# 4 29.9020 16.3536 22.4073 47.3874 -1.2885 3.9819
# 5 -7.8266 4.7973 7.7286 -1.2885 31.9700 10.3851
# 6 7.6152 8.2793 -11.2910 3.9819 10.3851 35.1981
#
#
#
# Elastic Compliance Matrix: (Units=1/GPa)
#
#
# Indices 1 2 3 4 5 6 
#
# 1 0.011289 -0.007960 -0.003232 -0.002445 0.005611 -0.002986
# 2 -0.007960 0.027555 -0.002209 -0.003244 -0.004450 -0.003788
# 3 -0.003232 -0.002209 0.011269 -0.003252 -0.005535 0.006835
# 4 -0.002445 -0.003244 -0.003252 0.025674 0.002844 -0.003495
# 5 0.005611 -0.004450 -0.005535 0.002844 0.039273 -0.013852
# 6 -0.002986 -0.003788 0.006835 -0.003495 -0.013852 0.036623
#
#
# Mechanical properties :
#
#
# Convention : Reuss Voigt Hill
#
# Bulk Modulus (GPa) = 42.89934 67.32323 55.11128
# Shear Modulus (GPa) = 26.84487 36.44978 31.64733
#
# Velocity S-wave (km/s) = 3.42057 3.98580 3.71395
# Velocity P-wave (km/s) = 5.85645 7.10808 6.51240
#
# Compressibility (1/GPa) = 0.02331038
#
# Stress axis : x y z
#
# Youngs Moduli (GPa) = 88.58012 36.29120 88.73832
#
# Poissons Ratio (x) = 0.28888 0.28681
# Poissons Ratio (y) = 0.70510 0.19605
# Poissons Ratio (z) = 0.28630 0.08018
#
# Static dielectric constant tensor:
#      x y z
#    x 3.977410 -0.095610 -0.095610 
#    y -0.095610 3.605670 -0.063180 
#    z -0.095610 -0.063180 4.494550 
# 
# 
# High freq. dielectric constant tensor:
#      x y z
#    x 1.910270 0.021250 0.002510 
#    y 0.021250 1.903370 0.002270 
#    z 0.002510 0.002270 1.923920 
# 
# From -- ./inp_files/190621.got.cif
#   From: 2010.06.25/outbox.cif.g09.slc.cpg/sg2_96_cif.got.tgz:190621.got - 2010.06.27 13:26:56.
