data_PCOD8013199
_publ_section_title
;
Structure prediction by ZEFSAII (Michael W. Deem and Ramdas Pophale) SiO2 
 PCOD8013199
Probable space group: P -1
;
_chemical_formula_sum "Si O2"
_cell_formula_units_Z 16
_cell_length_a 10.896410
_cell_length_b 7.734832
_cell_length_c 8.814898
_cell_angle_alpha 76.749402
_cell_angle_beta 85.336317
_cell_angle_gamma 67.976111
_cell_volume 670.377662
_symmetry_space_group_name_H-M "P -1"
_symmetry_group_IT_number 2
_symmetry_cell_setting 'triclinic'
loop_
_space_group_symop_operation_xyz
x,y,z
-x,-y,-z
loop_
_atom_site_type_symbol
_atom_site_label
_atom_site_fract_x
_atom_site_fract_y
_atom_site_fract_z
Si Si1 0.762337 0.834215 0.693133
Si Si2 0.498283 0.705586 0.128869
Si Si3 0.967369 0.192820 0.804401
Si Si4 0.004354 0.225916 0.119895
Si Si5 0.223137 0.191678 0.639004
Si Si6 0.525415 0.073609 0.192435
Si Si7 0.272654 0.733052 0.369969
Si Si8 0.250098 0.549345 0.715014
O O1 0.800884 0.735813 0.545795
O O2 0.620983 0.823304 0.747047
O O3 0.874694 0.723818 0.829037
O O4 0.761805 0.046190 0.635185
O O5 0.393412 0.660863 0.254074
O O6 0.631732 0.517062 0.159334
O O7 0.533347 0.883871 0.143779
O O8 0.446643 0.767943 0.949484
O O9 0.846997 0.317159 0.683069
O O10 0.104688 0.129415 0.715350
O O11 0.967408 0.311842 0.935880
O O12 0.939740 0.999700 0.874516
O O13 0.879013 0.292797 0.230936
O O14 0.217163 0.366678 0.709093
O O15 0.358893 0.002486 0.677388
O O16 0.305667 0.625535 0.548531
#
# Coordination Sequence:
#
# PCOD8013199 Si02
#       8
#     2   2   2   2   2   2   2   2
#     4  10  21  40  66  90 116 164 206 246 294 361
#     4   9  20  38  63  90 119 161 201 249 303 353
#     4  10  23  40  65  89 117 163 209 247 291 363
#     4  10  23  40  64  90 121 158 208 248 299 358
#     4  11  23  38  64  93 124 158 199 252 303 356
#     4   9  20  37  64  90 120 155 210 247 293 361
#     4  10  21  41  65  87 123 161 203 247 298 362
#     4  11  23  40  61  93 128 157 193 254 311 356
#
# _framework density 23.867146000000002
#
# number of rings (size 3 to 8) (size 9 to 14) (size 15 to 20)
#    0.000    2.000    0.000    2.250   10.500    4.500 
#    2.250    1.875    0.000    0.000    0.000    0.000 
#    0.000    0.000    0.000    0.000    0.000    0.000 
#
# Total GULP energy -198328.946217 kJ/mol
# GULP energy per Si atom -12395.559139 kJ/mol
# Density = 2.381282 g / cm^3
# Si number density = 23.867146 Si / 1000 Ang^3
#
#
#
# Elastic Constant Matrix: (Units=GPa)
#
#
# Indices 1 2 3 4 5 6 
#
# 1 123.9277 27.0116 43.7359 0.9085 -3.1758 -30.5151
# 2 27.0116 31.7553 30.4765 -1.0825 7.3768 -19.1017
# 3 43.7359 30.4765 128.1036 7.5800 -1.5016 -12.5262
# 4 0.9085 -1.0825 7.5800 31.7360 -1.1484 -5.0422
# 5 -3.1758 7.3768 -1.5016 -1.1484 43.4589 2.0816
# 6 -30.5151 -19.1017 -12.5262 -5.0422 2.0816 21.3713
#
#
#
# Elastic Compliance Matrix: (Units=1/GPa)
#
#
# Indices 1 2 3 4 5 6 
#
# 1 0.014496 0.010145 -0.004940 0.005546 -0.002046 0.028378
# 2 0.010145 0.126857 -0.023571 0.028294 -0.026766 0.123338
# 3 -0.004940 -0.023571 0.013391 -0.007250 0.004987 -0.022469
# 4 0.005546 0.028294 -0.007250 0.040037 -0.005455 0.038935
# 5 -0.002046 -0.026766 0.004987 -0.005455 0.028774 -0.028012
# 6 0.028378 0.123338 -0.022469 0.038935 -0.028012 0.196296
#
#
# Mechanical properties :
#
#
# Convention : Reuss Voigt Hill
#
# Bulk Modulus (GPa) = 8.47375 54.02606 31.24991
# Shear Modulus (GPa) = 10.08229 31.48409 20.78319
#
# Velocity S-wave (km/s) = 2.05755 3.63594 2.95411
# Velocity P-wave (km/s) = 3.03361 6.34917 4.97568
#
# Compressibility (1/GPa) = 0.11801146
#
# Stress axis : x y z
#
# Youngs Moduli (GPa) = 68.98527 7.88290 74.67798
#
# Poissons Ratio (x) = -0.07997 0.36890
# Poissons Ratio (y) = -0.69986 1.76026
# Poissons Ratio (z) = 0.34078 0.18581
#
# Static dielectric constant tensor:
#      x y z
#    x 4.262350 -0.129590 0.321170 
#    y -0.129590 3.939530 -0.144830 
#    z 0.321170 -0.144830 4.485930 
# 
# 
# High freq. dielectric constant tensor:
#      x y z
#    x 1.947040 -0.007580 0.007080 
#    y -0.007580 1.925960 -0.005110 
#    z 0.007080 -0.005110 1.951860 
# 
# From -- ./inp_files/238447.got.cif
#   From: 2010.06.25/outbox.cif.g09.slc.cpg/sg2_120_cif.got.tgz:238447.got - 2010.06.27 13:26:56.
