data_PCOD8013464
_publ_section_title
;
Structure prediction by ZEFSAII (Michael W. Deem and Ramdas Pophale) SiO2 
 PCOD8013464
Probable space group: P -1
;
_chemical_formula_sum "Si O2"
_cell_formula_units_Z 12
_cell_length_a 8.459900
_cell_length_b 8.383296
_cell_length_c 10.054803
_cell_angle_alpha 48.235307
_cell_angle_beta 102.043820
_cell_angle_gamma 96.790750
_cell_volume 519.977403
_symmetry_space_group_name_H-M "P -1"
_symmetry_group_IT_number 2
_symmetry_cell_setting 'triclinic'
loop_
_space_group_symop_operation_xyz
x,y,z
-x,-y,-z
loop_
_atom_site_type_symbol
_atom_site_label
_atom_site_fract_x
_atom_site_fract_y
_atom_site_fract_z
Si Si1 0.060533 0.766470 0.622515
Si Si2 0.167307 0.429028 0.133929
Si Si3 0.327406 0.116170 0.123977
Si Si4 0.810288 0.748900 0.254587
Si Si5 0.167677 0.685432 0.390819
Si Si6 0.699649 0.172565 0.142348
O O1 0.124139 0.729068 0.510286
O O2 0.212559 0.727466 0.769740
O O3 0.894513 0.639270 0.693228
O O4 0.000000 0.000000 0.500000
O O5 0.245938 0.234386 0.169572
O O6 0.290019 0.624234 0.069772
O O7 0.000000 0.500000 0.000000
O O8 0.518631 0.117354 0.175673
O O9 0.283143 0.865164 0.252446
O O10 0.284504 0.231896 0.912443
O O11 0.751105 0.555292 0.448950
O O12 0.997617 0.700071 0.273077
O O13 0.794264 0.968093 0.212117
#
# Coordination Sequence:
#
# PCOD8013464 Si02
#       6
#     2   2   2   2   2   2
#     4  11  20  43  64  93 123 161 221 257 305 378
#     4  10  21  40  68  89 122 168 214 258 308 378
#     4  12  24  43  64  97 133 163 211 266 324 373
#     4  11  24  43  62  93 131 171 216 251 316 386
#     4  11  24  42  69  93 124 173 216 262 307 382
#     4  11  24  41  65  95 129 167 207 268 325 370
#
# _framework density 23.077926000000001
#
# number of rings (size 3 to 8) (size 9 to 14) (size 15 to 20)
#    0.000    1.000    3.333    4.500    0.000    4.000 
#    3.000    0.000    0.000    0.000    0.000    0.000 
#    0.000    0.000    0.000    0.000    0.000    0.000 
#
# Total GULP energy -148661.917033 kJ/mol
# GULP energy per Si atom -12388.493086 kJ/mol
# Density = 2.302540 g / cm^3
# Si number density = 23.077926 Si / 1000 Ang^3
#
#
#
# Elastic Constant Matrix: (Units=GPa)
#
#
# Indices 1 2 3 4 5 6 
#
# 1 91.4358 5.8815 31.7227 -8.9516 -11.5492 28.2472
# 2 5.8815 52.5111 17.7987 -16.1466 0.6347 -0.6326
# 3 31.7227 17.7987 111.8066 -28.2047 -10.9862 17.1327
# 4 -8.9516 -16.1466 -28.2047 52.2400 6.0843 -9.0477
# 5 -11.5492 0.6347 -10.9862 6.0843 20.9238 -11.4675
# 6 28.2472 -0.6326 17.1327 -9.0477 -11.4675 39.6228
#
#
#
# Elastic Compliance Matrix: (Units=1/GPa)
#
#
# Indices 1 2 3 4 5 6 
#
# 1 0.014942 -0.001235 -0.002713 -0.001121 0.002187 -0.009122
# 2 -0.001235 0.021914 -0.002297 0.006135 -0.002793 0.002816
# 3 -0.002713 -0.002297 0.011707 0.004605 0.002641 -0.001349
# 4 -0.001121 0.006135 0.004605 0.024344 -0.003588 0.003426
# 5 0.002187 -0.002793 0.002641 -0.003588 0.058904 0.013483
# 6 -0.009122 0.002816 -0.001349 0.003426 0.013483 0.037054
#
#
# Mechanical properties :
#
#
# Convention : Reuss Voigt Hill
#
# Bulk Modulus (GPa) = 27.72023 40.72882 34.22452
# Shear Modulus (GPa) = 25.85610 35.91403 30.88507
#
# Velocity S-wave (km/s) = 3.35084 3.94916 3.66224
# Velocity P-wave (km/s) = 5.19697 6.20332 5.72231
#
# Compressibility (1/GPa) = 0.03607474
#
# Stress axis : x y z
#
# Youngs Moduli (GPa) = 66.92671 45.63214 85.41790
#
# Poissons Ratio (x) = 0.05635 0.23172
# Poissons Ratio (y) = 0.08265 0.19616
# Poissons Ratio (z) = 0.18156 0.10480
#
# Static dielectric constant tensor:
#      x y z
#    x 4.028010 0.037870 -0.379070 
#    y 0.037870 4.037670 -0.247250 
#    z -0.379070 -0.247250 5.346020 
# 
# 
# High freq. dielectric constant tensor:
#      x y z
#    x 1.889900 -0.002860 -0.007800 
#    y -0.002860 1.921170 -0.018910 
#    z -0.007800 -0.018910 1.929270 
# 
# From -- ./inp_files/198437.got.cif
#   From: 2010.06.25/outbox.cif.g09.slc.cpg/sg2_100_cif.got.tgz:198437.got - 2010.06.27 13:26:56.
