data_PCOD8013629
_publ_section_title
;
Structure prediction by ZEFSAII (Michael W. Deem and Ramdas Pophale) SiO2 
 PCOD8013629
Probable space group: P -1
;
_chemical_formula_sum "Si O2"
_cell_formula_units_Z 14
_cell_length_a 7.884334
_cell_length_b 9.412686
_cell_length_c 19.118369
_cell_angle_alpha 150.824959
_cell_angle_beta 114.574550
_cell_angle_gamma 80.685010
_cell_volume 560.450551
_symmetry_space_group_name_H-M "P -1"
_symmetry_group_IT_number 2
_symmetry_cell_setting 'triclinic'
loop_
_space_group_symop_operation_xyz
x,y,z
-x,-y,-z
loop_
_atom_site_type_symbol
_atom_site_label
_atom_site_fract_x
_atom_site_fract_y
_atom_site_fract_z
Si Si1 0.707206 0.644893 0.388114
Si Si2 0.175208 0.282900 0.316169
Si Si3 0.558459 0.230741 0.318034
Si Si4 0.337889 0.494662 0.171540
Si Si5 0.022503 0.327256 0.778161
Si Si6 0.245486 0.210067 0.890639
Si Si7 0.143771 0.753790 0.851676
O O1 0.614338 0.519225 0.394949
O O2 0.551699 0.729425 0.349430
O O3 0.736620 0.354219 0.231504
O O4 0.929054 0.968083 0.572352
O O5 0.315349 0.099027 0.241950
O O6 0.303134 0.614857 0.523008
O O7 0.096334 0.370603 0.267811
O O8 0.971523 0.050461 0.225273
O O9 0.605156 0.941809 0.175341
O O10 0.173374 0.637436 0.209522
O O11 0.376742 0.473255 0.085969
O O12 0.256943 0.144338 0.045236
O O13 0.191243 0.378289 0.888825
O O14 0.150533 0.606449 0.864330
#
# Coordination Sequence:
#
# PCOD8013629 Si02
#       7
#     2   2   2   2   2   2   2
#     4  12  23  44  73 104 138 181 239 290 340 411
#     4  10  21  40  70 105 130 184 235 279 343 417
#     4  11  21  39  73 103 137 182 234 287 342 415
#     4  11  25  45  70  98 143 185 229 285 354 414
#     4  12  25  44  71 102 141 183 232 292 345 408
#     4  11  23  46  69 100 143 183 230 287 349 412
#     4  11  24  45  72  98 141 185 235 280 352 417
#
# _framework density 24.979904000000001
#
# number of rings (size 3 to 8) (size 9 to 14) (size 15 to 20)
#    0.000    0.857    4.286    4.286    0.000    1.143 
#    2.571    0.714    0.000    0.000    0.000    0.000 
#    0.000    0.000    0.000    0.000    0.000    0.000 
#
# Total GULP energy -173665.617373 kJ/mol
# GULP energy per Si atom -12404.686955 kJ/mol
# Density = 2.492305 g / cm^3
# Si number density = 24.979904 Si / 1000 Ang^3
#
#
#
# Elastic Constant Matrix: (Units=GPa)
#
#
# Indices 1 2 3 4 5 6 
#
# 1 109.1357 17.5699 4.2040 -3.7700 -20.1098 -17.5512
# 2 17.5699 152.2516 28.5157 -29.2913 5.6491 -8.0048
# 3 4.2040 28.5157 52.5445 -13.2986 -10.7506 -6.1005
# 4 -3.7700 -29.2913 -13.2986 31.0896 -11.1383 -3.4574
# 5 -20.1098 5.6491 -10.7506 -11.1383 35.2735 1.6521
# 6 -17.5512 -8.0048 -6.1005 -3.4574 1.6521 28.4442
#
#
#
# Elastic Compliance Matrix: (Units=1/GPa)
#
#
# Indices 1 2 3 4 5 6 
#
# 1 0.012818 -0.000800 0.004602 0.007648 0.010833 0.008971
# 2 -0.000800 0.008642 -0.002743 0.006904 -0.000600 0.002224
# 3 0.004602 -0.002743 0.029220 0.017653 0.017099 0.009487
# 4 0.007648 0.006904 0.017653 0.058355 0.026312 0.016013
# 5 0.010833 -0.000600 0.017099 0.026312 0.047645 0.010614
# 6 0.008971 0.002224 0.009487 0.016013 0.010614 0.044683
#
#
# Mechanical properties :
#
#
# Convention : Reuss Voigt Hill
#
# Bulk Modulus (GPa) = 18.94039 46.05679 32.49859
# Shear Modulus (GPa) = 23.05822 36.53761 29.79792
#
# Velocity S-wave (km/s) = 3.04150 3.82865 3.45755
# Velocity P-wave (km/s) = 4.46464 6.16622 5.38309
#
# Compressibility (1/GPa) = 0.05279722
#
# Stress axis : x y z
#
# Youngs Moduli (GPa) = 78.01828 115.72032 34.22331
#
# Poissons Ratio (x) = 0.09258 -0.15751
# Poissons Ratio (y) = 0.06242 0.09388
# Poissons Ratio (z) = -0.35907 0.31743
#
# Static dielectric constant tensor:
#      x y z
#    x 4.458320 -0.240310 -0.113740 
#    y -0.240310 4.768010 -0.467590 
#    z -0.113740 -0.467590 4.484630 
# 
# 
# High freq. dielectric constant tensor:
#      x y z
#    x 1.997680 -0.013330 -0.009890 
#    y -0.013330 2.001440 -0.021740 
#    z -0.009890 -0.021740 1.994420 
# 
# From -- ./inp_files/217135.got.cif
#   From: 2010.06.25/outbox.cif.g09.slc.cpg/sg2_109_cif.got.tgz:217135.got - 2010.06.27 13:26:56.
