data_PCOD8013249
_publ_section_title
;
Structure prediction by ZEFSAII (Michael W. Deem and Ramdas Pophale) SiO2 
 PCOD8013249
Probable space group: P -1
;
_chemical_formula_sum "Si O2"
_cell_formula_units_Z 16
_cell_length_a 10.200352
_cell_length_b 18.286904
_cell_length_c 9.793747
_cell_angle_alpha 50.581560
_cell_angle_beta 39.067847
_cell_angle_gamma 41.569225
_cell_volume 757.531300
_symmetry_space_group_name_H-M "P -1"
_symmetry_group_IT_number 2
_symmetry_cell_setting 'triclinic'
loop_
_space_group_symop_operation_xyz
x,y,z
-x,-y,-z
loop_
_atom_site_type_symbol
_atom_site_label
_atom_site_fract_x
_atom_site_fract_y
_atom_site_fract_z
Si Si1 0.064948 0.888962 0.201935
Si Si2 0.839330 0.760938 0.657078
Si Si3 0.426012 0.912313 0.626275
Si Si4 0.957760 0.417275 0.493911
Si Si5 0.584730 0.895963 0.223438
Si Si6 0.483359 0.133398 0.978436
Si Si7 0.103586 0.752276 0.076173
Si Si8 0.587459 0.578829 0.779884
O O1 0.281108 0.882638 0.119462
O O2 0.154754 0.815823 0.078720
O O3 0.946491 0.839707 0.456619
O O4 0.863049 0.021444 0.179890
O O5 0.593767 0.804530 0.710951
O O6 0.032943 0.634219 0.602118
O O7 0.759887 0.764426 0.874381
O O8 0.473987 0.874957 0.473793
O O9 0.500000 0.000000 0.500000
O O10 0.189252 0.431740 0.300433
O O11 0.962356 0.334366 0.704818
O O12 0.702526 0.536217 0.583932
O O13 0.520115 0.844426 0.206883
O O14 0.876293 0.838255 0.066221
O O15 0.463301 0.026448 0.146506
O O16 0.343413 0.701080 0.844498
O O17 0.500000 0.500000 0.000000
#
# Coordination Sequence:
#
# PCOD8013249 Si02
#       8
#     2   2   2   2   2   2   2   2
#     4  10  19  32  53  73  97 142 182 212 248 312
#     4  10  18  35  53  74 103 138 175 216 257 311
#     4  10  16  34  52  70 105 136 177 222 248 293
#     4   9  17  31  54  78 105 133 162 220 267 300
#     4  11  21  37  47  76 113 141 173 226 253 300
#     4  11  23  33  50  75 111 143 178 213 266 293
#     4  10  18  34  53  75 105 136 179 212 253 311
#     4   9  18  30  50  85 109 122 163 222 267 308
#
# _framework density 21.12124
#
# number of rings (size 3 to 8) (size 9 to 14) (size 15 to 20)
#    0.000    2.000    6.250    0.750    0.000    3.500 
#    0.000    0.000    0.000    0.750    0.000   35.875 
#    0.000    0.000    0.000    0.000    0.000    0.000 
#
# Total GULP energy -198216.740772 kJ/mol
# GULP energy per Si atom -12388.546298 kJ/mol
# Density = 2.107317 g / cm^3
# Si number density = 21.121240 Si / 1000 Ang^3
#
#
#
# Elastic Constant Matrix: (Units=GPa)
#
#
# Indices 1 2 3 4 5 6 
#
# 1 80.9532 26.7387 24.1803 18.7922 10.3213 17.2581
# 2 26.7387 51.9355 52.4075 34.9685 5.0207 13.6855
# 3 24.1803 52.4075 101.6935 46.3607 -0.0944 9.3060
# 4 18.7922 34.9685 46.3607 54.5430 7.7664 -4.4629
# 5 10.3213 5.0207 -0.0944 7.7664 38.0841 3.3417
# 6 17.2581 13.6855 9.3060 -4.4629 3.3417 22.8781
#
#
#
# Elastic Compliance Matrix: (Units=1/GPa)
#
#
# Indices 1 2 3 4 5 6 
#
# 1 0.017231 -0.001950 0.001003 -0.006339 -0.001960 -0.013190
# 2 -0.001950 0.070539 -0.016666 -0.033968 0.001697 -0.040820
# 3 0.001003 -0.016666 0.023029 -0.010068 0.004276 -0.002743
# 4 -0.006339 -0.033968 -0.010068 0.055481 -0.008767 0.041300
# 5 -0.001960 0.001697 0.004276 -0.008767 0.028997 -0.007221
# 6 -0.013190 -0.040820 -0.002743 0.041300 -0.007221 0.088305
#
#
# Mechanical properties :
#
#
# Convention : Reuss Voigt Hill
#
# Bulk Modulus (GPa) = 13.23231 49.02613 31.12922
# Shear Modulus (GPa) = 14.53498 31.85143 23.19321
#
# Velocity S-wave (km/s) = 2.62614 3.88755 3.31735
# Velocity P-wave (km/s) = 3.93370 6.58884 5.42618
#
# Compressibility (1/GPa) = 0.07557259
#
# Stress axis : x y z
#
# Youngs Moduli (GPa) = 58.03628 14.17656 43.42423
#
# Poissons Ratio (x) = 0.02764 -0.04355
# Poissons Ratio (y) = 0.11316 0.72371
# Poissons Ratio (z) = -0.05820 0.23627
#
# Static dielectric constant tensor:
#      x y z
#    x 3.664900 0.204840 -0.182930 
#    y 0.204840 4.253310 0.709240 
#    z -0.182930 0.709240 4.479010 
# 
# 
# High freq. dielectric constant tensor:
#      x y z
#    x 1.786330 0.035750 -0.025110 
#    y 0.035750 1.819650 0.031010 
#    z -0.025110 0.031010 1.842230 
# 
# From -- ./inp_files/214977.got.cif
#   From: 2010.06.25/outbox.cif.g09.slc.cpg/sg2_108_cif.got.tgz:214977.got - 2010.06.27 13:26:56.
