data_PCOD8013331
_publ_section_title
;
Structure prediction by ZEFSAII (Michael W. Deem and Ramdas Pophale) SiO2 
 PCOD8013331
Probable space group: P -1
;
_chemical_formula_sum "Si O2"
_cell_formula_units_Z 16
_cell_length_a 15.389295
_cell_length_b 9.994898
_cell_length_c 8.874378
_cell_angle_alpha 67.153173
_cell_angle_beta 145.746670
_cell_angle_gamma 110.754586
_cell_volume 706.549624
_symmetry_space_group_name_H-M "P -1"
_symmetry_group_IT_number 2
_symmetry_cell_setting 'triclinic'
loop_
_space_group_symop_operation_xyz
x,y,z
-x,-y,-z
loop_
_atom_site_type_symbol
_atom_site_label
_atom_site_fract_x
_atom_site_fract_y
_atom_site_fract_z
Si Si1 0.813164 0.991978 0.863179
Si Si2 0.762525 0.298298 0.727492
Si Si3 0.791456 0.587618 0.138112
Si Si4 0.925531 0.398040 0.642425
Si Si5 0.130776 0.901072 0.422859
Si Si6 0.618791 0.382606 0.776291
Si Si7 0.425107 0.164515 0.224233
Si Si8 0.393278 0.941098 0.005664
O O1 0.853293 0.151674 0.922387
O O2 0.819928 0.988036 0.692309
O O3 0.636550 0.934408 0.677533
O O4 0.943859 0.900480 0.171110
O O5 0.864455 0.413949 0.719122
O O6 0.751026 0.372482 0.841522
O O7 0.591135 0.247822 0.443615
O O8 0.897515 0.545395 0.448371
O O9 0.893487 0.631925 0.114454
O O10 0.685214 0.445414 0.000232
O O11 0.694273 0.711628 0.011307
O O12 0.823742 0.258746 0.491804
O O13 0.217614 0.934817 0.690482
O O14 0.500000 0.500000 0.500000
O O15 0.554457 0.215606 0.789200
O O16 0.409488 0.062769 0.102284
O O17 0.500000 0.000000 0.000000
#
# Coordination Sequence:
#
# PCOD8013331 Si02
#       8
#     2   2   2   2   2   2   2   2
#     4  10  21  40  67 102 130 177 220 276 345 403
#     4  11  24  42  67  97 135 179 226 283 337 408
#     4  11  24  44  70  97 133 179 225 281 344 408
#     4  10  22  44  67  95 134 178 223 277 348 407
#     4  10  21  41  70  97 139 172 223 283 336 407
#     4  12  26  45  69 101 140 179 230 284 340 404
#     4  12  24  42  71 100 135 179 228 277 343 408
#     4  12  27  45  68 105 140 180 231 286 337 406
#
# _framework density 22.645261000000001
#
# number of rings (size 3 to 8) (size 9 to 14) (size 15 to 20)
#    0.000    1.000    5.000    1.875    1.750    2.500 
#    4.500    0.000    0.000    0.000    0.000    0.000 
#    0.000    0.000    0.000    0.000    0.000    0.000 
#
# Total GULP energy -198229.969231 kJ/mol
# GULP energy per Si atom -12389.373077 kJ/mol
# Density = 2.259372 g / cm^3
# Si number density = 22.645261 Si / 1000 Ang^3
#
#
#
# Elastic Constant Matrix: (Units=GPa)
#
#
# Indices 1 2 3 4 5 6 
#
# 1 127.5559 43.4274 12.7718 -18.4075 6.1093 3.5087
# 2 43.4274 92.4376 15.1709 -13.9952 -6.1281 -13.6514
# 3 12.7718 15.1709 64.5229 -9.8706 -1.3797 -6.4082
# 4 -18.4075 -13.9952 -9.8706 30.0045 2.9462 -1.6346
# 5 6.1093 -6.1281 -1.3797 2.9462 24.7428 3.6450
# 6 3.5087 -13.6514 -6.4082 -1.6346 3.6450 41.7797
#
#
#
# Elastic Compliance Matrix: (Units=1/GPa)
#
#
# Indices 1 2 3 4 5 6 
#
# 1 0.010348 -0.004676 -0.000578 0.004259 -0.003962 -0.001973
# 2 -0.004676 0.014720 -0.001458 0.003425 0.003604 0.004798
# 3 -0.000578 -0.001458 0.016901 0.004672 -0.000180 0.002363
# 4 0.004259 0.003425 0.004672 0.039776 -0.005193 0.003487
# 5 -0.003962 0.003604 -0.000180 -0.005193 0.043262 -0.002495
# 6 -0.001973 0.004798 0.002363 0.003487 -0.002495 0.026385
#
#
# Mechanical properties :
#
#
# Convention : Reuss Voigt Hill
#
# Bulk Modulus (GPa) = 35.03157 47.47294 41.25226
# Shear Modulus (GPa) = 28.68090 33.51517 31.09804
#
# Velocity S-wave (km/s) = 3.56270 3.85126 3.70978
# Velocity P-wave (km/s) = 5.69447 6.38636 6.05031
#
# Compressibility (1/GPa) = 0.02854568
#
# Stress axis : x y z
#
# Youngs Moduli (GPa) = 96.63531 67.93303 59.16777
#
# Poissons Ratio (x) = 0.31766 0.03420
# Poissons Ratio (y) = 0.45187 0.08626
# Poissons Ratio (z) = 0.05586 0.09904
#
# Static dielectric constant tensor:
#      x y z
#    x 4.431390 -0.071000 0.053020 
#    y -0.071000 4.208420 -0.131290 
#    z 0.053020 -0.131290 4.040270 
# 
# 
# High freq. dielectric constant tensor:
#      x y z
#    x 1.898140 0.001330 0.009890 
#    y 0.001330 1.897590 -0.013310 
#    z 0.009890 -0.013310 1.877280 
# 
# From -- ./inp_files/298064.got.cif
#   From: 2010.06.25/outbox.cif.g09.slc.cpg/sg2_150_cif.got.tgz:298064.got - 2010.06.27 13:26:56.
