data_PCOD8013277
_publ_section_title
;
Structure prediction by ZEFSAII (Michael W. Deem and Ramdas Pophale) SiO2 
 PCOD8013277
Probable space group: P -1
;
_chemical_formula_sum "Si O2"
_cell_formula_units_Z 16
_cell_length_a 10.737148
_cell_length_b 8.202578
_cell_length_c 9.412654
_cell_angle_alpha 113.206253
_cell_angle_beta 91.457024
_cell_angle_gamma 77.241988
_cell_volume 741.355157
_symmetry_space_group_name_H-M "P -1"
_symmetry_group_IT_number 2
_symmetry_cell_setting 'triclinic'
loop_
_space_group_symop_operation_xyz
x,y,z
-x,-y,-z
loop_
_atom_site_type_symbol
_atom_site_label
_atom_site_fract_x
_atom_site_fract_y
_atom_site_fract_z
Si Si1 0.001995 0.656565 0.240035
Si Si2 0.281025 0.309121 0.732407
Si Si3 0.969675 0.751852 0.954377
Si Si4 0.212776 0.878476 0.931383
Si Si5 0.649054 0.412548 0.965787
Si Si6 0.365486 0.900743 0.663692
Si Si7 0.251897 0.659731 0.370624
Si Si8 0.600474 0.624225 0.533807
O O1 0.862115 0.698287 0.320342
O O2 0.059635 0.440772 0.149972
O O3 0.098359 0.728732 0.372716
O O4 0.997954 0.762027 0.126787
O O5 0.354944 0.368482 0.623443
O O6 0.354098 0.114057 0.724493
O O7 0.272989 0.454072 0.909269
O O8 0.092628 0.782783 0.881920
O O9 0.843207 0.907261 0.964628
O O10 0.290671 0.846407 0.776737
O O11 0.310750 0.785494 0.025707
O O12 0.684973 0.389371 0.796342
O O13 0.500000 0.500000 0.000000
O O14 0.307582 0.820706 0.496418
O O15 0.519683 0.821003 0.652688
O O16 0.280319 0.471477 0.397917
O O17 0.500000 0.500000 0.500000
#
# Coordination Sequence:
#
# PCOD8013277 Si02
#       8
#     2   2   2   2   2   2   2   2
#     4  11  21  42  67  96 134 170 221 279 324 385
#     4  12  24  45  70  94 130 185 216 267 343 395
#     4  10  21  40  66  95 133 175 219 268 326 399
#     4  11  21  41  69  95 129 184 217 256 342 392
#     4  12  23  42  70  98 130 174 229 275 320 387
#     4  11  24  44  67  96 137 176 218 266 337 405
#     4  11  24  42  64 100 136 172 221 280 324 381
#     4  10  23  45  66  91 133 177 216 267 340 401
#
# _framework density 21.582098999999999
#
# number of rings (size 3 to 8) (size 9 to 14) (size 15 to 20)
#    0.000    1.000    3.750    4.875    0.000    1.000 
#    4.500    1.250    0.000    0.000    0.000    0.000 
#    0.000    0.000    0.000    0.000    0.000    0.000 
#
# Total GULP energy -198410.323966 kJ/mol
# GULP energy per Si atom -12400.645248 kJ/mol
# Density = 2.153298 g / cm^3
# Si number density = 21.582099 Si / 1000 Ang^3
#
#
#
# Elastic Constant Matrix: (Units=GPa)
#
#
# Indices 1 2 3 4 5 6 
#
# 1 58.6035 2.9492 4.8484 -11.9149 -13.1365 -5.9660
# 2 2.9492 137.6501 20.6084 -7.2879 0.3633 -12.7861
# 3 4.8484 20.6084 76.3558 -14.0290 -21.0854 12.6916
# 4 -11.9149 -7.2879 -14.0290 28.1798 1.1058 -7.9678
# 5 -13.1365 0.3633 -21.0854 1.1058 33.5717 -8.5064
# 6 -5.9660 -12.7861 12.6916 -7.9678 -8.5064 39.1378
#
#
#
# Elastic Compliance Matrix: (Units=1/GPa)
#
#
# Indices 1 2 3 4 5 6 
#
# 1 0.023100 0.000487 0.002917 0.013153 0.012492 0.008127
# 2 0.000487 0.008127 -0.002664 0.002104 -0.000657 0.003878
# 3 0.002917 -0.002664 0.019014 0.008934 0.012285 -0.002102
# 4 0.013153 0.002104 0.008934 0.049079 0.012274 0.012455
# 5 0.012492 -0.000657 0.012285 0.012274 0.044496 0.009875
# 6 0.008127 0.003878 -0.002102 0.012455 0.009875 0.033420
#
#
# Mechanical properties :
#
#
# Convention : Reuss Voigt Hill
#
# Bulk Modulus (GPa) = 19.33492 36.60236 27.96864
# Shear Modulus (GPa) = 25.90736 36.45811 31.18273
#
# Velocity S-wave (km/s) = 3.46845 4.11454 3.80523
# Velocity P-wave (km/s) = 5.00184 6.29039 5.68276
#
# Compressibility (1/GPa) = 0.05171988
#
# Stress axis : x y z
#
# Youngs Moduli (GPa) = 43.29079 123.05319 52.59348
#
# Poissons Ratio (x) = -0.05988 -0.15343
# Poissons Ratio (y) = -0.02107 0.14010
# Poissons Ratio (z) = -0.12629 0.32780
#
# Static dielectric constant tensor:
#      x y z
#    x 4.176220 -0.388940 -0.194220 
#    y -0.388940 4.530900 -0.060440 
#    z -0.194220 -0.060440 3.721850 
# 
# 
# High freq. dielectric constant tensor:
#      x y z
#    x 1.848740 -0.013520 -0.024430 
#    y -0.013520 1.867270 -0.007150 
#    z -0.024430 -0.007150 1.826740 
# 
# From -- ./inp_files/245058.got.cif
#   From: 2010.06.25/outbox.cif.g09.slc.cpg/sg2_123_cif.got.tgz:245058.got - 2010.06.27 13:26:56.
