data_PCOD8013258
_publ_section_title
;
Structure prediction by ZEFSAII (Michael W. Deem and Ramdas Pophale) SiO2 
 PCOD8013258
Probable space group: P -1
;
_chemical_formula_sum "Si O2"
_cell_formula_units_Z 12
_cell_length_a 14.459164
_cell_length_b 14.414025
_cell_length_c 7.962480
_cell_angle_alpha 105.845979
_cell_angle_beta 105.843555
_cell_angle_gamma 19.157803
_cell_volume 523.305932
_symmetry_space_group_name_H-M "P -1"
_symmetry_group_IT_number 2
_symmetry_cell_setting 'triclinic'
loop_
_space_group_symop_operation_xyz
x,y,z
-x,-y,-z
loop_
_atom_site_type_symbol
_atom_site_label
_atom_site_fract_x
_atom_site_fract_y
_atom_site_fract_z
Si Si1 0.265095 0.844425 0.669190
Si Si2 0.745338 0.961957 0.035756
Si Si3 0.033150 0.255430 0.336672
Si Si4 0.755357 0.350526 0.438071
Si Si5 0.579296 0.820469 0.516182
Si Si6 0.809549 0.592292 0.889387
O O1 0.468236 0.668757 0.522141
O O2 0.302377 0.701418 0.693203
O O3 0.334256 0.855225 0.855160
O O4 0.949043 0.157363 0.602896
O O5 0.996758 0.685711 0.142411
O O6 0.467321 0.157035 0.007418
O O7 0.843332 0.869787 0.848474
O O8 0.879884 0.300708 0.330832
O O9 0.810480 0.553477 0.377005
O O10 0.290869 0.030752 0.482145
O O11 0.711233 0.701915 0.706245
O O12 0.500000 0.000000 0.500000
O O13 0.000000 0.500000 0.000000
#
# Coordination Sequence:
#
# PCOD8013258 Si02
#       6
#     2   2   2   2   2   2
#     4  10  21  40  66  94 127 170 216 260 316 384
#     4  12  25  42  66  99 134 168 213 268 325 381
#     4  12  25  42  66  99 134 168 213 268 325 381
#     4  10  21  40  66  94 127 170 216 260 316 384
#     4  12  26  46  68  93 129 173 218 265 322 385
#     4  12  26  46  68  93 129 173 218 265 322 385
#
# _framework density 22.931137
#
# number of rings (size 3 to 8) (size 9 to 14) (size 15 to 20)
#    0.000    0.667    0.000    9.000    0.000    3.333 
#    0.000    1.667    0.000   10.000    0.000    0.000 
#    0.000    0.000    0.000    0.000    0.000    0.000 
#
# Total GULP energy -148862.784181 kJ/mol
# GULP energy per Si atom -12405.232015 kJ/mol
# Density = 2.287894 g / cm^3
# Si number density = 22.931137 Si / 1000 Ang^3
#
#
#
# Elastic Constant Matrix: (Units=GPa)
#
#
# Indices 1 2 3 4 5 6 
#
# 1 174.1921 67.8798 94.3970 13.7988 -9.2316 -10.1432
# 2 67.8798 135.7306 51.4704 5.7027 -3.7507 -3.5545
# 3 94.3970 51.4704 116.2460 11.1819 -7.3395 4.2454
# 4 13.7988 5.7027 11.1819 43.4484 -3.9953 0.4913
# 5 -9.2316 -3.7507 -7.3395 -3.9953 22.7207 4.7479
# 6 -10.1432 -3.5545 4.2454 0.4913 4.7479 41.8816
#
#
#
# Elastic Compliance Matrix: (Units=1/GPa)
#
#
# Indices 1 2 3 4 5 6 
#
# 1 0.011459 -0.002475 -0.008172 -0.001184 0.000704 0.003328
# 2 -0.002475 0.009446 -0.002213 0.000089 -0.000240 0.000453
# 3 -0.008172 -0.002213 0.016625 -0.001131 0.002344 -0.004105
# 4 -0.001184 0.000089 -0.001131 0.024009 0.003568 -0.000851
# 5 0.000704 -0.000240 0.002344 0.003568 0.046779 -0.005432
# 6 0.003328 0.000453 -0.004105 -0.000851 -0.005432 0.025763
#
#
# Mechanical properties :
#
#
# Convention : Reuss Voigt Hill
#
# Bulk Modulus (GPa) = 84.67746 94.85146 89.76446
# Shear Modulus (GPa) = 30.53660 35.77156 33.15408
#
# Velocity S-wave (km/s) = 3.65316 3.95391 3.80651
# Velocity P-wave (km/s) = 7.40278 7.89291 7.65177
#
# Compressibility (1/GPa) = 0.01180952
#
# Stress axis : x y z
#
# Youngs Moduli (GPa) = 87.26780 105.86524 60.14984
#
# Poissons Ratio (x) = 0.26205 0.49157
# Poissons Ratio (y) = 0.21601 0.13309
# Poissons Ratio (z) = 0.71319 0.23423
#
# Static dielectric constant tensor:
#      x y z
#    x 4.319070 -0.080520 0.232160 
#    y -0.080520 4.781640 0.064800 
#    z 0.232160 0.064800 3.766340 
# 
# 
# High freq. dielectric constant tensor:
#      x y z
#    x 1.917420 -0.006210 0.011500 
#    y -0.006210 1.934390 0.008090 
#    z 0.011500 0.008090 1.883840 
# 
# From -- ./inp_files/310059.got.cif
#   From: 2010.06.25/outbox.cif.g09.slc.cpg/sg2_156_cif.got.tgz:310059.got - 2010.06.27 13:26:56.
