data_PCOD8013632
_publ_section_title
;
Structure prediction by ZEFSAII (Michael W. Deem and Ramdas Pophale) SiO2 
 PCOD8013632
Probable space group: P -1
;
_chemical_formula_sum "Si O2"
_cell_formula_units_Z 16
_cell_length_a 13.567194
_cell_length_b 11.487661
_cell_length_c 8.610827
_cell_angle_alpha 99.174535
_cell_angle_beta 91.428978
_cell_angle_gamma 148.410509
_cell_volume 659.624571
_symmetry_space_group_name_H-M "P -1"
_symmetry_group_IT_number 2
_symmetry_cell_setting 'triclinic'
loop_
_space_group_symop_operation_xyz
x,y,z
-x,-y,-z
loop_
_atom_site_type_symbol
_atom_site_label
_atom_site_fract_x
_atom_site_fract_y
_atom_site_fract_z
Si Si1 0.650071 0.110847 0.905674
Si Si2 0.790380 0.241332 0.487703
Si Si3 0.355640 0.674065 0.598578
Si Si4 0.171496 0.465290 0.078759
Si Si5 0.591554 0.712251 0.478648
Si Si6 0.038881 0.767512 0.307112
Si Si7 0.483488 0.358879 0.888305
Si Si8 0.813100 0.128501 0.160778
O O1 0.717351 0.294170 0.848314
O O2 0.535540 0.887079 0.766844
O O3 0.824120 0.236672 0.045503
O O4 0.500000 0.000000 0.000000
O O5 0.656132 0.219380 0.486797
O O6 0.816304 0.196491 0.641131
O O7 0.728676 0.088359 0.313689
O O8 0.000000 0.500000 0.500000
O O9 0.428468 0.644914 0.486167
O O10 0.150278 0.427189 0.625440
O O11 0.308907 0.493615 0.083264
O O12 0.040043 0.316865 0.201237
O O13 0.032189 0.317212 0.888774
O O14 0.500000 0.500000 0.500000
O O15 0.616081 0.721924 0.298725
O O16 0.813861 0.968078 0.608476
O O17 0.335703 0.130874 0.942821
O O18 0.500000 0.500000 0.000000
#
# Coordination Sequence:
#
# PCOD8013632 Si02
#       8
#     2   2   2   2   2   2   2   2
#     4  12  20  42  76 114 157 194 230 297 371 443
#     4  10  21  40  70 107 150 180 228 295 365 437
#     4  11  24  45  76 108 154 194 240 300 374 442
#     4  12  27  46  80 112 151 200 241 292 378 444
#     4  12  31  51  76 106 140 200 262 307 368 431
#     4  11  24  48  73 112 149 191 235 307 366 439
#     4  12  30  54  75 103 147 194 256 321 360 430
#     4  12  24  47  71 111 150 192 247 295 365 450
#
# _framework density 24.256222999999999
#
# number of rings (size 3 to 8) (size 9 to 14) (size 15 to 20)
#    0.000    0.500    5.000    1.875    8.750    3.500 
#    0.000    0.000    0.000    0.000    0.000    0.000 
#    0.000    0.000    0.000    0.000    0.000    0.000 
#
# Total GULP energy -198286.435671 kJ/mol
# GULP energy per Si atom -12392.902229 kJ/mol
# Density = 2.420101 g / cm^3
# Si number density = 24.256223 Si / 1000 Ang^3
#
#
#
# Elastic Constant Matrix: (Units=GPa)
#
#
# Indices 1 2 3 4 5 6 
#
# 1 129.7066 52.6372 23.3135 6.3838 -20.1211 -7.3540
# 2 52.6372 130.3525 28.5962 15.6735 -14.8412 -2.2270
# 3 23.3135 28.5962 75.8417 12.4331 1.4241 -11.6068
# 4 6.3838 15.6735 12.4331 37.1723 -2.0749 -8.1704
# 5 -20.1211 -14.8412 1.4241 -2.0749 42.2940 -2.0628
# 6 -7.3540 -2.2270 -11.6068 -8.1704 -2.0628 38.5217
#
#
#
# Elastic Compliance Matrix: (Units=1/GPa)
#
#
# Indices 1 2 3 4 5 6 
#
# 1 0.010001 -0.003285 -0.001804 0.000823 0.003782 0.001553
# 2 -0.003285 0.010110 -0.002546 -0.003042 0.001856 -0.001355
# 3 -0.001804 -0.002546 0.015808 -0.003271 -0.002276 0.003456
# 4 0.000823 -0.003042 -0.003271 0.030415 0.001195 0.005511
# 5 0.003782 0.001856 -0.002276 0.001195 0.026318 0.001806
# 6 0.001553 -0.001355 0.003456 0.005511 0.001806 0.028484
#
#
# Mechanical properties :
#
#
# Convention : Reuss Voigt Hill
#
# Bulk Modulus (GPa) = 48.42714 60.55496 54.49105
# Shear Modulus (GPa) = 34.89446 39.02120 36.95783
#
# Velocity S-wave (km/s) = 3.79697 4.01522 3.90762
# Velocity P-wave (km/s) = 6.26345 6.82018 6.54774
#
# Compressibility (1/GPa) = 0.02064958
#
# Stress axis : x y z
#
# Youngs Moduli (GPa) = 99.98794 98.90994 63.25979
#
# Poissons Ratio (x) = 0.32488 0.11413
# Poissons Ratio (y) = 0.32842 0.16106
# Poissons Ratio (z) = 0.18040 0.25183
#
# Static dielectric constant tensor:
#      x y z
#    x 4.525630 -0.089780 0.244340 
#    y -0.089780 4.704400 -0.026300 
#    z 0.244340 -0.026300 4.351900 
# 
# 
# High freq. dielectric constant tensor:
#      x y z
#    x 1.953560 0.018110 -0.002130 
#    y 0.018110 1.979620 0.002600 
#    z -0.002130 0.002600 1.970910 
# 
# From -- ./inp_files/307756.got.cif
#   From: 2010.06.25/outbox.cif.g09.slc.cpg/sg2_154_cif.got.tgz:307756.got - 2010.06.27 13:26:56.
