data_PCOD8013969
_publ_section_title
;
Structure prediction by ZEFSAII (Michael W. Deem and Ramdas Pophale) SiO2 
 PCOD8013969
Probable space group: P -1
;
_chemical_formula_sum "Si O2"
_cell_formula_units_Z 16
_cell_length_a 8.075157
_cell_length_b 9.394760
_cell_length_c 24.800111
_cell_angle_alpha 29.280808
_cell_angle_beta 56.290308
_cell_angle_gamma 65.645464
_cell_volume 753.494100
_symmetry_space_group_name_H-M "P -1"
_symmetry_group_IT_number 2
_symmetry_cell_setting 'triclinic'
loop_
_space_group_symop_operation_xyz
x,y,z
-x,-y,-z
loop_
_atom_site_type_symbol
_atom_site_label
_atom_site_fract_x
_atom_site_fract_y
_atom_site_fract_z
Si Si1 0.963643 0.805603 0.883743
Si Si2 0.711661 0.723469 0.744223
Si Si3 0.680828 0.730248 0.866677
Si Si4 0.379824 0.044933 0.685767
Si Si5 0.346564 0.639316 0.303156
Si Si6 0.342538 0.833937 0.126516
Si Si7 0.528387 0.409951 0.445867
Si Si8 0.067279 0.759759 0.529054
O O1 0.874326 0.719969 0.870200
O O2 0.821866 0.962416 0.896319
O O3 0.170317 0.023095 0.762191
O O4 0.000000 0.500000 0.000000
O O5 0.738739 0.623197 0.833202
O O6 0.772912 0.472263 0.777327
O O7 0.473201 0.744669 0.772923
O O8 0.836881 0.049419 0.602525
O O9 0.640419 0.065768 0.760963
O O10 0.500000 0.500000 0.000000
O O11 0.380943 0.132620 0.592818
O O12 0.521327 0.306520 0.606810
O O13 0.451495 0.745432 0.191253
O O14 0.465372 0.426729 0.387874
O O15 0.116277 0.486738 0.379083
O O16 0.500000 0.000000 0.000000
O O17 0.763814 0.380080 0.422046
O O18 0.000000 0.000000 0.500000
#
# Coordination Sequence:
#
# PCOD8013969 Si02
#       8
#     2   2   2   2   2   2   2   2
#     4  11  24  42  69  94 132 179 227 279 334 404
#     4  11  22  42  67  95 137 172 213 288 338 394
#     4  11  23  41  65  98 128 173 229 278 334 406
#     4  10  21  41  64 100 131 168 222 278 336 397
#     4  11  23  43  71  98 131 185 225 275 345 414
#     4  11  23  43  67  95 132 180 223 278 348 398
#     4  10  22  40  70  96 133 175 223 279 331 408
#     4  11  24  43  64 101 141 174 221 277 344 401
#
# _framework density 21.234407999999998
#
# number of rings (size 3 to 8) (size 9 to 14) (size 15 to 20)
#    0.000    1.250    2.500    4.500    1.750    1.000 
#    0.000    1.875    0.000    0.000    0.000    0.000 
#    0.000    0.000    0.000    0.000    0.000    0.000 
#
# Total GULP energy -198215.939689 kJ/mol
# GULP energy per Si atom -12388.496231 kJ/mol
# Density = 2.118608 g / cm^3
# Si number density = 21.234408 Si / 1000 Ang^3
#
#
#
# Elastic Constant Matrix: (Units=GPa)
#
#
# Indices 1 2 3 4 5 6 
#
# 1 107.0209 50.6627 60.8492 6.8093 23.3299 -4.7239
# 2 50.6627 125.4431 43.9141 0.4061 18.0037 0.0872
# 3 60.8492 43.9141 120.2206 11.3728 11.8880 -3.3266
# 4 6.8093 0.4061 11.3728 40.9581 6.1882 0.4023
# 5 23.3299 18.0037 11.8880 6.1882 43.9889 5.5935
# 6 -4.7239 0.0872 -3.3266 0.4023 5.5935 31.8473
#
#
#
# Elastic Compliance Matrix: (Units=1/GPa)
#
#
# Indices 1 2 3 4 5 6 
#
# 1 0.015795 -0.003433 -0.006099 -0.000070 -0.005658 0.002710
# 2 -0.003433 0.010334 -0.001975 0.001324 -0.002009 -0.000408
# 3 -0.006099 -0.001975 0.012268 -0.002535 0.001055 0.000229
# 4 -0.000070 0.001324 -0.002535 0.025635 -0.003426 -0.000001
# 5 -0.005658 -0.002009 0.001055 -0.003426 0.027453 -0.005502
# 6 0.002710 -0.000408 0.000229 -0.000001 -0.005502 0.032793
#
#
# Mechanical properties :
#
#
# Convention : Reuss Voigt Hill
#
# Bulk Modulus (GPa) = 65.01065 73.72628 69.36847
# Shear Modulus (GPa) = 32.80407 36.50944 34.65675
#
# Velocity S-wave (km/s) = 3.93473 4.15101 4.04431
# Velocity P-wave (km/s) = 7.16414 7.60066 7.38563
#
# Compressibility (1/GPa) = 0.01538209
#
# Stress axis : x y z
#
# Youngs Moduli (GPa) = 63.31274 96.76668 81.51111
#
# Poissons Ratio (x) = 0.33224 0.49715
# Poissons Ratio (y) = 0.21738 0.16097
# Poissons Ratio (z) = 0.38615 0.19110
#
# Static dielectric constant tensor:
#      x y z
#    x 3.859470 0.090730 0.087630 
#    y 0.090730 3.828300 0.058530 
#    z 0.087630 0.058530 4.222750 
# 
# 
# High freq. dielectric constant tensor:
#      x y z
#    x 1.810600 0.002230 0.013240 
#    y 0.002230 1.829780 0.001240 
#    z 0.013240 0.001240 1.855930 
# 
# From -- ./inp_files/606554.got.cif
#   From: 2010.06.25/outbox.cif.g09.slc.cpg/sg2_304_cif.got.tgz:606554.got - 2010.06.27 13:26:56.
