data_PCOD8013374
_publ_section_title
;
Structure prediction by ZEFSAII (Michael W. Deem and Ramdas Pophale) SiO2 
 PCOD8013374
Probable space group: P -1
;
_chemical_formula_sum "Si O2"
_cell_formula_units_Z 16
_cell_length_a 16.003083
_cell_length_b 19.043946
_cell_length_c 25.594799
_cell_angle_alpha 17.699335
_cell_angle_beta 160.891015
_cell_angle_gamma 151.473380
_cell_volume 757.877031
_symmetry_space_group_name_H-M "P -1"
_symmetry_group_IT_number 2
_symmetry_cell_setting 'triclinic'
loop_
_space_group_symop_operation_xyz
x,y,z
-x,-y,-z
loop_
_atom_site_type_symbol
_atom_site_label
_atom_site_fract_x
_atom_site_fract_y
_atom_site_fract_z
Si Si1 0.054314 0.487363 0.738807
Si Si2 0.452519 0.580394 0.979189
Si Si3 0.803589 0.395789 0.756624
Si Si4 0.197405 0.955947 0.910114
Si Si5 0.250473 0.440611 0.153235
Si Si6 0.120729 0.724656 0.771085
Si Si7 0.627010 0.053110 0.482806
Si Si8 0.451006 0.331470 0.757051
O O1 0.284468 0.341016 0.940919
O O2 0.935738 0.341184 0.816452
O O3 0.812363 0.608017 0.475076
O O4 0.207568 0.668996 0.731136
O O5 0.464507 0.294534 0.190609
O O6 0.390517 0.687439 0.923924
O O7 0.500000 0.500000 0.500000
O O8 0.931184 0.573905 0.739888
O O9 0.839211 0.143070 0.984140
O O10 0.417728 0.110828 0.930122
O O11 0.296322 0.739504 0.081216
O O12 0.913580 0.108769 0.619425
O O13 0.499318 0.468418 0.315928
O O14 0.337052 0.174855 0.371784
O O15 0.194129 0.635540 0.935866
O O16 0.000000 0.500000 0.000000
O O17 0.000000 0.000000 0.500000
O O18 0.500000 0.000000 0.500000
#
# Coordination Sequence:
#
# PCOD8013374 Si02
#       8
#     2   2   2   2   2   2   2   2
#     4  10  21  40  67  93 131 173 222 274 327 397
#     4  10  22  42  70  95 128 183 232 267 336 415
#     4  11  21  38  66  96 131 171 228 271 325 400
#     4  11  22  40  65 100 133 182 226 272 332 408
#     4  12  25  42  67 106 140 170 225 283 339 396
#     4  11  25  43  66  96 133 175 224 282 337 394
#     4  12  21  43  70  94 136 184 224 272 334 409
#     4  11  23  39  66 100 138 173 226 278 334 396
#
# _framework density 21.111605000000001
#
# number of rings (size 3 to 8) (size 9 to 14) (size 15 to 20)
#    0.000    1.000    6.250    0.750    1.750    4.000 
#    0.000    3.125    5.500    0.000    0.000    0.000 
#    0.000    0.000    0.000    0.000    0.000    0.000 
#
# Total GULP energy -198224.928219 kJ/mol
# GULP energy per Si atom -12389.058014 kJ/mol
# Density = 2.106355 g / cm^3
# Si number density = 21.111605 Si / 1000 Ang^3
#
#
#
# Elastic Constant Matrix: (Units=GPa)
#
#
# Indices 1 2 3 4 5 6 
#
# 1 180.0525 51.0728 48.2196 1.1122 16.7039 19.0020
# 2 51.0728 67.3465 37.8358 4.1493 1.6048 1.4143
# 3 48.2196 37.8358 96.0573 5.8162 4.7515 -4.9474
# 4 1.1122 4.1493 5.8162 42.1199 3.3216 4.2907
# 5 16.7039 1.6048 4.7515 3.3216 40.2347 3.3778
# 6 19.0020 1.4143 -4.9474 4.2907 3.3778 32.2991
#
#
#
# Elastic Compliance Matrix: (Units=1/GPa)
#
#
# Indices 1 2 3 4 5 6 
#
# 1 0.008365 -0.004857 -0.002490 0.001320 -0.002675 -0.004985
# 2 -0.004857 0.022040 -0.006203 -0.001432 0.001910 0.000933
# 3 -0.002490 -0.006203 0.014457 -0.001701 -0.000642 0.004244
# 4 0.001320 -0.001432 -0.001701 0.024651 -0.001986 -0.004042
# 5 -0.002675 0.001910 -0.000642 -0.001986 0.026220 -0.001086
# 6 -0.004985 0.000933 0.004244 -0.004042 -0.001086 0.035153
#
#
# Mechanical properties :
#
#
# Convention : Reuss Voigt Hill
#
# Bulk Modulus (GPa) = 56.30179 68.63476 62.46828
# Shear Modulus (GPa) = 30.50507 36.68595 33.59551
#
# Velocity S-wave (km/s) = 3.80536 4.17311 3.99347
# Velocity P-wave (km/s) = 6.78486 7.47000 7.13565
#
# Compressibility (1/GPa) = 0.01776143
#
# Stress axis : x y z
#
# Youngs Moduli (GPa) = 119.54770 45.37176 69.17079
#
# Poissons Ratio (x) = 0.22039 0.17224
# Poissons Ratio (y) = 0.58070 0.42904
# Poissons Ratio (z) = 0.29769 0.28143
#
# Static dielectric constant tensor:
#      x y z
#    x 4.310000 0.273750 0.109330 
#    y 0.273750 3.687180 0.151120 
#    z 0.109330 0.151120 3.656740 
# 
# 
# High freq. dielectric constant tensor:
#      x y z
#    x 1.856370 0.024320 -0.003890 
#    y 0.024320 1.799480 0.023800 
#    z -0.003890 0.023800 1.823330 
# 
# From -- ./inp_files/612190.got.cif
#   From: 2010.06.25/outbox.cif.g09.slc.cpg/sg2_307_cif.got.tgz:612190.got - 2010.06.27 13:26:56.
