data_PCOD8013840
_publ_section_title
;
Structure prediction by ZEFSAII (Michael W. Deem and Ramdas Pophale) SiO2 
 PCOD8013840
Probable space group: P -1
;
_chemical_formula_sum "Si O2"
_cell_formula_units_Z 14
_cell_length_a 7.008590
_cell_length_b 12.001751
_cell_length_c 14.870829
_cell_angle_alpha 65.493382
_cell_angle_beta 65.060315
_cell_angle_gamma 35.451522
_cell_volume 651.791116
_symmetry_space_group_name_H-M "P -1"
_symmetry_group_IT_number 2
_symmetry_cell_setting 'triclinic'
loop_
_space_group_symop_operation_xyz
x,y,z
-x,-y,-z
loop_
_atom_site_type_symbol
_atom_site_label
_atom_site_fract_x
_atom_site_fract_y
_atom_site_fract_z
Si Si1 0.609061 0.970781 0.821238
Si Si2 0.707758 0.539057 0.524921
Si Si3 0.202934 0.774217 0.394918
Si Si4 0.606522 0.680355 0.193414
Si Si5 0.664615 0.721289 0.792783
Si Si6 0.739786 0.194529 0.316257
Si Si7 0.605520 0.168106 0.011143
O O1 0.539293 0.920895 0.761020
O O2 0.988373 0.848822 0.778049
O O3 0.365537 0.194693 0.812480
O O4 0.540274 0.906063 0.938307
O O5 0.507810 0.676109 0.431738
O O6 0.882424 0.329784 0.538560
O O7 0.447444 0.642999 0.624469
O O8 0.000000 0.500000 0.500000
O O9 0.304819 0.747491 0.279875
O O10 0.893148 0.004503 0.397939
O O11 0.521929 0.710617 0.094539
O O12 0.938161 0.458242 0.225135
O O13 0.538021 0.720915 0.727202
O O14 0.543683 0.700146 0.913053
O O15 0.000000 0.000000 0.000000
#
# Coordination Sequence:
#
# PCOD8013840 Si02
#       7
#     2   2   2   2   2   2   2
#     4   9  23  39  63  89 129 165 205 251 308 362
#     4  11  24  43  66  94 123 159 211 257 318 368
#     4  10  24  41  65  93 124 162 206 263 305 369
#     4  11  20  42  65  90 129 165 209 256 307 364
#     4  10  23  37  60  95 125 164 209 248 300 367
#     4  11  22  43  65  92 130 163 206 252 314 370
#     4  10  21  41  62  92 130 166 205 256 305 364
#
# _framework density 21.479274
#
# number of rings (size 3 to 8) (size 9 to 14) (size 15 to 20)
#    0.857    0.857    0.000    4.714    0.000    5.143 
#    2.571    1.429    0.000    0.000    0.000    0.000 
#    0.000    0.000    0.000    0.000    0.000    0.000 
#
# Total GULP energy -173445.324469 kJ/mol
# GULP energy per Si atom -12388.951748 kJ/mol
# Density = 2.143039 g / cm^3
# Si number density = 21.479274 Si / 1000 Ang^3
#
#
#
# Elastic Constant Matrix: (Units=GPa)
#
#
# Indices 1 2 3 4 5 6 
#
# 1 91.7214 23.8856 23.8126 -13.1690 1.6914 -9.2052
# 2 23.8856 70.0611 9.7737 -3.0497 2.5704 -0.7359
# 3 23.8126 9.7737 69.1782 -10.1052 7.6358 -3.6036
# 4 -13.1690 -3.0497 -10.1052 31.9178 -3.0268 2.0813
# 5 1.6914 2.5704 7.6358 -3.0268 30.1742 6.5920
# 6 -9.2052 -0.7359 -3.6036 2.0813 6.5920 29.7229
#
#
#
# Elastic Compliance Matrix: (Units=1/GPa)
#
#
# Indices 1 2 3 4 5 6 
#
# 1 0.013749 -0.004004 -0.003413 0.003992 0.000081 0.003448
# 2 -0.004004 0.015761 -0.000866 -0.000446 -0.000779 -0.000751
# 3 -0.003413 -0.000866 0.016764 0.003333 -0.003994 0.001606
# 4 0.003992 -0.000446 0.003333 0.034338 0.002716 -0.001377
# 5 0.000081 -0.000779 -0.003994 0.002716 0.036395 -0.008740
# 6 0.003448 -0.000751 0.001606 -0.001377 -0.008740 0.036923
#
#
# Mechanical properties :
#
#
# Convention : Reuss Voigt Hill
#
# Bulk Modulus (GPa) = 33.66334 38.43384 36.04859
# Shear Modulus (GPa) = 27.71619 29.92887 28.82253
#
# Velocity S-wave (km/s) = 3.59607 3.73686 3.66714
# Velocity P-wave (km/s) = 5.74010 6.04575 5.89491
#
# Compressibility (1/GPa) = 0.02970590
#
# Stress axis : x y z
#
# Youngs Moduli (GPa) = 72.73138 63.44926 59.65117
#
# Poissons Ratio (x) = 0.25407 0.20360
# Poissons Ratio (y) = 0.29124 0.05169
# Poissons Ratio (z) = 0.24825 0.05498
#
# Static dielectric constant tensor:
#      x y z
#    x 3.754990 0.221810 0.039390 
#    y 0.221810 3.894750 0.170690 
#    z 0.039390 0.170690 3.954090 
# 
# 
# High freq. dielectric constant tensor:
#      x y z
#    x 1.834580 0.005850 0.002730 
#    y 0.005850 1.839110 0.014530 
#    z 0.002730 0.014530 1.842880 
# 
# From -- ./inp_files/135400.got.cif
#   From: 2010.06.25/outbox.cif.g09.slc.cpg/sg2_68_cif.got.tgz:135400.got - 2010.06.27 13:26:56.
