data_PCOD8013352
_publ_section_title
;
Structure prediction by ZEFSAII (Michael W. Deem and Ramdas Pophale) SiO2 
 PCOD8013352
Probable space group: P -1
;
_chemical_formula_sum "Si O2"
_cell_formula_units_Z 16
_cell_length_a 11.835242
_cell_length_b 13.184306
_cell_length_c 9.955195
_cell_angle_alpha 43.533717
_cell_angle_beta 59.330757
_cell_angle_gamma 85.929411
_cell_volume 794.665153
_symmetry_space_group_name_H-M "P -1"
_symmetry_group_IT_number 2
_symmetry_cell_setting 'triclinic'
loop_
_space_group_symop_operation_xyz
x,y,z
-x,-y,-z
loop_
_atom_site_type_symbol
_atom_site_label
_atom_site_fract_x
_atom_site_fract_y
_atom_site_fract_z
Si Si1 0.927643 0.116529 0.718760
Si Si2 0.936490 0.314616 0.777954
Si Si3 0.563950 0.618116 0.472378
Si Si4 0.105805 0.228775 0.963044
Si Si5 0.424660 0.047905 0.884152
Si Si6 0.418666 0.869428 0.795110
Si Si7 0.445190 0.375340 0.026232
Si Si8 0.892327 0.804906 0.705468
O O1 0.972120 0.209930 0.745275
O O2 0.012974 0.239417 0.419349
O O3 0.983654 0.977167 0.805902
O O4 0.749292 0.035504 0.885966
O O5 0.000000 0.500000 0.500000
O O6 0.018805 0.315924 0.864598
O O7 0.763069 0.234175 0.005389
O O8 0.500000 0.500000 0.500000
O O9 0.744202 0.714058 0.268395
O O10 0.503120 0.750832 0.375605
O O11 0.512460 0.507796 0.740276
O O12 0.139585 0.292898 0.037445
O O13 0.462484 0.980470 0.793977
O O14 0.500000 0.000000 0.000000
O O15 0.478323 0.738868 0.895541
O O16 0.500000 0.000000 0.500000
O O17 0.265931 0.247531 0.226157
O O18 0.500000 0.500000 0.000000
O O19 0.000000 0.000000 0.500000
#
# Coordination Sequence:
#
# PCOD8013352 Si02
#       8
#     2   2   2   2   2   2   2   2
#     4   9  22  40  63  93 124 174 222 258 319 410
#     4  11  24  42  64  96 132 172 217 278 341 385
#     4  11  21  40  64  98 131 167 229 273 333 393
#     4  10  21  40  67  91 128 173 221 267 324 407
#     4  10  22  40  66  92 130 176 215 270 336 401
#     4  11  26  43  64  95 135 175 225 273 343 408
#     4  12  26  43  71  98 134 173 225 288 331 397
#     4  10  23  41  67  98 127 169 228 264 329 393
#
# _framework density 20.134267999999999
#
# number of rings (size 3 to 8) (size 9 to 14) (size 15 to 20)
#    0.000    1.500    1.250    2.625   10.500    1.000 
#    0.000    0.625    0.000    0.000    0.000    0.000 
#    0.000    0.000    0.000    0.000    0.000    0.000 
#
# Total GULP energy -198242.043879 kJ/mol
# GULP energy per Si atom -12390.127742 kJ/mol
# Density = 2.008844 g / cm^3
# Si number density = 20.134268 Si / 1000 Ang^3
#
#
#
# Elastic Constant Matrix: (Units=GPa)
#
#
# Indices 1 2 3 4 5 6 
#
# 1 136.9448 80.8562 58.3988 3.2902 27.4171 7.7734
# 2 80.8562 130.8701 62.3538 5.6296 6.7207 -4.0155
# 3 58.3988 62.3538 134.2360 16.3274 16.0670 -4.3509
# 4 3.2902 5.6296 16.3274 39.1910 -2.4171 1.3339
# 5 27.4171 6.7207 16.0670 -2.4171 35.1299 -7.6215
# 6 7.7734 -4.0155 -4.3509 1.3339 -7.6215 33.6600
#
#
#
# Elastic Compliance Matrix: (Units=1/GPa)
#
#
# Indices 1 2 3 4 5 6 
#
# 1 0.015888 -0.008605 -0.001801 0.000197 -0.011555 -0.007553
# 2 -0.008605 0.014500 -0.003691 0.000428 0.006687 0.004737
# 3 -0.001801 -0.003691 0.010816 -0.004035 -0.002924 0.000871
# 4 0.000197 0.000428 -0.004035 0.027352 0.003307 -0.000851
# 5 -0.011555 0.006687 -0.002924 0.003307 0.040396 0.012104
# 6 -0.007553 0.004737 0.000871 -0.000851 0.012104 0.034905
#
#
# Mechanical properties :
#
#
# Convention : Reuss Voigt Hill
#
# Bulk Modulus (GPa) = 76.85530 89.47430 83.16480
# Shear Modulus (GPa) = 28.34686 34.95898 31.65292
#
# Velocity S-wave (km/s) = 3.75626 4.17140 3.96926
# Velocity P-wave (km/s) = 7.55426 8.23020 7.89946
#
# Compressibility (1/GPa) = 0.01301147
#
# Stress axis : x y z
#
# Youngs Moduli (GPa) = 62.93979 68.96718 92.45401
#
# Poissons Ratio (x) = 0.59348 0.16647
# Poissons Ratio (y) = 0.54161 0.34120
# Poissons Ratio (z) = 0.11333 0.25452
#
# Static dielectric constant tensor:
#      x y z
#    x 3.751300 0.105820 -0.146440 
#    y 0.105820 3.738660 -0.072110 
#    z -0.146440 -0.072110 4.046660 
# 
# 
# High freq. dielectric constant tensor:
#      x y z
#    x 1.784920 0.009720 -0.000960 
#    y 0.009720 1.791230 0.012690 
#    z -0.000960 0.012690 1.802890 
# 
# From -- ./inp_files/261542.got.cif
#   From: 2010.06.25/outbox.cif.g09.slc.cpg/sg2_131_cif.got.tgz:261542.got - 2010.06.27 13:26:56.
