data_PCOD8013965
_publ_section_title
;
Structure prediction by ZEFSAII (Michael W. Deem and Ramdas Pophale) SiO2 
 PCOD8013965
Probable space group: P -1
;
_chemical_formula_sum "Si O2"
_cell_formula_units_Z 14
_cell_length_a 5.403729
_cell_length_b 15.599582
_cell_length_c 8.191031
_cell_angle_alpha 116.608488
_cell_angle_beta 62.931835
_cell_angle_gamma 96.933328
_cell_volume 546.718684
_symmetry_space_group_name_H-M "P -1"
_symmetry_group_IT_number 2
_symmetry_cell_setting 'triclinic'
loop_
_space_group_symop_operation_xyz
x,y,z
-x,-y,-z
loop_
_atom_site_type_symbol
_atom_site_label
_atom_site_fract_x
_atom_site_fract_y
_atom_site_fract_z
Si Si1 0.222473 0.097657 0.077899
Si Si2 0.619267 0.206629 0.256670
Si Si3 0.590901 0.513236 0.212085
Si Si4 0.415663 0.161190 0.617490
Si Si5 0.195067 0.595210 0.645521
Si Si6 0.348129 0.356558 0.977317
Si Si7 0.854762 0.993429 0.297054
O O1 0.474100 0.157303 0.107130
O O2 0.932267 0.161546 0.169788
O O3 0.158919 0.024148 0.182535
O O4 0.314841 0.031219 0.838650
O O5 0.418848 0.203992 0.472165
O O6 0.619367 0.317317 0.298023
O O7 0.273266 0.556409 0.404477
O O8 0.751939 0.491906 0.314715
O O9 0.741948 0.589599 0.122351
O O10 0.597635 0.414262 0.020400
O O11 0.428979 0.244469 0.820220
O O12 0.679760 0.084023 0.512504
O O13 0.137593 0.103280 0.675014
O O14 0.875640 0.636687 0.803187
#
# Coordination Sequence:
#
# PCOD8013965 Si02
#       7
#     2   2   2   2   2   2   2
#     4  10  23  44  69  99 138 185 236 285 345 418
#     4  11  24  43  69 103 139 185 233 285 350 419
#     4  10  24  43  67  98 135 174 236 288 348 423
#     4  10  21  41  63  99 140 177 234 287 347 413
#     4  11  23  42  67  98 135 181 230 286 353 418
#     4  11  22  44  67  98 135 180 229 291 350 417
#     4   9  21  41  68  97 137 183 231 285 346 411
#
# _framework density 25.607319
#
# number of rings (size 3 to 8) (size 9 to 14) (size 15 to 20)
#    0.000    1.714    1.429    1.714    4.000    5.714 
#    5.143    2.857    0.000    0.000    0.000    0.000 
#    0.000    0.000    0.000    0.000    0.000    0.000 
#
# Total GULP energy -173447.552588 kJ/mol
# GULP energy per Si atom -12389.110899 kJ/mol
# Density = 2.554904 g / cm^3
# Si number density = 25.607319 Si / 1000 Ang^3
#
#
#
# Elastic Constant Matrix: (Units=GPa)
#
#
# Indices 1 2 3 4 5 6 
#
# 1 61.6222 12.2418 15.8137 8.2746 10.4461 3.2906
# 2 12.2418 133.8977 34.2605 6.8328 -4.0336 8.9529
# 3 15.8137 34.2605 126.9309 22.5843 -7.9731 8.9009
# 4 8.2746 6.8328 22.5843 57.7275 5.7092 2.4382
# 5 10.4461 -4.0336 -7.9731 5.7092 21.4217 2.7669
# 6 3.2906 8.9529 8.9009 2.4382 2.7669 17.5334
#
#
#
# Elastic Compliance Matrix: (Units=1/GPa)
#
#
# Indices 1 2 3 4 5 6 
#
# 1 0.018974 -0.001374 -0.002556 -0.000541 -0.010337 0.000145
# 2 -0.001374 0.008325 -0.001665 -0.000201 0.002118 -0.003454
# 3 -0.002556 -0.001665 0.010005 -0.003787 0.006209 -0.004202
# 4 -0.000541 -0.000201 -0.003787 0.019525 -0.006443 0.000428
# 5 -0.010337 0.002118 0.006209 -0.006443 0.057502 -0.010472
# 6 0.000145 -0.003454 -0.004202 0.000428 -0.010472 0.062497
#
#
# Mechanical properties :
#
#
# Convention : Reuss Voigt Hill
#
# Bulk Modulus (GPa) = 38.29491 49.67586 43.98538
# Shear Modulus (GPa) = 25.41653 36.67883 31.04768
#
# Velocity S-wave (km/s) = 3.15389 3.78876 3.48581
# Velocity P-wave (km/s) = 5.31506 6.21134 5.78060
#
# Compressibility (1/GPa) = 0.02611313
#
# Stress axis : x y z
#
# Youngs Moduli (GPa) = 52.70325 120.11998 99.95323
#
# Poissons Ratio (x) = 0.16506 0.25551
# Poissons Ratio (y) = 0.07242 0.16641
# Poissons Ratio (z) = 0.13472 0.19999
#
# Static dielectric constant tensor:
#      x y z
#    x 3.734470 0.127680 -0.124990 
#    y 0.127680 5.157720 -0.207930 
#    z -0.124990 -0.207930 5.065480 
# 
# 
# High freq. dielectric constant tensor:
#      x y z
#    x 1.955690 0.009670 -0.001250 
#    y 0.009670 2.049160 -0.005710 
#    z -0.001250 -0.005710 2.043000 
# 
# From -- ./inp_files/139477.got.cif
#   From: 2010.06.25/outbox.cif.g09.slc.cpg/sg2_70_cif.got.tgz:139477.got - 2010.06.27 13:26:56.
