data_PCOD8013162
_publ_section_title
;
Structure prediction by ZEFSAII (Michael W. Deem and Ramdas Pophale) SiO2 
 PCOD8013162
Probable space group: P -1
;
_chemical_formula_sum "Si O2"
_cell_formula_units_Z 16
_cell_length_a 20.004840
_cell_length_b 5.117006
_cell_length_c 7.580558
_cell_angle_alpha 70.135095
_cell_angle_beta 107.049943
_cell_angle_gamma 82.615346
_cell_volume 674.896823
_symmetry_space_group_name_H-M "P -1"
_symmetry_group_IT_number 2
_symmetry_cell_setting 'triclinic'
loop_
_space_group_symop_operation_xyz
x,y,z
-x,-y,-z
loop_
_atom_site_type_symbol
_atom_site_label
_atom_site_fract_x
_atom_site_fract_y
_atom_site_fract_z
Si Si1 0.082673 0.866818 0.639963
Si Si2 0.950668 0.288131 0.974867
Si Si3 0.563871 0.735745 0.352573
Si Si4 0.796566 0.528026 0.696783
Si Si5 0.580984 0.345128 0.143088
Si Si6 0.597058 0.293672 0.781117
Si Si7 0.828307 0.689958 0.333173
Si Si8 0.255283 0.029720 0.137916
O O1 0.089748 0.771492 0.868816
O O2 0.111005 0.597693 0.597549
O O3 0.131540 0.087368 0.601748
O O4 0.000000 0.000000 0.500000
O O5 0.884020 0.433099 0.764832
O O6 0.000000 0.500000 0.000000
O O7 0.000000 0.000000 0.000000
O O8 0.605933 0.528431 0.275777
O O9 0.586009 0.586753 0.593125
O O10 0.477029 0.807711 0.245800
O O11 0.588723 0.027927 0.300154
O O12 0.773078 0.632498 0.454862
O O13 0.763663 0.273956 0.792464
O O14 0.769874 0.791707 0.747398
O O15 0.500000 0.500000 0.000000
O O16 0.623701 0.340193 0.991742
O O17 0.658198 0.036874 0.801173
O O18 0.783056 0.800314 0.099289
#
# Coordination Sequence:
#
# PCOD8013162 Si02
#       8
#     2   2   2   2   2   2   2   2
#     4  12  23  42  68  98 129 164 215 267 329 392
#     4  12  22  39  66  98 128 162 213 270 324 386
#     4  10  23  41  65 100 134 168 228 281 323 390
#     4  12  26  46  66  95 136 173 220 276 330 394
#     4  10  21  40  65  97 134 168 217 280 330 384
#     4  10  24  41  68  95 132 180 220 274 336 387
#     4  12  24  46  66  92 132 171 213 271 323 392
#     4  12  26  45  65  96 135 178 222 269 332 409
#
# _framework density 23.707326999999999
#
# number of rings (size 3 to 8) (size 9 to 14) (size 15 to 20)
#    0.000    0.750    2.500    5.625    0.000   11.500 
#    0.000    0.000    0.000    0.000    0.000    0.000 
#    0.000    0.000    0.000    0.000    0.000    0.000 
#
# Total GULP energy -198437.057171 kJ/mol
# GULP energy per Si atom -12402.316073 kJ/mol
# Density = 2.365337 g / cm^3
# Si number density = 23.707327 Si / 1000 Ang^3
#
#
#
# Elastic Constant Matrix: (Units=GPa)
#
#
# Indices 1 2 3 4 5 6 
#
# 1 67.8386 44.9039 39.5446 -1.1534 4.4587 -25.0754
# 2 44.9039 111.0340 26.0303 -9.9559 -2.8360 -3.4278
# 3 39.5446 26.0303 108.3379 6.9103 -28.1098 -8.3940
# 4 -1.1534 -9.9559 6.9103 35.0445 -10.1955 -8.5541
# 5 4.4587 -2.8360 -28.1098 -10.1955 30.7917 -1.8425
# 6 -25.0754 -3.4278 -8.3940 -8.5541 -1.8425 35.3191
#
#
#
# Elastic Compliance Matrix: (Units=1/GPa)
#
#
# Indices 1 2 3 4 5 6 
#
# 1 0.043802 -0.013592 -0.016170 0.000912 -0.020553 0.025085
# 2 -0.013592 0.014182 0.002445 0.003302 0.006206 -0.006569
# 3 -0.016170 0.002445 0.019303 0.000909 0.020167 -0.005383
# 4 0.000912 0.003302 0.000909 0.035830 0.013498 0.010566
# 5 -0.020553 0.006206 0.020167 0.013498 0.058733 -0.002864
# 6 0.025085 -0.006569 -0.005383 0.010566 -0.002864 0.046615
#
#
# Mechanical properties :
#
#
# Convention : Reuss Voigt Hill
#
# Bulk Modulus (GPa) = 44.14701 56.46312 50.30506
# Shear Modulus (GPa) = 17.81575 32.01317 24.91446
#
# Velocity S-wave (km/s) = 2.74430 3.67870 3.24530
# Velocity P-wave (km/s) = 5.35758 6.47396 5.94205
#
# Compressibility (1/GPa) = 0.02265159
#
# Stress axis : x y z
#
# Youngs Moduli (GPa) = 22.82993 70.51280 51.80589
#
# Poissons Ratio (x) = 0.95843 0.83770
# Poissons Ratio (y) = 0.31031 -0.12664
# Poissons Ratio (z) = 0.36916 -0.17237
#
# Static dielectric constant tensor:
#      x y z
#    x 4.178780 -0.258620 -0.198060 
#    y -0.258620 4.442310 0.250890 
#    z -0.198060 0.250890 4.782840 
# 
# 
# High freq. dielectric constant tensor:
#      x y z
#    x 1.926620 -0.012890 -0.013740 
#    y -0.012890 1.949500 -0.000230 
#    z -0.013740 -0.000230 1.959820 
# 
# From -- ./inp_files/339625.got.cif
#   From: 2010.06.25/outbox.cif.g09.slc.cpg/sg2_170_cif.got.tgz:339625.got - 2010.06.27 13:26:56.
