data_PCOD8013036
_publ_section_title
;
Structure prediction by ZEFSAII (Michael W. Deem and Ramdas Pophale) SiO2 
 PCOD8013036
Probable space group: P -1
;
_chemical_formula_sum "Si O2"
_cell_formula_units_Z 14
_cell_length_a 17.159423
_cell_length_b 10.814305
_cell_length_c 8.472582
_cell_angle_alpha 60.709816
_cell_angle_beta 136.606068
_cell_angle_gamma 149.561325
_cell_volume 502.864763
_symmetry_space_group_name_H-M "P -1"
_symmetry_group_IT_number 2
_symmetry_cell_setting 'triclinic'
loop_
_space_group_symop_operation_xyz
x,y,z
-x,-y,-z
loop_
_atom_site_type_symbol
_atom_site_label
_atom_site_fract_x
_atom_site_fract_y
_atom_site_fract_z
Si Si1 0.864230 0.129542 0.684233
Si Si2 0.278694 0.261698 0.735617
Si Si3 0.825518 0.623852 0.260901
Si Si4 0.340608 0.767775 0.202165
Si Si5 0.341100 0.041192 0.836148
Si Si6 0.181443 0.648676 0.370668
Si Si7 0.457703 0.586613 0.496306
O O1 0.963445 0.367134 0.779773
O O2 0.044727 0.225466 0.806792
O O3 0.704092 0.015869 0.380494
O O4 0.704707 0.880769 0.725903
O O5 0.120835 0.178754 0.676483
O O6 0.202448 0.021813 0.726720
O O7 0.309856 0.388437 0.546340
O O8 0.500000 0.500000 0.000000
O O9 0.901307 0.565758 0.506380
O O10 0.580791 0.346269 0.029348
O O11 0.169779 0.599892 0.198964
O O12 0.340640 0.604401 0.241059
O O13 0.576412 0.053786 0.427069
O O14 0.278907 0.822366 0.949553
O O15 0.500000 0.500000 0.500000
#
# Coordination Sequence:
#
# PCOD8013036 Si02
#       7
#     2   2   2   2   2   2   2
#     4  11  23  37  67  94 127 165 213 260 316 368
#     4  10  21  40  65  87 129 168 209 254 316 377
#     4  10  21  40  65  91 128 170 205 263 317 367
#     4   9  19  36  65  89 124 176 203 251 325 373
#     4  10  22  41  63  97 126 164 216 256 307 385
#     4   9  18  35  62  89 122 166 210 245 315 375
#     4  11  21  40  63  97 124 167 212 259 315 377
#
# _framework density 27.840487
#
# number of rings (size 3 to 8) (size 9 to 14) (size 15 to 20)
#    0.000    2.000    2.857    0.429    6.000    5.714 
#    0.000    3.571    3.143    0.000    0.000    1.000 
#    0.000    0.000    0.000    0.000    0.000    0.000 
#
# Total GULP energy -173469.728602 kJ/mol
# GULP energy per Si atom -12390.694900 kJ/mol
# Density = 2.777712 g / cm^3
# Si number density = 27.840487 Si / 1000 Ang^3
#
#
#
# Elastic Constant Matrix: (Units=GPa)
#
#
# Indices 1 2 3 4 5 6 
#
# 1 238.5124 51.2941 34.0799 -4.3526 25.0132 -17.4133
# 2 51.2941 105.2030 5.7780 -5.0206 10.2893 -14.8685
# 3 34.0799 5.7780 51.2241 -15.5627 12.8076 -14.9632
# 4 -4.3526 -5.0206 -15.5627 15.5586 -10.8174 5.4654
# 5 25.0132 10.2893 12.8076 -10.8174 51.9697 -1.6799
# 6 -17.4133 -14.8685 -14.9632 5.4654 -1.6799 53.7949
#
#
#
# Elastic Compliance Matrix: (Units=1/GPa)
#
#
# Indices 1 2 3 4 5 6 
#
# 1 0.005489 -0.002423 -0.004305 -0.005191 -0.002169 0.000369
# 2 -0.002423 0.011177 0.002509 0.004017 -0.000746 0.002572
# 3 -0.004305 0.002509 0.033006 0.030749 0.000014 0.005357
# 4 -0.005191 0.004017 0.030749 0.107068 0.016334 -0.002385
# 5 -0.002169 -0.000746 0.000014 0.016334 0.023771 -0.001822
# 6 0.000369 0.002572 0.005357 -0.002385 -0.001822 0.021095
#
#
# Mechanical properties :
#
#
# Convention : Reuss Voigt Hill
#
# Bulk Modulus (GPa) = 24.25133 64.13816 44.19475
# Shear Modulus (GPa) = 22.34249 44.51715 33.42982
#
# Velocity S-wave (km/s) = 2.83595 4.00310 3.46896
# Velocity P-wave (km/s) = 4.41058 6.66739 5.65276
#
# Compressibility (1/GPa) = 0.04123485
#
# Stress axis : x y z
#
# Youngs Moduli (GPa) = 182.19544 89.46869 30.29708
#
# Poissons Ratio (x) = 0.21678 0.13043
# Poissons Ratio (y) = 0.44146 -0.07603
# Poissons Ratio (z) = 0.78436 -0.22451
#
# Static dielectric constant tensor:
#      x y z
#    x 5.826280 -0.244280 0.432680 
#    y -0.244280 5.180240 0.260230 
#    z 0.432680 0.260230 4.841520 
# 
# 
# High freq. dielectric constant tensor:
#      x y z
#    x 2.148460 0.002500 0.013640 
#    y 0.002500 2.142640 0.028440 
#    z 0.013640 0.028440 2.111590 
# 
# From -- ./inp_files/333051.got.cif
#   From: 2010.06.25/outbox.cif.g09.slc.cpg/sg2_167_cif.got.tgz:333051.got - 2010.06.27 13:26:56.
