data_PCOD8013388
_publ_section_title
;
Structure prediction by ZEFSAII (Michael W. Deem and Ramdas Pophale) SiO2 
 PCOD8013388
Probable space group: P -1
;
_chemical_formula_sum "Si O2"
_cell_formula_units_Z 16
_cell_length_a 9.709668
_cell_length_b 15.742544
_cell_length_c 9.022936
_cell_angle_alpha 87.900511
_cell_angle_beta 112.125760
_cell_angle_gamma 43.345256
_cell_volume 765.258331
_symmetry_space_group_name_H-M "P -1"
_symmetry_group_IT_number 2
_symmetry_cell_setting 'triclinic'
loop_
_space_group_symop_operation_xyz
x,y,z
-x,-y,-z
loop_
_atom_site_type_symbol
_atom_site_label
_atom_site_fract_x
_atom_site_fract_y
_atom_site_fract_z
Si Si1 0.191113 0.133891 0.193600
Si Si2 0.245447 0.107439 0.550415
Si Si3 0.360985 0.361990 0.043681
Si Si4 0.075111 0.881304 0.117169
Si Si5 0.011835 0.617405 0.070131
Si Si6 0.629947 0.642474 0.279551
Si Si7 0.953297 0.651438 0.371330
Si Si8 0.174156 0.967440 0.684721
O O1 0.116725 0.157157 0.333965
O O2 0.481213 0.976620 0.324822
O O3 0.034194 0.146529 0.019748
O O4 0.139527 0.253796 0.112910
O O5 0.064023 0.253291 0.553354
O O6 0.283768 0.999082 0.647448
O O7 0.287341 0.470353 0.124221
O O8 0.615669 0.197419 0.186375
O O9 0.377445 0.396014 0.884571
O O10 0.131995 0.403425 0.956589
O O11 0.372138 0.744786 0.252632
O O12 0.966789 0.933458 0.234645
O O13 0.000000 0.000000 0.000000
O O14 0.025544 0.652029 0.236495
O O15 0.699958 0.710873 0.279945
O O16 0.827055 0.507046 0.470966
O O17 0.000000 0.000000 0.500000
#
# Coordination Sequence:
#
# PCOD8013388 Si02
#       8
#     2   2   2   2   2   2   2   2
#     4  11  24  42  67  95 127 170 212 267 316 379
#     4  11  24  43  65  95 130 165 218 262 318 379
#     4  10  21  41  64  92 130 165 211 259 315 377
#     4  12  24  42  66  96 130 168 215 258 325 379
#     4  10  21  40  67  95 122 167 215 261 314 375
#     4  10  22  42  64  98 126 170 211 260 319 380
#     4  10  22  41  69  95 128 167 212 266 314 378
#     4  12  26  42  64  97 132 169 209 263 320 380
#
# _framework density 20.907971
#
# number of rings (size 3 to 8) (size 9 to 14) (size 15 to 20)
#    0.000    1.250    2.500    3.000    3.500    3.000 
#    2.250    2.500    0.000    0.000    0.000    0.000 
#    0.000    0.000    0.000    0.000    0.000    0.000 
#
# Total GULP energy -198324.106291 kJ/mol
# GULP energy per Si atom -12395.256643 kJ/mol
# Density = 2.086038 g / cm^3
# Si number density = 20.907971 Si / 1000 Ang^3
#
#
#
# Elastic Constant Matrix: (Units=GPa)
#
#
# Indices 1 2 3 4 5 6 
#
# 1 54.8773 28.8492 36.2226 5.3187 -5.6140 -14.0739
# 2 28.8492 122.7087 49.7401 18.8810 0.5265 -23.1731
# 3 36.2226 49.7401 120.7833 16.2904 -11.0733 -19.9512
# 4 5.3187 18.8810 16.2904 37.9884 -1.6628 -3.0710
# 5 -5.6140 0.5265 -11.0733 -1.6628 42.0680 0.8708
# 6 -14.0739 -23.1731 -19.9512 -3.0710 0.8708 32.0266
#
#
#
# Elastic Compliance Matrix: (Units=1/GPa)
#
#
# Indices 1 2 3 4 5 6 
#
# 1 0.024702 -0.002721 -0.005285 0.000695 0.001851 0.005611
# 2 -0.002721 0.011422 -0.002670 -0.003805 -0.001464 0.005081
# 3 -0.005285 -0.002670 0.012029 -0.002754 0.002325 0.002912
# 4 0.000695 -0.003805 -0.002754 0.029214 0.000599 -0.001379
# 5 0.001851 -0.001464 0.002325 0.000599 0.024660 0.000589
# 6 0.005611 0.005081 0.002912 -0.001379 0.000589 0.039032
#
#
# Mechanical properties :
#
#
# Convention : Reuss Voigt Hill
#
# Bulk Modulus (GPa) = 37.30879 58.66589 47.98734
# Shear Modulus (GPa) = 29.18098 34.65376 31.91737
#
# Velocity S-wave (km/s) = 3.73994 4.07559 3.91137
# Velocity P-wave (km/s) = 6.04422 7.08994 6.58786
#
# Compressibility (1/GPa) = 0.02680333
#
# Stress axis : x y z
#
# Youngs Moduli (GPa) = 40.48261 87.54679 83.12943
#
# Poissons Ratio (x) = 0.23817 0.43933
# Poissons Ratio (y) = 0.11013 0.22194
# Poissons Ratio (z) = 0.21395 0.23373
#
# Static dielectric constant tensor:
#      x y z
#    x 2.479460 0.695690 -1.149650 
#    y 0.695690 2.994480 1.131440 
#    z -1.149650 1.131440 2.683380 
# 
# 
# High freq. dielectric constant tensor:
#      x y z
#    x 1.807030 -0.008530 -0.015670 
#    y -0.008530 1.828270 0.002390 
#    z -0.015670 0.002390 1.826270 
# 
# From -- ./inp_files/207018.got.cif
#   From: 2010.06.25/outbox.cif.g09.slc.cpg/sg2_104_cif.got.tgz:207018.got - 2010.06.27 13:26:56.
