data_PCOD8013771
_publ_section_title
;
Structure prediction by ZEFSAII (Michael W. Deem and Ramdas Pophale) SiO2 
 PCOD8013771
Probable space group: P -1
;
_chemical_formula_sum "Si O2"
_cell_formula_units_Z 14
_cell_length_a 18.088454
_cell_length_b 8.412482
_cell_length_c 8.246008
_cell_angle_alpha 118.138124
_cell_angle_beta 53.946795
_cell_angle_gamma 76.691503
_cell_volume 627.954846
_symmetry_space_group_name_H-M "P -1"
_symmetry_group_IT_number 2
_symmetry_cell_setting 'triclinic'
loop_
_space_group_symop_operation_xyz
x,y,z
-x,-y,-z
loop_
_atom_site_type_symbol
_atom_site_label
_atom_site_fract_x
_atom_site_fract_y
_atom_site_fract_z
Si Si1 0.773732 0.903240 0.788775
Si Si2 0.754997 0.552762 0.050308
Si Si3 0.416028 0.553755 0.783449
Si Si4 0.999749 0.315030 0.811953
Si Si5 0.861710 0.400204 0.484213
Si Si6 0.873721 0.998580 0.201489
Si Si7 0.663384 0.063767 0.362135
O O1 0.917338 0.778792 0.505369
O O2 0.775645 0.684204 0.656221
O O3 0.734074 0.006938 0.072855
O O4 0.673631 0.146463 0.911093
O O5 0.832571 0.416593 0.718376
O O6 0.856413 0.449858 0.014345
O O7 0.673717 0.489891 0.170894
O O8 0.656760 0.860392 0.309604
O O9 0.500000 0.500000 0.500000
O O10 0.516276 0.350310 0.697008
O O11 0.065980 0.077972 0.731861
O O12 0.000000 0.500000 0.000000
O O13 0.825612 0.271542 0.365993
O O14 0.016361 0.220597 0.174107
O O15 0.750580 0.039099 0.373211
#
# Coordination Sequence:
#
# PCOD8013771 Si02
#       7
#     2   2   2   2   2   2   2
#     4  10  21  41  61  90 129 163 206 249 305 373
#     4  11  22  41  67  90 123 167 207 252 314 368
#     4  10  23  41  65  91 120 166 217 253 293 368
#     4  12  22  38  64  98 127 154 200 264 315 361
#     4  10  22  38  62  94 126 164 201 253 317 374
#     4  11  22  38  61  97 132 156 201 258 315 364
#     4  10  21  41  66  88 126 166 208 250 301 371
#
# _framework density 22.294595000000001
#
# number of rings (size 3 to 8) (size 9 to 14) (size 15 to 20)
#    0.000    1.429    2.857    2.143    0.000    9.143 
#    0.000    3.571    3.143    0.000    0.000    0.000 
#    0.000    0.000    0.000    0.000    0.000    0.000 
#
# Total GULP energy -173512.505923 kJ/mol
# GULP energy per Si atom -12393.750423 kJ/mol
# Density = 2.224385 g / cm^3
# Si number density = 22.294595 Si / 1000 Ang^3
#
#
#
# Elastic Constant Matrix: (Units=GPa)
#
#
# Indices 1 2 3 4 5 6 
#
# 1 105.0579 61.0747 54.1096 17.3965 -19.8842 11.7965
# 2 61.0747 137.0596 59.9032 26.7094 -10.6229 18.3171
# 3 54.1096 59.9032 81.8005 21.0267 -12.4267 9.4305
# 4 17.3965 26.7094 21.0267 55.0344 4.2451 3.5304
# 5 -19.8842 -10.6229 -12.4267 4.2451 26.2406 -0.9102
# 6 11.7965 18.3171 9.4305 3.5304 -0.9102 34.1995
#
#
#
# Elastic Compliance Matrix: (Units=1/GPa)
#
#
# Indices 1 2 3 4 5 6 
#
# 1 0.017155 -0.003386 -0.006931 -0.001676 0.008555 -0.001792
# 2 -0.003386 0.012246 -0.005686 -0.002470 -0.000025 -0.003569
# 3 -0.006931 -0.005686 0.022597 -0.003956 0.003778 -0.000286
# 4 -0.001676 -0.002470 -0.003956 0.021970 -0.007680 0.000520
# 5 0.008555 -0.000025 0.003778 -0.007680 0.047546 -0.001921
# 6 -0.001792 -0.003569 -0.000286 0.000520 -0.001921 0.031744
#
#
# Mechanical properties :
#
#
# Convention : Reuss Voigt Hill
#
# Bulk Modulus (GPa) = 50.01751 74.89921 62.45836
# Shear Modulus (GPa) = 26.05153 33.01693 29.53423
#
# Velocity S-wave (km/s) = 3.42206 3.85247 3.64363
# Velocity P-wave (km/s) = 6.17232 7.31142 6.76588
#
# Compressibility (1/GPa) = 0.01999300
#
# Stress axis : x y z
#
# Youngs Moduli (GPa) = 58.29337 81.65781 44.25340
#
# Poissons Ratio (x) = 0.27647 0.30672
# Poissons Ratio (y) = 0.19737 0.25162
# Poissons Ratio (z) = 0.40402 0.46429
#
# Static dielectric constant tensor:
#      x y z
#    x 3.620830 0.070190 -0.085300 
#    y 0.070190 4.611460 0.368670 
#    z -0.085300 0.368670 4.333340 
# 
# 
# High freq. dielectric constant tensor:
#      x y z
#    x 1.839810 0.015080 -0.000330 
#    y 0.015080 1.899620 0.011530 
#    z -0.000330 0.011530 1.877950 
# 
# From -- ./inp_files/186492.got.cif
#   From: 2010.06.25/outbox.cif.g09.slc.cpg/sg2_94_cif.got.tgz:186492.got - 2010.06.27 13:26:56.
