data_PCOD8013179
_publ_section_title
;
Structure prediction by ZEFSAII (Michael W. Deem and Ramdas Pophale) SiO2 
 PCOD8013179
Probable space group: P -1
;
_chemical_formula_sum "Si O2"
_cell_formula_units_Z 16
_cell_length_a 12.033361
_cell_length_b 9.310268
_cell_length_c 9.661998
_cell_angle_alpha 57.274554
_cell_angle_beta 124.722386
_cell_angle_gamma 113.970377
_cell_volume 740.876649
_symmetry_space_group_name_H-M "P -1"
_symmetry_group_IT_number 2
_symmetry_cell_setting 'triclinic'
loop_
_space_group_symop_operation_xyz
x,y,z
-x,-y,-z
loop_
_atom_site_type_symbol
_atom_site_label
_atom_site_fract_x
_atom_site_fract_y
_atom_site_fract_z
Si Si1 0.445528 0.552673 0.663266
Si Si2 0.313146 0.163688 0.373380
Si Si3 0.144386 0.105600 0.011364
Si Si4 0.026562 0.309857 0.595469
Si Si5 0.333661 0.001316 0.985606
Si Si6 0.410704 0.742494 0.979431
Si Si7 0.277393 0.786290 0.594357
Si Si8 0.240612 0.253459 0.565916
O O1 0.547232 0.703959 0.584485
O O2 0.334951 0.635460 0.630781
O O3 0.358102 0.420655 0.565073
O O4 0.539428 0.443260 0.878619
O O5 0.218620 0.196751 0.420546
O O6 0.357534 0.973312 0.512977
O O7 0.227390 0.185974 0.161639
O O8 0.124906 0.261801 0.813000
O O9 0.228755 0.977840 0.051533
O O10 0.000000 0.000000 0.000000
O O11 0.097694 0.295139 0.504694
O O12 0.000000 0.500000 0.500000
O O13 0.879634 0.192717 0.560068
O O14 0.283474 0.094882 0.765946
O O15 0.363637 0.811402 0.058978
O O16 0.470340 0.118336 0.074978
O O17 0.286479 0.734103 0.788425
#
# Coordination Sequence:
#
# PCOD8013179 Si02
#       8
#     2   2   2   2   2   2   2   2
#     4  11  24  41  66  99 139 169 214 282 327 382
#     4  12  25  43  65 102 135 170 220 271 334 390
#     4  11  24  44  65  97 132 172 215 271 331 384
#     4  11  24  45  70  92 131 174 222 264 325 394
#     4   9  20  41  68  92 134 170 214 270 322 393
#     4  10  21  40  66 101 124 172 225 264 323 382
#     4  12  23  41  70  97 130 176 222 266 331 395
#     4  10  22  45  69  96 132 177 218 267 326 395
#
# _framework density 21.596035000000001
#
# number of rings (size 3 to 8) (size 9 to 14) (size 15 to 20)
#    0.000    1.250    3.750    1.875    1.750    1.500 
#    4.500    0.625    0.000    0.000    0.000    0.000 
#    0.000    0.000    0.000    0.000    0.000    0.000 
#
# Total GULP energy -198385.666623 kJ/mol
# GULP energy per Si atom -12399.104164 kJ/mol
# Density = 2.154688 g / cm^3
# Si number density = 21.596035 Si / 1000 Ang^3
#
#
#
# Elastic Constant Matrix: (Units=GPa)
#
#
# Indices 1 2 3 4 5 6 
#
# 1 143.3570 41.0366 33.5989 10.9651 -3.4813 -16.3756
# 2 41.0366 91.2887 34.9335 -4.7831 -2.0223 -13.3215
# 3 33.5989 34.9335 97.4577 12.1070 1.7829 -17.8864
# 4 10.9651 -4.7831 12.1070 29.1344 -9.1612 -2.0298
# 5 -3.4813 -2.0223 1.7829 -9.1612 30.7683 -0.4010
# 6 -16.3756 -13.3215 -17.8864 -2.0298 -0.4010 34.6970
#
#
#
# Elastic Compliance Matrix: (Units=1/GPa)
#
#
# Indices 1 2 3 4 5 6 
#
# 1 0.008664 -0.003395 -0.000972 -0.003314 -0.000146 0.002089
# 2 -0.003395 0.015018 -0.004710 0.006769 0.002920 0.002166
# 3 -0.000972 -0.004710 0.014037 -0.006944 -0.003242 0.004525
# 4 -0.003314 0.006769 -0.006944 0.043834 0.013526 0.000175
# 5 -0.000146 0.002920 -0.003242 0.013526 0.036899 0.000599
# 6 0.002089 0.002166 0.004525 0.000175 0.000599 0.032988
#
#
# Mechanical properties :
#
#
# Convention : Reuss Voigt Hill
#
# Bulk Modulus (GPa) = 51.11113 61.24903 56.18008
# Shear Modulus (GPa) = 28.39064 33.75556 31.07310
#
# Velocity S-wave (km/s) = 3.62971 3.95782 3.79731
# Velocity P-wave (km/s) = 6.42531 7.02201 6.73028
#
# Compressibility (1/GPa) = 0.01956521
#
# Stress axis : x y z
#
# Youngs Moduli (GPa) = 115.42337 66.58738 71.24156
#
# Poissons Ratio (x) = 0.22604 0.06927
# Poissons Ratio (y) = 0.39181 0.33553
# Poissons Ratio (z) = 0.11223 0.31361
#
# Static dielectric constant tensor:
#      x y z
#    x 4.262670 0.080410 0.306090 
#    y 0.080410 3.973780 0.100580 
#    z 0.306090 0.100580 3.897140 
# 
# 
# High freq. dielectric constant tensor:
#      x y z
#    x 1.851050 -0.010490 0.006140 
#    y -0.010490 1.849690 -0.000990 
#    z 0.006140 -0.000990 1.837530 
# 
# From -- ./inp_files/181872.got.cif
#   From: 2010.06.25/outbox.cif.g09.slc.cpg/sg2_91_cif.got.tgz:181872.got - 2010.06.27 13:26:56.
