data_PCOD8013845
_publ_section_title
;
Structure prediction by ZEFSAII (Michael W. Deem and Ramdas Pophale) SiO2 
 PCOD8013845
Probable space group: P -1
;
_chemical_formula_sum "Si O2"
_cell_formula_units_Z 16
_cell_length_a 9.603786
_cell_length_b 9.664522
_cell_length_c 14.842976
_cell_angle_alpha 64.215054
_cell_angle_beta 38.017533
_cell_angle_gamma 78.143733
_cell_volume 740.260175
_symmetry_space_group_name_H-M "P -1"
_symmetry_group_IT_number 2
_symmetry_cell_setting 'triclinic'
loop_
_space_group_symop_operation_xyz
x,y,z
-x,-y,-z
loop_
_atom_site_type_symbol
_atom_site_label
_atom_site_fract_x
_atom_site_fract_y
_atom_site_fract_z
Si Si1 0.945598 0.667193 0.004834
Si Si2 0.520142 0.801303 0.138554
Si Si3 0.595053 0.159385 0.350283
Si Si4 0.138180 0.331974 0.749759
Si Si5 0.612994 0.314215 0.474610
Si Si6 0.153202 0.814631 0.460811
Si Si7 0.340341 0.830249 0.025456
Si Si8 0.335719 0.170486 0.294180
O O1 0.137780 0.816601 0.823762
O O2 0.692887 0.685168 0.096792
O O3 0.976519 0.683758 0.090379
O O4 0.000000 0.500000 0.000000
O O5 0.293688 0.737727 0.336357
O O6 0.641910 0.983200 0.050723
O O7 0.450870 0.790959 0.072707
O O8 0.603208 0.304961 0.373785
O O9 0.433940 0.168251 0.344996
O O10 0.500000 0.000000 0.500000
O O11 0.348999 0.244506 0.665424
O O12 0.263423 0.509824 0.605365
O O13 0.933847 0.256242 0.805851
O O14 0.764566 0.205690 0.473312
O O15 0.873208 0.738614 0.618027
O O16 0.214207 0.001683 0.359539
O O17 0.462356 0.755327 0.902216
#
# Coordination Sequence:
#
# PCOD8013845 Si02
#       8
#     2   2   2   2   2   2   2   2
#     4  12  25  45  67  96 137 174 222 278 334 398
#     4  10  24  42  69  97 130 173 220 274 332 392
#     4  12  25  39  67 100 129 174 226 275 331 391
#     4  11  24  44  65  94 133 174 219 273 333 398
#     4  11  24  42  64  94 134 175 218 272 332 393
#     4  10  21  41  62  93 135 169 211 273 327 391
#     4  10  23  43  67  98 129 173 222 272 329 397
#     4  10  22  38  64  97 131 165 217 271 328 390
#
# _framework density 21.614023
#
# number of rings (size 3 to 8) (size 9 to 14) (size 15 to 20)
#    0.000    1.250    5.000    0.000    5.250    1.500 
#    2.250    1.875    0.000    0.000    0.000    0.000 
#    0.000    0.000    0.000    0.000    0.000    0.000 
#
# Total GULP energy -198338.192089 kJ/mol
# GULP energy per Si atom -12396.137006 kJ/mol
# Density = 2.156483 g / cm^3
# Si number density = 21.614023 Si / 1000 Ang^3
#
#
#
# Elastic Constant Matrix: (Units=GPa)
#
#
# Indices 1 2 3 4 5 6 
#
# 1 141.3560 46.3602 64.5221 22.4238 -14.1309 -2.3699
# 2 46.3602 59.7803 36.8519 16.9627 -12.4930 -9.1620
# 3 64.5221 36.8519 146.1206 19.4058 -16.9473 -2.7567
# 4 22.4238 16.9627 19.4058 34.2600 1.2487 -4.4753
# 5 -14.1309 -12.4930 -16.9473 1.2487 42.0769 8.2223
# 6 -2.3699 -9.1620 -2.7567 -4.4753 8.2223 31.0401
#
#
#
# Elastic Compliance Matrix: (Units=1/GPa)
#
#
# Indices 1 2 3 4 5 6 
#
# 1 0.010835 -0.005891 -0.002812 -0.002874 0.001213 -0.001897
# 2 -0.005891 0.026590 -0.002555 -0.007357 0.004125 0.005018
# 3 -0.002812 -0.002555 0.009296 -0.002389 0.002328 -0.001104
# 4 -0.002874 -0.007357 -0.002389 0.036850 -0.006048 0.004312
# 5 0.001213 0.004125 0.002328 -0.006048 0.027830 -0.006727
# 6 -0.001897 0.005018 -0.001104 0.004312 -0.006727 0.035858
#
#
# Mechanical properties :
#
#
# Convention : Reuss Voigt Hill
#
# Bulk Modulus (GPa) = 41.31180 71.41392 56.36286
# Shear Modulus (GPa) = 28.11454 34.77693 31.44574
#
# Velocity S-wave (km/s) = 3.61051 4.01558 3.81842
# Velocity P-wave (km/s) = 6.04450 7.39000 6.75086
#
# Compressibility (1/GPa) = 0.02420616
#
# Stress axis : x y z
#
# Youngs Moduli (GPa) = 92.28934 37.60800 107.57100
#
# Poissons Ratio (x) = 0.22155 0.30251
# Poissons Ratio (y) = 0.54368 0.27480
# Poissons Ratio (z) = 0.25954 0.09607
#
# Static dielectric constant tensor:
#      x y z
#    x 3.838130 0.040900 -0.077090 
#    y 0.040900 3.755580 0.241970 
#    z -0.077090 0.241970 4.167700 
# 
# 
# High freq. dielectric constant tensor:
#      x y z
#    x 1.853170 0.003120 -0.002200 
#    y 0.003120 1.821620 0.015600 
#    z -0.002200 0.015600 1.864640 
# 
# From -- ./inp_files/494583.got.cif
#   From: 2010.06.25/outbox.cif.g09.slc.cpg/sg2_248_cif.got.tgz:494583.got - 2010.06.27 13:26:56.
