data_PCOD8013748
_publ_section_title
;
Structure prediction by ZEFSAII (Michael W. Deem and Ramdas Pophale) SiO2 
 PCOD8013748
Probable space group: P -1
;
_chemical_formula_sum "Si O2"
_cell_formula_units_Z 14
_cell_length_a 5.162855
_cell_length_b 12.335733
_cell_length_c 13.972555
_cell_angle_alpha 59.851237
_cell_angle_beta 62.449590
_cell_angle_gamma 62.180066
_cell_volume 649.575434
_symmetry_space_group_name_H-M "P -1"
_symmetry_group_IT_number 2
_symmetry_cell_setting 'triclinic'
loop_
_space_group_symop_operation_xyz
x,y,z
-x,-y,-z
loop_
_atom_site_type_symbol
_atom_site_label
_atom_site_fract_x
_atom_site_fract_y
_atom_site_fract_z
Si Si1 0.402324 0.327435 0.543176
Si Si2 0.693808 0.597520 0.915481
Si Si3 0.694440 0.393891 0.647054
Si Si4 0.362140 0.955381 0.450216
Si Si5 0.762210 0.625467 0.112655
Si Si6 0.455366 0.885887 0.818137
Si Si7 0.786461 0.893867 0.952217
O O1 0.601611 0.312666 0.612672
O O2 0.426554 0.451311 0.423424
O O3 0.527902 0.201839 0.509763
O O4 0.055152 0.344057 0.625241
O O5 0.530358 0.736222 0.828914
O O6 0.992412 0.515367 0.839736
O O7 0.500000 0.500000 0.000000
O O8 0.747864 0.632660 0.998250
O O9 0.550868 0.366846 0.783412
O O10 0.500000 0.000000 0.500000
O O11 0.484246 0.017150 0.312828
O O12 0.000000 0.000000 0.500000
O O13 0.855535 0.757130 0.061634
O O14 0.691018 0.883069 0.864048
O O15 0.095721 0.937057 0.886342
O O16 0.500000 0.000000 0.000000
#
# Coordination Sequence:
#
# PCOD8013748 Si02
#       7
#     2   2   2   2   2   2   2
#     4  10  24  44  63  96 127 160 225 263 319 386
#     4  10  21  41  60  94 130 160 219 256 308 386
#     4  10  23  42  68  93 126 168 209 275 318 372
#     4  12  27  45  69  95 129 176 220 265 333 386
#     4  10  23  37  66  93 124 172 207 259 322 374
#     4  11  25  43  64  94 130 168 209 272 310 378
#     4  11  24  41  64  97 130 166 211 252 330 389
#
# _framework density 21.55254
#
# number of rings (size 3 to 8) (size 9 to 14) (size 15 to 20)
#    0.000    1.429    1.429    2.143    8.000    1.143 
#    0.000    0.000    0.000    0.000    0.000    0.000 
#    0.000    0.000    0.000    0.000    0.000    0.000 
#
# Total GULP energy -173553.446093 kJ/mol
# GULP energy per Si atom -12396.674721 kJ/mol
# Density = 2.150349 g / cm^3
# Si number density = 21.552540 Si / 1000 Ang^3
#
#
#
# Elastic Constant Matrix: (Units=GPa)
#
#
# Indices 1 2 3 4 5 6 
#
# 1 85.6255 12.0629 18.2674 -3.0942 -13.4312 3.7921
# 2 12.0629 126.4461 26.6657 4.6352 3.5937 9.0190
# 3 18.2674 26.6657 102.2234 3.1804 -21.9380 -1.9721
# 4 -3.0942 4.6352 3.1804 22.9162 -2.7581 -3.6571
# 5 -13.4312 3.5937 -21.9380 -2.7581 32.1511 2.3032
# 6 3.7921 9.0190 -1.9721 -3.6571 2.3032 31.0053
#
#
#
# Elastic Compliance Matrix: (Units=1/GPa)
#
#
# Indices 1 2 3 4 5 6 
#
# 1 0.013029 -0.001170 -0.001013 0.002538 0.005201 -0.001405
# 2 -0.001170 0.009002 -0.002858 -0.002427 -0.003461 -0.002686
# 3 -0.001013 -0.002858 0.012527 -0.000113 0.008354 0.001118
# 4 0.002538 -0.002427 -0.000113 0.045935 0.004805 0.005450
# 5 0.005201 -0.003461 0.008354 0.004805 0.039882 -0.001494
# 6 -0.001405 -0.002686 0.001118 0.005450 -0.001494 0.034031
#
#
# Mechanical properties :
#
#
# Convention : Reuss Voigt Hill
#
# Bulk Modulus (GPa) = 40.85662 47.58746 44.22204
# Shear Modulus (GPa) = 28.96079 34.36776 31.66428
#
# Velocity S-wave (km/s) = 3.66967 3.99758 3.83713
# Velocity P-wave (km/s) = 6.07891 6.59054 6.33989
#
# Compressibility (1/GPa) = 0.02447584
#
# Stress axis : x y z
#
# Youngs Moduli (GPa) = 76.74895 111.08842 79.82709
#
# Poissons Ratio (x) = 0.12998 0.08087
# Poissons Ratio (y) = 0.08980 0.22816
# Poissons Ratio (z) = 0.07775 0.31751
#
# Static dielectric constant tensor:
#      x y z
#    x 3.954680 -0.191210 -0.111830 
#    y -0.191210 4.417150 -0.213530 
#    z -0.111830 -0.213530 3.600700 
# 
# 
# High freq. dielectric constant tensor:
#      x y z
#    x 1.848530 0.000800 -0.015300 
#    y 0.000800 1.864130 -0.003540 
#    z -0.015300 -0.003540 1.837890 
# 
# From -- ./inp_files/70020.got.cif
#   From: 2010.06.25/outbox.cif.g09.slc.cpg/sg2_36_cif.got.tgz:70020.got - 2010.06.27 13:26:56.
