data_PCOD8013567
_publ_section_title
;
Structure prediction by ZEFSAII (Michael W. Deem and Ramdas Pophale) SiO2 
 PCOD8013567
Probable space group: P -1
;
_chemical_formula_sum "Si O2"
_cell_formula_units_Z 16
_cell_length_a 9.201228
_cell_length_b 12.451488
_cell_length_c 11.434484
_cell_angle_alpha 57.350625
_cell_angle_beta 46.620742
_cell_angle_gamma 83.843959
_cell_volume 723.713104
_symmetry_space_group_name_H-M "P -1"
_symmetry_group_IT_number 2
_symmetry_cell_setting 'triclinic'
loop_
_space_group_symop_operation_xyz
x,y,z
-x,-y,-z
loop_
_atom_site_type_symbol
_atom_site_label
_atom_site_fract_x
_atom_site_fract_y
_atom_site_fract_z
Si Si1 0.252308 0.528533 0.354713
Si Si2 0.640731 0.852727 0.224577
Si Si3 0.874736 0.690158 0.075154
Si Si4 0.318493 0.246166 0.087066
Si Si5 0.123792 0.980428 0.221703
Si Si6 0.215334 0.587912 0.589654
Si Si7 0.116049 0.311587 0.381609
Si Si8 0.738031 0.032142 0.298521
O O1 0.314883 0.537805 0.451959
O O2 0.277362 0.401209 0.346148
O O3 0.000000 0.500000 0.500000
O O4 0.415875 0.675338 0.117706
O O5 0.758517 0.748251 0.202606
O O6 0.381037 0.747011 0.443343
O O7 0.721624 0.951818 0.233567
O O8 0.704002 0.959679 0.016274
O O9 0.830974 0.528848 0.216184
O O10 0.790808 0.694213 0.987573
O O11 0.135051 0.797002 0.882220
O O12 0.256817 0.269208 0.238061
O O13 0.236927 0.079309 0.212957
O O14 0.084512 0.823694 0.370216
O O15 0.885526 0.981483 0.329479
O O16 0.984694 0.592379 0.682890
O O17 0.500000 0.000000 0.500000
#
# Coordination Sequence:
#
# PCOD8013567 Si02
#       8
#     2   2   2   2   2   2   2   2
#     4  10  22  42  59  91 127 160 214 255 307 381
#     4  10  21  40  69  90 125 163 212 264 316 371
#     4  10  22  41  69  90 127 166 209 263 313 377
#     4  10  21  44  63  92 126 166 212 260 323 365
#     4  10  22  43  65  90 125 172 209 256 317 382
#     4  11  23  41  62  98 122 165 218 260 307 386
#     4  11  25  39  64  91 133 168 210 259 319 376
#     4  10  23  42  64  99 126 157 213 266 319 371
#
# _framework density 22.108208999999999
#
# number of rings (size 3 to 8) (size 9 to 14) (size 15 to 20)
#    0.000    2.000    2.500    2.625    7.000    1.000 
#    6.750    0.000    0.000    0.000    0.000    0.000 
#    0.000    0.000    0.000    0.000    0.000    0.000 
#
# Total GULP energy -198298.750760 kJ/mol
# GULP energy per Si atom -12393.671923 kJ/mol
# Density = 2.205789 g / cm^3
# Si number density = 22.108209 Si / 1000 Ang^3
#
#
#
# Elastic Constant Matrix: (Units=GPa)
#
#
# Indices 1 2 3 4 5 6 
#
# 1 37.0243 19.3382 28.3494 -13.2393 -4.0841 11.3535
# 2 19.3382 84.6124 25.6420 -1.3516 -2.1644 32.0129
# 3 28.3494 25.6420 107.6181 -13.3359 -12.6719 8.7555
# 4 -13.2393 -1.3516 -13.3359 38.1463 -2.0117 0.7713
# 5 -4.0841 -2.1644 -12.6719 -2.0117 35.1465 -10.9819
# 6 11.3535 32.0129 8.7555 0.7713 -10.9819 34.3562
#
#
#
# Elastic Compliance Matrix: (Units=1/GPa)
#
#
# Indices 1 2 3 4 5 6 
#
# 1 0.041940 -0.003647 -0.008044 0.011775 -0.000320 -0.008779
# 2 -0.003647 0.020818 -0.003397 -0.001668 -0.006515 -0.019372
# 3 -0.008044 -0.003397 0.012661 0.001684 0.004796 0.004092
# 4 0.011775 -0.001668 0.001684 0.031034 0.002852 -0.002552
# 5 -0.000320 -0.006515 0.004796 0.002852 0.034922 0.016053
# 6 -0.008779 -0.019372 0.004092 -0.002552 0.016053 0.054204
#
#
# Mechanical properties :
#
#
# Convention : Reuss Voigt Hill
#
# Bulk Modulus (GPa) = 22.10238 41.76824 31.93531
# Shear Modulus (GPa) = 20.76108 31.92481 26.34295
#
# Velocity S-wave (km/s) = 3.06774 3.80416 3.45562
# Velocity P-wave (km/s) = 4.75049 6.18297 5.51345
#
# Compressibility (1/GPa) = 0.04524399
#
# Stress axis : x y z
#
# Youngs Moduli (GPa) = 23.84347 48.03611 78.98276
#
# Poissons Ratio (x) = 0.17517 0.63530
# Poissons Ratio (y) = 0.08695 0.26833
# Poissons Ratio (z) = 0.19179 0.16319
#
# Static dielectric constant tensor:
#      x y z
#    x 3.753210 0.450480 -0.164740 
#    y 0.450480 4.260080 -0.201880 
#    z -0.164740 -0.201880 4.094150 
# 
# 
# High freq. dielectric constant tensor:
#      x y z
#    x 1.842020 0.026910 -0.012000 
#    y 0.026910 1.869730 -0.011230 
#    z -0.012000 -0.011230 1.880030 
# 
# From -- ./inp_files/345324.got.cif
#   From: 2010.06.25/outbox.cif.g09.slc.cpg/sg2_173_cif.got.tgz:345324.got - 2010.06.27 13:26:56.
