data_PCOD8013431
_publ_section_title
;
Structure prediction by ZEFSAII (Michael W. Deem and Ramdas Pophale) SiO2 
 PCOD8013431
Probable space group: P -1
;
_chemical_formula_sum "Si O2"
_cell_formula_units_Z 14
_cell_length_a 5.169287
_cell_length_b 17.519514
_cell_length_c 11.255084
_cell_angle_alpha 135.826176
_cell_angle_beta 113.985256
_cell_angle_gamma 77.502906
_cell_volume 644.413968
_symmetry_space_group_name_H-M "P -1"
_symmetry_group_IT_number 2
_symmetry_cell_setting 'triclinic'
loop_
_space_group_symop_operation_xyz
x,y,z
-x,-y,-z
loop_
_atom_site_type_symbol
_atom_site_label
_atom_site_fract_x
_atom_site_fract_y
_atom_site_fract_z
Si Si1 0.419533 0.936941 0.794522
Si Si2 0.686933 0.318289 0.485554
Si Si3 0.614118 0.180400 0.734219
Si Si4 0.507044 0.590728 0.982930
Si Si5 0.860096 0.363581 0.833818
Si Si6 0.167686 0.438810 0.558790
Si Si7 0.787627 0.980740 0.681217
O O1 0.417029 0.809578 0.681869
O O2 0.657244 0.971076 0.777573
O O3 0.117097 0.964897 0.723380
O O4 0.500000 0.000000 0.000000
O O5 0.804057 0.355741 0.676939
O O6 0.415948 0.382326 0.476151
O O7 0.943719 0.345367 0.471660
O O8 0.843680 0.240106 0.749007
O O9 0.362270 0.111928 0.537353
O O10 0.765206 0.102750 0.763663
O O11 0.491548 0.277530 0.895476
O O12 0.613186 0.427114 0.922380
O O13 0.299143 0.525073 0.777650
O O14 0.834492 0.566257 0.002338
O O15 0.000000 0.500000 0.500000
#
# Coordination Sequence:
#
# PCOD8013431 Si02
#       7
#     2   2   2   2   2   2   2
#     4  12  26  44  66  98 131 176 222 256 315 393
#     4  12  25  46  69  93 132 169 212 280 320 380
#     4   9  23  38  70  97 141 161 214 272 318 387
#     4  10  22  40  65  99 130 164 222 260 320 383
#     4  10  21  40  67  99 133 162 213 268 328 373
#     4  12  28  46  67  93 130 176 218 261 327 387
#     4  11  23  41  68  99 134 176 209 264 332 368
#
# _framework density 21.725166000000002
#
# number of rings (size 3 to 8) (size 9 to 14) (size 15 to 20)
#    0.857    0.286    1.429    4.286    2.000    6.857 
#    0.000    0.000    0.000    0.000    0.000    0.000 
#    0.000    0.000    0.000    0.000    0.000    0.000 
#
# Total GULP energy -173631.540751 kJ/mol
# GULP energy per Si atom -12402.252911 kJ/mol
# Density = 2.167572 g / cm^3
# Si number density = 21.725166 Si / 1000 Ang^3
#
#
#
# Elastic Constant Matrix: (Units=GPa)
#
#
# Indices 1 2 3 4 5 6 
#
# 1 99.8796 29.2603 12.8068 8.3853 10.2835 -10.9397
# 2 29.2603 99.7161 34.3815 4.5981 10.6422 3.6724
# 3 12.8068 34.3815 78.2717 -0.3288 0.6603 -7.0430
# 4 8.3853 4.5981 -0.3288 33.6202 -2.9873 3.5871
# 5 10.2835 10.6422 0.6603 -2.9873 31.0160 5.0099
# 6 -10.9397 3.6724 -7.0430 3.5871 5.0099 34.3274
#
#
#
# Elastic Compliance Matrix: (Units=1/GPa)
#
#
# Indices 1 2 3 4 5 6 
#
# 1 0.012240 -0.003125 -0.000143 -0.003550 -0.004162 0.005184
# 2 -0.003125 0.013364 -0.005610 -0.001051 -0.003043 -0.003023
# 3 -0.000143 -0.005610 0.015573 0.000682 0.001139 0.003512
# 4 -0.003550 -0.001051 0.000682 0.031791 0.005391 -0.004988
# 5 -0.004162 -0.003043 0.001139 0.005391 0.036229 -0.006618
# 6 0.005184 -0.003023 0.003512 -0.004988 -0.006618 0.033314
#
#
# Mechanical properties :
#
#
# Convention : Reuss Voigt Hill
#
# Bulk Modulus (GPa) = 42.69707 47.86275 45.27991
# Shear Modulus (GPa) = 29.74842 33.22064 31.48453
#
# Velocity S-wave (km/s) = 3.70443 3.91465 3.81099
# Velocity P-wave (km/s) = 6.16385 6.52009 6.34447
#
# Compressibility (1/GPa) = 0.02342081
#
# Stress axis : x y z
#
# Youngs Moduli (GPa) = 81.69654 74.82609 64.21431
#
# Poissons Ratio (x) = 0.23386 0.00920
# Poissons Ratio (y) = 0.25534 0.36023
# Poissons Ratio (z) = 0.01170 0.41976
#
# Static dielectric constant tensor:
#      x y z
#    x 4.430530 -0.230980 -0.383340 
#    y -0.230980 4.297940 0.618400 
#    z -0.383340 0.618400 4.452050 
# 
# 
# High freq. dielectric constant tensor:
#      x y z
#    x 1.867540 -0.000700 0.004410 
#    y -0.000700 1.868530 0.023140 
#    z 0.004410 0.023140 1.855980 
# 
# From -- ./inp_files/369227.got.cif
#   From: 2010.06.25/outbox.cif.g09.slc.cpg/sg2_185_cif.got.tgz:369227.got - 2010.06.27 13:26:56.
