data_PCOD8013347
_publ_section_title
;
Structure prediction by ZEFSAII (Michael W. Deem and Ramdas Pophale) SiO2 
 PCOD8013347
Probable space group: P -1
;
_chemical_formula_sum "Si O2"
_cell_formula_units_Z 16
_cell_length_a 13.041799
_cell_length_b 8.886287
_cell_length_c 15.465830
_cell_angle_alpha 147.776336
_cell_angle_beta 79.651980
_cell_angle_gamma 116.586727
_cell_volume 776.705583
_symmetry_space_group_name_H-M "P -1"
_symmetry_group_IT_number 2
_symmetry_cell_setting 'triclinic'
loop_
_space_group_symop_operation_xyz
x,y,z
-x,-y,-z
loop_
_atom_site_type_symbol
_atom_site_label
_atom_site_fract_x
_atom_site_fract_y
_atom_site_fract_z
Si Si1 0.215339 0.536631 0.168285
Si Si2 0.254560 0.130181 0.554482
Si Si3 0.009529 0.208050 0.893338
Si Si4 0.788268 0.895918 0.888153
Si Si5 0.478592 0.303767 0.156269
Si Si6 0.953578 0.222253 0.447711
Si Si7 0.392650 0.352117 0.012330
Si Si8 0.176360 0.619855 0.740023
O O1 0.213308 0.377395 0.183197
O O2 0.228207 0.884467 0.358015
O O3 0.095579 0.305729 0.012722
O O4 0.333974 0.576824 0.120377
O O5 0.404672 0.356535 0.654189
O O6 0.219145 0.384647 0.652409
O O7 0.180773 0.929178 0.557109
O O8 0.056007 0.093422 0.750482
O O9 0.867632 0.918161 0.804055
O O10 0.000000 0.500000 0.000000
O O11 0.653040 0.808523 0.831332
O O12 0.855590 0.245243 0.104313
O O13 0.467354 0.421637 0.122095
O O14 0.500000 0.000000 0.000000
O O15 0.000000 0.500000 0.500000
O O16 0.052626 0.387111 0.589919
O O17 0.283363 0.944407 0.824506
O O18 0.500000 0.500000 0.000000
#
# Coordination Sequence:
#
# PCOD8013347 Si02
#       8
#     2   2   2   2   2   2   2   2
#     4  10  23  41  62  90 122 166 205 248 317 362
#     4  12  22  41  66  91 125 162 212 253 300 384
#     4  12  24  39  62  94 125 160 204 261 316 357
#     4  10  21  42  63  86 125 165 207 247 303 384
#     4  10  21  40  67  91 117 170 214 244 305 371
#     4  12  25  38  63  97 124 160 204 268 311 358
#     4  10  23  41  66  89 129 167 200 258 311 368
#     4  10  21  42  62  90 120 169 210 244 312 368
#
# _framework density 20.599824000000002
#
# number of rings (size 3 to 8) (size 9 to 14) (size 15 to 20)
#    0.000    1.500    2.500    5.250    3.500    2.000 
#    2.250    0.625    0.000    0.000    0.000    0.000 
#    0.000    0.000    0.000    0.000    0.000    0.000 
#
# Total GULP energy -198228.643292 kJ/mol
# GULP energy per Si atom -12389.290206 kJ/mol
# Density = 2.055294 g / cm^3
# Si number density = 20.599824 Si / 1000 Ang^3
#
#
#
# Elastic Constant Matrix: (Units=GPa)
#
#
# Indices 1 2 3 4 5 6 
#
# 1 99.0533 33.0567 25.5951 -12.3098 12.4979 7.0822
# 2 33.0567 63.7517 7.8183 -1.6708 -6.2375 26.3194
# 3 25.5951 7.8183 105.2641 0.7858 4.4415 13.2631
# 4 -12.3098 -1.6708 0.7858 16.9225 -1.8249 -12.1954
# 5 12.4979 -6.2375 4.4415 -1.8249 43.3706 0.4159
# 6 7.0822 26.3194 13.2631 -12.1954 0.4159 37.2137
#
#
#
# Elastic Compliance Matrix: (Units=1/GPa)
#
#
# Indices 1 2 3 4 5 6 
#
# 1 0.020553 -0.018175 -0.006088 0.027169 -0.006963 0.020095
# 2 -0.018175 0.040750 0.006311 -0.037265 0.009267 -0.039926
# 3 -0.006088 0.006311 0.012050 -0.012754 0.001004 -0.011790
# 4 0.027169 -0.037265 -0.012754 0.122512 -0.007360 0.065962
# 5 -0.006963 0.009267 0.001004 -0.007360 0.026063 -0.008290
# 6 0.020095 -0.039926 -0.011790 0.065962 -0.008290 0.077197
#
#
# Mechanical properties :
#
#
# Convention : Reuss Voigt Hill
#
# Bulk Modulus (GPa) = 26.70539 44.55657 35.63098
# Shear Modulus (GPa) = 14.38800 32.94128 23.66464
#
# Velocity S-wave (km/s) = 2.64569 4.00322 3.39304
# Velocity P-wave (km/s) = 4.72493 6.56081 5.71704
#
# Compressibility (1/GPa) = 0.03744562
#
# Stress axis : x y z
#
# Youngs Moduli (GPa) = 48.65558 24.54016 82.98793
#
# Poissons Ratio (x) = 0.44603 0.50526
# Poissons Ratio (y) = 0.88434 -0.52371
# Poissons Ratio (z) = 0.29624 -0.15486
#
# Static dielectric constant tensor:
#      x y z
#    x 4.617820 0.165450 -0.112590 
#    y 0.165450 3.561370 0.185340 
#    z -0.112590 0.185340 3.873460 
# 
# 
# High freq. dielectric constant tensor:
#      x y z
#    x 1.824410 -0.002280 -0.006230 
#    y -0.002280 1.798120 0.005360 
#    z -0.006230 0.005360 1.802850 
# 
# From -- ./inp_files/516464.got.cif
#   From: 2010.06.25/outbox.cif.g09.slc.cpg/sg2_259_cif.got.tgz:516464.got - 2010.06.27 13:26:56.
