data_PCOD8013556
_publ_section_title
;
Structure prediction by ZEFSAII (Michael W. Deem and Ramdas Pophale) SiO2 
 PCOD8013556
Probable space group: P -1
;
_chemical_formula_sum "Si O2"
_cell_formula_units_Z 16
_cell_length_a 15.201761
_cell_length_b 8.897200
_cell_length_c 8.804131
_cell_angle_alpha 103.777620
_cell_angle_beta 66.941079
_cell_angle_gamma 139.779254
_cell_volume 703.767247
_symmetry_space_group_name_H-M "P -1"
_symmetry_group_IT_number 2
_symmetry_cell_setting 'triclinic'
loop_
_space_group_symop_operation_xyz
x,y,z
-x,-y,-z
loop_
_atom_site_type_symbol
_atom_site_label
_atom_site_fract_x
_atom_site_fract_y
_atom_site_fract_z
Si Si1 0.374758 0.386766 0.446068
Si Si2 0.113185 0.442424 0.981635
Si Si3 0.477872 0.316589 0.875489
Si Si4 0.095255 0.181173 0.690062
Si Si5 0.203259 0.829907 0.810424
Si Si6 0.246275 0.905271 0.447942
Si Si7 0.300825 0.670366 0.205661
Si Si8 0.976298 0.740558 0.538812
O O1 0.500000 0.500000 0.500000
O O2 0.437571 0.550745 0.301708
O O3 0.265220 0.376073 0.589744
O O4 0.297823 0.131896 0.400625
O O5 0.080061 0.236931 0.878951
O O6 0.187722 0.642836 0.852678
O O7 0.227027 0.565241 0.067991
O O8 0.959857 0.307174 0.120122
O O9 0.555964 0.261224 0.882988
O O10 0.309616 0.068948 0.897416
O O11 0.500000 0.500000 0.000000
O O12 0.009923 0.178999 0.622182
O O13 0.026840 0.927061 0.675917
O O14 0.268958 0.901739 0.612412
O O15 0.334927 0.889901 0.281010
O O16 0.073749 0.703453 0.479555
O O17 0.190848 0.494446 0.373266
#
# Coordination Sequence:
#
# PCOD8013556 Si02
#       8
#     2   2   2   2   2   2   2   2
#     4  11  24  46  71 102 133 191 232 288 352 421
#     4  11  27  43  72 104 146 184 238 293 351 408
#     4  12  30  48  72 105 148 182 236 292 360 423
#     4  10  23  41  70 101 141 180 240 287 347 417
#     4  11  26  47  68 105 144 192 228 296 354 409
#     4  11  24  44  74 100 144 181 244 286 345 428
#     4  12  26  44  70 106 138 191 232 289 356 412
#     4  10  21  40  69 103 132 183 235 290 340 411
#
# _framework density 22.734791000000001
#
# number of rings (size 3 to 8) (size 9 to 14) (size 15 to 20)
#    0.000    1.000    3.750    1.125    8.750    2.500 
#    0.000    0.000    0.000    0.000    0.000    0.000 
#    0.000    0.000    0.000    0.000    0.000    0.000 
#
# Total GULP energy -198321.914566 kJ/mol
# GULP energy per Si atom -12395.119660 kJ/mol
# Density = 2.268305 g / cm^3
# Si number density = 22.734791 Si / 1000 Ang^3
#
#
#
# Elastic Constant Matrix: (Units=GPa)
#
#
# Indices 1 2 3 4 5 6 
#
# 1 128.3481 21.6042 28.0111 19.1277 0.6085 8.1822
# 2 21.6042 84.5558 11.3731 13.3535 -1.7221 3.1679
# 3 28.0111 11.3731 60.3910 28.5370 -0.0499 -1.9955
# 4 19.1277 13.3535 28.5370 46.0403 -3.6549 -1.3748
# 5 0.6085 -1.7221 -0.0499 -3.6549 30.8533 6.8640
# 6 8.1822 3.1679 -1.9955 -1.3748 6.8640 33.7630
#
#
#
# Elastic Compliance Matrix: (Units=1/GPa)
#
#
# Indices 1 2 3 4 5 6 
#
# 1 0.009143 -0.001584 -0.003412 -0.001287 0.000094 -0.002340
# 2 -0.001584 0.012778 -0.000390 -0.002786 0.000655 -0.001085
# 3 -0.003412 -0.000390 0.024902 -0.014003 -0.002059 0.002184
# 4 -0.001287 -0.002786 -0.014003 0.032035 0.003570 0.000324
# 5 0.000094 0.000655 -0.002059 0.003570 0.034437 -0.007061
# 6 -0.002340 -0.001085 0.002184 0.000324 -0.007061 0.031865
#
#
# Mechanical properties :
#
#
# Convention : Reuss Voigt Hill
#
# Bulk Modulus (GPa) = 27.73891 43.91909 35.82900
# Shear Modulus (GPa) = 29.77101 36.28508 33.02804
#
# Velocity S-wave (km/s) = 3.62262 3.99935 3.81564
# Velocity P-wave (km/s) = 5.45210 6.37859 5.93345
#
# Compressibility (1/GPa) = 0.03605044
#
# Stress axis : x y z
#
# Youngs Moduli (GPa) = 109.37227 78.26067 40.15774
#
# Poissons Ratio (x) = 0.12400 0.13700
# Poissons Ratio (y) = 0.17329 0.01567
# Poissons Ratio (z) = 0.37314 0.03053
#
# Static dielectric constant tensor:
#      x y z
#    x 4.178000 0.003400 0.040100 
#    y 0.003400 4.226670 0.118370 
#    z 0.040100 0.118370 3.765370 
# 
# 
# High freq. dielectric constant tensor:
#      x y z
#    x 1.906290 -0.002920 0.006860 
#    y -0.002920 1.904720 0.002200 
#    z 0.006860 0.002200 1.886040 
# 
# From -- ./inp_files/298800.got.cif
#   From: 2010.06.25/outbox.cif.g09.slc.cpg/sg2_150_cif.got.tgz:298800.got - 2010.06.27 13:26:56.
