data_PCOD8013405
_publ_section_title
;
Structure prediction by ZEFSAII (Michael W. Deem and Ramdas Pophale) SiO2 
 PCOD8013405
Probable space group: P -1
;
_chemical_formula_sum "Si O2"
_cell_formula_units_Z 16
_cell_length_a 8.170028
_cell_length_b 23.620935
_cell_length_c 11.571976
_cell_angle_alpha 30.088633
_cell_angle_beta 140.892177
_cell_angle_gamma 127.602469
_cell_volume 692.857802
_symmetry_space_group_name_H-M "P -1"
_symmetry_group_IT_number 2
_symmetry_cell_setting 'triclinic'
loop_
_space_group_symop_operation_xyz
x,y,z
-x,-y,-z
loop_
_atom_site_type_symbol
_atom_site_label
_atom_site_fract_x
_atom_site_fract_y
_atom_site_fract_z
Si Si1 0.955119 0.207849 0.275585
Si Si2 0.290786 0.963837 0.671346
Si Si3 0.732701 0.785511 0.797614
Si Si4 0.792830 0.949240 0.119761
Si Si5 0.108098 0.418670 0.600692
Si Si6 0.694076 0.433238 0.876690
Si Si7 0.973711 0.399453 0.322339
Si Si8 0.164189 0.827011 0.353580
O O1 0.709541 0.142747 0.228814
O O2 0.078098 0.239732 0.166212
O O3 0.178524 0.112806 0.630563
O O4 0.866492 0.321185 0.105350
O O5 0.338389 0.082021 0.430553
O O6 0.519253 0.925179 0.959481
O O7 0.000000 0.000000 0.500000
O O8 0.452894 0.750450 0.676013
O O9 0.866859 0.711151 0.110081
O O10 0.052960 0.898130 0.279532
O O11 0.799820 0.086495 0.885521
O O12 0.387996 0.442596 0.666725
O O13 0.000000 0.500000 0.500000
O O14 0.905331 0.447094 0.331203
O O15 0.770848 0.552087 0.665744
O O16 0.742660 0.429980 0.047458
O O17 0.034301 0.261147 0.622516
#
# Coordination Sequence:
#
# PCOD8013405 Si02
#       8
#     2   2   2   2   2   2   2   2
#     4  11  22  42  70  98 136 177 214 277 324 393
#     4   9  22  39  61  96 135 175 211 262 324 385
#     4  10  22  44  63  99 142 169 221 273 327 388
#     4  10  21  40  67  96 135 171 227 257 334 393
#     4  12  26  46  67  97 132 174 221 276 329 393
#     4  11  25  47  68 100 131 168 228 273 328 395
#     4  11  24  45  70  91 130 176 216 271 336 382
#     4  10  21  43  64 100 131 173 217 277 319 395
#
# _framework density 23.092762
#
# number of rings (size 3 to 8) (size 9 to 14) (size 15 to 20)
#    0.000    1.500    2.500    1.125    3.500    5.000 
#    9.000    2.500    0.000    0.000    0.000    0.000 
#    0.000    0.000    0.000    0.000    0.000    0.000 
#
# Total GULP energy -198219.445230 kJ/mol
# GULP energy per Si atom -12388.715327 kJ/mol
# Density = 2.304020 g / cm^3
# Si number density = 23.092762 Si / 1000 Ang^3
#
#
#
# Elastic Constant Matrix: (Units=GPa)
#
#
# Indices 1 2 3 4 5 6 
#
# 1 80.0366 45.7286 27.7034 2.8383 -5.8414 1.4730
# 2 45.7286 146.9712 62.4323 -7.8381 -20.3421 1.0934
# 3 27.7034 62.4323 75.6353 2.7799 -9.6582 8.7566
# 4 2.8383 -7.8381 2.7799 33.2539 2.3787 -9.3677
# 5 -5.8414 -20.3421 -9.6582 2.3787 31.0443 -2.1875
# 6 1.4730 1.0934 8.7566 -9.3677 -2.1875 36.4284
#
#
#
# Elastic Compliance Matrix: (Units=1/GPa)
#
#
# Indices 1 2 3 4 5 6 
#
# 1 0.015673 -0.004066 -0.002274 -0.002243 -0.000290 -0.000559
# 2 -0.004066 0.012786 -0.009042 0.004756 0.004679 0.003458
# 3 -0.002274 -0.009042 0.022561 -0.005696 0.000645 -0.006486
# 4 -0.002243 0.004756 -0.005696 0.034809 -0.001026 0.010207
# 5 -0.000290 0.004679 0.000645 -0.001026 0.035615 0.001591
# 6 -0.000559 0.003458 -0.006486 0.010207 0.001591 0.031649
#
#
# Mechanical properties :
#
#
# Convention : Reuss Voigt Hill
#
# Bulk Modulus (GPa) = 49.37158 63.81909 56.59534
# Shear Modulus (GPa) = 26.23153 31.26389 28.74771
#
# Velocity S-wave (km/s) = 3.37400 3.68345 3.53211
# Velocity P-wave (km/s) = 6.05017 6.76656 6.41837
#
# Compressibility (1/GPa) = 0.02025457
#
# Stress axis : x y z
#
# Youngs Moduli (GPa) = 63.80278 78.21154 44.32443
#
# Poissons Ratio (x) = 0.31802 0.10081
# Poissons Ratio (y) = 0.25943 0.40080
# Poissons Ratio (z) = 0.14511 0.70721
#
# Static dielectric constant tensor:
#      x y z
#    x 4.125760 0.247900 -0.409020 
#    y 0.247900 4.660560 -0.230490 
#    z -0.409020 -0.230490 4.432140 
# 
# 
# High freq. dielectric constant tensor:
#      x y z
#    x 1.898140 0.013250 -0.021870 
#    y 0.013250 1.919520 -0.008090 
#    z -0.021870 -0.008090 1.909920 
# 
# From -- ./inp_files/406588.got.cif
#   From: 2010.06.25/outbox.cif.g09.slc.cpg/sg2_204_cif.got.tgz:406588.got - 2010.06.27 13:26:56.
