data_PCOD8013202
_publ_section_title
;
Structure prediction by ZEFSAII (Michael W. Deem and Ramdas Pophale) SiO2 
 PCOD8013202
Probable space group: P -1
;
_chemical_formula_sum "Si O2"
_cell_formula_units_Z 12
_cell_length_a 9.605306
_cell_length_b 9.161146
_cell_length_c 8.950954
_cell_angle_alpha 59.111380
_cell_angle_beta 74.036256
_cell_angle_gamma 64.656888
_cell_volume 609.325433
_symmetry_space_group_name_H-M "P -1"
_symmetry_group_IT_number 2
_symmetry_cell_setting 'triclinic'
loop_
_space_group_symop_operation_xyz
x,y,z
-x,-y,-z
loop_
_atom_site_type_symbol
_atom_site_label
_atom_site_fract_x
_atom_site_fract_y
_atom_site_fract_z
Si Si1 0.606642 0.601741 0.350056
Si Si2 0.105128 0.107609 0.355908
Si Si3 0.964881 0.337239 0.017878
Si Si4 0.042744 0.516717 0.645137
Si Si5 0.438493 0.874452 0.482664
Si Si6 0.387116 0.562781 0.860788
O O1 0.500000 0.500000 0.500000
O O2 0.783946 0.485139 0.392469
O O3 0.557323 0.793395 0.351534
O O4 0.588280 0.608035 0.170724
O O5 0.066915 0.151311 0.168041
O O6 0.071619 0.293577 0.358195
O O7 0.281679 0.988461 0.387261
O O8 0.000000 0.000000 0.500000
O O9 0.785605 0.361979 0.064824
O O10 0.000000 0.500000 0.000000
O O11 0.018915 0.344710 0.827386
O O12 0.000000 0.500000 0.500000
O O13 0.419294 0.720729 0.676341
O O14 0.500000 0.000000 0.500000
O O15 0.500000 0.500000 0.000000
#
# Coordination Sequence:
#
# PCOD8013202 Si02
#       6
#     2   2   2   2   2   2
#     4  10  21  41  60  93 124 166 212 250 310 383
#     4  11  20  42  64  88 128 163 203 261 319 367
#     4  10  21  40  66  90 121 169 216 249 315 376
#     4  11  23  39  68  90 121 167 217 254 308 385
#     4  11  24  39  65  96 130 164 203 265 328 363
#     4  11  23  41  66  93 126 170 217 255 311 384
#
# _framework density 19.693909999999999
#
# number of rings (size 3 to 8) (size 9 to 14) (size 15 to 20)
#    0.000    1.333    5.000    2.000    9.333    0.000 
#    0.000    5.833    0.000    0.000    0.000    0.000 
#    0.000    0.000    0.000    0.000    0.000    0.000 
#
# Total GULP energy -148731.737278 kJ/mol
# GULP energy per Si atom -12394.311440 kJ/mol
# Density = 1.964909 g / cm^3
# Si number density = 19.693910 Si / 1000 Ang^3
#
#
#
# Elastic Constant Matrix: (Units=GPa)
#
#
# Indices 1 2 3 4 5 6 
#
# 1 114.3923 26.8781 57.1095 8.3195 21.9478 -5.9529
# 2 26.8781 89.9733 39.3221 12.3171 16.6991 -0.0416
# 3 57.1095 39.3221 165.4314 5.6978 23.5550 0.7945
# 4 8.3195 12.3171 5.6978 35.3253 3.8589 4.8562
# 5 21.9478 16.6991 23.5550 3.8589 43.9294 -1.1039
# 6 -5.9529 -0.0416 0.7945 4.8562 -1.1039 34.8759
#
#
#
# Elastic Compliance Matrix: (Units=1/GPa)
#
#
# Indices 1 2 3 4 5 6 
#
# 1 0.011481 -0.001189 -0.003149 -0.001708 -0.003391 0.002160
# 2 -0.001189 0.013528 -0.002249 -0.003787 -0.003003 0.000297
# 3 -0.003149 -0.002249 0.007920 0.000573 -0.001890 -0.000860
# 4 -0.001708 -0.003787 0.000573 0.030662 -0.000824 -0.004604
# 5 -0.003391 -0.003003 -0.001890 -0.000824 0.026696 0.000420
# 6 0.002160 0.000297 -0.000860 -0.004604 0.000420 0.029716
#
#
# Mechanical properties :
#
#
# Convention : Reuss Voigt Hill
#
# Bulk Modulus (GPa) = 50.62035 68.49070 59.55553
# Shear Modulus (GPa) = 35.77510 39.25860 37.51685
#
# Velocity S-wave (km/s) = 4.26673 4.46964 4.36936
# Velocity P-wave (km/s) = 7.07338 7.84155 7.46735
#
# Compressibility (1/GPa) = 0.01975490
#
# Stress axis : x y z
#
# Youngs Moduli (GPa) = 87.10175 73.91965 126.26156
#
# Poissons Ratio (x) = 0.08790 0.39765
# Poissons Ratio (y) = 0.10357 0.28390
# Poissons Ratio (z) = 0.27432 0.16621
#
# Static dielectric constant tensor:
#      x y z
#    x 3.565450 0.015730 0.138300 
#    y 0.015730 3.813950 0.160350 
#    z 0.138300 0.160350 4.288190 
# 
# 
# High freq. dielectric constant tensor:
#      x y z
#    x 1.785250 -0.002370 0.000940 
#    y -0.002370 1.748590 0.009230 
#    z 0.000940 0.009230 1.775460 
# 
# From -- ./inp_files/144389.got.cif
#   From: 2010.06.25/outbox.cif.g09.slc.cpg/sg2_73_cif.got.tgz:144389.got - 2010.06.27 13:26:56.
