data_PCOD8013621
_publ_section_title
;
Structure prediction by ZEFSAII (Michael W. Deem and Ramdas Pophale) SiO2 
 PCOD8013621
Probable space group: P -1
;
_chemical_formula_sum "Si O2"
_cell_formula_units_Z 14
_cell_length_a 9.078875
_cell_length_b 9.055371
_cell_length_c 12.645442
_cell_angle_alpha 120.626004
_cell_angle_beta 132.153757
_cell_angle_gamma 78.615524
_cell_volume 645.970576
_symmetry_space_group_name_H-M "P -1"
_symmetry_group_IT_number 2
_symmetry_cell_setting 'triclinic'
loop_
_space_group_symop_operation_xyz
x,y,z
-x,-y,-z
loop_
_atom_site_type_symbol
_atom_site_label
_atom_site_fract_x
_atom_site_fract_y
_atom_site_fract_z
Si Si1 0.619826 0.723417 0.256246
Si Si2 0.685383 0.049097 0.818973
Si Si3 0.301297 0.346530 0.344371
Si Si4 0.681703 0.136188 0.084755
Si Si5 0.368246 0.353948 0.995828
Si Si6 0.930842 0.672548 0.562084
Si Si7 0.944417 0.675478 0.993062
O O1 0.531178 0.898685 0.283128
O O2 0.724879 0.703123 0.185987
O O3 0.787364 0.736419 0.431746
O O4 0.419435 0.563964 0.116080
O O5 0.646442 0.844649 0.696817
O O6 0.753602 0.075049 0.984152
O O7 0.860538 0.163599 0.870316
O O8 0.500000 0.500000 0.500000
O O9 0.176870 0.374838 0.396482
O O10 0.171636 0.373487 0.190102
O O11 0.870954 0.169462 0.268234
O O12 0.592146 0.310352 0.092882
O O13 0.500000 0.000000 0.000000
O O14 0.206645 0.260092 0.971961
O O15 0.000000 0.500000 0.500000
O O16 0.000000 0.500000 0.000000
#
# Coordination Sequence:
#
# PCOD8013621 Si02
#       7
#     2   2   2   2   2   2   2
#     4  10  22  44  70 105 140 192 234 299 350 433
#     4  11  25  49  73 104 146 192 248 291 358 442
#     4  12  29  48  71 106 146 190 240 307 366 418
#     4  11  24  44  74 102 142 193 239 297 357 433
#     4  10  21  40  70 101 146 186 239 283 363 424
#     4  12  26  44  73 104 145 184 243 297 365 421
#     4  12  24  43  74 108 140 189 241 291 358 434
#
# _framework density 21.672813000000001
#
# number of rings (size 3 to 8) (size 9 to 14) (size 15 to 20)
#    0.000    0.857    4.286    2.143    6.000    0.571 
#    0.000    2.857    0.000    0.000    0.000    0.000 
#    0.000    0.000    0.000    0.000    0.000    0.000 
#
# Total GULP energy -173633.976838 kJ/mol
# GULP energy per Si atom -12402.426917 kJ/mol
# Density = 2.162348 g / cm^3
# Si number density = 21.672813 Si / 1000 Ang^3
#
#
#
# Elastic Constant Matrix: (Units=GPa)
#
#
# Indices 1 2 3 4 5 6 
#
# 1 154.4995 47.0424 80.2594 2.2711 -13.8972 13.5047
# 2 47.0424 128.7781 73.5954 4.5350 -1.2835 1.5687
# 3 80.2594 73.5954 151.5206 -12.9025 4.1793 12.6567
# 4 2.2711 4.5350 -12.9025 46.7024 5.7671 -7.4473
# 5 -13.8972 -1.2835 4.1793 5.7671 36.4312 3.9680
# 6 13.5047 1.5687 12.6567 -7.4473 3.9680 35.5019
#
#
#
# Elastic Compliance Matrix: (Units=1/GPa)
#
#
# Indices 1 2 3 4 5 6 
#
# 1 0.010173 -0.000493 -0.005290 -0.003073 0.005305 -0.003200
# 2 -0.000493 0.011178 -0.005501 -0.002563 0.001135 0.000990
# 3 -0.005290 -0.005501 0.012658 0.004696 -0.004321 -0.000790
# 4 -0.003073 -0.002563 0.004696 0.024767 -0.006322 0.005510
# 5 0.005305 0.001135 -0.004321 -0.006322 0.031596 -0.005385
# 6 -0.003200 0.000990 -0.000790 0.005510 -0.005385 0.031380
#
#
# Mechanical properties :
#
#
# Convention : Reuss Voigt Hill
#
# Bulk Modulus (GPa) = 87.39078 92.95473 90.17275
# Shear Modulus (GPa) = 33.75333 39.32051 36.53692
#
# Velocity S-wave (km/s) = 3.95068 4.26406 4.11035
# Velocity P-wave (km/s) = 7.82437 8.19915 8.01395
#
# Compressibility (1/GPa) = 0.01144285
#
# Stress axis : x y z
#
# Youngs Moduli (GPa) = 98.30415 89.45756 78.99856
#
# Poissons Ratio (x) = 0.04410 0.41788
# Poissons Ratio (y) = 0.04846 0.43455
# Poissons Ratio (z) = 0.52000 0.49208
#
# Static dielectric constant tensor:
#      x y z
#    x 4.264320 -0.211640 -0.039200 
#    y -0.211640 4.305420 -0.234630 
#    z -0.039200 -0.234630 3.938930 
# 
# 
# High freq. dielectric constant tensor:
#      x y z
#    x 1.867400 -0.002850 -0.007930 
#    y -0.002850 1.863900 -0.004820 
#    z -0.007930 -0.004820 1.839680 
# 
# From -- ./inp_files/156758.got.cif
#   From: 2010.06.25/outbox.cif.g09.slc.cpg/sg2_79_cif.got.tgz:156758.got - 2010.06.27 13:26:56.
