data_PCOD8013913
_publ_section_title
;
Structure prediction by ZEFSAII (Michael W. Deem and Ramdas Pophale) SiO2 
 PCOD8013913
Probable space group: P -1
;
_chemical_formula_sum "Si O2"
_cell_formula_units_Z 16
_cell_length_a 18.787249
_cell_length_b 28.285922
_cell_length_c 15.506168
_cell_angle_alpha 162.959212
_cell_angle_beta 158.791074
_cell_angle_gamma 18.849530
_cell_volume 746.687442
_symmetry_space_group_name_H-M "P -1"
_symmetry_group_IT_number 2
_symmetry_cell_setting 'triclinic'
loop_
_space_group_symop_operation_xyz
x,y,z
-x,-y,-z
loop_
_atom_site_type_symbol
_atom_site_label
_atom_site_fract_x
_atom_site_fract_y
_atom_site_fract_z
Si Si1 0.887300 0.524578 0.215287
Si Si2 0.776358 0.119237 0.518263
Si Si3 0.012783 0.316863 0.156392
Si Si4 0.315906 0.380898 0.352082
Si Si5 0.618343 0.893874 0.667379
Si Si6 0.504383 0.462665 0.306564
Si Si7 0.699759 0.198015 0.212375
Si Si8 0.198310 0.091082 0.648968
O O1 0.009949 0.333207 0.077951
O O2 0.715518 0.703016 0.390132
O O3 0.105131 0.530391 0.435188
O O4 0.745001 0.501565 0.938081
O O5 0.541397 0.220561 0.375923
O O6 0.750978 0.999192 0.355842
O O7 0.803382 0.282975 0.881969
O O8 0.000000 0.000000 0.500000
O O9 0.000000 0.500000 0.500000
O O10 0.239283 0.135572 0.134609
O O11 0.367752 0.522532 0.606479
O O12 0.220339 0.275664 0.001269
O O13 0.365483 0.960232 0.532408
O O14 0.636854 0.038944 0.878780
O O15 0.657196 0.258608 0.169087
O O16 0.479539 0.623305 0.622714
O O17 0.954053 0.133545 0.415563
#
# Coordination Sequence:
#
# PCOD8013913 Si02
#       8
#     2   2   2   2   2   2   2   2
#     4  11  24  44  65  96 136 170 212 268 328 387
#     4  12  22  39  70  98 132 166 219 275 316 386
#     4  10  21  41  63  91 134 170 199 254 329 381
#     4  12  23  40  68  99 127 171 218 266 329 387
#     4  11  24  44  65  96 136 170 212 268 328 387
#     4  11  24  44  68  95 128 171 221 274 322 380
#     4  11  24  44  68  95 128 171 221 274 322 380
#     4  12  23  40  68  99 127 171 218 266 329 387
#
# _framework density 21.427975
#
# number of rings (size 3 to 8) (size 9 to 14) (size 15 to 20)
#    0.000    0.750    5.000    3.375    0.000    3.000 
#    0.000    3.750    0.000    0.000    0.000    0.000 
#    0.000    0.000    0.000    0.000    0.000    0.000 
#
# Total GULP energy -198299.581014 kJ/mol
# GULP energy per Si atom -12393.723813 kJ/mol
# Density = 2.137920 g / cm^3
# Si number density = 21.427975 Si / 1000 Ang^3
#
#
#
# Elastic Constant Matrix: (Units=GPa)
#
#
# Indices 1 2 3 4 5 6 
#
# 1 115.0626 69.4962 26.8623 -4.6061 24.8048 9.0645
# 2 69.4962 63.3884 12.3449 5.8424 16.4525 14.3616
# 3 26.8623 12.3449 76.0975 -0.4244 14.9340 0.9766
# 4 -4.6061 5.8424 -0.4244 24.4147 -0.8099 -0.5774
# 5 24.8048 16.4525 14.9340 -0.8099 36.5314 3.1183
# 6 9.0645 14.3616 0.9766 -0.5774 3.1183 57.3880
#
#
#
# Elastic Compliance Matrix: (Units=1/GPa)
#
#
# Indices 1 2 3 4 5 6 
#
# 1 0.033086 -0.036648 -0.004924 0.014898 -0.003992 0.004396
# 2 -0.036648 0.060227 0.003852 -0.021597 -0.003493 -0.009376
# 3 -0.004924 0.003852 0.015151 -0.001745 -0.004606 -0.000211
# 4 0.014898 -0.021597 -0.001745 0.049027 0.001111 0.003514
# 5 -0.003992 -0.003493 -0.004606 0.001111 0.033585 -0.000231
# 6 0.004396 -0.009376 -0.000211 0.003514 -0.000231 0.019129
#
#
# Mechanical properties :
#
#
# Convention : Reuss Voigt Hill
#
# Bulk Modulus (GPa) = 30.28142 52.43948 41.36045
# Shear Modulus (GPa) = 16.85467 33.38983 25.12225
#
# Velocity S-wave (km/s) = 2.80763 3.95173 3.42775
# Velocity P-wave (km/s) = 4.96717 6.73403 5.91692
#
# Compressibility (1/GPa) = 0.03302355
#
# Stress axis : x y z
#
# Youngs Moduli (GPa) = 30.22407 16.60393 66.00143
#
# Poissons Ratio (x) = 0.60850 0.32499
# Poissons Ratio (y) = 1.10766 -0.25423
# Poissons Ratio (z) = 0.14882 -0.06396
#
# Static dielectric constant tensor:
#      x y z
#    x 4.067310 0.279910 0.156000 
#    y 0.279910 4.007960 -0.076920 
#    z 0.156000 -0.076920 3.881800 
# 
# 
# High freq. dielectric constant tensor:
#      x y z
#    x 1.838760 0.010350 0.012560 
#    y 0.010350 1.835570 -0.005590 
#    z 0.012560 -0.005590 1.846320 
# 
# From -- ./inp_files/81217.got.cif
#   From: 2010.06.25/outbox.cif.g09.slc.cpg/sg2_41_cif.got.tgz:81217.got - 2010.06.27 13:26:56.
