data_PCOD8013210
_publ_section_title
;
Structure prediction by ZEFSAII (Michael W. Deem and Ramdas Pophale) SiO2 
 PCOD8013210
Probable space group: P -1
;
_chemical_formula_sum "Si O2"
_cell_formula_units_Z 14
_cell_length_a 14.256901
_cell_length_b 10.161644
_cell_length_c 11.947359
_cell_angle_alpha 63.722844
_cell_angle_beta 150.102552
_cell_angle_gamma 131.095909
_cell_volume 611.804468
_symmetry_space_group_name_H-M "P -1"
_symmetry_group_IT_number 2
_symmetry_cell_setting 'triclinic'
loop_
_space_group_symop_operation_xyz
x,y,z
-x,-y,-z
loop_
_atom_site_type_symbol
_atom_site_label
_atom_site_fract_x
_atom_site_fract_y
_atom_site_fract_z
Si Si1 0.308829 0.333424 0.637511
Si Si2 0.632542 0.974985 0.806325
Si Si3 0.550515 0.856162 0.994629
Si Si4 0.159069 0.721293 0.803966
Si Si5 0.844800 0.763554 0.732994
Si Si6 0.791409 0.573662 0.957186
Si Si7 0.237879 0.985750 0.317166
O O1 0.291482 0.186239 0.757962
O O2 0.273273 0.265650 0.497644
O O3 0.581505 0.521490 0.846895
O O4 0.116007 0.361439 0.466118
O O5 0.648916 0.910081 0.724353
O O6 0.444752 0.018024 0.595418
O O7 0.886116 0.163595 0.035466
O O8 0.547320 0.816917 0.873062
O O9 0.681104 0.075286 0.054260
O O10 0.279206 0.736543 0.803159
O O11 0.166038 0.580867 0.941753
O O12 0.715237 0.582810 0.747575
O O13 0.869482 0.926271 0.765711
O O14 0.032853 0.767991 0.170017
#
# Coordination Sequence:
#
# PCOD8013210 Si02
#       7
#     2   2   2   2   2   2   2
#     4  11  23  39  66  98 125 164 202 261 320 367
#     4  10  21  40  66  91 118 167 215 251 305 364
#     4  10  22  40  64  95 123 163 214 255 308 373
#     4  10  22  38  63  92 129 158 204 261 309 365
#     4  11  23  40  67  95 126 164 208 257 312 378
#     4  10  23  41  59  97 131 159 207 259 315 368
#     4  10  24  42  65  91 127 168 211 253 307 380
#
# _framework density 22.883127999999999
#
# number of rings (size 3 to 8) (size 9 to 14) (size 15 to 20)
#    0.000    1.714    1.429    2.571    6.000    5.143 
#    0.000    2.857    0.000   15.429    0.000    0.000 
#    0.000    0.000    0.000    0.000    0.000    0.000 
#
# Total GULP energy -173522.333051 kJ/mol
# GULP energy per Si atom -12394.452361 kJ/mol
# Density = 2.283104 g / cm^3
# Si number density = 22.883128 Si / 1000 Ang^3
#
#
#
# Elastic Constant Matrix: (Units=GPa)
#
#
# Indices 1 2 3 4 5 6 
#
# 1 91.8953 52.3221 65.1190 -10.5959 5.7920 31.5536
# 2 52.3221 108.4159 62.3290 -30.3995 -1.1061 19.2573
# 3 65.1190 62.3290 141.1896 -30.2442 16.8651 18.8172
# 4 -10.5959 -30.3995 -30.2442 33.4529 11.1304 -3.0743
# 5 5.7920 -1.1061 16.8651 11.1304 48.4904 -4.6485
# 6 31.5536 19.2573 18.8172 -3.0743 -4.6485 30.3888
#
#
#
# Elastic Compliance Matrix: (Units=1/GPa)
#
#
# Indices 1 2 3 4 5 6 
#
# 1 0.025800 -0.006364 -0.007789 -0.006066 -0.000917 -0.018686
# 2 -0.006364 0.016972 -0.001447 0.012361 -0.001399 -0.002215
# 3 -0.007789 -0.001447 0.014646 0.011757 -0.006888 0.000072
# 4 -0.006066 0.012361 0.011757 0.054691 -0.016188 -0.005759
# 5 -0.000917 -0.001399 -0.006888 -0.016188 0.027645 0.008695
# 6 -0.018686 -0.002215 0.000072 -0.005759 0.008695 0.054416
#
#
# Mechanical properties :
#
#
# Convention : Reuss Voigt Hill
#
# Bulk Modulus (GPa) = 38.14342 77.89344 58.01843
# Shear Modulus (GPa) = 21.35761 33.24848 27.30304
#
# Velocity S-wave (km/s) = 3.05837 3.81592 3.45795
# Velocity P-wave (km/s) = 5.40152 7.31632 6.43059
#
# Compressibility (1/GPa) = 0.02621684
#
# Stress axis : x y z
#
# Youngs Moduli (GPa) = 38.76040 58.92048 68.27891
#
# Poissons Ratio (x) = 0.37497 0.53183
# Poissons Ratio (y) = 0.24667 0.09881
# Poissons Ratio (z) = 0.30191 0.08527
#
# Static dielectric constant tensor:
#      x y z
#    x 4.210220 0.555460 0.162960 
#    y 0.555460 3.967800 -0.161810 
#    z 0.162960 -0.161810 4.247450 
# 
# 
# High freq. dielectric constant tensor:
#      x y z
#    x 1.898290 0.036000 0.016480 
#    y 0.036000 1.887340 -0.010410 
#    z 0.016480 -0.010410 1.915920 
# 
# From -- ./inp_files/451173.got.cif
#   From: 2010.06.25/outbox.cif.g09.slc.cpg/sg2_226_cif.got.tgz:451173.got - 2010.06.27 13:26:56.
