data_PCOD8013920
_publ_section_title
;
Structure prediction by ZEFSAII (Michael W. Deem and Ramdas Pophale) SiO2 
 PCOD8013920
Probable space group: P -1
;
_chemical_formula_sum "Si O2"
_cell_formula_units_Z 14
_cell_length_a 9.238052
_cell_length_b 11.748921
_cell_length_c 13.323394
_cell_angle_alpha 31.617051
_cell_angle_beta 59.841497
_cell_angle_gamma 59.688880
_cell_volume 645.982549
_symmetry_space_group_name_H-M "P -1"
_symmetry_group_IT_number 2
_symmetry_cell_setting 'triclinic'
loop_
_space_group_symop_operation_xyz
x,y,z
-x,-y,-z
loop_
_atom_site_type_symbol
_atom_site_label
_atom_site_fract_x
_atom_site_fract_y
_atom_site_fract_z
Si Si1 0.346119 0.250644 0.606008
Si Si2 0.822221 0.748084 0.798934
Si Si3 0.618302 0.094500 0.465205
Si Si4 0.016209 0.083434 0.819523
Si Si5 0.663811 0.269867 0.717703
Si Si6 0.549334 0.907832 0.915930
Si Si7 0.095562 0.747289 0.864199
O O1 0.493117 0.235845 0.482038
O O2 0.158510 0.240521 0.636840
O O3 0.357869 0.472793 0.498659
O O4 0.379065 0.038672 0.826299
O O5 0.654566 0.734491 0.933842
O O6 0.958969 0.833647 0.760058
O O7 0.761639 0.909598 0.605890
O O8 0.904785 0.505982 0.913185
O O9 0.719018 0.246395 0.250019
O O10 0.500000 0.000000 0.500000
O O11 0.836898 0.231170 0.748077
O O12 0.056292 0.882808 0.878129
O O13 0.000000 0.000000 0.000000
O O14 0.667088 0.096498 0.756117
O O15 0.500737 0.228478 0.870597
#
# Coordination Sequence:
#
# PCOD8013920 Si02
#       7
#     2   2   2   2   2   2   2
#     4  11  23  41  62  92 124 165 209 256 316 371
#     4  10  23  42  69  92 123 173 211 265 318 372
#     4  11  23  41  65  96 127 160 213 267 315 378
#     4  12  24  43  62  93 133 167 211 259 313 385
#     4  11  22  39  64  88 127 170 203 255 315 370
#     4  10  21  41  63  93 124 158 216 258 304 377
#     4  11  23  45  64  93 130 168 215 259 318 376
#
# _framework density 21.672412000000001
#
# number of rings (size 3 to 8) (size 9 to 14) (size 15 to 20)
#    0.000    1.143    4.286    2.143    0.000    1.714 
#    2.571    1.429    0.000    0.000    0.000    0.000 
#    0.000    0.000    0.000    0.000    0.000    0.000 
#
# Total GULP energy -173524.257734 kJ/mol
# GULP energy per Si atom -12394.589838 kJ/mol
# Density = 2.162309 g / cm^3
# Si number density = 21.672412 Si / 1000 Ang^3
#
#
#
# Elastic Constant Matrix: (Units=GPa)
#
#
# Indices 1 2 3 4 5 6 
#
# 1 107.0749 20.0327 14.9376 -4.8924 -10.7058 2.9187
# 2 20.0327 82.5541 36.4003 -2.6795 -6.5899 11.7028
# 3 14.9376 36.4003 53.2095 -3.7948 -16.8391 1.2591
# 4 -4.8924 -2.6795 -3.7948 33.1163 4.0391 -3.8324
# 5 -10.7058 -6.5899 -16.8391 4.0391 28.1229 1.0354
# 6 2.9187 11.7028 1.2591 -3.8324 1.0354 35.1147
#
#
#
# Elastic Compliance Matrix: (Units=1/GPa)
#
#
# Indices 1 2 3 4 5 6 
#
# 1 0.010116 -0.001944 -0.000501 0.000898 0.002972 -0.000165
# 2 -0.001944 0.019097 -0.013756 -0.000455 -0.004229 -0.005635
# 3 -0.000501 -0.013756 0.033537 0.001007 0.016410 0.003050
# 4 0.000898 -0.000455 0.001007 0.031282 -0.003786 0.003567
# 5 0.002972 -0.004229 0.016410 -0.003786 0.046112 -0.001199
# 6 -0.000165 -0.005635 0.003050 0.003567 -0.001199 0.030685
#
#
# Mechanical properties :
#
#
# Convention : Reuss Voigt Hill
#
# Bulk Modulus (GPa) = 32.95120 42.84218 37.89669
# Shear Modulus (GPa) = 23.43602 30.70198 27.06900
#
# Velocity S-wave (km/s) = 3.29200 3.76791 3.53796
# Velocity P-wave (km/s) = 5.44857 6.22419 5.84925
#
# Compressibility (1/GPa) = 0.03034791
#
# Stress axis : x y z
#
# Youngs Moduli (GPa) = 98.85747 52.36539 29.81740
#
# Poissons Ratio (x) = 0.10179 0.01495
# Poissons Ratio (y) = 0.19216 0.41015
# Poissons Ratio (z) = 0.04958 0.72031
#
# Static dielectric constant tensor:
#      x y z
#    x 4.136570 -0.165040 -0.085200 
#    y -0.165040 4.157750 0.063480 
#    z -0.085200 0.063480 3.652700 
# 
# 
# High freq. dielectric constant tensor:
#      x y z
#    x 1.866580 -0.006700 -0.006340 
#    y -0.006700 1.852820 -0.003890 
#    z -0.006340 -0.003890 1.834410 
# 
# From -- ./inp_files/68146.got.cif
#   From: 2010.06.25/outbox.cif.g09.slc.cpg/sg2_35_cif.got.tgz:68146.got - 2010.06.27 13:26:56.
