data_PCOD8013412
_publ_section_title
;
Structure prediction by ZEFSAII (Michael W. Deem and Ramdas Pophale) SiO2 
 PCOD8013412
Probable space group: P -1
;
_chemical_formula_sum "Si O2"
_cell_formula_units_Z 16
_cell_length_a 17.422034
_cell_length_b 12.449518
_cell_length_c 8.581963
_cell_angle_alpha 49.378234
_cell_angle_beta 119.325731
_cell_angle_gamma 150.560041
_cell_volume 679.389993
_symmetry_space_group_name_H-M "P -1"
_symmetry_group_IT_number 2
_symmetry_cell_setting 'triclinic'
loop_
_space_group_symop_operation_xyz
x,y,z
-x,-y,-z
loop_
_atom_site_type_symbol
_atom_site_label
_atom_site_fract_x
_atom_site_fract_y
_atom_site_fract_z
Si Si1 0.751499 0.137563 0.566310
Si Si2 0.019877 0.259711 0.264272
Si Si3 0.963114 0.614385 0.509494
Si Si4 0.166226 0.273233 0.839160
Si Si5 0.517323 0.374361 0.047790
Si Si6 0.286451 0.749483 0.888079
Si Si7 0.767642 0.716568 0.442496
Si Si8 0.498923 0.765070 0.164343
O O1 0.864249 0.343517 0.622676
O O2 0.717151 0.207840 0.334134
O O3 0.853597 0.140547 0.601137
O O4 0.582079 0.868373 0.719131
O O5 0.019797 0.365489 0.308059
O O6 0.119770 0.255234 0.409868
O O7 0.105155 0.459433 0.021248
O O8 0.839445 0.966510 0.325252
O O9 0.856419 0.596458 0.353790
O O10 0.298725 0.430685 0.955395
O O11 0.232645 0.278036 0.750468
O O12 0.000000 0.000000 0.000000
O O13 0.500000 0.500000 0.000000
O O14 0.460786 0.287242 0.892077
O O15 0.344397 0.957823 0.859408
O O16 0.400151 0.766418 0.000909
O O17 0.593442 0.453953 0.590999
#
# Coordination Sequence:
#
# PCOD8013412 Si02
#       8
#     2   2   2   2   2   2   2   2
#     4  11  24  42  64  98 134 169 219 274 334 389
#     4   9  19  36  62  91 127 166 211 265 317 386
#     4  10  23  42  66  93 133 172 216 271 325 395
#     4  11  24  41  69  97 129 173 221 266 330 396
#     4  12  27  44  65  96 136 176 219 274 336 391
#     4  10  21  40  67  97 127 169 223 273 332 391
#     4   9  20  36  62  95 125 164 219 261 319 387
#     4  10  22  41  67  94 133 176 219 271 328 400
#
# _framework density 23.550536000000001
#
# number of rings (size 3 to 8) (size 9 to 14) (size 15 to 20)
#    0.000    1.750    0.000    3.000   10.500    4.500 
#    2.250    1.250    0.000    0.000    0.000    0.000 
#    0.000    0.000    0.000    0.000    0.000    0.000 
#
# Total GULP energy -198327.044969 kJ/mol
# GULP energy per Si atom -12395.440311 kJ/mol
# Density = 2.349693 g / cm^3
# Si number density = 23.550536 Si / 1000 Ang^3
#
#
#
# Elastic Constant Matrix: (Units=GPa)
#
#
# Indices 1 2 3 4 5 6 
#
# 1 80.8662 25.5202 23.5504 -7.6688 -20.1368 -18.4271
# 2 25.5202 111.2904 50.0274 -24.0770 -13.2115 -6.2531
# 3 23.5504 50.0274 99.3813 -18.9022 -39.1075 -11.7433
# 4 -7.6688 -24.0770 -18.9022 39.5796 7.3094 -5.2019
# 5 -20.1368 -13.2115 -39.1075 7.3094 31.4808 4.5669
# 6 -18.4271 -6.2531 -11.7433 -5.2019 4.5669 41.4093
#
#
#
# Elastic Compliance Matrix: (Units=1/GPa)
#
#
# Indices 1 2 3 4 5 6 
#
# 1 0.017342 -0.003431 0.003937 0.001658 0.013132 0.007075
# 2 -0.003431 0.013605 -0.008147 0.005115 -0.007752 -0.000285
# 3 0.003937 -0.008147 0.026478 0.003503 0.030437 0.005114
# 4 0.001658 0.005115 0.003503 0.031350 -0.000665 0.006515
# 5 0.013132 -0.007752 0.030437 -0.000665 0.074145 0.005044
# 6 0.007075 -0.000285 0.005114 0.006515 0.005044 0.028967
#
#
# Mechanical properties :
#
#
# Convention : Reuss Voigt Hill
#
# Bulk Modulus (GPa) = 23.72928 54.41487 39.07208
# Shear Modulus (GPa) = 22.60218 35.32326 28.96272
#
# Velocity S-wave (km/s) = 3.10131 3.87705 3.51067
# Velocity P-wave (km/s) = 4.78769 6.57250 5.74977
#
# Compressibility (1/GPa) = 0.04214202
#
# Stress axis : x y z
#
# Youngs Moduli (GPa) = 57.66344 73.50405 37.76699
#
# Poissons Ratio (x) = 0.25221 -0.14867
# Poissons Ratio (y) = 0.19786 0.30768
# Poissons Ratio (z) = -0.22700 0.59882
#
# Static dielectric constant tensor:
#      x y z
#    x 4.365860 -0.063380 -0.016130 
#    y -0.063380 4.488180 -0.048750 
#    z -0.016130 -0.048750 4.211920 
# 
# 
# High freq. dielectric constant tensor:
#      x y z
#    x 1.927700 -0.010300 -0.008920 
#    y -0.010300 1.939970 -0.005230 
#    z -0.008920 -0.005230 1.926010 
# 
# From -- ./inp_files/332930.got.cif
#   From: 2010.06.25/outbox.cif.g09.slc.cpg/sg2_167_cif.got.tgz:332930.got - 2010.06.27 13:26:56.
