data_PCOD8013140
_publ_section_title
;
Structure prediction by ZEFSAII (Michael W. Deem and Ramdas Pophale) SiO2 
 PCOD8013140
Probable space group: P -1
;
_chemical_formula_sum "Si O2"
_cell_formula_units_Z 14
_cell_length_a 6.010984
_cell_length_b 6.835508
_cell_length_c 19.350431
_cell_angle_alpha 128.432121
_cell_angle_beta 101.327851
_cell_angle_gamma 71.240066
_cell_volume 589.722542
_symmetry_space_group_name_H-M "P -1"
_symmetry_group_IT_number 2
_symmetry_cell_setting 'triclinic'
loop_
_space_group_symop_operation_xyz
x,y,z
-x,-y,-z
loop_
_atom_site_type_symbol
_atom_site_label
_atom_site_fract_x
_atom_site_fract_y
_atom_site_fract_z
Si Si1 0.033148 0.883649 0.050752
Si Si2 0.644097 0.292286 0.517545
Si Si3 0.661725 0.946053 0.790539
Si Si4 0.031353 0.920574 0.269640
Si Si5 0.069494 0.245883 0.628976
Si Si6 0.227921 0.315655 0.904055
Si Si7 0.646504 0.416463 0.325019
O O1 0.793700 0.850753 0.064625
O O2 0.127674 0.077197 0.147869
O O3 0.214660 0.603486 0.990924
O O4 0.000000 0.000000 0.000000
O O5 0.500000 0.500000 0.500000
O O6 0.454165 0.335197 0.577385
O O7 0.890454 0.333434 0.572580
O O8 0.716020 0.006117 0.428178
O O9 0.572749 0.686550 0.738615
O O10 0.468037 0.206023 0.854778
O O11 0.747197 0.982448 0.725015
O O12 0.077646 0.794922 0.321090
O O13 0.982439 0.709248 0.166158
O O14 0.808176 0.167399 0.319109
O O15 0.197144 0.479838 0.699753
#
# Coordination Sequence:
#
# PCOD8013140 Si02
#       7
#     2   2   2   2   2   2   2
#     4  10  21  40  65  95 133 173 223 275 334 397
#     4  11  24  46  71 102 136 178 231 288 342 406
#     4  10  22  42  68  97 137 179 217 281 339 400
#     4  10  22  43  66  96 137 178 227 283 334 406
#     4  11  25  45  72 102 133 184 230 282 345 410
#     4   9  21  39  63  95 131 170 223 278 327 396
#     4  11  23  44  66  99 138 173 230 284 341 409
#
# _framework density 23.739979000000002
#
# number of rings (size 3 to 8) (size 9 to 14) (size 15 to 20)
#    0.000    1.714    1.429    1.714    0.000    8.000 
#    7.714    7.143    0.000    0.000    0.000    0.000 
#    0.000    0.000    0.000    0.000    0.000    0.000 
#
# Total GULP energy -173440.701048 kJ/mol
# GULP energy per Si atom -12388.621503 kJ/mol
# Density = 2.368595 g / cm^3
# Si number density = 23.739979 Si / 1000 Ang^3
#
#
#
# Elastic Constant Matrix: (Units=GPa)
#
#
# Indices 1 2 3 4 5 6 
#
# 1 108.6045 62.9356 43.6812 -3.5066 -5.6887 25.3644
# 2 62.9356 134.1609 54.8981 -18.1086 10.4409 17.8498
# 3 43.6812 54.8981 93.1836 -3.8086 -9.4179 20.0839
# 4 -3.5066 -18.1086 -3.8086 33.8290 -0.4583 -6.1207
# 5 -5.6887 10.4409 -9.4179 -0.4583 42.2501 10.1841
# 6 25.3644 17.8498 20.0839 -6.1207 10.1841 44.6233
#
#
#
# Elastic Compliance Matrix: (Units=1/GPa)
#
#
# Indices 1 2 3 4 5 6 
#
# 1 0.015376 -0.006496 -0.001485 -0.003261 0.005012 -0.007064
# 2 -0.006496 0.014053 -0.006332 0.006648 -0.006485 0.003313
# 3 -0.001485 -0.006332 0.017050 -0.002651 0.006624 -0.006172
# 4 -0.003261 0.006648 -0.002651 0.033487 -0.003714 0.005828
# 5 0.005012 -0.006485 0.006624 -0.003714 0.029932 -0.010577
# 6 -0.007064 0.003313 -0.006172 0.005828 -0.010577 0.031091
#
#
# Mechanical properties :
#
#
# Convention : Reuss Voigt Hill
#
# Bulk Modulus (GPa) = 56.01199 73.21987 64.61593
# Shear Modulus (GPa) = 28.47928 35.76941 32.12435
#
# Velocity S-wave (km/s) = 3.46733 3.88586 3.68254
# Velocity P-wave (km/s) = 6.29881 7.14441 6.73489
#
# Compressibility (1/GPa) = 0.01785332
#
# Stress axis : x y z
#
# Youngs Moduli (GPa) = 65.03463 71.15791 58.65251
#
# Poissons Ratio (x) = 0.46222 0.08711
# Poissons Ratio (y) = 0.42245 0.37139
# Poissons Ratio (z) = 0.09659 0.45058
#
# Static dielectric constant tensor:
#      x y z
#    x 4.396800 0.083590 -0.171490 
#    y 0.083590 4.063450 0.211080 
#    z -0.171490 0.211080 4.562780 
# 
# 
# High freq. dielectric constant tensor:
#      x y z
#    x 1.943540 0.008380 -0.017050 
#    y 0.008380 1.918890 0.015470 
#    z -0.017050 0.015470 1.945910 
# 
# From -- ./inp_files/11581.got.cif
#   From: 2010.06.25/outbox.cif.g09.slc.cpg/sg2_6_cif.got.tgz:11581.got - 2010.06.27 13:26:56.
