data_PCOD8013065
_publ_section_title
;
Structure prediction by ZEFSAII (Michael W. Deem and Ramdas Pophale) SiO2 
 PCOD8013065
Probable space group: P -1
;
_chemical_formula_sum "Si O2"
_cell_formula_units_Z 10
_cell_length_a 15.251254
_cell_length_b 21.719356
_cell_length_c 9.392103
_cell_angle_alpha 149.592240
_cell_angle_beta 149.988280
_cell_angle_gamma 19.318838
_cell_volume 495.148893
_symmetry_space_group_name_H-M "P -1"
_symmetry_group_IT_number 2
_symmetry_cell_setting 'triclinic'
loop_
_space_group_symop_operation_xyz
x,y,z
-x,-y,-z
loop_
_atom_site_type_symbol
_atom_site_label
_atom_site_fract_x
_atom_site_fract_y
_atom_site_fract_z
Si Si1 0.151242 0.270979 0.129575
Si Si2 0.577070 0.694428 0.207969
Si Si3 0.653714 0.038434 0.836507
Si Si4 0.289729 0.720854 0.110535
Si Si5 0.581587 0.120635 0.217904
O O1 0.292632 0.256128 0.436965
O O2 0.283026 0.256001 0.141520
O O3 0.822115 0.470355 0.060820
O O4 0.199626 0.100877 0.867574
O O5 0.404926 0.824255 0.085817
O O6 0.364590 0.741547 0.107276
O O7 0.500000 0.000000 0.500000
O O8 0.536649 0.148018 0.040914
O O9 0.981443 0.832050 0.892145
O O10 0.297335 0.815523 0.436001
O O11 0.500000 0.500000 0.000000
#
# Coordination Sequence:
#
# PCOD8013065 Si02
#       5
#     2   2   2   2   2
#     4   9  19  39  66  92 122 171 203 253 313 378
#     4  10  21  40  65  92 129 160 209 257 314 365
#     4  12  24  40  65  98 127 159 212 266 308 362
#     4  11  25  44  65  89 129 173 207 251 316 378
#     4  10  21  40  65  91 127 167 210 249 315 375
#
# _framework density 20.195945999999999
#
# number of rings (size 3 to 8) (size 9 to 14) (size 15 to 20)
#    0.000    1.600    2.000    2.400    5.600    0.800 
#    0.000    2.000    0.000    0.000    0.000    0.000 
#    0.000    0.000    0.000    0.000    0.000    0.000 
#
# Total GULP energy -124066.971328 kJ/mol
# GULP energy per Si atom -12406.697133 kJ/mol
# Density = 2.014998 g / cm^3
# Si number density = 20.195946 Si / 1000 Ang^3
#
#
#
# Elastic Constant Matrix: (Units=GPa)
#
#
# Indices 1 2 3 4 5 6 
#
# 1 127.2281 37.5821 57.3202 -11.1475 -26.8627 5.1577
# 2 37.5821 94.5224 65.7038 0.9315 -14.8725 -7.1509
# 3 57.3202 65.7038 128.4490 6.1592 3.1289 -3.2236
# 4 -11.1475 0.9315 6.1592 31.4684 -0.2729 1.3260
# 5 -26.8627 -14.8725 3.1289 -0.2729 32.6834 0.4253
# 6 5.1577 -7.1509 -3.2236 1.3260 0.4253 38.7624
#
#
#
# Elastic Compliance Matrix: (Units=1/GPa)
#
#
# Indices 1 2 3 4 5 6 
#
# 1 0.014626 0.001726 -0.008144 0.006956 0.013679 -0.002693
# 2 0.001726 0.019539 -0.011090 0.002207 0.011360 0.002252
# 3 -0.008144 -0.011090 0.017740 -0.006183 -0.013502 0.000873
# 4 0.006956 0.002207 -0.006183 0.035551 0.007641 -0.002333
# 5 0.013679 0.011360 -0.013502 0.007641 0.048387 -0.001640
# 6 -0.002693 0.002252 0.000873 -0.002333 -0.001640 0.026742
#
#
# Mechanical properties :
#
#
# Convention : Reuss Voigt Hill
#
# Bulk Modulus (GPa) = 59.21741 74.60129 66.90935
# Shear Modulus (GPa) = 24.60248 33.22240 28.91244
#
# Velocity S-wave (km/s) = 3.49404 4.06026 3.78775
# Velocity P-wave (km/s) = 6.75743 7.68114 7.23404
#
# Compressibility (1/GPa) = 0.01688692
#
# Stress axis : x y z
#
# Youngs Moduli (GPa) = 68.37053 51.18081 56.37097
#
# Poissons Ratio (x) = -0.08832 0.45909
# Poissons Ratio (y) = -0.11799 0.62518
# Poissons Ratio (z) = 0.55681 0.56762
#
# Static dielectric constant tensor:
#      x y z
#    x 3.914920 -0.093740 -0.079960 
#    y -0.093740 3.612610 0.121300 
#    z -0.079960 0.121300 3.573840 
# 
# 
# High freq. dielectric constant tensor:
#      x y z
#    x 1.808990 -0.007760 0.000350 
#    y -0.007760 1.785110 0.013330 
#    z 0.000350 0.013330 1.777830 
# 
# From -- ./inp_files/143932.got.cif
#   From: 2010.06.25/outbox.cif.g09.slc.cpg/sg2_72_cif.got.tgz:143932.got - 2010.06.27 13:26:56.
