data_PCOD8013235
_publ_section_title
;
Structure prediction by ZEFSAII (Michael W. Deem and Ramdas Pophale) SiO2 
 PCOD8013235
Probable space group: P -1
;
_chemical_formula_sum "Si O2"
_cell_formula_units_Z 12
_cell_length_a 8.886536
_cell_length_b 15.015127
_cell_length_c 12.628873
_cell_angle_alpha 152.296530
_cell_angle_beta 44.023372
_cell_angle_gamma 131.025836
_cell_volume 543.402328
_symmetry_space_group_name_H-M "P -1"
_symmetry_group_IT_number 2
_symmetry_cell_setting 'triclinic'
loop_
_space_group_symop_operation_xyz
x,y,z
-x,-y,-z
loop_
_atom_site_type_symbol
_atom_site_label
_atom_site_fract_x
_atom_site_fract_y
_atom_site_fract_z
Si Si1 0.860749 0.554491 0.404611
Si Si2 0.440054 0.538438 0.721094
Si Si3 0.639401 0.050589 0.878452
Si Si4 0.102097 0.198362 0.878642
Si Si5 0.890625 0.090314 0.250944
Si Si6 0.448511 0.246952 0.572386
O O1 0.661035 0.464215 0.480956
O O2 0.771148 0.559949 0.335486
O O3 0.935939 0.766884 0.626777
O O4 0.056513 0.413033 0.165374
O O5 0.434428 0.468113 0.772371
O O6 0.448342 0.768224 0.949375
O O7 0.888132 0.092769 0.827256
O O8 0.623697 0.875750 0.622305
O O9 0.500000 0.000000 0.000000
O O10 0.291436 0.205252 0.705099
O O11 0.186102 0.081854 0.813345
O O12 0.690510 0.209617 0.444161
O O13 0.000000 0.000000 0.000000
#
# Coordination Sequence:
#
# PCOD8013235 Si02
#       6
#     2   2   2   2   2   2
#     4  10  22  41  65  89 121 161 211 260 305 369
#     4  10  21  40  66  93 120 160 211 258 307 365
#     4  11  22  42  70  94 122 164 214 258 300 367
#     4  11  25  42  62  92 128 166 206 257 317 370
#     4  12  25  42  65  90 124 169 214 257 308 372
#     4  12  25  39  62  96 130 163 203 259 320 370
#
# _framework density 22.083085000000001
#
# number of rings (size 3 to 8) (size 9 to 14) (size 15 to 20)
#    0.000    1.000    0.000    9.000    0.000    8.667 
#    0.000    0.000    0.000    0.000    0.000    0.000 
#    0.000    0.000    0.000    0.000    0.000    0.000 
#
# Total GULP energy -148838.575386 kJ/mol
# GULP energy per Si atom -12403.214615 kJ/mol
# Density = 2.203282 g / cm^3
# Si number density = 22.083085 Si / 1000 Ang^3
#
#
#
# Elastic Constant Matrix: (Units=GPa)
#
#
# Indices 1 2 3 4 5 6 
#
# 1 61.7907 52.5308 23.0414 8.6580 -23.2380 -23.3494
# 2 52.5308 150.0493 53.5507 -4.1070 -11.6346 -39.0817
# 3 23.0414 53.5507 82.8179 12.2084 -1.9580 -8.8612
# 4 8.6580 -4.1070 12.2084 29.2827 -1.0329 -2.8901
# 5 -23.2380 -11.6346 -1.9580 -1.0329 32.8346 3.4630
# 6 -23.3494 -39.0817 -8.8612 -2.8901 3.4630 48.4717
#
#
#
# Elastic Compliance Matrix: (Units=1/GPa)
#
#
# Indices 1 2 3 4 5 6 
#
# 1 0.036975 -0.008717 -0.001799 -0.009816 0.021787 0.008313
# 2 -0.008717 0.014019 -0.007196 0.008105 -0.002053 0.006418
# 3 -0.001799 -0.007196 0.018016 -0.008445 -0.002625 -0.003691
# 4 -0.009816 0.008105 -0.008445 0.041881 -0.003579 0.003015
# 5 0.021787 -0.002053 -0.002625 -0.003579 0.044354 0.004978
# 6 0.008313 0.006418 -0.003691 0.003015 0.004978 0.028959
#
#
# Mechanical properties :
#
#
# Convention : Reuss Voigt Hill
#
# Bulk Modulus (GPa) = 29.77428 61.43374 45.60401
# Shear Modulus (GPa) = 21.66158 33.15345 27.40752
#
# Velocity S-wave (km/s) = 3.13535 3.87887 3.52676
# Velocity P-wave (km/s) = 5.15939 6.92392 6.10573
#
# Compressibility (1/GPa) = 0.03358604
#
# Stress axis : x y z
#
# Youngs Moduli (GPa) = 27.04508 71.33354 55.50569
#
# Poissons Ratio (x) = 0.62180 0.09987
# Poissons Ratio (y) = 0.23575 0.39941
# Poissons Ratio (z) = 0.04866 0.51331
#
# Static dielectric constant tensor:
#      x y z
#    x 3.943780 -0.177070 -0.077260 
#    y -0.177070 3.969300 0.168080 
#    z -0.077260 0.168080 3.955250 
# 
# 
# High freq. dielectric constant tensor:
#      x y z
#    x 1.872910 -0.006980 -0.012740 
#    y -0.006980 1.874950 0.011210 
#    z -0.012740 0.011210 1.866710 
# 
# From -- ./inp_files/183722.got.cif
#   From: 2010.06.25/outbox.cif.g09.slc.cpg/sg2_92_cif.got.tgz:183722.got - 2010.06.27 13:26:56.
