data_PCOD8013583
_publ_section_title
;
Structure prediction by ZEFSAII (Michael W. Deem and Ramdas Pophale) SiO2 
 PCOD8013583
Probable space group: P -1
;
_chemical_formula_sum "Si O2"
_cell_formula_units_Z 16
_cell_length_a 5.158434
_cell_length_b 31.328803
_cell_length_c 10.223436
_cell_angle_alpha 152.202465
_cell_angle_beta 78.103943
_cell_angle_gamma 95.091910
_cell_volume 737.917584
_symmetry_space_group_name_H-M "P -1"
_symmetry_group_IT_number 2
_symmetry_cell_setting 'triclinic'
loop_
_space_group_symop_operation_xyz
x,y,z
-x,-y,-z
loop_
_atom_site_type_symbol
_atom_site_label
_atom_site_fract_x
_atom_site_fract_y
_atom_site_fract_z
Si Si1 0.223870 0.005377 0.883642
Si Si2 0.032206 0.767684 0.844848
Si Si3 0.368992 0.457549 0.777848
Si Si4 0.143444 0.208991 0.501369
Si Si5 0.432921 0.804461 0.371503
Si Si6 0.195252 0.032547 0.668407
Si Si7 0.981365 0.359330 0.712189
Si Si8 0.513989 0.280422 0.140410
O O1 0.133899 0.994495 0.714100
O O2 0.456922 0.912291 0.630125
O O3 0.314858 0.105816 0.158414
O O4 0.000000 0.000000 0.000000
O O5 0.178200 0.696140 0.522890
O O6 0.792318 0.732938 0.852124
O O7 0.263824 0.787043 0.973564
O O8 0.885444 0.856322 0.017986
O O9 0.187621 0.392776 0.684156
O O10 0.549921 0.386813 0.463500
O O11 0.500000 0.500000 0.000000
O O12 0.212004 0.547942 0.956279
O O13 0.298395 0.239333 0.693156
O O14 0.141352 0.291249 0.620419
O O15 0.836204 0.199534 0.529944
O O16 0.409831 0.741882 0.077760
O O17 0.500000 0.000000 0.500000
O O18 0.000000 0.000000 0.500000
#
# Coordination Sequence:
#
# PCOD8013583 Si02
#       8
#     2   2   2   2   2   2   2   2
#     4  10  23  44  65  94 133 185 226 264 321 398
#     4  11  21  39  64  92 125 167 209 268 322 379
#     4  10  21  40  69  94 124 160 208 274 337 391
#     4  11  24  42  65  91 128 172 220 259 306 391
#     4  11  24  41  62  92 129 176 213 258 315 379
#     4  12  25  40  63  98 136 171 223 283 328 381
#     4  10  22  40  64  98 121 160 216 266 322 382
#     4  11  23  41  66  93 131 165 210 268 334 387
#
# _framework density 21.682635999999999
#
# number of rings (size 3 to 8) (size 9 to 14) (size 15 to 20)
#    0.000    1.250    2.500    3.375    1.750    5.000 
#    0.000    1.250    0.000    0.000    0.000    0.000 
#    0.000    0.000    0.000    0.000    0.000    0.000 
#
# Total GULP energy -198227.240393 kJ/mol
# GULP energy per Si atom -12389.202525 kJ/mol
# Density = 2.163328 g / cm^3
# Si number density = 21.682636 Si / 1000 Ang^3
#
#
#
# Elastic Constant Matrix: (Units=GPa)
#
#
# Indices 1 2 3 4 5 6 
#
# 1 91.1253 33.7240 16.6073 -2.3935 3.3940 -20.6257
# 2 33.7240 128.2187 62.9469 0.3270 5.4323 -28.0517
# 3 16.6073 62.9469 115.9688 9.7146 -2.6534 -7.8227
# 4 -2.3935 0.3270 9.7146 38.1248 -4.9704 2.6581
# 5 3.3940 5.4323 -2.6534 -4.9704 27.2566 -5.9444
# 6 -20.6257 -28.0517 -7.8227 2.6581 -5.9444 30.5686
#
#
#
# Elastic Compliance Matrix: (Units=1/GPa)
#
#
# Indices 1 2 3 4 5 6 
#
# 1 0.013355 -0.001636 -0.000563 0.000522 0.000313 0.007381
# 2 -0.001636 0.013548 -0.006564 0.000673 -0.000962 0.009404
# 3 -0.000563 -0.006564 0.012347 -0.002742 0.001488 -0.002716
# 4 0.000522 0.000673 -0.002742 0.027604 0.004284 -0.001299
# 5 0.000313 -0.000962 0.001488 0.004284 0.039289 0.006977
# 6 0.007381 0.009404 -0.002716 -0.001299 0.006977 0.047098
#
#
# Mechanical properties :
#
#
# Convention : Reuss Voigt Hill
#
# Bulk Modulus (GPa) = 46.03119 62.42992 54.23056
# Shear Modulus (GPa) = 28.08874 33.99229 31.04052
#
# Velocity S-wave (km/s) = 3.60314 3.96374 3.78773
# Velocity P-wave (km/s) = 6.21174 7.05715 6.64790
#
# Compressibility (1/GPa) = 0.02172440
#
# Stress axis : x y z
#
# Youngs Moduli (GPa) = 74.88034 73.81135 80.99236
#
# Poissons Ratio (x) = 0.12074 0.04562
# Poissons Ratio (y) = 0.12249 0.53160
# Poissons Ratio (z) = 0.04218 0.48446
#
# Static dielectric constant tensor:
#      x y z
#    x 3.755400 -0.286360 -0.449050 
#    y -0.286360 3.753760 -0.376020 
#    z -0.449050 -0.376020 2.698060 
# 
# 
# High freq. dielectric constant tensor:
#      x y z
#    x 1.839190 -0.018600 0.004640 
#    y -0.018600 1.838200 0.008390 
#    z 0.004640 0.008390 1.868160 
# 
# From -- ./inp_files/51153.got.cif
#   From: 2010.06.25/outbox.cif.g09.slc.cpg/sg2_26_cif.got.tgz:51153.got - 2010.06.27 13:26:56.
