data_PCOD8013213
_publ_section_title
;
Structure prediction by ZEFSAII (Michael W. Deem and Ramdas Pophale) SiO2 
 PCOD8013213
Probable space group: P -1
;
_chemical_formula_sum "Si O2"
_cell_formula_units_Z 16
_cell_length_a 17.719228
_cell_length_b 15.397154
_cell_length_c 6.824475
_cell_angle_alpha 111.424332
_cell_angle_beta 75.618350
_cell_angle_gamma 152.363630
_cell_volume 791.684769
_symmetry_space_group_name_H-M "P -1"
_symmetry_group_IT_number 2
_symmetry_cell_setting 'triclinic'
loop_
_space_group_symop_operation_xyz
x,y,z
-x,-y,-z
loop_
_atom_site_type_symbol
_atom_site_label
_atom_site_fract_x
_atom_site_fract_y
_atom_site_fract_z
Si Si1 0.225054 0.494257 0.581289
Si Si2 0.468233 0.914476 0.750253
Si Si3 0.729898 0.805598 0.493575
Si Si4 0.637394 0.556474 0.661186
Si Si5 0.993306 0.641501 0.706873
Si Si6 0.757425 0.225435 0.530874
Si Si7 0.993786 0.210592 0.838430
Si Si8 0.140740 0.185392 0.919294
O O1 0.385971 0.728167 0.691778
O O2 0.280217 0.446134 0.491257
O O3 0.121567 0.411611 0.388475
O O4 0.114812 0.390847 0.759530
O O5 0.349018 0.853569 0.649824
O O6 0.641897 0.079487 0.667953
O O7 0.500000 0.000000 0.000000
O O8 0.698155 0.709212 0.624694
O O9 0.559562 0.661261 0.391579
O O10 0.834806 0.862371 0.309490
O O11 0.832899 0.004039 0.658481
O O12 0.691076 0.624875 0.908908
O O13 0.147568 0.768719 0.584243
O O14 0.888046 0.442444 0.689204
O O15 0.063829 0.773789 0.953520
O O16 0.092478 0.232363 0.897255
O O17 0.000000 0.000000 0.000000
#
# Coordination Sequence:
#
# PCOD8013213 Si02
#       8
#     2   2   2   2   2   2   2   2
#     4  11  23  39  62  91 122 164 211 256 310 372
#     4  10  21  40  66  91 124 164 197 255 321 366
#     4  11  25  40  62  91 127 163 208 263 310 372
#     4  11  23  43  60  89 127 165 206 257 317 365
#     4  10  22  40  64  92 123 164 207 256 309 369
#     4   9  21  42  63  91 126 159 206 251 307 383
#     4  12  23  39  64  93 122 162 214 258 305 373
#     4  12  22  41  66  87 121 172 209 252 316 371
#
# _framework density 20.210063000000002
#
# number of rings (size 3 to 8) (size 9 to 14) (size 15 to 20)
#    0.000    1.250    3.750    2.250    0.000    3.000 
#    0.000    3.750    0.000    0.000    0.000    0.000 
#    0.000    0.000    0.000    0.000    0.000    0.000 
#
# Total GULP energy -198503.543441 kJ/mol
# GULP energy per Si atom -12406.471465 kJ/mol
# Density = 2.016406 g / cm^3
# Si number density = 20.210063 Si / 1000 Ang^3
#
#
#
# Elastic Constant Matrix: (Units=GPa)
#
#
# Indices 1 2 3 4 5 6 
#
# 1 65.1815 33.9881 27.2641 10.3013 -16.1074 10.5283
# 2 33.9881 138.9976 59.9856 -1.0319 -7.4103 6.4404
# 3 27.2641 59.9856 145.3157 16.5613 -19.8035 5.5829
# 4 10.3013 -1.0319 16.5613 29.8614 2.5379 2.3413
# 5 -16.1074 -7.4103 -19.8035 2.5379 35.0814 -2.8956
# 6 10.5283 6.4404 5.5829 2.3413 -2.8956 29.3176
#
#
#
# Elastic Compliance Matrix: (Units=1/GPa)
#
#
# Indices 1 2 3 4 5 6 
#
# 1 0.022331 -0.004893 0.000300 -0.008429 0.009554 -0.005385
# 2 -0.004893 0.010074 -0.004135 0.004593 -0.002811 -0.000313
# 3 0.000300 -0.004135 0.009972 -0.006225 0.005338 -0.000074
# 4 -0.008429 0.004593 -0.006225 0.040888 -0.009454 -0.000996
# 5 0.009554 -0.002811 0.005338 -0.009454 0.036035 0.000484
# 6 -0.005385 -0.000313 -0.000074 -0.000996 0.000484 0.036253
#
#
# Mechanical properties :
#
#
# Convention : Reuss Voigt Hill
#
# Bulk Modulus (GPa) = 40.12937 65.77447 52.95192
# Shear Modulus (GPa) = 27.57608 34.06922 30.82265
#
# Velocity S-wave (km/s) = 3.69788 4.11025 3.90951
# Velocity P-wave (km/s) = 6.17509 7.42574 6.82910
#
# Compressibility (1/GPa) = 0.02491940
#
# Stress axis : x y z
#
# Youngs Moduli (GPa) = 44.78129 99.26402 100.28217
#
# Poissons Ratio (x) = 0.48575 -0.03006
# Poissons Ratio (y) = 0.21914 0.41466
# Poissons Ratio (z) = -0.01342 0.41045
#
# Static dielectric constant tensor:
#      x y z
#    x 3.952110 -0.104000 0.251150 
#    y -0.104000 3.877920 -0.055000 
#    z 0.251150 -0.055000 3.896900 
# 
# 
# High freq. dielectric constant tensor:
#      x y z
#    x 1.788580 0.002480 0.000000 
#    y 0.002480 1.795370 0.001560 
#    z 0.000000 0.001560 1.798940 
# 
# From -- ./inp_files/46337.got.cif
#   From: 2010.06.25/outbox.cif.g09.slc.cpg/sg2_24_cif.got.tgz:46337.got - 2010.06.27 13:26:56.
