data_PCOD8013945
_publ_section_title
;
Structure prediction by ZEFSAII (Michael W. Deem and Ramdas Pophale) SiO2 
 PCOD8013945
Probable space group: P -1
;
_chemical_formula_sum "Si O2"
_cell_formula_units_Z 16
_cell_length_a 8.536001
_cell_length_b 16.856981
_cell_length_c 6.836721
_cell_angle_alpha 49.212888
_cell_angle_beta 105.459154
_cell_angle_gamma 101.066582
_cell_volume 717.672199
_symmetry_space_group_name_H-M "P -1"
_symmetry_group_IT_number 2
_symmetry_cell_setting 'triclinic'
loop_
_space_group_symop_operation_xyz
x,y,z
-x,-y,-z
loop_
_atom_site_type_symbol
_atom_site_label
_atom_site_fract_x
_atom_site_fract_y
_atom_site_fract_z
Si Si1 0.895526 0.515306 0.636833
Si Si2 0.014716 0.059296 0.205893
Si Si3 0.443745 0.154282 0.623683
Si Si4 0.271708 0.995629 0.083616
Si Si5 0.054712 0.665111 0.749123
Si Si6 0.661511 0.560378 0.190474
Si Si7 0.152536 0.235887 0.189586
Si Si8 0.617154 0.353590 0.266448
O O1 0.707295 0.533554 0.473925
O O2 0.000000 0.500000 0.500000
O O3 0.950077 0.616600 0.615579
O O4 0.900978 0.415547 0.936252
O O5 0.051756 0.182589 0.063801
O O6 0.165159 0.013551 0.210166
O O7 0.000000 0.000000 0.500000
O O8 0.844154 0.049743 0.053269
O O9 0.587940 0.086148 0.693006
O O10 0.306230 0.162850 0.397370
O O11 0.510941 0.273545 0.495992
O O12 0.363726 0.103868 0.872662
O O13 0.226811 0.708903 0.654214
O O14 0.958179 0.761806 0.653500
O O15 0.680664 0.455751 0.237665
O O16 0.800151 0.643935 0.031898
O O17 0.485425 0.608738 0.018685
#
# Coordination Sequence:
#
# PCOD8013945 Si02
#       8
#     2   2   2   2   2   2   2   2
#     4  11  20  40  64  91 131 182 226 273 323 388
#     4  11  24  45  72 100 127 169 226 282 334 398
#     4  10  23  44  66  99 136 175 215 278 336 394
#     4  10  24  47  72  97 130 173 225 279 340 397
#     4  11  23  37  66  97 129 178 227 275 327 390
#     4  10  21  41  63  95 138 172 218 271 328 402
#     4  11  23  42  67  99 134 172 223 276 333 395
#     4  10  22  40  66  97 139 174 219 274 329 403
#
# _framework density 22.294298000000001
#
# number of rings (size 3 to 8) (size 9 to 14) (size 15 to 20)
#    0.000    1.500    3.750    0.750    1.750    4.000 
#    0.000    3.750    0.000    0.000    0.000    0.000 
#    0.000    0.000    0.000    0.000    0.000    0.000 
#
# Total GULP energy -198327.037841 kJ/mol
# GULP energy per Si atom -12395.439865 kJ/mol
# Density = 2.224356 g / cm^3
# Si number density = 22.294298 Si / 1000 Ang^3
#
#
#
# Elastic Constant Matrix: (Units=GPa)
#
#
# Indices 1 2 3 4 5 6 
#
# 1 133.4043 63.7907 44.8043 7.3506 15.2492 2.7675
# 2 63.7907 137.2692 51.1435 5.6318 0.0139 13.1474
# 3 44.8043 51.1435 103.3474 8.0373 10.7919 11.3929
# 4 7.3506 5.6318 8.0373 37.7077 6.1741 -2.6987
# 5 15.2492 0.0139 10.7919 6.1741 39.4918 -2.4513
# 6 2.7675 13.1474 11.3929 -2.6987 -2.4513 32.2116
#
#
#
# Elastic Compliance Matrix: (Units=1/GPa)
#
#
# Indices 1 2 3 4 5 6 
#
# 1 0.010656 -0.004205 -0.002312 -0.000312 -0.003350 0.001338
# 2 -0.004205 0.010805 -0.003435 -0.000663 0.002495 -0.002699
# 3 -0.002312 -0.003435 0.013158 -0.001649 -0.002655 -0.003393
# 4 -0.000312 -0.000663 -0.001649 0.027831 -0.003597 0.002939
# 5 -0.003350 0.002495 -0.002655 -0.003597 0.028029 0.002040
# 6 0.001338 -0.002699 -0.003393 0.002939 0.002040 0.033633
#
#
# Mechanical properties :
#
#
# Convention : Reuss Voigt Hill
#
# Bulk Modulus (GPa) = 67.96513 77.05534 72.51023
# Shear Modulus (GPa) = 33.57516 36.16773 34.87144
#
# Velocity S-wave (km/s) = 3.88493 4.03213 3.95921
# Velocity P-wave (km/s) = 7.11865 7.50435 7.31404
#
# Compressibility (1/GPa) = 0.01471343
#
# Stress axis : x y z
#
# Youngs Moduli (GPa) = 93.84618 92.55298 76.00083
#
# Poissons Ratio (x) = 0.38923 0.17570
# Poissons Ratio (y) = 0.39467 0.26106
# Poissons Ratio (z) = 0.21696 0.31792
#
# Static dielectric constant tensor:
#      x y z
#    x 4.306700 0.268830 0.146590 
#    y 0.268830 4.039650 -0.030540 
#    z 0.146590 -0.030540 4.094850 
# 
# 
# High freq. dielectric constant tensor:
#      x y z
#    x 1.891440 0.015290 0.010990 
#    y 0.015290 1.865360 -0.009780 
#    z 0.010990 -0.009780 1.873950 
# 
# From -- ./inp_files/46334.got.cif
#   From: 2010.06.25/outbox.cif.g09.slc.cpg/sg2_24_cif.got.tgz:46334.got - 2010.06.27 13:26:56.
