data_PCOD8013623
_publ_section_title
;
Structure prediction by ZEFSAII (Michael W. Deem and Ramdas Pophale) SiO2 
 PCOD8013623
Probable space group: P -1
;
_chemical_formula_sum "Si O2"
_cell_formula_units_Z 16
_cell_length_a 17.336000
_cell_length_b 13.895819
_cell_length_c 11.412592
_cell_angle_alpha 159.279347
_cell_angle_beta 49.376411
_cell_angle_gamma 127.715422
_cell_volume 738.262007
_symmetry_space_group_name_H-M "P -1"
_symmetry_group_IT_number 2
_symmetry_cell_setting 'triclinic'
loop_
_space_group_symop_operation_xyz
x,y,z
-x,-y,-z
loop_
_atom_site_type_symbol
_atom_site_label
_atom_site_fract_x
_atom_site_fract_y
_atom_site_fract_z
Si Si1 0.218078 0.559998 0.265962
Si Si2 0.218806 0.031058 0.522642
Si Si3 0.948468 0.299717 0.574918
Si Si4 0.619546 0.214762 0.784492
Si Si5 0.093184 0.207711 0.652722
Si Si6 0.162957 0.233465 0.357910
Si Si7 0.733703 0.341532 0.413875
Si Si8 0.502158 0.334049 0.689013
O O1 0.103538 0.629950 0.418304
O O2 0.300788 0.796561 0.417557
O O3 0.221463 0.518096 0.353298
O O4 0.258969 0.297761 0.856119
O O5 0.194989 0.077807 0.462405
O O6 0.110749 0.954101 0.599531
O O7 0.306205 0.801372 0.191787
O O8 0.066030 0.223071 0.353620
O O9 0.942347 0.548744 0.953847
O O10 0.543379 0.960499 0.571262
O O11 0.556800 0.495462 0.159394
O O12 0.124385 0.320560 0.623567
O O13 0.000000 0.000000 0.500000
O O14 0.243189 0.455802 0.485426
O O15 0.211798 0.940500 0.983438
O O16 0.614393 0.289426 0.479455
O O17 0.500000 0.500000 0.000000
#
# Coordination Sequence:
#
# PCOD8013623 Si02
#       8
#     2   2   2   2   2   2   2   2
#     4  10  23  41  64 101 133 171 222 266 327 396
#     4  10  21  40  70 103 124 166 233 279 313 377
#     4  10  23  40  70  95 130 175 228 267 314 391
#     4  11  21  39  67  97 124 160 227 280 323 365
#     4  11  22  43  71  97 129 175 231 274 311 386
#     4  12  27  43  63  99 141 178 209 267 341 386
#     4  12  28  42  63  98 142 175 214 267 338 405
#     4  12  23  40  69  92 129 176 226 274 319 387
#
# _framework density 21.672522000000001
#
# number of rings (size 3 to 8) (size 9 to 14) (size 15 to 20)
#    0.000    1.000    3.750    2.250    8.750    1.000 
#    0.000    0.000    0.000    4.500    0.000    0.000 
#    0.000    0.000    0.000    0.000    0.000    0.000 
#
# Total GULP energy -198346.273017 kJ/mol
# GULP energy per Si atom -12396.642064 kJ/mol
# Density = 2.162319 g / cm^3
# Si number density = 21.672522 Si / 1000 Ang^3
#
#
#
# Elastic Constant Matrix: (Units=GPa)
#
#
# Indices 1 2 3 4 5 6 
#
# 1 99.5376 29.2668 25.0380 -0.8183 -16.0160 -7.9824
# 2 29.2668 119.8624 24.8333 16.9639 15.5944 2.6340
# 3 25.0380 24.8333 63.1157 15.7110 -1.6784 -0.8100
# 4 -0.8183 16.9639 15.7110 29.3281 5.8545 -4.5835
# 5 -16.0160 15.5944 -1.6784 5.8545 26.7690 4.4883
# 6 -7.9824 2.6340 -0.8100 -4.5835 4.4883 38.0165
#
#
#
# Elastic Compliance Matrix: (Units=1/GPa)
#
#
# Indices 1 2 3 4 5 6 
#
# 1 0.014260 -0.004369 -0.004624 0.003902 0.009507 0.002546
# 2 -0.004369 0.011534 -0.001977 -0.004279 -0.008304 -0.001294
# 3 -0.004624 -0.001977 0.021287 -0.011207 0.002511 -0.002028
# 4 0.003902 -0.004279 -0.011207 0.045190 -0.006957 0.007147
# 5 0.009507 -0.008304 0.002511 -0.006957 0.050257 -0.004147
# 6 0.002546 -0.001294 -0.002028 0.007147 -0.004147 0.028237
#
#
# Mechanical properties :
#
#
# Convention : Reuss Voigt Hill
#
# Bulk Modulus (GPa) = 39.77701 48.97689 44.37695
# Shear Modulus (GPa) = 24.86529 32.38124 28.62326
#
# Velocity S-wave (km/s) = 3.39088 3.86957 3.63811
# Velocity P-wave (km/s) = 5.80726 6.52782 6.17806
#
# Compressibility (1/GPa) = 0.02514015
#
# Stress axis : x y z
#
# Youngs Moduli (GPa) = 70.12553 86.70236 46.97813
#
# Poissons Ratio (x) = 0.37880 0.21722
# Poissons Ratio (y) = 0.30638 0.09289
# Poissons Ratio (z) = 0.32425 0.17143
#
# Static dielectric constant tensor:
#      x y z
#    x 4.745840 0.128120 0.016690 
#    y 0.128120 4.095180 0.482470 
#    z 0.016690 0.482470 3.947360 
# 
# 
# High freq. dielectric constant tensor:
#      x y z
#    x 1.872550 0.005360 -0.018980 
#    y 0.005360 1.845960 0.034490 
#    z -0.018980 0.034490 1.825310 
# 
# From -- ./inp_files/465992.got.cif
#   From: 2010.06.25/outbox.cif.g09.slc.cpg/sg2_233_cif.got.tgz:465992.got - 2010.06.27 13:26:56.
