data_PCOD8013438
_publ_section_title
;
Structure prediction by ZEFSAII (Michael W. Deem and Ramdas Pophale) SiO2 
 PCOD8013438
Probable space group: P -1
;
_chemical_formula_sum "Si O2"
_cell_formula_units_Z 16
_cell_length_a 18.814594
_cell_length_b 11.579600
_cell_length_c 11.830820
_cell_angle_alpha 130.368285
_cell_angle_beta 122.977092
_cell_angle_gamma 26.600950
_cell_volume 874.747217
_symmetry_space_group_name_H-M "P -1"
_symmetry_group_IT_number 2
_symmetry_cell_setting 'triclinic'
loop_
_space_group_symop_operation_xyz
x,y,z
-x,-y,-z
loop_
_atom_site_type_symbol
_atom_site_label
_atom_site_fract_x
_atom_site_fract_y
_atom_site_fract_z
Si Si1 0.621515 0.115555 0.293065
Si Si2 0.192803 0.807827 0.643396
Si Si3 0.571690 0.871197 0.857702
Si Si4 0.674645 0.238110 0.611977
Si Si5 0.474500 0.637425 0.229959
Si Si6 0.838068 0.815456 0.095706
Si Si7 0.420246 0.828615 0.068386
Si Si8 0.150224 0.758268 0.326624
O O1 0.523865 0.128158 0.275799
O O2 0.721950 0.048447 0.434053
O O3 0.504625 0.421394 0.334570
O O4 0.730903 0.882765 0.136606
O O5 0.356189 0.555774 0.697380
O O6 0.213545 0.704177 0.472535
O O7 0.137622 0.064023 0.742424
O O8 0.041456 0.959235 0.671140
O O9 0.760188 0.537283 0.812524
O O10 0.535043 0.073094 0.877776
O O11 0.500000 0.000000 0.000000
O O12 0.667277 0.150854 0.665528
O O13 0.799601 0.187330 0.685097
O O14 0.424666 0.828072 0.207875
O O15 0.467191 0.476144 0.073487
O O16 0.000000 0.500000 0.000000
O O17 0.752983 0.956701 0.990499
#
# Coordination Sequence:
#
# PCOD8013438 Si02
#       8
#     2   2   2   2   2   2   2   2
#     4  10  18  30  54  81 101 137 178 222 263 303
#     4  10  19  34  51  84 104 140 176 220 265 310
#     4  11  19  31  51  82 108 130 176 227 265 299
#     4  10  16  34  54  77 105 138 178 219 254 316
#     4  10  19  35  58  72 109 145 179 208 257 329
#     4  11  19  33  54  79 111 135 173 224 270 307
#     4  10  20  34  52  81 104 143 175 212 262 327
#     4  10  20  31  56  80 110 133 178 226 268 298
#
# _framework density 18.290998999999999
#
# number of rings (size 3 to 8) (size 9 to 14) (size 15 to 20)
#    0.000    1.750    5.000    3.000    0.000    0.000 
#    0.000    2.500    2.750    3.750    0.000    0.000 
#    0.000    0.000    0.000    0.000    0.000    0.000 
#
# Total GULP energy -198221.197018 kJ/mol
# GULP energy per Si atom -12388.824814 kJ/mol
# Density = 1.824937 g / cm^3
# Si number density = 18.290999 Si / 1000 Ang^3
#
#
#
# Elastic Constant Matrix: (Units=GPa)
#
#
# Indices 1 2 3 4 5 6 
#
# 1 127.8014 46.3880 35.2554 -8.7757 -17.5372 2.9606
# 2 46.3880 52.7082 35.7019 1.5185 -15.2214 -3.8073
# 3 35.2554 35.7019 72.3114 2.5259 -16.9858 2.4675
# 4 -8.7757 1.5185 2.5259 25.7225 -1.9109 -3.5267
# 5 -17.5372 -15.2214 -16.9858 -1.9109 34.2059 2.1553
# 6 2.9606 -3.8073 2.4675 -3.5267 2.1553 28.6389
#
#
#
# Elastic Compliance Matrix: (Units=1/GPa)
#
#
# Indices 1 2 3 4 5 6 
#
# 1 0.012317 -0.010152 -0.000645 0.004712 0.001875 -0.002128
# 2 -0.010152 0.038821 -0.013171 -0.003193 0.004937 0.006580
# 3 -0.000645 -0.013171 0.022002 -0.001811 0.004896 -0.004171
# 4 0.004712 -0.003193 -0.001811 0.041587 0.002154 0.004203
# 5 0.001875 0.004937 0.004896 0.002154 0.035091 -0.002335
# 6 -0.002128 0.006580 -0.004171 0.004203 -0.002335 0.037065
#
#
# Mechanical properties :
#
#
# Convention : Reuss Voigt Hill
#
# Bulk Modulus (GPa) = 39.67357 54.16796 46.92077
# Shear Modulus (GPa) = 20.55747 26.74517 23.65132
#
# Velocity S-wave (km/s) = 3.35612 3.82803 3.59981
# Velocity P-wave (km/s) = 6.06262 7.01550 6.55639
#
# Compressibility (1/GPa) = 0.02520570
#
# Stress axis : x y z
#
# Youngs Moduli (GPa) = 81.18559 25.75912 45.45091
#
# Poissons Ratio (x) = 0.26150 0.02931
# Poissons Ratio (y) = 0.82418 0.59862
# Poissons Ratio (z) = 0.05235 0.33927
#
# Static dielectric constant tensor:
#      x y z
#    x 5.228160 0.446730 -1.068980 
#    y 0.446730 3.283690 -0.449590 
#    z -1.068980 -0.449590 4.389780 
# 
# 
# High freq. dielectric constant tensor:
#      x y z
#    x 1.715210 -0.022360 0.002540 
#    y -0.022360 1.654770 0.004690 
#    z 0.002540 0.004690 1.721270 
# 
# From -- ./inp_files/282004.got.cif
#   From: 2010.06.25/outbox.cif.g09.slc.cpg/sg2_142_cif.got.tgz:282004.got - 2010.06.27 13:26:56.
