data_PCOD8013972
_publ_section_title
;
Structure prediction by ZEFSAII (Michael W. Deem and Ramdas Pophale) SiO2 
 PCOD8013972
Probable space group: P -1
;
_chemical_formula_sum "Si O2"
_cell_formula_units_Z 16
_cell_length_a 11.688214
_cell_length_b 7.992626
_cell_length_c 9.191524
_cell_angle_alpha 101.232455
_cell_angle_beta 93.756786
_cell_angle_gamma 112.281507
_cell_volume 770.089113
_symmetry_space_group_name_H-M "P -1"
_symmetry_group_IT_number 2
_symmetry_cell_setting 'triclinic'
loop_
_space_group_symop_operation_xyz
x,y,z
-x,-y,-z
loop_
_atom_site_type_symbol
_atom_site_label
_atom_site_fract_x
_atom_site_fract_y
_atom_site_fract_z
Si Si1 0.683141 0.724941 0.471652
Si Si2 0.284604 0.766196 0.298874
Si Si3 0.564847 0.298977 0.448999
Si Si4 0.854626 0.435331 0.003636
Si Si5 0.110273 0.975942 0.301282
Si Si6 0.450544 0.055429 0.149691
Si Si7 0.802680 0.023014 0.993236
Si Si8 0.834863 0.784365 0.215099
O O1 0.615594 0.517620 0.484881
O O2 0.575382 0.803196 0.508291
O O3 0.719688 0.743373 0.308288
O O4 0.810583 0.820735 0.591898
O O5 0.332104 0.736371 0.453836
O O6 0.184165 0.852963 0.338722
O O7 0.404344 0.889095 0.233847
O O8 0.212681 0.582759 0.162479
O O9 0.558794 0.226221 0.270159
O O10 0.807739 0.233883 0.048936
O O11 0.823971 0.587581 0.116638
O O12 0.000000 0.500000 0.000000
O O13 0.966844 0.885531 0.328824
O O14 0.100273 0.977026 0.124255
O O15 0.500000 0.000000 0.000000
O O16 0.334856 0.107952 0.102384
O O17 0.828351 0.934665 0.125419
#
# Coordination Sequence:
#
# PCOD8013972 Si02
#       8
#     2   2   2   2   2   2   2   2
#     4  11  26  41  61  93 134 170 223 268 319 402
#     4  10  22  39  69  90 128 176 208 265 340 383
#     4  11  24  44  62  91 133 175 213 269 336 387
#     4  10  21  41  64 102 130 161 224 268 313 398
#     4  10  21  45  61  96 127 169 218 261 331 399
#     4  10  22  40  65  95 127 166 223 274 314 400
#     4  10  23  40  67  96 128 172 209 271 340 374
#     4  12  24  41  70  95 133 171 222 274 324 387
#
# _framework density 20.776814999999999
#
# number of rings (size 3 to 8) (size 9 to 14) (size 15 to 20)
#    0.000    1.750    5.000    1.125    7.000    0.000 
#    0.000    1.875    0.000    0.000    0.000    0.000 
#    0.000    0.000    0.000    0.000    0.000    0.000 
#
# Total GULP energy -198273.167389 kJ/mol
# GULP energy per Si atom -12392.072962 kJ/mol
# Density = 2.072953 g / cm^3
# Si number density = 20.776815 Si / 1000 Ang^3
#
#
#
# Elastic Constant Matrix: (Units=GPa)
#
#
# Indices 1 2 3 4 5 6 
#
# 1 82.8336 33.5010 59.5189 -7.6309 4.6784 5.9668
# 2 33.5010 85.2035 52.6785 7.0010 10.7394 -3.8373
# 3 59.5189 52.6785 116.3885 13.8658 8.9902 -8.7338
# 4 -7.6309 7.0010 13.8658 43.2178 3.3093 7.4616
# 5 4.6784 10.7394 8.9902 3.3093 40.3275 2.9960
# 6 5.9668 -3.8373 -8.7338 7.4616 2.9960 21.7429
#
#
#
# Elastic Compliance Matrix: (Units=1/GPa)
#
#
# Indices 1 2 3 4 5 6 
#
# 1 0.027054 -0.003178 -0.015544 0.013454 0.001484 -0.019051
# 2 -0.003178 0.016980 -0.005406 -0.001820 -0.003002 0.002735
# 3 -0.015544 -0.005406 0.021720 -0.011498 -0.001862 0.016239
# 4 0.013454 -0.001820 -0.011498 0.032925 0.000269 -0.019968
# 5 0.001484 -0.003002 -0.001862 0.000269 0.026218 -0.005390
# 6 -0.019051 0.002735 0.016239 -0.019968 -0.005390 0.065821
#
#
# Mechanical properties :
#
#
# Convention : Reuss Voigt Hill
#
# Bulk Modulus (GPa) = 57.14882 63.98027 60.56455
# Shear Modulus (GPa) = 20.42441 30.30612 25.36527
#
# Velocity S-wave (km/s) = 3.13875 3.82337 3.49785
# Velocity P-wave (km/s) = 6.37977 7.09590 6.74734
#
# Compressibility (1/GPa) = 0.01749817
#
# Stress axis : x y z
#
# Youngs Moduli (GPa) = 36.96268 58.89426 46.04089
#
# Poissons Ratio (x) = 0.18715 0.71565
# Poissons Ratio (y) = 0.11746 0.24891
# Poissons Ratio (z) = 0.57454 0.31839
#
# Static dielectric constant tensor:
#      x y z
#    x 3.996910 0.197010 0.118760 
#    y 0.197010 3.827990 0.300130 
#    z 0.118760 0.300130 3.825230 
# 
# 
# High freq. dielectric constant tensor:
#      x y z
#    x 1.813560 0.012170 0.007700 
#    y 0.012170 1.800590 0.018990 
#    z 0.007700 0.018990 1.814320 
# 
# From -- ./inp_files/244656.got.cif
#   From: 2010.06.25/outbox.cif.g09.slc.cpg/sg2_123_cif.got.tgz:244656.got - 2010.06.27 13:26:56.
