data_PCOD8013708
_publ_section_title
;
Structure prediction by ZEFSAII (Michael W. Deem and Ramdas Pophale) SiO2 
 PCOD8013708
Probable space group: P -1
;
_chemical_formula_sum "Si O2"
_cell_formula_units_Z 16
_cell_length_a 9.999117
_cell_length_b 9.626473
_cell_length_c 10.949800
_cell_angle_alpha 114.409150
_cell_angle_beta 77.815590
_cell_angle_gamma 73.708377
_cell_volume 854.346003
_symmetry_space_group_name_H-M "P -1"
_symmetry_group_IT_number 2
_symmetry_cell_setting 'triclinic'
loop_
_space_group_symop_operation_xyz
x,y,z
-x,-y,-z
loop_
_atom_site_type_symbol
_atom_site_label
_atom_site_fract_x
_atom_site_fract_y
_atom_site_fract_z
Si Si1 0.626493 0.401431 0.036394
Si Si2 0.681747 0.126563 0.755818
Si Si3 0.127854 0.493552 0.316196
Si Si4 0.161054 0.426812 0.999967
Si Si5 0.388793 0.126676 0.733652
Si Si6 0.171866 0.257021 0.432444
Si Si7 0.608931 0.406255 0.669077
Si Si8 0.540220 0.769006 0.500010
O O1 0.534602 0.433214 0.191881
O O2 0.500000 0.500000 0.000000
O O3 0.707199 0.206542 0.907686
O O4 0.748817 0.477853 0.046487
O O5 0.521710 0.118318 0.794439
O O6 0.680745 0.244618 0.685826
O O7 0.805071 0.936786 0.644649
O O8 0.161370 0.443349 0.151078
O O9 0.127784 0.335447 0.334227
O O10 0.256393 0.541262 0.367849
O O11 0.965772 0.648912 0.414475
O O12 0.236105 0.231792 0.874466
O O13 0.000000 0.500000 0.000000
O O14 0.395912 0.216353 0.639181
O O15 0.405468 0.941055 0.633314
O O16 0.318614 0.285431 0.456193
O O17 0.541605 0.357713 0.541748
#
# Coordination Sequence:
#
# PCOD8013708 Si02
#       8
#     2   2   2   2   2   2   2   2
#     4  10  16  34  56  83 109 132 178 239 266 310
#     4   9  16  34  58  77 107 143 180 226 266 314
#     4  11  23  38  53  81 113 148 178 224 275 327
#     4  12  21  33  57  85 108 141 183 228 277 318
#     4   9  16  31  54  84 111 134 179 230 265 309
#     4  10  23  38  53  76 119 150 177 214 277 334
#     4  10  18  33  61  83 108 137 185 231 263 309
#     4   9  17  33  57  79 109 146 175 221 269 315
#
# _framework density 18.727775999999999
#
# number of rings (size 3 to 8) (size 9 to 14) (size 15 to 20)
#    0.000    2.000    6.250    1.500    0.000    1.000 
#    2.250    5.625    0.000    0.750    0.000    0.000 
#    0.000    0.000    0.000    0.000    0.000    0.000 
#
# Total GULP energy -198278.514640 kJ/mol
# GULP energy per Si atom -12392.407165 kJ/mol
# Density = 1.868515 g / cm^3
# Si number density = 18.727776 Si / 1000 Ang^3
#
#
#
# Elastic Constant Matrix: (Units=GPa)
#
#
# Indices 1 2 3 4 5 6 
#
# 1 84.9630 9.3067 32.0243 9.6662 -0.3306 -5.7596
# 2 9.3067 57.1496 40.0605 16.1866 -5.2077 -2.5597
# 3 32.0243 40.0605 119.1979 33.0430 -1.2686 -5.2441
# 4 9.6662 16.1866 33.0430 23.7335 -0.6315 -2.6906
# 5 -0.3306 -5.2077 -1.2686 -0.6315 31.7579 5.9039
# 6 -5.7596 -2.5597 -5.2441 -2.6906 5.9039 18.3761
#
#
#
# Elastic Compliance Matrix: (Units=1/GPa)
#
#
# Indices 1 2 3 4 5 6 
#
# 1 0.013303 0.000517 -0.003433 -0.000627 -0.000548 0.003346
# 2 0.000517 0.024287 -0.005938 -0.008474 0.003689 -0.000575
# 3 -0.003433 -0.005938 0.015960 -0.016742 -0.000789 0.000454
# 4 -0.000627 -0.008474 -0.016742 0.071991 -0.001541 0.004881
# 5 -0.000548 0.003689 -0.000789 -0.001541 0.034081 -0.011059
# 6 0.003346 -0.000575 0.000454 0.004881 -0.011059 0.059784
#
#
# Mechanical properties :
#
#
# Convention : Reuss Voigt Hill
#
# Bulk Modulus (GPa) = 27.89985 47.12148 37.51067
# Shear Modulus (GPa) = 20.07538 26.76809 23.42173
#
# Velocity S-wave (km/s) = 3.27763 3.78474 3.54028
# Velocity P-wave (km/s) = 5.40867 6.65695 6.06501
#
# Compressibility (1/GPa) = 0.03584249
#
# Stress axis : x y z
#
# Youngs Moduli (GPa) = 75.17051 41.17449 62.65637
#
# Poissons Ratio (x) = -0.02130 0.21509
# Poissons Ratio (y) = -0.03889 0.37208
# Poissons Ratio (z) = 0.25804 0.24451
#
# Static dielectric constant tensor:
#      x y z
#    x 3.485660 -0.000570 0.236530 
#    y -0.000570 3.128240 0.382260 
#    z 0.236530 0.382260 3.835480 
# 
# 
# High freq. dielectric constant tensor:
#      x y z
#    x 1.719700 -0.002340 0.009990 
#    y -0.002340 1.689320 0.021220 
#    z 0.009990 0.021220 1.735580 
# 
# From -- ./inp_files/280415.got.cif
#   From: 2010.06.25/outbox.cif.g09.slc.cpg/sg2_141_cif.got.tgz:280415.got - 2010.06.27 13:26:56.
