data_PCOD8013271
_publ_section_title
;
Structure prediction by ZEFSAII (Michael W. Deem and Ramdas Pophale) SiO2 
 PCOD8013271
Probable space group: P -1
;
_chemical_formula_sum "Si O2"
_cell_formula_units_Z 16
_cell_length_a 13.919108
_cell_length_b 14.344368
_cell_length_c 24.252922
_cell_angle_alpha 151.461353
_cell_angle_beta 160.592486
_cell_angle_gamma 30.901470
_cell_volume 755.357082
_symmetry_space_group_name_H-M "P -1"
_symmetry_group_IT_number 2
_symmetry_cell_setting 'triclinic'
loop_
_space_group_symop_operation_xyz
x,y,z
-x,-y,-z
loop_
_atom_site_type_symbol
_atom_site_label
_atom_site_fract_x
_atom_site_fract_y
_atom_site_fract_z
Si Si1 0.164083 0.274440 0.968514
Si Si2 0.776971 0.884559 0.289659
Si Si3 0.983058 0.785104 0.747414
Si Si4 0.530234 0.451437 0.182734
Si Si5 0.559121 0.187687 0.597059
Si Si6 0.792115 0.202618 0.009148
Si Si7 0.686174 0.866189 0.904596
Si Si8 0.088931 0.547016 0.896971
O O1 0.906623 0.151033 0.751262
O O2 0.405764 0.264199 0.045481
O O3 0.337701 0.204391 0.082312
O O4 0.000000 0.500000 0.000000
O O5 0.955954 0.676186 0.255386
O O6 0.625134 0.010895 0.220899
O O7 0.530648 0.843160 0.177843
O O8 0.000000 0.000000 0.500000
O O9 0.154124 0.635331 0.716842
O O10 0.076992 0.707105 0.818817
O O11 0.635373 0.793582 0.554453
O O12 0.058951 0.003506 0.894504
O O13 0.553157 0.615273 0.325857
O O14 0.313945 0.554535 0.072190
O O15 0.500000 0.000000 0.500000
O O16 0.774362 0.366106 0.037329
O O17 0.000000 0.000000 0.000000
O O18 0.777796 0.677339 0.815170
#
# Coordination Sequence:
#
# PCOD8013271 Si02
#       8
#     2   2   2   2   2   2   2   2
#     4  10  21  40  66  95 129 177 218 257 344 399
#     4  11  26  46  66 102 133 170 234 284 327 397
#     4  11  22  42  64  98 134 167 225 278 320 398
#     4  11  23  41  67  94 134 177 216 270 337 398
#     4  11  21  40  65  98 131 169 223 274 319 399
#     4  11  23  45  73  94 132 184 221 270 347 401
#     4  11  21  44  70  91 138 177 219 271 345 393
#     4  12  21  45  74  92 132 183 223 273 339 406
#
# _framework density 21.182034999999999
#
# number of rings (size 3 to 8) (size 9 to 14) (size 15 to 20)
#    0.000    1.000    8.750    0.750    0.000    1.000 
#    6.750    1.250    0.000    0.000    0.000    0.000 
#    0.000    0.000    0.000    0.000    0.000    0.000 
#
# Total GULP energy -198393.936126 kJ/mol
# GULP energy per Si atom -12399.621008 kJ/mol
# Density = 2.113382 g / cm^3
# Si number density = 21.182035 Si / 1000 Ang^3
#
#
#
# Elastic Constant Matrix: (Units=GPa)
#
#
# Indices 1 2 3 4 5 6 
#
# 1 110.1175 32.8431 44.2310 -16.7479 -11.7052 27.1032
# 2 32.8431 107.7409 38.8746 3.8681 -6.9672 10.0362
# 3 44.2310 38.8746 147.4336 -4.2078 -11.0166 16.0123
# 4 -16.7479 3.8681 -4.2078 25.3132 1.1300 -12.1401
# 5 -11.7052 -6.9672 -11.0166 1.1300 24.8816 -3.2710
# 6 27.1032 10.0362 16.0123 -12.1401 -3.2710 48.5165
#
#
#
# Elastic Compliance Matrix: (Units=1/GPa)
#
#
# Indices 1 2 3 4 5 6 
#
# 1 0.013278 -0.002829 -0.002329 0.006680 0.003574 -0.004151
# 2 -0.002829 0.011210 -0.002041 -0.004508 0.000960 -0.001128
# 3 -0.002329 -0.002041 0.008254 -0.000409 0.001878 -0.000977
# 4 0.006680 -0.004508 -0.000409 0.049158 0.000740 0.009686
# 5 0.003574 0.000960 0.001878 0.000740 0.042974 0.000268
# 6 -0.004151 -0.001128 -0.000977 0.009686 0.000268 0.025928
#
#
# Mechanical properties :
#
#
# Convention : Reuss Voigt Hill
#
# Bulk Modulus (GPa) = 54.51675 66.35437 60.43556
# Shear Modulus (GPa) = 29.18595 36.36513 32.77554
#
# Velocity S-wave (km/s) = 3.71599 4.14791 3.93788
# Velocity P-wave (km/s) = 6.64865 7.37116 7.01921
#
# Compressibility (1/GPa) = 0.01834299
#
# Stress axis : x y z
#
# Youngs Moduli (GPa) = 75.31160 89.20975 121.14832
#
# Poissons Ratio (x) = 0.25240 0.28215
# Poissons Ratio (y) = 0.21308 0.24729
# Poissons Ratio (z) = 0.17540 0.18210
#
# Static dielectric constant tensor:
#      x y z
#    x 4.426230 0.087470 0.132480 
#    y 0.087470 4.047260 -0.056440 
#    z 0.132480 -0.056440 4.206650 
# 
# 
# High freq. dielectric constant tensor:
#      x y z
#    x 1.827500 0.004690 -0.012500 
#    y 0.004690 1.844810 -0.003570 
#    z -0.012500 -0.003570 1.812800 
# 
# From -- ./inp_files/612126.got.cif
#   From: 2010.06.25/outbox.cif.g09.slc.cpg/sg2_307_cif.got.tgz:612126.got - 2010.06.27 13:26:56.
