data_PCOD8013717
_publ_section_title
;
Structure prediction by ZEFSAII (Michael W. Deem and Ramdas Pophale) SiO2 
 PCOD8013717
Probable space group: P -1
;
_chemical_formula_sum "Si O2"
_cell_formula_units_Z 16
_cell_length_a 11.816924
_cell_length_b 8.527836
_cell_length_c 12.234839
_cell_angle_alpha 61.623955
_cell_angle_beta 123.984237
_cell_angle_gamma 85.853926
_cell_volume 797.178201
_symmetry_space_group_name_H-M "P -1"
_symmetry_group_IT_number 2
_symmetry_cell_setting 'triclinic'
loop_
_space_group_symop_operation_xyz
x,y,z
-x,-y,-z
loop_
_atom_site_type_symbol
_atom_site_label
_atom_site_fract_x
_atom_site_fract_y
_atom_site_fract_z
Si Si1 0.866542 0.444970 0.684054
Si Si2 0.692845 0.271523 0.764133
Si Si3 0.009435 0.711872 0.674021
Si Si4 0.659645 0.628921 0.050755
Si Si5 0.196337 0.108664 0.905520
Si Si6 0.118371 0.005865 0.671916
Si Si7 0.376720 0.705088 0.747239
Si Si8 0.618881 0.398354 0.451279
O O1 0.819533 0.355052 0.794453
O O2 0.739411 0.489500 0.504912
O O3 0.877505 0.647922 0.657300
O O4 0.028071 0.289764 0.771487
O O5 0.627985 0.266356 0.608307
O O6 0.552674 0.419159 0.716271
O O7 0.773175 0.050815 0.929859
O O8 0.173069 0.526030 0.851937
O O9 0.984259 0.773853 0.510091
O O10 0.006296 0.903985 0.672656
O O11 0.673006 0.817836 0.046846
O O12 0.602581 0.519495 0.145146
O O13 0.537215 0.707638 0.859483
O O14 0.207052 0.011313 0.825483
O O15 0.241872 0.870870 0.691925
O O16 0.339805 0.744457 0.585305
#
# Coordination Sequence:
#
# PCOD8013717 Si02
#       8
#     2   2   2   2   2   2   2   2
#     4   9  20  38  62  81 113 155 189 235 282 336
#     4   9  21  39  60  86 109 152 203 233 272 338
#     4   9  20  37  55  86 118 146 191 230 287 340
#     4   9  22  36  58  87 118 151 185 232 290 349
#     4  11  22  36  61  89 116 148 189 239 286 340
#     4  10  23  35  57  92 121 144 185 239 287 348
#     4  10  21  41  57  85 120 152 187 231 295 333
#     4   9  21  38  64  79 111 157 190 239 275 336
#
# _framework density 20.070793999999999
#
# number of rings (size 3 to 8) (size 9 to 14) (size 15 to 20)
#    0.750    1.750    0.000    0.375   12.250    2.500 
#    0.000    1.250    2.750    0.000    0.000    0.000 
#    0.000    0.000    0.000    0.000    0.000    0.000 
#
# Total GULP energy -198232.107176 kJ/mol
# GULP energy per Si atom -12389.506699 kJ/mol
# Density = 2.002511 g / cm^3
# Si number density = 20.070794 Si / 1000 Ang^3
#
#
#
# Elastic Constant Matrix: (Units=GPa)
#
#
# Indices 1 2 3 4 5 6 
#
# 1 95.0659 63.5041 29.6569 9.2466 9.1000 17.1387
# 2 63.5041 103.3185 33.7852 12.5758 -3.6730 30.2860
# 3 29.6569 33.7852 60.9649 7.5504 2.5153 18.7952
# 4 9.2466 12.5758 7.5504 28.2443 5.3599 2.5512
# 5 9.1000 -3.6730 2.5153 5.3599 25.6542 0.6204
# 6 17.1387 30.2860 18.7952 2.5512 0.6204 37.0427
#
#
#
# Elastic Compliance Matrix: (Units=1/GPa)
#
#
# Indices 1 2 3 4 5 6 
#
# 1 0.020267 -0.012604 -0.003529 0.001378 -0.009003 0.002774
# 2 -0.012604 0.022598 -0.002628 -0.006036 0.009492 -0.011054
# 3 -0.003529 -0.002628 0.022193 -0.002850 -0.000529 -0.007274
# 4 0.001378 -0.006036 -0.002850 0.039919 -0.009490 0.003153
# 5 -0.009003 0.009492 -0.000529 -0.009490 0.045650 -0.003438
# 6 0.002774 -0.011054 -0.007274 0.003153 -0.003438 0.038281
#
#
# Mechanical properties :
#
#
# Convention : Reuss Voigt Hill
#
# Bulk Modulus (GPa) = 36.31569 57.02686 46.67127
# Shear Modulus (GPa) = 21.22161 27.01512 24.11836
#
# Velocity S-wave (km/s) = 3.25520 3.67276 3.47026
# Velocity P-wave (km/s) = 5.67992 6.81616 6.27382
#
# Compressibility (1/GPa) = 0.02753631
#
# Stress axis : x y z
#
# Youngs Moduli (GPa) = 49.34141 44.25256 45.05887
#
# Poissons Ratio (x) = 0.55776 0.15900
# Poissons Ratio (y) = 0.62191 0.11841
# Poissons Ratio (z) = 0.17411 0.11629
#
# Static dielectric constant tensor:
#      x y z
#    x 3.620260 0.374560 0.160310 
#    y 0.374560 3.578850 -0.017430 
#    z 0.160310 -0.017430 3.584390 
# 
# 
# High freq. dielectric constant tensor:
#      x y z
#    x 1.774060 0.018360 0.020860 
#    y 0.018360 1.761880 -0.000950 
#    z 0.020860 -0.000950 1.779990 
# 
# From -- ./inp_files/414344.got.cif
#   From: 2010.06.25/outbox.cif.g09.slc.cpg/sg2_208_cif.got.tgz:414344.got - 2010.06.27 13:26:56.
