data_PCOD8013380
_publ_section_title
;
Structure prediction by ZEFSAII (Michael W. Deem and Ramdas Pophale) SiO2 
 PCOD8013380
Probable space group: P -1
;
_chemical_formula_sum "Si O2"
_cell_formula_units_Z 16
_cell_length_a 12.435554
_cell_length_b 11.364291
_cell_length_c 8.499779
_cell_angle_alpha 127.226664
_cell_angle_beta 90.588305
_cell_angle_gamma 56.039151
_cell_volume 688.762809
_symmetry_space_group_name_H-M "P -1"
_symmetry_group_IT_number 2
_symmetry_cell_setting 'triclinic'
loop_
_space_group_symop_operation_xyz
x,y,z
-x,-y,-z
loop_
_atom_site_type_symbol
_atom_site_label
_atom_site_fract_x
_atom_site_fract_y
_atom_site_fract_z
Si Si1 0.670216 0.710966 0.680678
Si Si2 0.918505 0.575905 0.395065
Si Si3 0.757956 0.411425 0.717760
Si Si4 0.352058 0.943469 0.920657
Si Si5 0.905395 0.903721 0.525433
Si Si6 0.221576 0.678602 0.021164
Si Si7 0.928037 0.810242 0.090630
Si Si8 0.472399 0.551251 0.723534
O O1 0.776663 0.598559 0.437717
O O2 0.726725 0.574949 0.729821
O O3 0.504206 0.817924 0.716965
O O4 0.684299 0.870054 0.846726
O O5 0.871643 0.788214 0.529623
O O6 0.000000 0.500000 0.500000
O O7 0.022574 0.406744 0.122921
O O8 0.747920 0.463389 0.946072
O O9 0.635710 0.398013 0.681579
O O10 0.926945 0.193516 0.515857
O O11 0.387168 0.789822 0.932148
O O12 0.218334 0.009126 0.865274
O O13 0.886319 0.872441 0.320246
O O14 0.792627 0.141768 0.761750
O O15 0.066708 0.782528 0.017442
O O16 0.362363 0.535931 0.788457
O O17 0.500000 0.500000 0.500000
#
# Coordination Sequence:
#
# PCOD8013380 Si02
#       8
#     2   2   2   2   2   2   2   2
#     4  10  21  40  67  94 129 170 212 268 327 384
#     4  12  22  40  69  98 130 171 222 267 328 385
#     4  10  21  43  65  90 130 171 211 263 327 379
#     4  10  22  41  63  93 131 165 213 271 320 380
#     4  11  24  44  66  96 135 174 220 268 324 384
#     4  11  26  43  67  95 133 177 218 266 327 392
#     4  11  24  41  66 100 132 171 218 272 320 393
#     4  11  26  40  66  93 130 169 218 271 321 389
#
# _framework density 23.230059000000001
#
# number of rings (size 3 to 8) (size 9 to 14) (size 15 to 20)
#    0.000    1.250    2.500    3.000    7.000    1.500 
#    0.000    0.625    0.000    0.000    0.000    0.000 
#    0.000    0.000    0.000    0.000    0.000    0.000 
#
# Total GULP energy -198268.775577 kJ/mol
# GULP energy per Si atom -12391.798474 kJ/mol
# Density = 2.317719 g / cm^3
# Si number density = 23.230059 Si / 1000 Ang^3
#
#
#
# Elastic Constant Matrix: (Units=GPa)
#
#
# Indices 1 2 3 4 5 6 
#
# 1 144.3072 34.0784 8.4358 -25.1289 -22.8681 -18.6920
# 2 34.0784 80.0321 14.4516 -6.4785 -6.5058 -6.9606
# 3 8.4358 14.4516 69.6286 -4.7990 -9.0224 -1.7626
# 4 -25.1289 -6.4785 -4.7990 26.8158 7.7715 4.9621
# 5 -22.8681 -6.5058 -9.0224 7.7715 39.5021 -4.5064
# 6 -18.6920 -6.9606 -1.7626 4.9621 -4.5064 46.3233
#
#
#
# Elastic Compliance Matrix: (Units=1/GPa)
#
#
# Indices 1 2 3 4 5 6 
#
# 1 0.009940 -0.003145 0.000569 0.006776 0.004405 0.003263
# 2 -0.003145 0.014367 -0.002579 -0.000108 0.000070 0.000810
# 3 0.000569 -0.002579 0.015364 0.001642 0.003154 0.000558
# 4 0.006776 -0.000108 0.001642 0.045855 -0.005040 -0.002622
# 5 0.004405 0.000070 0.003154 -0.005040 0.030204 0.005386
# 6 0.003263 0.000810 0.000558 -0.002622 0.005386 0.023852
#
#
# Mechanical properties :
#
#
# Convention : Reuss Voigt Hill
#
# Bulk Modulus (GPa) = 34.05773 45.32217 39.68995
# Shear Modulus (GPa) = 31.31306 38.32837 34.82071
#
# Velocity S-wave (km/s) = 3.67543 4.06636 3.87583
# Velocity P-wave (km/s) = 5.71880 6.44977 6.09525
#
# Compressibility (1/GPa) = 0.02936191
#
# Stress axis : x y z
#
# Youngs Moduli (GPa) = 100.60677 69.60311 65.08608
#
# Poissons Ratio (x) = 0.21889 -0.03703
# Poissons Ratio (y) = 0.31638 0.16784
# Poissons Ratio (z) = -0.05724 0.17949
#
# Static dielectric constant tensor:
#      x y z
#    x 4.783930 -0.039830 -0.326080 
#    y -0.039830 4.320240 0.167590 
#    z -0.326080 0.167590 4.296170 
# 
# 
# High freq. dielectric constant tensor:
#      x y z
#    x 1.936290 -0.003860 -0.007950 
#    y -0.003860 1.906600 0.005790 
#    z -0.007950 0.005790 1.910400 
# 
# From -- ./inp_files/260684.got.cif
#   From: 2010.06.25/outbox.cif.g09.slc.cpg/sg2_131_cif.got.tgz:260684.got - 2010.06.27 13:26:56.
