data_PCOD8013533
_publ_section_title
;
Structure prediction by ZEFSAII (Michael W. Deem and Ramdas Pophale) SiO2 
 PCOD8013533
Probable space group: P -1
;
_chemical_formula_sum "Si O2"
_cell_formula_units_Z 16
_cell_length_a 19.577735
_cell_length_b 5.139427
_cell_length_c 16.566887
_cell_angle_alpha 82.325670
_cell_angle_beta 158.026597
_cell_angle_gamma 97.355328
_cell_volume 618.100518
_symmetry_space_group_name_H-M "P -1"
_symmetry_group_IT_number 2
_symmetry_cell_setting 'triclinic'
loop_
_space_group_symop_operation_xyz
x,y,z
-x,-y,-z
loop_
_atom_site_type_symbol
_atom_site_label
_atom_site_fract_x
_atom_site_fract_y
_atom_site_fract_z
Si Si1 0.103601 0.296606 0.514995
Si Si2 0.570263 0.346633 0.896741
Si Si3 0.006639 0.151156 0.839064
Si Si4 0.764672 0.246768 0.261834
Si Si5 0.320076 0.097714 0.070090
Si Si6 0.812516 0.575884 0.835239
Si Si7 0.832295 0.672664 0.595051
Si Si8 0.467209 0.830285 0.392877
O O1 0.223434 0.556240 0.657579
O O2 0.059086 0.292938 0.371523
O O3 0.917180 0.314092 0.358934
O O4 0.222091 0.046511 0.679838
O O5 0.601468 0.652876 0.901661
O O6 0.374960 0.261026 0.652535
O O7 0.707864 0.148463 0.010461
O O8 0.579089 0.292649 0.005214
O O9 0.857835 0.380652 0.669450
O O10 0.123939 0.180990 0.884975
O O11 0.137328 0.179871 0.059879
O O12 0.906512 0.868825 0.738240
O O13 0.453486 0.015781 0.292798
O O14 0.651373 0.654668 0.592502
O O15 0.721416 0.342300 0.799911
O O16 0.000000 0.500000 0.000000
O O17 0.500000 0.000000 0.500000
#
# Coordination Sequence:
#
# PCOD8013533 Si02
#       8
#     2   2   2   2   2   2   2   2
#     4  10  21  40  68  99 134 182 233 290 338 432
#     4  12  27  44  70 107 142 189 230 297 362 417
#     4  12  25  48  71 101 142 192 236 289 358 427
#     4  10  21  40  68  98 134 184 236 277 356 418
#     4  12  25  47  73  98 144 190 238 291 352 433
#     4  11  27  48  77 109 146 192 244 306 366 433
#     4  12  27  44  69 107 146 180 238 295 359 421
#     4  11  25  48  76 107 144 193 246 299 368 433
#
# _framework density 25.885757999999999
#
# number of rings (size 3 to 8) (size 9 to 14) (size 15 to 20)
#    0.000    0.750    1.250    6.000    3.500    4.500 
#    2.250    0.000    0.000    0.000    0.000    0.000 
#    0.000    0.000    0.000    0.000    0.000    0.000 
#
# Total GULP energy -198416.748629 kJ/mol
# GULP energy per Si atom -12401.046789 kJ/mol
# Density = 2.582684 g / cm^3
# Si number density = 25.885758 Si / 1000 Ang^3
#
#
#
# Elastic Constant Matrix: (Units=GPa)
#
#
# Indices 1 2 3 4 5 6 
#
# 1 41.7924 22.8786 9.0037 6.6096 -0.6596 -13.7160
# 2 22.8786 139.8199 32.6337 -1.2870 -7.1960 -25.2344
# 3 9.0037 32.6337 115.5417 9.0395 1.2748 -13.1245
# 4 6.6096 -1.2870 9.0395 33.8017 -3.2749 -12.3509
# 5 -0.6596 -7.1960 1.2748 -3.2749 49.3062 3.4903
# 6 -13.7160 -25.2344 -13.1245 -12.3509 3.4903 35.9969
#
#
#
# Elastic Compliance Matrix: (Units=1/GPa)
#
#
# Indices 1 2 3 4 5 6 
#
# 1 0.028761 -0.003366 -0.000184 -0.003015 -0.000839 0.007579
# 2 -0.003366 0.009294 -0.002026 0.003739 0.001211 0.005659
# 3 -0.000184 -0.002026 0.009572 -0.002193 -0.000785 0.001323
# 4 -0.003015 0.003739 -0.002193 0.035756 0.002035 0.012744
# 5 -0.000839 0.001211 -0.000785 0.002035 0.020678 -0.001063
# 6 0.007579 0.005659 0.001323 0.012744 -0.001063 0.039593
#
#
# Mechanical properties :
#
#
# Convention : Reuss Voigt Hill
#
# Bulk Modulus (GPa) = 27.41662 47.35398 37.38530
# Shear Modulus (GPa) = 29.94636 39.33018 34.63827
#
# Velocity S-wave (km/s) = 3.40496 3.90214 3.66200
# Velocity P-wave (km/s) = 5.10615 6.21574 5.68807
#
# Compressibility (1/GPa) = 0.03647423
#
# Stress axis : x y z
#
# Youngs Moduli (GPa) = 34.76908 107.59848 104.47188
#
# Poissons Ratio (x) = 0.36220 0.01927
# Poissons Ratio (y) = 0.11704 0.21163
# Poissons Ratio (z) = 0.00641 0.21796
#
# Static dielectric constant tensor:
#      x y z
#    x 4.694800 -0.231120 -0.127780 
#    y -0.231120 4.655970 -0.055840 
#    z -0.127780 -0.055840 5.015640 
# 
# 
# High freq. dielectric constant tensor:
#      x y z
#    x 2.027020 -0.013800 -0.007860 
#    y -0.013800 2.040750 -0.007320 
#    z -0.007860 -0.007320 2.048380 
# 
# From -- ./inp_files/576799.got.cif
#   From: 2010.06.25/outbox.cif.g09.slc.cpg/sg2_289_cif.got.tgz:576799.got - 2010.06.27 13:26:56.
