data_PCOD8013483
_publ_section_title
;
Structure prediction by ZEFSAII (Michael W. Deem and Ramdas Pophale) SiO2 
 PCOD8013483
Probable space group: P -1
;
_chemical_formula_sum "Si O2"
_cell_formula_units_Z 16
_cell_length_a 13.852218
_cell_length_b 13.717785
_cell_length_c 7.975539
_cell_angle_alpha 132.948352
_cell_angle_beta 43.442335
_cell_angle_gamma 137.957847
_cell_volume 663.807986
_symmetry_space_group_name_H-M "P -1"
_symmetry_group_IT_number 2
_symmetry_cell_setting 'triclinic'
loop_
_space_group_symop_operation_xyz
x,y,z
-x,-y,-z
loop_
_atom_site_type_symbol
_atom_site_label
_atom_site_fract_x
_atom_site_fract_y
_atom_site_fract_z
Si Si1 0.668037 0.645690 0.506595
Si Si2 0.667668 0.318121 0.787604
Si Si3 0.847385 0.634318 0.765998
Si Si4 0.043184 0.370095 0.750902
Si Si5 0.656483 0.771577 0.031647
Si Si6 0.721345 0.147548 0.037136
Si Si7 0.817629 0.131273 0.263504
Si Si8 0.487036 0.196576 0.203712
O O1 0.500000 0.500000 0.500000
O O2 0.822931 0.621386 0.273018
O O3 0.686782 0.725719 0.756577
O O4 0.657639 0.765463 0.526687
O O5 0.805441 0.489463 0.767790
O O6 0.731091 0.195502 0.572920
O O7 0.529964 0.273638 0.766321
O O8 0.595546 0.313710 0.056175
O O9 0.893548 0.605442 0.488999
O O10 0.703120 0.675996 0.990982
O O11 0.993355 0.781215 0.838949
O O12 0.876963 0.208931 0.790783
O O13 0.000000 0.500000 0.000000
O O14 0.759153 0.953150 0.148276
O O15 0.597223 0.972456 0.958671
O O16 0.783132 0.179252 0.183486
O O17 0.612057 0.228924 0.235603
#
# Coordination Sequence:
#
# PCOD8013483 Si02
#       8
#     2   2   2   2   2   2   2   2
#     4  10  21  40  68  93 134 177 223 277 335 406
#     4  11  22  43  72  97 134 178 230 277 336 408
#     4  11  25  44  70 101 138 180 224 281 344 411
#     4  11  24  44  67 101 139 178 228 278 342 408
#     4  10  23  44  66  99 141 173 225 280 344 406
#     4  11  23  41  67  94 137 176 226 278 335 400
#     4  12  23  42  69 106 135 178 225 283 343 407
#     4  10  23  44  66  96 133 179 231 277 337 399
#
# _framework density 24.103354
#
# number of rings (size 3 to 8) (size 9 to 14) (size 15 to 20)
#    0.000    1.250    2.500    3.750    0.000    5.500 
#    0.000    1.250    0.000    0.000    0.000    0.000 
#    0.000    0.000    0.000    0.000    0.000    0.000 
#
# Total GULP energy -198217.757215 kJ/mol
# GULP energy per Si atom -12388.609826 kJ/mol
# Density = 2.404849 g / cm^3
# Si number density = 24.103354 Si / 1000 Ang^3
#
#
#
# Elastic Constant Matrix: (Units=GPa)
#
#
# Indices 1 2 3 4 5 6 
#
# 1 132.2837 14.6934 30.1075 10.4845 -38.5032 8.1291
# 2 14.6934 99.8814 25.8938 9.4985 -1.6054 3.4348
# 3 30.1075 25.8938 63.8815 18.5920 -24.8252 -9.4428
# 4 10.4845 9.4985 18.5920 36.7687 -3.4449 -0.5942
# 5 -38.5032 -1.6054 -24.8252 -3.4449 44.7821 -1.2004
# 6 8.1291 3.4348 -9.4428 -0.5942 -1.2004 43.6300
#
#
#
# Elastic Compliance Matrix: (Units=1/GPa)
#
#
# Indices 1 2 3 4 5 6 
#
# 1 0.010566 -0.000873 -0.001357 -0.001371 0.008143 -0.001988
# 2 -0.000873 0.011750 -0.006125 -0.000080 -0.003790 -0.002193
# 3 -0.001357 -0.006125 0.028323 -0.010958 0.013662 0.007092
# 4 -0.001371 -0.000080 -0.010958 0.032671 -0.004791 -0.001797
# 5 0.008143 -0.003790 0.013662 -0.004791 0.036472 0.002676
# 6 -0.001988 -0.002193 0.007092 -0.001797 0.002676 0.025047
#
#
# Mechanical properties :
#
#
# Convention : Reuss Voigt Hill
#
# Bulk Modulus (GPa) = 29.47304 48.60401 39.03853
# Shear Modulus (GPa) = 28.92695 40.05963 34.49329
#
# Velocity S-wave (km/s) = 3.46804 4.08118 3.78704
# Velocity P-wave (km/s) = 5.31890 6.51281 5.94589
#
# Compressibility (1/GPa) = 0.03392931
#
# Stress axis : x y z
#
# Youngs Moduli (GPa) = 94.64259 85.10384 35.30738
#
# Poissons Ratio (x) = 0.07430 0.04790
# Poissons Ratio (y) = 0.08263 0.21626
# Poissons Ratio (z) = 0.12839 0.52128
#
# Static dielectric constant tensor:
#      x y z
#    x 4.970890 0.731460 -0.443430 
#    y 0.731460 2.976520 -0.500070 
#    z -0.443430 -0.500070 4.378060 
# 
# 
# High freq. dielectric constant tensor:
#      x y z
#    x 1.981720 0.008750 -0.023280 
#    y 0.008750 1.952690 0.018230 
#    z -0.023280 0.018230 1.945520 
# 
# From -- ./inp_files/316037.got.cif
#   From: 2010.06.25/outbox.cif.g09.slc.cpg/sg2_159_cif.got.tgz:316037.got - 2010.06.27 13:26:56.
