data_PCOD8013261
_publ_section_title
;
Structure prediction by ZEFSAII (Michael W. Deem and Ramdas Pophale) SiO2 
 PCOD8013261
Probable space group: P -1
;
_chemical_formula_sum "Si O2"
_cell_formula_units_Z 16
_cell_length_a 10.779839
_cell_length_b 12.243039
_cell_length_c 5.400451
_cell_angle_alpha 117.943125
_cell_angle_beta 105.242365
_cell_angle_gamma 73.227509
_cell_volume 595.950238
_symmetry_space_group_name_H-M "P -1"
_symmetry_group_IT_number 2
_symmetry_cell_setting 'triclinic'
loop_
_space_group_symop_operation_xyz
x,y,z
-x,-y,-z
loop_
_atom_site_type_symbol
_atom_site_label
_atom_site_fract_x
_atom_site_fract_y
_atom_site_fract_z
Si Si1 0.753300 0.946309 0.172677
Si Si2 0.965120 0.178876 0.407089
Si Si3 0.938194 0.096013 0.802624
Si Si4 0.623662 0.055261 0.705845
Si Si5 0.900641 0.600525 0.400153
Si Si6 0.541257 0.306904 0.723717
Si Si7 0.317053 0.486499 0.073659
Si Si8 0.330752 0.287846 0.257960
O O1 0.906959 0.906992 0.160011
O O2 0.726696 0.030105 0.500852
O O3 0.695365 0.819203 0.062136
O O4 0.680817 0.008706 0.952606
O O5 0.873818 0.160196 0.578437
O O6 0.022332 0.305278 0.605093
O O7 0.884784 0.181281 0.105380
O O8 0.077380 0.049473 0.313624
O O9 0.589666 0.208076 0.863758
O O10 0.500000 0.000000 0.500000
O O11 0.791840 0.692095 0.598655
O O12 0.000000 0.500000 0.500000
O O13 0.831949 0.518735 0.086683
O O14 0.659910 0.370158 0.749151
O O15 0.473314 0.235421 0.399170
O O16 0.419427 0.414488 0.854300
O O17 0.339457 0.421570 0.282763
#
# Coordination Sequence:
#
# PCOD8013261 Si02
#       8
#     2   2   2   2   2   2   2   2
#     4  12  24  39  69  97 136 176 219 269 345 403
#     4  10  21  41  66  94 127 169 223 278 325 393
#     4  10  21  40  66  94 127 172 221 269 333 397
#     4  12  25  41  63 105 136 171 215 280 336 402
#     4  11  25  43  65  97 132 173 229 280 334 397
#     4  10  23  42  66  98 134 172 225 275 329 405
#     4  10  23  44  69  92 130 182 225 270 338 395
#     4  11  22  41  70  93 129 178 223 274 332 411
#
# _framework density 26.847878999999999
#
# number of rings (size 3 to 8) (size 9 to 14) (size 15 to 20)
#    0.000    1.250    2.500    3.000    3.500    1.500 
#    2.250    0.000    0.000    0.000    0.000    0.000 
#    0.000    0.000    0.000    0.000    0.000    0.000 
#
# Total GULP energy -198235.312110 kJ/mol
# GULP energy per Si atom -12389.707007 kJ/mol
# Density = 2.678677 g / cm^3
# Si number density = 26.847879 Si / 1000 Ang^3
#
#
#
# Elastic Constant Matrix: (Units=GPa)
#
#
# Indices 1 2 3 4 5 6 
#
# 1 58.3804 36.0623 -0.7116 1.0553 7.6668 18.4519
# 2 36.0623 133.8931 25.3483 -2.6181 8.1450 33.9775
# 3 -0.7116 25.3483 110.7968 -27.3646 -12.5029 -7.9259
# 4 1.0553 -2.6181 -27.3646 46.3509 16.7368 3.7410
# 5 7.6668 8.1450 -12.5029 16.7368 29.0198 -7.2749
# 6 18.4519 33.9775 -7.9259 3.7410 -7.2749 39.4306
#
#
#
# Elastic Compliance Matrix: (Units=1/GPa)
#
#
# Indices 1 2 3 4 5 6 
#
# 1 0.023659 -0.002823 -0.000224 0.003862 -0.010538 -0.010995
# 2 -0.002823 0.012860 -0.004260 0.002692 -0.009412 -0.012609
# 3 -0.000224 -0.004260 0.012211 0.004350 0.005730 0.006874
# 4 0.003862 0.002692 0.004350 0.032758 -0.021378 -0.010305
# 5 -0.010538 -0.009412 0.005730 -0.021378 0.061599 0.027587
# 6 -0.010995 -0.012609 0.006874 -0.010305 0.027587 0.048820
#
#
# Mechanical properties :
#
#
# Convention : Reuss Voigt Hill
#
# Bulk Modulus (GPa) = 29.31038 47.16313 38.23676
# Shear Modulus (GPa) = 22.94683 39.11834 31.03259
#
# Velocity S-wave (km/s) = 2.92669 3.82126 3.40349
# Velocity P-wave (km/s) = 4.72881 6.08886 5.45142
#
# Compressibility (1/GPa) = 0.03411760
#
# Stress axis : x y z
#
# Youngs Moduli (GPa) = 42.26648 77.75808 81.89116
#
# Poissons Ratio (x) = 0.21954 0.01834
# Poissons Ratio (y) = 0.11933 0.34882
# Poissons Ratio (z) = 0.00946 0.33121
#
# Static dielectric constant tensor:
#      x y z
#    x 5.060830 0.343410 0.253360 
#    y 0.343410 4.886990 -0.176430 
#    z 0.253360 -0.176430 5.572120 
# 
# 
# High freq. dielectric constant tensor:
#      x y z
#    x 2.082340 0.026810 0.021510 
#    y 0.026810 2.075400 -0.013070 
#    z 0.021510 -0.013070 2.083710 
# 
# From -- ./inp_files/71979.got.cif
#   From: 2010.06.25/outbox.cif.g09.slc.cpg/sg2_36_cif.got.tgz:71979.got - 2010.06.27 13:26:56.
