data_PCOD8013470
_publ_section_title
;
Structure prediction by ZEFSAII (Michael W. Deem and Ramdas Pophale) SiO2 
 PCOD8013470
Probable space group: P -1
;
_chemical_formula_sum "Si O2"
_cell_formula_units_Z 16
_cell_length_a 20.187089
_cell_length_b 8.728988
_cell_length_c 11.269292
_cell_angle_alpha 123.265563
_cell_angle_beta 28.320436
_cell_angle_gamma 129.799771
_cell_volume 723.164742
_symmetry_space_group_name_H-M "P -1"
_symmetry_group_IT_number 2
_symmetry_cell_setting 'triclinic'
loop_
_space_group_symop_operation_xyz
x,y,z
-x,-y,-z
loop_
_atom_site_type_symbol
_atom_site_label
_atom_site_fract_x
_atom_site_fract_y
_atom_site_fract_z
Si Si1 0.666755 0.586926 0.226081
Si Si2 0.863968 0.949220 0.953567
Si Si3 0.616309 0.258558 0.979552
Si Si4 0.845076 0.462694 0.071867
Si Si5 0.075117 0.740728 0.482297
Si Si6 0.164226 0.685519 0.730196
Si Si7 0.471530 0.874650 0.179622
Si Si8 0.217695 0.939421 0.110398
O O1 0.500000 0.500000 0.500000
O O2 0.779144 0.601507 0.164602
O O3 0.707203 0.807486 0.204599
O O4 0.683695 0.462107 0.033025
O O5 0.983051 0.844906 0.748089
O O6 0.844880 0.953326 0.843493
O O7 0.905990 0.165289 0.036814
O O8 0.755466 0.190989 0.703311
O O9 0.547817 0.276322 0.965975
O O10 0.490882 0.088820 0.185341
O O11 0.812452 0.452731 0.260715
O O12 0.752200 0.241324 0.073973
O O13 0.029183 0.546839 0.796399
O O14 0.091233 0.837237 0.366629
O O15 0.000000 0.500000 0.500000
O O16 0.322924 0.793685 0.460884
O O17 0.621797 0.897389 0.025583
#
# Coordination Sequence:
#
# PCOD8013470 Si02
#       8
#     2   2   2   2   2   2   2   2
#     4  12  24  41  66  95 131 167 212 268 316 388
#     4  11  24  38  63  98 128 167 219 262 322 369
#     4  10  22  41  63  96 123 170 215 252 325 384
#     4  10  22  44  64  94 128 169 217 252 330 379
#     4  11  20  40  66  90 125 172 208 263 315 385
#     4  10  24  41  66  97 127 168 212 271 313 380
#     4  10  21  40  68  90 129 165 213 262 318 381
#     4  10  22  41  66  93 128 171 215 262 318 386
#
# _framework density 22.124973000000001
#
# number of rings (size 3 to 8) (size 9 to 14) (size 15 to 20)
#    0.000    1.500    3.750    1.125    5.250    1.500 
#    6.750    0.625    0.000    0.000    0.000    0.000 
#    0.000    0.000    0.000    0.000    0.000    0.000 
#
# Total GULP energy -198289.138281 kJ/mol
# GULP energy per Si atom -12393.071143 kJ/mol
# Density = 2.207462 g / cm^3
# Si number density = 22.124973 Si / 1000 Ang^3
#
#
#
# Elastic Constant Matrix: (Units=GPa)
#
#
# Indices 1 2 3 4 5 6 
#
# 1 114.8305 42.1380 31.1995 -8.6954 -4.2057 10.7371
# 2 42.1380 71.6700 29.6839 -16.8594 1.1723 -6.8734
# 3 31.1995 29.6839 109.9478 -26.4915 2.2435 -3.7268
# 4 -8.6954 -16.8594 -26.4915 40.5445 -1.9365 4.8274
# 5 -4.2057 1.1723 2.2435 -1.9365 23.0983 -7.3081
# 6 10.7371 -6.8734 -3.7268 4.8274 -7.3081 31.6141
#
#
#
# Elastic Compliance Matrix: (Units=1/GPa)
#
#
# Indices 1 2 3 4 5 6 
#
# 1 0.012403 -0.007243 -0.002002 -0.000940 0.000951 -0.005660
# 2 -0.007243 0.020860 -0.002173 0.004992 0.000154 0.006012
# 3 -0.002002 -0.002173 0.011795 0.006283 -0.000724 0.000471
# 4 -0.000940 0.004992 0.006283 0.030968 0.000803 -0.002398
# 5 0.000951 0.000154 -0.000724 0.000803 0.046867 0.010337
# 6 -0.005660 0.006012 0.000471 -0.002398 0.010337 0.037672
#
#
# Mechanical properties :
#
#
# Convention : Reuss Voigt Hill
#
# Bulk Modulus (GPa) = 45.00068 55.83234 50.41651
# Shear Modulus (GPa) = 26.20465 31.94649 29.07557
#
# Velocity S-wave (km/s) = 3.44523 3.80401 3.62906
# Velocity P-wave (km/s) = 6.01745 6.67710 6.35584
#
# Compressibility (1/GPa) = 0.02222189
#
# Stress axis : x y z
#
# Youngs Moduli (GPa) = 80.62561 47.93964 84.78473
#
# Poissons Ratio (x) = 0.34721 0.16974
# Poissons Ratio (y) = 0.58394 0.18423
# Poissons Ratio (z) = 0.16141 0.10417
#
# Static dielectric constant tensor:
#      x y z
#    x 4.239940 0.012760 0.121480 
#    y 0.012760 3.949150 -0.252290 
#    z 0.121480 -0.252290 3.840840 
# 
# 
# High freq. dielectric constant tensor:
#      x y z
#    x 1.878110 0.002010 0.008420 
#    y 0.002010 1.857980 -0.031070 
#    z 0.008420 -0.031070 1.860470 
# 
# From -- ./inp_files/470076.got.cif
#   From: 2010.06.25/outbox.cif.g09.slc.cpg/sg2_236_cif.got.tgz:470076.got - 2010.06.27 13:26:56.
