data_PCOD8013603
_publ_section_title
;
Structure prediction by ZEFSAII (Michael W. Deem and Ramdas Pophale) SiO2 
 PCOD8013603
Probable space group: P -1
;
_chemical_formula_sum "Si O2"
_cell_formula_units_Z 16
_cell_length_a 9.255371
_cell_length_b 17.934930
_cell_length_c 5.857145
_cell_angle_alpha 53.973951
_cell_angle_beta 123.640546
_cell_angle_gamma 110.468192
_cell_volume 654.214705
_symmetry_space_group_name_H-M "P -1"
_symmetry_group_IT_number 2
_symmetry_cell_setting 'triclinic'
loop_
_space_group_symop_operation_xyz
x,y,z
-x,-y,-z
loop_
_atom_site_type_symbol
_atom_site_label
_atom_site_fract_x
_atom_site_fract_y
_atom_site_fract_z
Si Si1 0.075499 0.774486 0.542300
Si Si2 0.571452 0.147709 0.371203
Si Si3 0.434131 0.433128 0.756194
Si Si4 0.408539 0.043658 0.050050
Si Si5 0.749722 0.745654 0.004577
Si Si6 0.229685 0.543471 0.725431
Si Si7 0.953661 0.635148 0.041496
Si Si8 0.029071 0.048689 0.685442
O O1 0.267457 0.778239 0.587601
O O2 0.920562 0.789375 0.198735
O O3 0.082686 0.859606 0.574524
O O4 0.048241 0.678155 0.824413
O O5 0.629604 0.045233 0.664019
O O6 0.518124 0.131537 0.088860
O O7 0.398226 0.178736 0.301331
O O8 0.500000 0.500000 0.500000
O O9 0.344015 0.335619 0.775032
O O10 0.287067 0.488299 0.653260
O O11 0.602315 0.408742 0.097690
O O12 0.500000 0.000000 0.000000
O O13 0.225255 0.085802 0.762478
O O14 0.807790 0.702831 0.890010
O O15 0.131879 0.463477 0.937045
O O16 0.095574 0.620975 0.393808
O O17 0.000000 0.000000 0.500000
O O18 0.000000 0.000000 0.000000
#
# Coordination Sequence:
#
# PCOD8013603 Si02
#       8
#     2   2   2   2   2   2   2   2
#     4  12  26  44  70 104 142 184 243 300 367 434
#     4  11  26  45  66 102 140 176 244 297 361 447
#     4  10  21  40  69  98 134 181 229 287 360 432
#     4  11  25  46  71  98 138 193 241 300 374 443
#     4  11  26  42  65 105 137 180 233 299 357 433
#     4   9  21  44  65  98 138 183 237 285 359 447
#     4  10  24  43  68  98 141 185 233 298 364 433
#     4  12  27  49  77 108 149 199 252 309 378 454
#
# _framework density 24.456804000000002
#
# number of rings (size 3 to 8) (size 9 to 14) (size 15 to 20)
#    0.000    1.250    2.500    1.500    8.750    1.000 
#    0.000    3.750    0.000    0.000    0.000    0.000 
#    0.000    0.000    0.000    0.000    0.000    0.000 
#
# Total GULP energy -198213.121005 kJ/mol
# GULP energy per Si atom -12388.320063 kJ/mol
# Density = 2.440114 g / cm^3
# Si number density = 24.456804 Si / 1000 Ang^3
#
#
#
# Elastic Constant Matrix: (Units=GPa)
#
#
# Indices 1 2 3 4 5 6 
#
# 1 109.9351 22.6138 22.9242 10.0505 25.3361 20.7537
# 2 22.6138 77.2130 7.8282 11.5045 10.6828 13.6019
# 3 22.9242 7.8282 47.5787 2.2034 12.8351 6.5096
# 4 10.0505 11.5045 2.2034 37.7265 3.3211 4.2944
# 5 25.3361 10.6828 12.8351 3.3211 48.5501 -2.8606
# 6 20.7537 13.6019 6.5096 4.2944 -2.8606 47.2314
#
#
#
# Elastic Compliance Matrix: (Units=1/GPa)
#
#
# Indices 1 2 3 4 5 6 
#
# 1 0.012423 -0.001454 -0.003571 -0.001646 -0.005385 -0.004725
# 2 -0.001454 0.014875 -0.000486 -0.003527 -0.002345 -0.003399
# 3 -0.003571 -0.000486 0.024309 0.000306 -0.004592 -0.001947
# 4 -0.001646 -0.003527 0.000306 0.028141 -0.000423 -0.000887
# 5 -0.005385 -0.002345 -0.004592 -0.000423 0.025476 0.005256
# 6 -0.004725 -0.003399 -0.001947 -0.000887 0.005256 0.024895
#
#
# Mechanical properties :
#
#
# Convention : Reuss Voigt Hill
#
# Bulk Modulus (GPa) = 24.63930 37.93991 31.28960
# Shear Modulus (GPa) = 32.32684 38.79230 35.55957
#
# Velocity S-wave (km/s) = 3.63959 3.98698 3.81724
# Velocity P-wave (km/s) = 5.26865 6.06147 5.67891
#
# Compressibility (1/GPa) = 0.04058556
#
# Stress axis : x y z
#
# Youngs Moduli (GPa) = 80.49277 67.22678 41.13644
#
# Poissons Ratio (x) = 0.09774 0.14691
# Poissons Ratio (y) = 0.11703 0.01999
# Poissons Ratio (z) = 0.28747 0.03267
#
# Static dielectric constant tensor:
#      x y z
#    x 4.834460 0.463210 0.289340 
#    y 0.463210 4.812460 0.130930 
#    z 0.289340 0.130930 3.646420 
# 
# 
# High freq. dielectric constant tensor:
#      x y z
#    x 1.985880 0.007050 0.021170 
#    y 0.007050 1.972920 -0.003890 
#    z 0.021170 -0.003890 1.950700 
# 
# From -- ./inp_files/46844.got.cif
#   From: 2010.06.25/outbox.cif.g09.slc.cpg/sg2_24_cif.got.tgz:46844.got - 2010.06.27 13:26:56.
