data_PCOD8013691
_publ_section_title
;
Structure prediction by ZEFSAII (Michael W. Deem and Ramdas Pophale) SiO2 
 PCOD8013691
Probable space group: P -1
;
_chemical_formula_sum "Si O2"
_cell_formula_units_Z 14
_cell_length_a 9.138435
_cell_length_b 5.262033
_cell_length_c 18.480481
_cell_angle_alpha 80.236467
_cell_angle_beta 136.706924
_cell_angle_gamma 105.152699
_cell_volume 587.911708
_symmetry_space_group_name_H-M "P -1"
_symmetry_group_IT_number 2
_symmetry_cell_setting 'triclinic'
loop_
_space_group_symop_operation_xyz
x,y,z
-x,-y,-z
loop_
_atom_site_type_symbol
_atom_site_label
_atom_site_fract_x
_atom_site_fract_y
_atom_site_fract_z
Si Si1 0.373173 0.095455 0.033700
Si Si2 0.966169 0.795402 0.281549
Si Si3 0.455553 0.632331 0.690914
Si Si4 0.392374 0.703313 0.496286
Si Si5 0.352735 0.039751 0.737985
Si Si6 0.765124 0.449003 0.108636
Si Si7 0.073212 0.181259 0.178309
O O1 0.602780 0.155122 0.065558
O O2 0.436473 0.007329 0.139599
O O3 0.317133 0.387799 0.994083
O O4 0.152650 0.892525 0.944482
O O5 0.861788 0.985915 0.287747
O O6 0.767090 0.586092 0.182470
O O7 0.132818 0.653003 0.391179
O O8 0.102271 0.962658 0.257726
O O9 0.423133 0.652197 0.593573
O O10 0.391933 0.329861 0.704604
O O11 0.711816 0.743685 0.796347
O O12 0.312254 0.813002 0.672546
O O13 0.500000 0.500000 0.500000
O O14 0.500000 0.000000 0.500000
O O15 0.019588 0.435231 0.188695
#
# Coordination Sequence:
#
# PCOD8013691 Si02
#       7
#     2   2   2   2   2   2   2
#     4  10  23  39  70 101 145 192 236 297 344 419
#     4  11  25  44  77 102 140 190 241 292 354 420
#     4  12  29  47  70 107 151 179 241 297 359 429
#     4  12  26  49  82 109 134 183 241 304 352 415
#     4  12  28  47  66 107 154 191 225 293 366 424
#     4  10  21  40  72 108 135 182 260 295 329 420
#     4  11  23  42  73 104 134 195 250 290 337 424
#
# _framework density 23.813098
#
# number of rings (size 3 to 8) (size 9 to 14) (size 15 to 20)
#    0.000    0.857    2.857    3.000   10.000    2.286 
#    0.000    0.000    0.000    0.000    0.000    0.000 
#    0.000    0.000    0.000    0.000    0.000    0.000 
#
# Total GULP energy -173455.965127 kJ/mol
# GULP energy per Si atom -12389.711795 kJ/mol
# Density = 2.375890 g / cm^3
# Si number density = 23.813098 Si / 1000 Ang^3
#
#
#
# Elastic Constant Matrix: (Units=GPa)
#
#
# Indices 1 2 3 4 5 6 
#
# 1 90.3743 28.1828 36.8273 4.7411 3.2143 -31.3398
# 2 28.1828 123.7616 43.8116 -12.8385 -11.5258 -14.8356
# 3 36.8273 43.8116 130.5777 -11.4119 1.5860 -15.4982
# 4 4.7411 -12.8385 -11.4119 27.4076 4.9047 -1.7544
# 5 3.2143 -11.5258 1.5860 4.9047 33.0242 -2.3769
# 6 -31.3398 -14.8356 -15.4982 -1.7544 -2.3769 42.2304
#
#
#
# Elastic Compliance Matrix: (Units=1/GPa)
#
#
# Indices 1 2 3 4 5 6 
#
# 1 0.016866 -0.001976 -0.003232 -0.004383 -0.000776 0.010411
# 2 -0.001976 0.010281 -0.002427 0.003628 0.003473 0.001601
# 3 -0.003232 -0.002427 0.009783 0.003797 -0.001537 0.000410
# 4 -0.004383 0.003628 0.003797 0.041400 -0.004575 0.000877
# 5 -0.000776 0.003473 -0.001537 -0.004575 0.032445 0.001717
# 6 0.010411 0.001601 0.000410 0.000877 0.001717 0.032252
#
#
# Mechanical properties :
#
#
# Convention : Reuss Voigt Hill
#
# Bulk Modulus (GPa) = 46.16717 62.48411 54.32564
# Shear Modulus (GPa) = 30.20840 36.25858 33.23349
#
# Velocity S-wave (km/s) = 3.56555 3.90632 3.73982
# Velocity P-wave (km/s) = 6.03161 6.82951 6.44292
#
# Compressibility (1/GPa) = 0.02166041
#
# Stress axis : x y z
#
# Youngs Moduli (GPa) = 59.29142 97.26718 102.21329
#
# Poissons Ratio (x) = 0.19216 0.33035
# Poissons Ratio (y) = 0.11713 0.24811
# Poissons Ratio (z) = 0.19163 0.23611
#
# Static dielectric constant tensor:
#      x y z
#    x 4.379090 -0.228140 0.117760 
#    y -0.228140 4.428070 -0.080280 
#    z 0.117760 -0.080280 4.441680 
# 
# 
# High freq. dielectric constant tensor:
#      x y z
#    x 1.933160 -0.012790 0.011610 
#    y -0.012790 1.951640 -0.010170 
#    z 0.011610 -0.010170 1.948430 
# 
# From -- ./inp_files/552501.got.cif
#   From: 2010.06.25/outbox.cif.g09.slc.cpg/sg2_277_cif.got.tgz:552501.got - 2010.06.27 13:26:56.
