data_PCOD8013304
_publ_section_title
;
Structure prediction by ZEFSAII (Michael W. Deem and Ramdas Pophale) SiO2 
 PCOD8013304
Probable space group: P -1
;
_chemical_formula_sum "Si O2"
_cell_formula_units_Z 16
_cell_length_a 12.631688
_cell_length_b 9.438618
_cell_length_c 8.660514
_cell_angle_alpha 91.057575
_cell_angle_beta 95.234889
_cell_angle_gamma 47.151449
_cell_volume 752.519749
_symmetry_space_group_name_H-M "P -1"
_symmetry_group_IT_number 2
_symmetry_cell_setting 'triclinic'
loop_
_space_group_symop_operation_xyz
x,y,z
-x,-y,-z
loop_
_atom_site_type_symbol
_atom_site_label
_atom_site_fract_x
_atom_site_fract_y
_atom_site_fract_z
Si Si1 0.103441 0.196384 0.567223
Si Si2 0.840616 0.102118 0.938442
Si Si3 0.124000 0.212499 0.923817
Si Si4 0.797714 0.609392 0.565950
Si Si5 0.594403 0.585514 0.404047
Si Si6 0.271295 0.798960 0.416410
Si Si7 0.370346 0.513083 0.941788
Si Si8 0.794319 0.576908 0.917877
O O1 0.154342 0.145679 0.749607
O O2 0.179464 0.254274 0.488956
O O3 0.930556 0.381325 0.539779
O O4 0.150448 0.005927 0.489272
O O5 0.789752 0.189043 0.760386
O O6 0.764385 0.260980 0.064581
O O7 0.805261 0.968908 0.958481
O O8 0.000000 0.000000 0.000000
O O9 0.953178 0.362517 0.944612
O O10 0.202719 0.289791 0.967037
O O11 0.653495 0.682792 0.467680
O O12 0.766602 0.652891 0.743099
O O13 0.425975 0.736396 0.430195
O O14 0.697483 0.373246 0.490562
O O15 0.606146 0.571067 0.223213
O O16 0.500000 0.500000 0.000000
O O17 0.335356 0.412281 0.049832
#
# Coordination Sequence:
#
# PCOD8013304 Si02
#       8
#     2   2   2   2   2   2   2   2
#     4  10  22  41  66  99 129 164 221 270 324 388
#     4  12  24  41  68  98 130 169 219 273 327 382
#     4  10  21  40  66  97 129 165 215 271 323 382
#     4  10  22  40  68  96 129 170 212 270 330 387
#     4  11  25  42  65  90 132 177 214 262 323 389
#     4  11  25  43  63  94 132 171 217 266 323 387
#     4  12  24  43  65  95 134 174 216 263 324 394
#     4  10  21  40  67  95 130 170 213 265 326 384
#
# _framework density 21.261901999999999
#
# number of rings (size 3 to 8) (size 9 to 14) (size 15 to 20)
#    0.000    1.250    2.500    3.000    5.250    3.000 
#    0.000    0.625    0.000    0.000    0.000    0.000 
#    0.000    0.000    0.000    0.000    0.000    0.000 
#
# Total GULP energy -198334.784100 kJ/mol
# GULP energy per Si atom -12395.924006 kJ/mol
# Density = 2.121351 g / cm^3
# Si number density = 21.261902 Si / 1000 Ang^3
#
#
#
# Elastic Constant Matrix: (Units=GPa)
#
#
# Indices 1 2 3 4 5 6 
#
# 1 130.3696 -2.3678 29.8831 -6.5383 -0.0874 1.9276
# 2 -2.3678 51.0950 7.6476 1.4520 -5.8914 2.7424
# 3 29.8831 7.6476 89.9172 -1.8132 -4.9252 6.5413
# 4 -6.5383 1.4520 -1.8132 32.3146 2.7404 -0.1201
# 5 -0.0874 -5.8914 -4.9252 2.7404 41.2016 -3.8859
# 6 1.9276 2.7424 6.5413 -0.1201 -3.8859 22.1916
#
#
#
# Elastic Compliance Matrix: (Units=1/GPa)
#
#
# Indices 1 2 3 4 5 6 
#
# 1 0.008413 0.000736 -0.002843 0.001537 -0.000322 -0.000032
# 2 0.000736 0.020283 -0.001732 -0.001087 0.002616 -0.001608
# 3 -0.002843 -0.001732 0.012490 0.000112 0.000944 -0.003055
# 4 0.001537 -0.001087 0.000112 0.031502 -0.002258 -0.000257
# 5 -0.000322 0.002616 0.000944 -0.002258 0.025269 0.003839
# 6 -0.000032 -0.001608 -0.003055 -0.000257 0.003839 0.046835
#
#
# Mechanical properties :
#
#
# Convention : Reuss Voigt Hill
#
# Bulk Modulus (GPa) = 29.84211 37.96749 33.90480
# Shear Modulus (GPa) = 30.55515 34.88950 32.72232
#
# Velocity S-wave (km/s) = 3.79500 4.05525 3.92728
# Velocity P-wave (km/s) = 5.76790 6.31051 6.04530
#
# Compressibility (1/GPa) = 0.03350970
#
# Stress axis : x y z
#
# Youngs Moduli (GPa) = 118.86601 49.30124 80.06670
#
# Poissons Ratio (x) = -0.03630 0.22762
# Poissons Ratio (y) = -0.08752 0.13864
# Poissons Ratio (z) = 0.33792 0.08537
#
# Static dielectric constant tensor:
#      x y z
#    x 3.584360 -0.034690 0.154840 
#    y -0.034690 3.877520 -0.213990 
#    z 0.154840 -0.213990 4.330320 
# 
# 
# High freq. dielectric constant tensor:
#      x y z
#    x 1.844890 0.007880 -0.003650 
#    y 0.007880 1.825410 0.006470 
#    z -0.003650 0.006470 1.841510 
# 
# From -- ./inp_files/187522.got.cif
#   From: 2010.06.25/outbox.cif.g09.slc.cpg/sg2_94_cif.got.tgz:187522.got - 2010.06.27 13:26:56.
