data_PCOD8013370
_publ_section_title
;
Structure prediction by ZEFSAII (Michael W. Deem and Ramdas Pophale) SiO2 
 PCOD8013370
Probable space group: P -1
;
_chemical_formula_sum "Si O2"
_cell_formula_units_Z 16
_cell_length_a 11.169645
_cell_length_b 16.379921
_cell_length_c 27.628697
_cell_angle_alpha 158.251878
_cell_angle_beta 23.713107
_cell_angle_gamma 146.605892
_cell_volume 749.144769
_symmetry_space_group_name_H-M "P -1"
_symmetry_group_IT_number 2
_symmetry_cell_setting 'triclinic'
loop_
_space_group_symop_operation_xyz
x,y,z
-x,-y,-z
loop_
_atom_site_type_symbol
_atom_site_label
_atom_site_fract_x
_atom_site_fract_y
_atom_site_fract_z
Si Si1 0.372069 0.380382 0.121720
Si Si2 0.703806 0.276378 0.312020
Si Si3 0.476017 0.502876 0.319028
Si Si4 0.360439 0.230059 0.504907
Si Si5 0.929601 0.837604 0.677867
Si Si6 0.190545 0.652982 0.980435
Si Si7 0.157431 0.820022 0.399975
Si Si8 0.704383 0.972722 0.733048
O O1 0.472714 0.364418 0.131518
O O2 0.379271 0.627477 0.235579
O O3 0.049897 0.297646 0.189506
O O4 0.628692 0.230320 0.914905
O O5 0.500000 0.500000 0.500000
O O6 0.643276 0.208083 0.351981
O O7 0.606790 0.105515 0.214046
O O8 0.611765 0.578253 0.360855
O O9 0.305118 0.284640 0.270625
O O10 0.757299 0.440975 0.144899
O O11 0.257199 0.705700 0.489586
O O12 0.048403 0.285619 0.622063
O O13 0.368204 0.988331 0.392444
O O14 0.828334 0.832033 0.656256
O O15 0.948619 0.090020 0.827629
O O16 0.000000 0.500000 0.000000
O O17 0.951588 0.951435 0.588487
#
# Coordination Sequence:
#
# PCOD8013370 Si02
#       8
#     2   2   2   2   2   2   2   2
#     4  11  23  40  69  89 126 169 214 260 322 372
#     4  11  20  40  68  92 126 166 212 261 314 380
#     4  11  24  42  69  90 131 172 211 267 327 369
#     4  10  23  39  66  95 128 169 208 262 323 376
#     4  10  24  42  67  98 126 167 220 263 319 380
#     4  11  27  45  64  97 129 170 219 267 316 386
#     4  10  22  43  62  94 134 161 210 267 314 386
#     4  10  21  40  67  93 126 165 216 258 318 384
#
# _framework density 21.357686999999999
#
# number of rings (size 3 to 8) (size 9 to 14) (size 15 to 20)
#    0.000    1.500    2.500    2.250    8.750    0.500 
#    0.000    6.875    0.000    0.000    0.000    0.000 
#    0.000    0.000    0.000    0.000    0.000    0.000 
#
# Total GULP energy -198394.859448 kJ/mol
# GULP energy per Si atom -12399.678716 kJ/mol
# Density = 2.130908 g / cm^3
# Si number density = 21.357687 Si / 1000 Ang^3
#
#
#
# Elastic Constant Matrix: (Units=GPa)
#
#
# Indices 1 2 3 4 5 6 
#
# 1 101.2135 23.1426 45.6702 -0.8684 19.4931 -4.9636
# 2 23.1426 104.8180 47.5953 7.6502 6.9894 -21.5175
# 3 45.6702 47.5953 105.8912 13.6139 3.1302 -13.1401
# 4 -0.8684 7.6502 13.6139 30.2004 -2.8925 1.0743
# 5 19.4931 6.9894 3.1302 -2.8925 34.2204 3.7190
# 6 -4.9636 -21.5175 -13.1401 1.0743 3.7190 33.6008
#
#
#
# Elastic Compliance Matrix: (Units=1/GPa)
#
#
# Indices 1 2 3 4 5 6 
#
# 1 0.014093 0.000091 -0.006159 0.002440 -0.007327 0.000465
# 2 0.000091 0.013589 -0.004923 -0.001794 -0.003312 0.007214
# 3 -0.006159 -0.004923 0.015181 -0.005601 0.002458 0.001781
# 4 0.002440 -0.001794 -0.005601 0.036616 0.003072 -0.004490
# 5 -0.007327 -0.003312 0.002458 0.003072 0.034780 -0.006190
# 6 0.000465 0.007214 0.001781 -0.004490 -0.006190 0.035975
#
#
# Mechanical properties :
#
#
# Convention : Reuss Voigt Hill
#
# Bulk Modulus (GPa) = 47.89012 60.52655 54.20833
# Shear Modulus (GPa) = 27.90553 32.63863 30.27208
#
# Velocity S-wave (km/s) = 3.61859 3.91345 3.76890
# Velocity P-wave (km/s) = 6.31906 6.98721 6.66152
#
# Compressibility (1/GPa) = 0.02088113
#
# Stress axis : x y z
#
# Youngs Moduli (GPa) = 70.95621 73.59160 65.87135
#
# Poissons Ratio (x) = -0.00668 0.40567
# Poissons Ratio (y) = -0.00644 0.32429
# Poissons Ratio (z) = 0.43699 0.36229
#
# Static dielectric constant tensor:
#      x y z
#    x 3.904620 -0.191310 0.076060 
#    y -0.191310 3.828130 0.150720 
#    z 0.076060 0.150720 3.665560 
# 
# 
# High freq. dielectric constant tensor:
#      x y z
#    x 1.850830 0.000060 0.002210 
#    y 0.000060 1.843410 0.008510 
#    z 0.002210 0.008510 1.825860 
# 
# From -- ./inp_files/623157.got.cif
#   From: 2010.06.25/outbox.cif.g09.slc.cpg/sg2_312_cif.got.tgz:623157.got - 2010.06.27 13:26:56.
