data_PCOD8013207
_publ_section_title
;
Structure prediction by ZEFSAII (Michael W. Deem and Ramdas Pophale) SiO2 
 PCOD8013207
Probable space group: P -1
;
_chemical_formula_sum "Si O2"
_cell_formula_units_Z 14
_cell_length_a 13.608729
_cell_length_b 8.851001
_cell_length_c 8.918713
_cell_angle_alpha 58.518162
_cell_angle_beta 131.060667
_cell_angle_gamma 103.832195
_cell_volume 681.697523
_symmetry_space_group_name_H-M "P -1"
_symmetry_group_IT_number 2
_symmetry_cell_setting 'triclinic'
loop_
_space_group_symop_operation_xyz
x,y,z
-x,-y,-z
loop_
_atom_site_type_symbol
_atom_site_label
_atom_site_fract_x
_atom_site_fract_y
_atom_site_fract_z
Si Si1 0.211705 0.367407 0.820736
Si Si2 0.775912 0.593928 0.511260
Si Si3 0.160562 0.748543 0.052773
Si Si4 0.143146 0.048802 0.091621
Si Si5 0.746406 0.267853 0.169143
Si Si6 0.139512 0.090500 0.394426
Si Si7 0.464360 0.344001 0.944455
O O1 0.144480 0.417145 0.563571
O O2 0.218310 0.549745 0.822035
O O3 0.360811 0.255651 0.991695
O O4 0.131063 0.241236 0.898892
O O5 0.842019 0.435010 0.766141
O O6 0.780903 0.783210 0.496712
O O7 0.621400 0.581625 0.328203
O O8 0.219619 0.890690 0.145518
O O9 0.253265 0.713589 0.019305
O O10 0.012699 0.822263 0.813768
O O11 0.208458 0.059941 0.314778
O O12 0.000000 0.000000 0.000000
O O13 0.852758 0.100989 0.416895
O O14 0.601412 0.224028 0.094279
O O15 0.500000 0.500000 0.000000
#
# Coordination Sequence:
#
# PCOD8013207 Si02
#       7
#     2   2   2   2   2   2   2
#     4   9  20  41  64  90 121 166 207 255 313 365
#     4  10  21  40  66  90 128 162 210 254 313 366
#     4  11  23  39  60  93 129 166 207 258 306 373
#     4  10  22  41  60  88 128 163 211 254 304 374
#     4  11  21  40  67  90 131 165 205 260 308 368
#     4  11  23  39  60  94 128 164 212 254 311 371
#     4   8  20  40  68  89 124 162 214 249 314 369
#
# _framework density 20.536967000000001
#
# number of rings (size 3 to 8) (size 9 to 14) (size 15 to 20)
#    0.857    1.143    0.000    3.429    0.000    3.429 
#    0.000    7.143    0.000    0.000    0.000    0.000 
#    0.000    0.000    0.000    0.000    0.000    0.000 
#
# Total GULP energy -173442.574655 kJ/mol
# GULP energy per Si atom -12388.755332 kJ/mol
# Density = 2.049022 g / cm^3
# Si number density = 20.536967 Si / 1000 Ang^3
#
#
#
# Elastic Constant Matrix: (Units=GPa)
#
#
# Indices 1 2 3 4 5 6 
#
# 1 95.5393 55.3677 46.2337 -2.0644 -20.7816 -2.8668
# 2 55.3677 150.9608 48.6841 5.0096 -21.0638 -15.4715
# 3 46.2337 48.6841 84.1690 -3.3372 -19.0812 3.7474
# 4 -2.0644 5.0096 -3.3372 40.6780 1.5443 -14.7941
# 5 -20.7816 -21.0638 -19.0812 1.5443 43.1237 7.2107
# 6 -2.8668 -15.4715 3.7474 -14.7941 7.2107 37.3474
#
#
#
# Elastic Compliance Matrix: (Units=1/GPa)
#
#
# Indices 1 2 3 4 5 6 
#
# 1 0.016197 -0.003538 -0.006059 0.000626 0.003377 -0.000018
# 2 -0.003538 0.009592 -0.003615 -0.000305 0.000757 0.003798
# 3 -0.006059 -0.003615 0.018474 -0.000232 0.004289 -0.004736
# 4 0.000626 -0.000305 -0.000232 0.029137 -0.003011 0.012068
# 5 0.003377 0.000757 0.004289 -0.003011 0.028280 -0.006510
# 6 -0.000018 0.003798 -0.004736 0.012068 -0.006510 0.034860
#
#
# Mechanical properties :
#
#
# Convention : Reuss Voigt Hill
#
# Bulk Modulus (GPa) = 56.05503 70.13780 63.09642
# Shear Modulus (GPa) = 29.60133 36.25541 32.92837
#
# Velocity S-wave (km/s) = 3.80065 4.20619 4.00855
# Velocity P-wave (km/s) = 6.82744 7.60365 7.22598
#
# Compressibility (1/GPa) = 0.01783961
#
# Stress axis : x y z
#
# Youngs Moduli (GPa) = 61.73988 104.24812 54.13022
#
# Poissons Ratio (x) = 0.36882 0.32800
# Poissons Ratio (y) = 0.21843 0.19566
# Poissons Ratio (z) = 0.37411 0.37682
#
# Static dielectric constant tensor:
#      x y z
#    x 4.040070 -0.344210 -0.153580 
#    y -0.344210 3.975160 0.323470 
#    z -0.153580 0.323470 3.673300 
# 
# 
# High freq. dielectric constant tensor:
#      x y z
#    x 1.794270 -0.014700 -0.017080 
#    y -0.014700 1.814430 0.014660 
#    z -0.017080 0.014660 1.786400 
# 
# From -- ./inp_files/291948.got.cif
#   From: 2010.06.25/outbox.cif.g09.slc.cpg/sg2_146_cif.got.tgz:291948.got - 2010.06.27 13:26:56.
