data_PCOD8013117
_publ_section_title
;
Structure prediction by ZEFSAII (Michael W. Deem and Ramdas Pophale) SiO2 
 PCOD8013117
Probable space group: P -1
;
_chemical_formula_sum "Si O2"
_cell_formula_units_Z 14
_cell_length_a 8.193741
_cell_length_b 6.810484
_cell_length_c 19.656550
_cell_angle_alpha 137.725435
_cell_angle_beta 105.984799
_cell_angle_gamma 59.385859
_cell_volume 625.198828
_symmetry_space_group_name_H-M "P -1"
_symmetry_group_IT_number 2
_symmetry_cell_setting 'triclinic'
loop_
_space_group_symop_operation_xyz
x,y,z
-x,-y,-z
loop_
_atom_site_type_symbol
_atom_site_label
_atom_site_fract_x
_atom_site_fract_y
_atom_site_fract_z
Si Si1 0.731900 0.598573 0.368826
Si Si2 0.410184 0.706244 0.108971
Si Si3 0.291342 0.643689 0.840169
Si Si4 0.911834 0.648561 0.820841
Si Si5 0.175004 0.359041 0.036114
Si Si6 0.077247 0.649950 0.384424
Si Si7 0.455160 0.615221 0.448670
O O1 0.660147 0.491961 0.265471
O O2 0.652327 0.465279 0.387830
O O3 0.966566 0.460211 0.359118
O O4 0.641726 0.991054 0.464100
O O5 0.576655 0.651900 0.168574
O O6 0.282165 0.573702 0.097649
O O7 0.286013 0.084295 0.168706
O O8 0.500000 0.500000 0.000000
O O9 0.069041 0.776004 0.867988
O O10 0.318691 0.970400 0.937547
O O11 0.895780 0.573012 0.877132
O O12 0.976853 0.325280 0.696388
O O13 0.000000 0.500000 0.000000
O O14 0.309430 0.475092 0.371940
O O15 0.000000 0.000000 0.500000
O O16 0.500000 0.500000 0.500000
#
# Coordination Sequence:
#
# PCOD8013117 Si02
#       7
#     2   2   2   2   2   2   2
#     4   9  22  42  61  92 129 166 210 272 324 384
#     4  12  25  40  66  95 129 177 215 266 329 384
#     4  11  23  44  64  93 135 165 220 272 322 397
#     4  11  24  45  66  95 133 171 219 274 324 392
#     4  12  24  43  65  93 131 173 212 269 327 386
#     4   9  21  43  65  92 132 169 213 274 329 384
#     4  10  21  40  65  94 125 165 216 266 323 392
#
# _framework density 22.392878
#
# number of rings (size 3 to 8) (size 9 to 14) (size 15 to 20)
#    0.000    1.429    2.857    1.714    4.000    0.571 
#    7.714    0.000    0.000    0.000    0.000    0.000 
#    0.000    0.000    0.000    0.000    0.000    0.000 
#
# Total GULP energy -173472.648912 kJ/mol
# GULP energy per Si atom -12390.903494 kJ/mol
# Density = 2.234191 g / cm^3
# Si number density = 22.392878 Si / 1000 Ang^3
#
#
#
# Elastic Constant Matrix: (Units=GPa)
#
#
# Indices 1 2 3 4 5 6 
#
# 1 144.7090 42.3577 46.3194 -31.1384 -7.1953 19.2496
# 2 42.3577 107.2113 34.3895 -33.3180 -9.2015 3.0113
# 3 46.3194 34.3895 130.9083 -34.5868 -9.1295 13.3020
# 4 -31.1384 -33.3180 -34.5868 37.4648 2.7040 -10.0578
# 5 -7.1953 -9.2015 -9.1295 2.7040 30.0656 -11.6755
# 6 19.2496 3.0113 13.3020 -10.0578 -11.6755 35.1728
#
#
#
# Elastic Compliance Matrix: (Units=1/GPa)
#
#
# Indices 1 2 3 4 5 6 
#
# 1 0.009166 -0.001971 -0.001450 0.003643 -0.000508 -0.003426
# 2 -0.001971 0.014035 -0.000050 0.011749 0.004610 0.004786
# 3 -0.001450 -0.000050 0.010504 0.008264 0.002031 -0.000137
# 4 0.003643 0.011749 0.008264 0.050110 0.006493 0.010359
# 5 -0.000508 0.004610 0.002031 0.006493 0.040134 0.014294
# 6 -0.003426 0.004786 -0.000137 0.010359 0.014294 0.037656
#
#
# Mechanical properties :
#
#
# Convention : Reuss Voigt Hill
#
# Bulk Modulus (GPa) = 37.36683 69.88464 53.62574
# Shear Modulus (GPa) = 28.17415 37.85810 33.01613
#
# Velocity S-wave (km/s) = 3.55092 4.11619 3.84396
# Velocity P-wave (km/s) = 5.79096 7.33940 6.61068
#
# Compressibility (1/GPa) = 0.02676170
#
# Stress axis : x y z
#
# Youngs Moduli (GPa) = 109.09810 71.25202 95.20036
#
# Poissons Ratio (x) = 0.14047 0.13805
# Poissons Ratio (y) = 0.21508 0.00477
# Poissons Ratio (z) = 0.15820 0.00357
#
# Static dielectric constant tensor:
#      x y z
#    x 4.781140 -0.055290 -0.225480 
#    y -0.055290 4.541950 -0.450470 
#    z -0.225480 -0.450470 3.801870 
# 
# 
# High freq. dielectric constant tensor:
#      x y z
#    x 1.899650 0.000570 -0.000870 
#    y 0.000570 1.850550 -0.016140 
#    z -0.000870 -0.016140 1.899960 
# 
# From -- ./inp_files/134130.got.cif
#   From: 2010.06.25/outbox.cif.g09.slc.cpg/sg2_68_cif.got.tgz:134130.got - 2010.06.27 13:26:56.
