data_PCOD8013541
_publ_section_title
;
Structure prediction by ZEFSAII (Michael W. Deem and Ramdas Pophale) SiO2 
 PCOD8013541
Probable space group: P -1
;
_chemical_formula_sum "Si O2"
_cell_formula_units_Z 16
_cell_length_a 15.328467
_cell_length_b 9.547995
_cell_length_c 14.627536
_cell_angle_alpha 86.309843
_cell_angle_beta 26.821655
_cell_angle_gamma 69.005197
_cell_volume 717.234749
_symmetry_space_group_name_H-M "P -1"
_symmetry_group_IT_number 2
_symmetry_cell_setting 'triclinic'
loop_
_space_group_symop_operation_xyz
x,y,z
-x,-y,-z
loop_
_atom_site_type_symbol
_atom_site_label
_atom_site_fract_x
_atom_site_fract_y
_atom_site_fract_z
Si Si1 0.866143 0.426783 0.445872
Si Si2 0.305930 0.428617 0.028198
Si Si3 0.128370 0.812930 0.122145
Si Si4 0.703386 0.602788 0.258634
Si Si5 0.537375 0.391085 0.339149
Si Si6 0.700592 0.991568 0.959623
Si Si7 0.693700 0.636343 0.770136
Si Si8 0.534462 0.113449 0.687861
O O1 0.715766 0.453804 0.493800
O O2 0.657623 0.553145 0.717917
O O3 0.023137 0.494504 0.277586
O O4 0.077382 0.207930 0.289453
O O5 0.287494 0.597707 0.010073
O O6 0.415201 0.371634 0.032519
O O7 0.513752 0.248591 0.776442
O O8 0.239532 0.799281 0.918337
O O9 0.177462 0.916452 0.139863
O O10 0.825851 0.927885 0.401322
O O11 0.667786 0.471604 0.247381
O O12 0.550762 0.668146 0.494412
O O13 0.587166 0.783055 0.298842
O O14 0.000000 0.500000 0.000000
O O15 0.449739 0.144038 0.123261
O O16 0.613795 0.952441 0.133995
O O17 0.000000 0.500000 0.500000
#
# Coordination Sequence:
#
# PCOD8013541 Si02
#       8
#     2   2   2   2   2   2   2   2
#     4  10  21  44  70  94 137 180 222 279 332 390
#     4  10  23  42  69  96 136 182 225 272 335 389
#     4  12  25  42  70  98 136 178 221 272 334 397
#     4  11  24  45  73 102 131 173 220 275 337 399
#     4  11  24  43  72  99 134 175 222 272 335 398
#     4  11  24  40  67  99 135 179 223 276 334 387
#     4  10  21  40  68  99 134 178 228 275 330 391
#     4  11  24  44  67  98 136 174 222 276 333 400
#
# _framework density 22.307898999999999
#
# number of rings (size 3 to 8) (size 9 to 14) (size 15 to 20)
#    0.000    1.250    2.500    3.750    0.000    7.500 
#    0.000    2.500    0.000    0.000    0.000    0.000 
#    0.000    0.000    0.000    0.000    0.000    0.000 
#
# Total GULP energy -198339.651167 kJ/mol
# GULP energy per Si atom -12396.228198 kJ/mol
# Density = 2.225712 g / cm^3
# Si number density = 22.307899 Si / 1000 Ang^3
#
#
#
# Elastic Constant Matrix: (Units=GPa)
#
#
# Indices 1 2 3 4 5 6 
#
# 1 107.9860 42.5562 30.0137 -4.5114 6.8028 -19.7717
# 2 42.5562 116.8929 36.0649 1.7553 0.5249 -11.1412
# 3 30.0137 36.0649 98.5707 5.7593 13.2088 -8.9601
# 4 -4.5114 1.7553 5.7593 39.3188 2.2654 -5.3244
# 5 6.8028 0.5249 13.2088 2.2654 36.8037 -7.6086
# 6 -19.7717 -11.1412 -8.9601 -5.3244 -7.6086 40.1652
#
#
#
# Elastic Compliance Matrix: (Units=1/GPa)
#
#
# Indices 1 2 3 4 5 6 
#
# 1 0.012202 -0.003366 -0.002113 0.002548 -0.000609 0.004824
# 2 -0.003366 0.010813 -0.003062 -0.000395 0.001787 0.000945
# 3 -0.002113 -0.003062 0.012535 -0.001723 -0.003974 -0.000074
# 4 0.002548 -0.000395 -0.001723 0.026596 -0.000622 0.004168
# 5 -0.000609 0.001787 -0.003974 -0.000622 0.029727 0.004858
# 6 0.004824 0.000945 -0.000074 0.004168 0.004858 0.028990
#
#
# Mechanical properties :
#
#
# Convention : Reuss Voigt Hill
#
# Bulk Modulus (GPa) = 54.14437 60.07991 57.11214
# Shear Modulus (GPa) = 34.69787 37.57852 36.13819
#
# Velocity S-wave (km/s) = 3.94814 4.10877 4.02926
# Velocity P-wave (km/s) = 6.71624 7.03561 6.87778
#
# Compressibility (1/GPa) = 0.01846914
#
# Stress axis : x y z
#
# Youngs Moduli (GPa) = 81.95136 92.48129 79.77734
#
# Poissons Ratio (x) = 0.31132 0.16854
# Poissons Ratio (y) = 0.27588 0.24425
# Poissons Ratio (z) = 0.17313 0.28314
#
# Static dielectric constant tensor:
#      x y z
#    x 4.410220 -0.166590 0.226320 
#    y -0.166590 4.043960 0.033520 
#    z 0.226320 0.033520 4.250280 
# 
# 
# High freq. dielectric constant tensor:
#      x y z
#    x 1.877790 -0.001090 0.001960 
#    y -0.001090 1.873070 -0.005160 
#    z 0.001960 -0.005160 1.890970 
# 
# From -- ./inp_files/529733.got.cif
#   From: 2010.06.25/outbox.cif.g09.slc.cpg/sg2_265_cif.got.tgz:529733.got - 2010.06.27 13:26:56.
