data_PCOD8013696
_publ_section_title
;
Structure prediction by ZEFSAII (Michael W. Deem and Ramdas Pophale) SiO2 
 PCOD8013696
Probable space group: P -1
;
_chemical_formula_sum "Si O2"
_cell_formula_units_Z 14
_cell_length_a 12.346151
_cell_length_b 11.312111
_cell_length_c 8.720945
_cell_angle_alpha 118.355014
_cell_angle_beta 129.707355
_cell_angle_gamma 42.537143
_cell_volume 633.462222
_symmetry_space_group_name_H-M "P -1"
_symmetry_group_IT_number 2
_symmetry_cell_setting 'triclinic'
loop_
_space_group_symop_operation_xyz
x,y,z
-x,-y,-z
loop_
_atom_site_type_symbol
_atom_site_label
_atom_site_fract_x
_atom_site_fract_y
_atom_site_fract_z
Si Si1 0.586173 0.531621 0.231567
Si Si2 0.899884 0.651468 0.879756
Si Si3 0.099454 0.109951 0.765299
Si Si4 0.288399 0.750103 0.586309
Si Si5 0.490576 0.224714 0.449217
Si Si6 0.645475 0.900253 0.212566
Si Si7 0.149610 0.473514 0.721930
O O1 0.613119 0.427419 0.343206
O O2 0.471431 0.729909 0.320850
O O3 0.773719 0.459321 0.277531
O O4 0.500000 0.500000 0.000000
O O5 0.727559 0.667035 0.683239
O O6 0.044539 0.600228 0.848218
O O7 0.841998 0.833278 0.003312
O O8 0.000000 0.500000 0.000000
O O9 0.157479 0.159426 0.697038
O O10 0.884514 0.206153 0.634686
O O11 0.218417 0.900925 0.741859
O O12 0.437210 0.723025 0.589712
O O13 0.583241 0.022479 0.382096
O O14 0.683373 0.725026 0.191929
O O15 0.500000 0.000000 0.000000
O O16 0.000000 0.500000 0.500000
#
# Coordination Sequence:
#
# PCOD8013696 Si02
#       7
#     2   2   2   2   2   2   2
#     4  12  28  42  61  97 144 179 214 275 349 405
#     4  12  22  40  73 100 128 178 235 281 336 404
#     4  10  21  40  72  98 127 171 235 277 330 394
#     4  10  24  44  67  96 137 178 225 275 334 419
#     4  11  24  44  70 100 128 178 237 279 328 406
#     4  11  22  42  76 103 129 175 237 287 330 404
#     4  12  26  46  67 100 145 174 218 289 352 393
#
# _framework density 22.100766
#
# number of rings (size 3 to 8) (size 9 to 14) (size 15 to 20)
#    0.000    0.857    4.286    2.143    8.000    0.571 
#    2.571    0.714    0.000    0.000    0.000    0.000 
#    0.000    0.000    0.000    0.000    0.000    0.000 
#
# Total GULP energy -173469.188162 kJ/mol
# GULP energy per Si atom -12390.656297 kJ/mol
# Density = 2.205046 g / cm^3
# Si number density = 22.100766 Si / 1000 Ang^3
#
#
#
# Elastic Constant Matrix: (Units=GPa)
#
#
# Indices 1 2 3 4 5 6 
#
# 1 113.9294 23.5549 25.4529 10.0360 10.7520 -23.0352
# 2 23.5549 78.0711 46.8837 20.9605 -5.2245 -18.5700
# 3 25.4529 46.8837 131.4359 32.2752 3.9106 -15.4252
# 4 10.0360 20.9605 32.2752 45.0784 -7.7090 -10.7373
# 5 10.7520 -5.2245 3.9106 -7.7090 36.8008 7.9287
# 6 -23.0352 -18.5700 -15.4252 -10.7373 7.9287 33.1710
#
#
#
# Elastic Compliance Matrix: (Units=1/GPa)
#
#
# Indices 1 2 3 4 5 6 
#
# 1 0.011332 -0.001474 -0.000450 -0.000532 -0.005292 0.007927
# 2 -0.001474 0.018510 -0.004946 -0.003103 0.001723 0.005622
# 3 -0.000450 -0.004946 0.011107 -0.005872 -0.003184 0.000944
# 4 -0.000532 -0.003103 -0.005872 0.029758 0.005840 0.003399
# 5 -0.005292 0.001723 -0.003184 0.005840 0.032705 -0.010118
# 6 0.007927 0.005622 0.000944 0.003399 -0.010118 0.042757
#
#
# Mechanical properties :
#
#
# Convention : Reuss Voigt Hill
#
# Bulk Modulus (GPa) = 36.75549 57.24662 47.00105
# Shear Modulus (GPa) = 29.58934 38.17971 33.88452
#
# Velocity S-wave (km/s) = 3.66298 4.16086 3.91984
# Velocity P-wave (km/s) = 5.87851 7.00303 6.46527
#
# Compressibility (1/GPa) = 0.02720682
#
# Stress axis : x y z
#
# Youngs Moduli (GPa) = 88.24750 54.02540 90.03057
#
# Poissons Ratio (x) = 0.07965 0.04053
# Poissons Ratio (y) = 0.13011 0.44534
# Poissons Ratio (z) = 0.03973 0.26724
#
# Static dielectric constant tensor:
#      x y z
#    x 4.005330 0.017590 0.205820 
#    y 0.017590 3.874050 0.354260 
#    z 0.205820 0.354260 4.114210 
# 
# 
# High freq. dielectric constant tensor:
#      x y z
#    x 1.880940 -0.018140 0.016140 
#    y -0.018140 1.864020 0.029690 
#    z 0.016140 0.029690 1.863890 
# 
# From -- ./inp_files/176760.got.cif
#   From: 2010.06.25/outbox.cif.g09.slc.cpg/sg2_89_cif.got.tgz:176760.got - 2010.06.27 13:26:56.
