data_PCOD8013214
_publ_section_title
;
Structure prediction by ZEFSAII (Michael W. Deem and Ramdas Pophale) SiO2 
 PCOD8013214
Probable space group: P -1
;
_chemical_formula_sum "Si O2"
_cell_formula_units_Z 16
_cell_length_a 19.685415
_cell_length_b 20.349989
_cell_length_c 8.421105
_cell_angle_alpha 43.099718
_cell_angle_beta 41.081352
_cell_angle_gamma 19.449222
_cell_volume 735.227835
_symmetry_space_group_name_H-M "P -1"
_symmetry_group_IT_number 2
_symmetry_cell_setting 'triclinic'
loop_
_space_group_symop_operation_xyz
x,y,z
-x,-y,-z
loop_
_atom_site_type_symbol
_atom_site_label
_atom_site_fract_x
_atom_site_fract_y
_atom_site_fract_z
Si Si1 0.846240 0.031187 0.405206
Si Si2 0.441461 0.033980 0.787579
Si Si3 0.715156 0.332215 0.552857
Si Si4 0.662656 0.381006 0.062434
Si Si5 0.950893 0.810340 0.338364
Si Si6 0.607786 0.063383 0.243661
Si Si7 0.560826 0.285616 0.744965
Si Si8 0.836972 0.713462 0.864916
O O1 0.817193 0.991321 0.368634
O O2 0.087083 0.816234 0.418387
O O3 0.824897 0.159854 0.171257
O O4 0.665395 0.149571 0.644613
O O5 0.360661 0.028346 0.804312
O O6 0.456112 0.130774 0.517931
O O7 0.670204 0.815757 0.841973
O O8 0.275062 0.164171 0.991875
O O9 0.484551 0.489322 0.753868
O O10 0.743941 0.216885 0.589405
O O11 0.666629 0.477002 0.307195
O O12 0.500000 0.500000 0.000000
O O13 0.806553 0.357360 0.826589
O O14 0.834010 0.898672 0.218867
O O15 0.971222 0.692595 0.597893
O O16 0.515906 0.241425 0.035923
O O17 0.000000 0.500000 0.000000
#
# Coordination Sequence:
#
# PCOD8013214 Si02
#       8
#     2   2   2   2   2   2   2   2
#     4  11  22  40  62  85 129 165 205 263 302 362
#     4   9  21  44  66  91 126 158 199 264 313 371
#     4  10  22  39  58  88 125 163 213 252 308 362
#     4  11  23  39  60  92 128 165 212 259 302 362
#     4  11  23  39  65  94 123 169 210 253 314 372
#     4  10  21  40  66  91 124 164 206 253 318 365
#     4  10  22  37  60  88 120 165 206 252 308 372
#     4  10  22  43  67  96 125 157 207 259 312 373
#
# _framework density 21.761962
#
# number of rings (size 3 to 8) (size 9 to 14) (size 15 to 20)
#    0.000    1.750    1.250    2.250    1.750    4.000 
#    4.500    8.125    0.000    0.000    0.000    0.000 
#    0.000    0.000    0.000    0.000    0.000    0.000 
#
# Total GULP energy -198331.079030 kJ/mol
# GULP energy per Si atom -12395.692439 kJ/mol
# Density = 2.171243 g / cm^3
# Si number density = 21.761962 Si / 1000 Ang^3
#
#
#
# Elastic Constant Matrix: (Units=GPa)
#
#
# Indices 1 2 3 4 5 6 
#
# 1 132.1635 40.2303 40.1503 -7.1757 8.9381 -17.3269
# 2 40.2303 95.3412 58.4426 -25.6629 -2.4733 -17.1324
# 3 40.1503 58.4426 155.6624 -30.0002 -0.3864 -20.3620
# 4 -7.1757 -25.6629 -30.0002 28.3685 0.0251 4.0655
# 5 8.9381 -2.4733 -0.3864 0.0251 29.3500 1.0215
# 6 -17.3269 -17.1324 -20.3620 4.0655 1.0215 29.3984
#
#
#
# Elastic Compliance Matrix: (Units=1/GPa)
#
#
# Indices 1 2 3 4 5 6 
#
# 1 0.009491 -0.003423 -0.001223 -0.002446 -0.003304 0.003205
# 2 -0.003423 0.017688 -0.002967 0.011338 0.002325 0.004587
# 3 -0.001223 -0.002967 0.009561 0.006652 0.000130 0.003248
# 4 -0.002446 0.011338 0.006652 0.051551 0.001654 0.002587
# 5 -0.003304 0.002325 0.000130 0.001654 0.035342 -0.001960
# 6 0.003205 0.004587 0.003248 0.002587 -0.001960 0.040537
#
#
# Mechanical properties :
#
#
# Convention : Reuss Voigt Hill
#
# Bulk Modulus (GPa) = 46.48357 73.42372 59.95364
# Shear Modulus (GPa) = 26.79994 33.71297 30.25645
#
# Velocity S-wave (km/s) = 3.51309 3.94022 3.73277
# Velocity P-wave (km/s) = 6.15322 7.38330 6.79615
#
# Compressibility (1/GPa) = 0.02151298
#
# Stress axis : x y z
#
# Youngs Moduli (GPa) = 105.36533 56.53443 104.59485
#
# Poissons Ratio (x) = 0.19353 0.12794
# Poissons Ratio (y) = 0.36069 0.31034
# Poissons Ratio (z) = 0.12888 0.16774
#
# Static dielectric constant tensor:
#      x y z
#    x 4.139220 0.315120 0.428530 
#    y 0.315120 4.758480 0.851890 
#    z 0.428530 0.851890 4.993490 
# 
# 
# High freq. dielectric constant tensor:
#      x y z
#    x 1.863070 0.000540 0.015420 
#    y 0.000540 1.833690 -0.007480 
#    z 0.015420 -0.007480 1.869400 
# 
# From -- ./inp_files/349695.got.cif
#   From: 2010.06.25/outbox.cif.g09.slc.cpg/sg2_175_cif.got.tgz:349695.got - 2010.06.27 13:26:56.
