data_PCOD8013188
_publ_section_title
;
Structure prediction by ZEFSAII (Michael W. Deem and Ramdas Pophale) SiO2 
 PCOD8013188
Probable space group: P -1
;
_chemical_formula_sum "Si O2"
_cell_formula_units_Z 16
_cell_length_a 12.381167
_cell_length_b 14.429554
_cell_length_c 11.067792
_cell_angle_alpha 137.156323
_cell_angle_beta 120.744180
_cell_angle_gamma 36.222748
_cell_volume 778.519272
_symmetry_space_group_name_H-M "P -1"
_symmetry_group_IT_number 2
_symmetry_cell_setting 'triclinic'
loop_
_space_group_symop_operation_xyz
x,y,z
-x,-y,-z
loop_
_atom_site_type_symbol
_atom_site_label
_atom_site_fract_x
_atom_site_fract_y
_atom_site_fract_z
Si Si1 0.608892 0.722513 0.122056
Si Si2 0.955627 0.115701 0.911500
Si Si3 0.939362 0.239831 0.273949
Si Si4 0.618758 0.502742 0.728553
Si Si5 0.038953 0.709742 0.139368
Si Si6 0.675071 0.966132 0.315989
Si Si7 0.293400 0.920583 0.304561
Si Si8 0.580310 0.612279 0.537067
O O1 0.581334 0.899988 0.237079
O O2 0.501510 0.782257 0.243344
O O3 0.519699 0.692858 0.941890
O O4 0.830091 0.510286 0.060584
O O5 0.033439 0.127319 0.848206
O O6 0.757166 0.200692 0.847514
O O7 0.932059 0.243784 0.128161
O O8 0.102333 0.880624 0.812542
O O9 0.781364 0.467378 0.450087
O O10 0.142663 0.124043 0.329385
O O11 0.836807 0.312037 0.708858
O O12 0.605952 0.572682 0.655110
O O13 0.524900 0.431877 0.623787
O O14 0.861691 0.784272 0.172992
O O15 0.723291 0.017725 0.509011
O O16 0.531771 0.160108 0.333586
#
# Coordination Sequence:
#
# PCOD8013188 Si02
#       8
#     2   2   2   2   2   2   2   2
#     4  10  24  43  62  88 125 169 206 249 298 372
#     4   9  20  36  68  91 120 158 208 246 318 352
#     4   9  21  38  60  94 128 150 198 263 309 360
#     4   9  23  38  62  87 126 158 202 254 308 350
#     4  10  23  40  65  88 123 167 206 248 302 373
#     4  12  25  39  64  91 127 167 205 247 308 368
#     4  10  21  40  66  87 125 159 205 254 305 358
#     4  11  22  37  62  94 127 151 204 263 307 354
#
# _framework density 20.551836000000002
#
# number of rings (size 3 to 8) (size 9 to 14) (size 15 to 20)
#    1.500    0.500    0.000    3.000    5.250    2.000 
#    0.000    0.625    0.000    0.000    0.000    0.000 
#    0.000    0.000    0.000    0.000    0.000    0.000 
#
# Total GULP energy -198324.068636 kJ/mol
# GULP energy per Si atom -12395.254290 kJ/mol
# Density = 2.050506 g / cm^3
# Si number density = 20.551836 Si / 1000 Ang^3
#
#
#
# Elastic Constant Matrix: (Units=GPa)
#
#
# Indices 1 2 3 4 5 6 
#
# 1 75.2046 9.2801 13.9329 5.3482 -18.8594 6.1187
# 2 9.2801 67.8683 20.2043 4.6363 -8.8578 6.7472
# 3 13.9329 20.2043 50.5555 6.1535 -14.2001 3.5460
# 4 5.3482 4.6363 6.1535 29.4110 -5.0808 -11.6339
# 5 -18.8594 -8.8578 -14.2001 -5.0808 28.4528 8.8463
# 6 6.1187 6.7472 3.5460 -11.6339 8.8463 28.7673
#
#
#
# Elastic Compliance Matrix: (Units=1/GPa)
#
#
# Indices 1 2 3 4 5 6 
#
# 1 0.018091 0.000800 0.000210 -0.005134 0.014746 -0.010672
# 2 0.000800 0.017675 -0.004960 -0.003695 0.004991 -0.006733
# 3 0.000210 -0.004960 0.026905 -0.006017 0.013697 -0.008843
# 4 -0.005134 -0.003695 -0.006017 0.044645 -0.006676 0.022808
# 5 0.014746 0.004991 0.013697 -0.006676 0.060617 -0.027336
# 6 -0.010672 -0.006733 -0.008843 0.022808 -0.027336 0.057331
#
#
# Mechanical properties :
#
#
# Convention : Reuss Voigt Hill
#
# Bulk Modulus (GPa) = 18.25812 31.16255 24.71033
# Shear Modulus (GPa) = 19.88699 27.34029 23.61364
#
# Velocity S-wave (km/s) = 3.11408 3.65130 3.39334
# Velocity P-wave (km/s) = 4.67260 5.74211 5.23474
#
# Compressibility (1/GPa) = 0.05477016
#
# Stress axis : x y z
#
# Youngs Moduli (GPa) = 55.27645 56.57739 37.16807
#
# Poissons Ratio (x) = -0.04527 -0.00780
# Poissons Ratio (y) = -0.04423 0.18436
# Poissons Ratio (z) = -0.01160 0.28064
#
# Static dielectric constant tensor:
#      x y z
#    x 3.371980 0.013330 -0.117920 
#    y 0.013330 3.583230 -0.023520 
#    z -0.117920 -0.023520 3.534350 
# 
# 
# High freq. dielectric constant tensor:
#      x y z
#    x 1.787040 0.004810 -0.019220 
#    y 0.004810 1.796960 -0.005060 
#    z -0.019220 -0.005060 1.791060 
# 
# From -- ./inp_files/434327.got.cif
#   From: 2010.06.25/outbox.cif.g09.slc.cpg/sg2_218_cif.got.tgz:434327.got - 2010.06.27 13:26:56.
