data_PCOD8013937
_publ_section_title
;
Structure prediction by ZEFSAII (Michael W. Deem and Ramdas Pophale) SiO2 
 PCOD8013937
Probable space group: P -1
;
_chemical_formula_sum "Si O2"
_cell_formula_units_Z 16
_cell_length_a 18.482739
_cell_length_b 5.684773
_cell_length_c 9.314043
_cell_angle_alpha 50.905467
_cell_angle_beta 73.939002
_cell_angle_gamma 75.614767
_cell_volume 726.274534
_symmetry_space_group_name_H-M "P -1"
_symmetry_group_IT_number 2
_symmetry_cell_setting 'triclinic'
loop_
_space_group_symop_operation_xyz
x,y,z
-x,-y,-z
loop_
_atom_site_type_symbol
_atom_site_label
_atom_site_fract_x
_atom_site_fract_y
_atom_site_fract_z
Si Si1 0.079864 0.468178 0.391781
Si Si2 0.200465 0.678025 0.425369
Si Si3 0.548236 0.277379 0.878639
Si Si4 0.306753 0.076127 0.551920
Si Si5 0.042209 0.686649 0.025900
Si Si6 0.599065 0.358256 0.129207
Si Si7 0.840823 0.170048 0.316997
Si Si8 0.332617 0.056552 0.226733
O O1 0.137533 0.712052 0.318922
O O2 0.066364 0.468679 0.228973
O O3 0.000000 0.500000 0.500000
O O4 0.123513 0.159155 0.533692
O O5 0.153256 0.631401 0.617540
O O6 0.244966 0.983966 0.281423
O O7 0.264027 0.396484 0.495718
O O8 0.595383 0.257452 0.006552
O O9 0.611212 0.245017 0.730707
O O10 0.486874 0.572365 0.789067
O O11 0.500000 0.000000 0.000000
O O12 0.247715 0.823986 0.668338
O O13 0.348427 0.122375 0.359853
O O14 0.365953 0.936842 0.690404
O O15 0.119242 0.737790 0.884311
O O16 0.000000 0.500000 0.000000
O O17 0.000000 0.000000 0.000000
O O18 0.648691 0.652108 0.991746
#
# Coordination Sequence:
#
# PCOD8013937 Si02
#       8
#     2   2   2   2   2   2   2   2
#     4  11  23  44  70  93 132 172 216 277 339 397
#     4  10  23  42  66  94 133 176 220 274 338 403
#     4   9  20  38  64  93 128 169 219 267 332 395
#     4  10  23  41  62  93 130 169 221 270 329 399
#     4  12  27  44  69 103 131 172 228 279 343 418
#     4  10  21  41  64  93 131 171 215 276 329 395
#     4  10  24  43  64  95 129 171 217 274 337 406
#     4  10  21  41  63  95 129 169 219 272 330 401
#
# _framework density 22.030238000000001
#
# number of rings (size 3 to 8) (size 9 to 14) (size 15 to 20)
#    0.000    1.750    1.250    1.500    3.500    9.500 
#    0.000   10.000    0.000    0.000    0.000    0.000 
#    0.000    0.000    0.000    0.000    0.000    0.000 
#
# Total GULP energy -198209.720818 kJ/mol
# GULP energy per Si atom -12388.107551 kJ/mol
# Density = 2.198010 g / cm^3
# Si number density = 22.030238 Si / 1000 Ang^3
#
#
#
# Elastic Constant Matrix: (Units=GPa)
#
#
# Indices 1 2 3 4 5 6 
#
# 1 99.6917 24.0007 34.0292 9.7402 9.1479 5.7066
# 2 24.0007 90.6980 6.3843 29.0776 -5.5449 1.6679
# 3 34.0292 6.3843 83.6814 21.8491 -3.1700 2.9544
# 4 9.7402 29.0776 21.8491 36.2066 -6.4046 -8.4176
# 5 9.1479 -5.5449 -3.1700 -6.4046 36.3169 9.2728
# 6 5.7066 1.6679 2.9544 -8.4176 9.2728 37.8162
#
#
#
# Elastic Compliance Matrix: (Units=1/GPa)
#
#
# Indices 1 2 3 4 5 6 
#
# 1 0.013145 -0.004194 -0.005903 0.002739 -0.004051 0.000266
# 2 -0.004194 0.017285 0.004931 -0.016403 0.002450 -0.004767
# 3 -0.005903 0.004931 0.017797 -0.013687 0.002497 -0.004376
# 4 0.002739 -0.016403 -0.013687 0.051481 0.001506 0.012470
# 5 -0.004051 0.002450 0.002497 0.001506 0.031203 -0.007008
# 6 0.000266 -0.004767 -0.004376 0.012470 -0.007008 0.031450
#
#
# Mechanical properties :
#
#
# Convention : Reuss Voigt Hill
#
# Bulk Modulus (GPa) = 26.38953 44.76661 35.57807
# Shear Modulus (GPa) = 26.97979 36.04508 31.51243
#
# Velocity S-wave (km/s) = 3.50333 4.04934 3.78619
# Velocity P-wave (km/s) = 5.32627 6.49827 5.94124
#
# Compressibility (1/GPa) = 0.03789382
#
# Stress axis : x y z
#
# Youngs Moduli (GPa) = 76.07734 57.85498 56.18805
#
# Poissons Ratio (x) = 0.24262 0.33170
# Poissons Ratio (y) = 0.31904 -0.27704
# Poissons Ratio (z) = 0.44912 -0.28526
#
# Static dielectric constant tensor:
#      x y z
#    x 4.851190 1.068800 0.057310 
#    y 1.068800 4.364770 0.711100 
#    z 0.057310 0.711100 3.942830 
# 
# 
# High freq. dielectric constant tensor:
#      x y z
#    x 1.877300 -0.002050 -0.013020 
#    y -0.002050 1.882130 0.017730 
#    z -0.013020 0.017730 1.843380 
# 
# From -- ./inp_files/53004.got.cif
#   From: 2010.06.25/outbox.cif.g09.slc.cpg/sg2_27_cif.got.tgz:53004.got - 2010.06.27 13:26:56.
