data_PCOD8013248
_publ_section_title
;
Structure prediction by ZEFSAII (Michael W. Deem and Ramdas Pophale) SiO2 
 PCOD8013248
Probable space group: P -1
;
_chemical_formula_sum "Si O2"
_cell_formula_units_Z 14
_cell_length_a 9.469878
_cell_length_b 17.747005
_cell_length_c 24.474558
_cell_angle_alpha 161.057607
_cell_angle_beta 30.269336
_cell_angle_gamma 148.552386
_cell_volume 656.343946
_symmetry_space_group_name_H-M "P -1"
_symmetry_group_IT_number 2
_symmetry_cell_setting 'triclinic'
loop_
_space_group_symop_operation_xyz
x,y,z
-x,-y,-z
loop_
_atom_site_type_symbol
_atom_site_label
_atom_site_fract_x
_atom_site_fract_y
_atom_site_fract_z
Si Si1 0.769417 0.753894 0.406471
Si Si2 0.310992 0.284897 0.985757
Si Si3 0.466061 0.156911 0.343998
Si Si4 0.884446 0.636703 0.007516
Si Si5 0.978337 0.721036 0.816167
Si Si6 0.443691 0.702485 0.373704
Si Si7 0.066343 0.052099 0.696541
O O1 0.629563 0.694905 0.472537
O O2 0.521640 0.770881 0.457365
O O3 0.921496 0.548743 0.196036
O O4 0.000000 0.000000 0.500000
O O5 0.567275 0.514334 0.050319
O O6 0.433016 0.066191 0.816661
O O7 0.146465 0.217465 0.937308
O O8 0.086325 0.361971 0.156302
O O9 0.724674 0.326545 0.340104
O O10 0.210367 0.072888 0.330010
O O11 0.034981 0.816500 0.127365
O O12 0.711935 0.576774 0.770027
O O13 0.000000 0.000000 0.000000
O O14 0.225514 0.852984 0.527382
O O15 0.733392 0.754899 0.277037
#
# Coordination Sequence:
#
# PCOD8013248 Si02
#       7
#     2   2   2   2   2   2   2
#     4  12  24  40  66 102 134 171 223 281 329 386
#     4  10  21  40  66  93 131 172 220 269 331 383
#     4  11  24  44  67  96 136 176 217 271 336 398
#     4  11  23  37  69 100 132 167 222 281 329 379
#     4  10  24  43  69  95 137 181 219 265 340 400
#     4  11  24  42  69  97 139 170 227 275 329 394
#     4  11  24  40  70 104 127 173 228 278 330 386
#
# _framework density 21.330280999999999
#
# number of rings (size 3 to 8) (size 9 to 14) (size 15 to 20)
#    0.000    1.143    4.286    0.857    8.000    2.286 
#    0.000    0.714    0.000    0.000    0.000    0.000 
#    0.000    0.000    0.000    0.000    0.000    0.000 
#
# Total GULP energy -173607.473650 kJ/mol
# GULP energy per Si atom -12400.533832 kJ/mol
# Density = 2.128173 g / cm^3
# Si number density = 21.330281 Si / 1000 Ang^3
#
#
#
# Elastic Constant Matrix: (Units=GPa)
#
#
# Indices 1 2 3 4 5 6 
#
# 1 176.4522 60.7499 51.4297 -11.7902 28.5635 9.7388
# 2 60.7499 134.4622 35.9978 -22.6706 23.8403 5.5290
# 3 51.4297 35.9978 86.4029 -15.0247 28.6166 -2.5811
# 4 -11.7902 -22.6706 -15.0247 39.6416 -4.9236 14.2652
# 5 28.5635 23.8403 28.6166 -4.9236 44.9860 -2.0645
# 6 9.7388 5.5290 -2.5811 14.2652 -2.0645 32.0015
#
#
#
# Elastic Compliance Matrix: (Units=1/GPa)
#
#
# Indices 1 2 3 4 5 6 
#
# 1 0.007804 -0.002142 -0.003088 0.000648 -0.001907 -0.002666
# 2 -0.002142 0.010419 -0.001170 0.005988 -0.002950 -0.004102
# 3 -0.003088 -0.001170 0.017201 0.003837 -0.007927 0.000308
# 4 0.000648 0.005988 0.003837 0.036137 -0.002860 -0.017216
# 5 -0.001907 -0.002950 -0.007927 -0.002860 0.029901 0.003655
# 6 -0.002666 -0.004102 0.000308 -0.017216 0.003655 0.040703
#
#
# Mechanical properties :
#
#
# Convention : Reuss Voigt Hill
#
# Bulk Modulus (GPa) = 44.20128 77.07468 60.63798
# Shear Modulus (GPa) = 30.76778 39.93514 35.35146
#
# Velocity S-wave (km/s) = 3.80208 4.33162 4.07546
# Velocity P-wave (km/s) = 6.32785 7.82493 7.11587
#
# Compressibility (1/GPa) = 0.02262378
#
# Stress axis : x y z
#
# Youngs Moduli (GPa) = 128.14055 95.97448 58.13576
#
# Poissons Ratio (x) = 0.20559 0.17953
# Poissons Ratio (y) = 0.27449 0.06803
# Poissons Ratio (z) = 0.39571 0.11231
#
# Static dielectric constant tensor:
#      x y z
#    x 4.137380 -0.218140 0.333530 
#    y -0.218140 4.362030 -0.294540 
#    z 0.333530 -0.294540 4.030420 
# 
# 
# High freq. dielectric constant tensor:
#      x y z
#    x 1.846730 -0.004270 0.014170 
#    y -0.004270 1.826190 -0.012240 
#    z 0.014170 -0.012240 1.837620 
# 
# From -- ./inp_files/158980.got.cif
#   From: 2010.06.25/outbox.cif.g09.slc.cpg/sg2_80_cif.got.tgz:158980.got - 2010.06.27 13:26:56.
