data_PCOD8013960
_publ_section_title
;
Structure prediction by ZEFSAII (Michael W. Deem and Ramdas Pophale) SiO2 
 PCOD8013960
Probable space group: P -1
;
_chemical_formula_sum "Si O2"
_cell_formula_units_Z 16
_cell_length_a 13.438254
_cell_length_b 23.041197
_cell_length_c 8.965749
_cell_angle_alpha 135.752535
_cell_angle_beta 56.357285
_cell_angle_gamma 157.707155
_cell_volume 669.878599
_symmetry_space_group_name_H-M "P -1"
_symmetry_group_IT_number 2
_symmetry_cell_setting 'triclinic'
loop_
_space_group_symop_operation_xyz
x,y,z
-x,-y,-z
loop_
_atom_site_type_symbol
_atom_site_label
_atom_site_fract_x
_atom_site_fract_y
_atom_site_fract_z
Si Si1 0.670737 0.033978 0.497967
Si Si2 0.280515 0.584524 0.794866
Si Si3 0.495560 0.319296 0.697691
Si Si4 0.960922 0.058332 0.775670
Si Si5 0.567383 0.609873 0.520927
Si Si6 0.797155 0.393769 0.795792
Si Si7 0.104060 0.951285 0.862310
Si Si8 0.143571 0.300980 0.821821
O O1 0.866668 0.122110 0.365639
O O2 0.897492 0.196918 0.744133
O O3 0.500000 0.000000 0.500000
O O4 0.445317 0.825162 0.362205
O O5 0.298828 0.505623 0.553530
O O6 0.087031 0.526766 0.755109
O O7 0.146931 0.503998 0.927115
O O8 0.603662 0.816450 0.970731
O O9 0.222876 0.158237 0.738763
O O10 0.712262 0.388530 0.708544
O O11 0.662368 0.512452 0.898045
O O12 0.345096 0.187389 0.428645
O O13 0.984867 0.137909 0.765720
O O14 0.983955 0.120675 0.026303
O O15 0.500000 0.500000 0.500000
O O16 0.636073 0.611580 0.306809
O O17 0.856336 0.840691 0.766328
#
# Coordination Sequence:
#
# PCOD8013960 Si02
#       8
#     2   2   2   2   2   2   2   2
#     4  10  23  42  69  98 135 174 217 281 334 396
#     4  10  22  36  66  90 133 168 219 277 330 395
#     4  11  24  41  71  94 134 178 225 269 327 402
#     4  11  24  45  68  96 136 180 220 275 333 392
#     4  11  23  39  64 104 130 163 223 286 333 385
#     4  10  21  41  63  98 126 178 220 267 341 399
#     4  10  23  41  65  97 132 168 224 272 336 387
#     4  11  24  43  72  99 132 177 226 270 337 395
#
# _framework density 23.884922
#
# number of rings (size 3 to 8) (size 9 to 14) (size 15 to 20)
#    0.000    1.500    1.250    3.000   12.250    0.000 
#    0.000    1.250    0.000    0.000    0.000    0.000 
#    0.000    0.000    0.000    0.000    0.000    0.000 
#
# Total GULP energy -198255.397898 kJ/mol
# GULP energy per Si atom -12390.962369 kJ/mol
# Density = 2.383056 g / cm^3
# Si number density = 23.884922 Si / 1000 Ang^3
#
#
#
# Elastic Constant Matrix: (Units=GPa)
#
#
# Indices 1 2 3 4 5 6 
#
# 1 106.6202 32.5995 36.1485 -11.6365 -2.8787 40.5111
# 2 32.5995 65.1941 20.1574 -1.3055 -5.9741 25.7135
# 3 36.1485 20.1574 93.0099 6.6533 4.6069 6.3853
# 4 -11.6365 -1.3055 6.6533 37.5278 -1.7788 0.4653
# 5 -2.8787 -5.9741 4.6069 -1.7788 28.4159 2.8515
# 6 40.5111 25.7135 6.3853 0.4653 2.8515 47.7530
#
#
#
# Elastic Compliance Matrix: (Units=1/GPa)
#
#
# Indices 1 2 3 4 5 6 
#
# 1 0.018369 -0.000760 -0.006724 0.007266 0.004714 -0.014628
# 2 -0.000760 0.021978 -0.004151 0.001707 0.006431 -0.011036
# 3 -0.006724 -0.004151 0.014433 -0.005097 -0.004850 0.006348
# 4 0.007266 0.001707 -0.005097 0.030163 0.004508 -0.006965
# 5 0.004714 0.006431 -0.004850 0.004508 0.039012 -0.009187
# 6 -0.014628 -0.011036 0.006348 -0.006965 -0.009187 0.039060
#
#
# Mechanical properties :
#
#
# Convention : Reuss Voigt Hill
#
# Bulk Modulus (GPa) = 31.73365 49.18168 40.45767
# Shear Modulus (GPa) = 25.40807 34.46725 29.93766
#
# Velocity S-wave (km/s) = 3.26509 3.80288 3.54420
# Velocity P-wave (km/s) = 5.24684 6.31809 5.80722
#
# Compressibility (1/GPa) = 0.03151229
#
# Stress axis : x y z
#
# Youngs Moduli (GPa) = 54.43934 45.49956 69.28431
#
# Poissons Ratio (x) = 0.03456 0.46584
# Poissons Ratio (y) = 0.04135 0.28760
# Poissons Ratio (z) = 0.36603 0.18887
#
# Static dielectric constant tensor:
#      x y z
#    x 4.356150 0.448750 -0.084720 
#    y 0.448750 4.598550 0.096090 
#    z -0.084720 0.096090 4.768720 
# 
# 
# High freq. dielectric constant tensor:
#      x y z
#    x 1.943680 0.013940 -0.000760 
#    y 0.013940 1.940680 0.018580 
#    z -0.000760 0.018580 1.949670 
# 
# From -- ./inp_files/320741.got.cif
#   From: 2010.06.25/outbox.cif.g09.slc.cpg/sg2_161_cif.got.tgz:320741.got - 2010.06.27 13:26:56.
