data_PCOD8013872
_publ_section_title
;
Structure prediction by ZEFSAII (Michael W. Deem and Ramdas Pophale) SiO2 
 PCOD8013872
Probable space group: P -1
;
_chemical_formula_sum "Si O2"
_cell_formula_units_Z 14
_cell_length_a 27.698150
_cell_length_b 6.350037
_cell_length_c 9.758616
_cell_angle_alpha 112.975288
_cell_angle_beta 151.701245
_cell_angle_gamma 56.553539
_cell_volume 659.089508
_symmetry_space_group_name_H-M "P -1"
_symmetry_group_IT_number 2
_symmetry_cell_setting 'triclinic'
loop_
_space_group_symop_operation_xyz
x,y,z
-x,-y,-z
loop_
_atom_site_type_symbol
_atom_site_label
_atom_site_fract_x
_atom_site_fract_y
_atom_site_fract_z
Si Si1 0.286451 0.902737 0.649728
Si Si2 0.791086 0.438008 0.772576
Si Si3 0.019663 0.028416 0.712675
Si Si4 0.600395 0.816223 0.878404
Si Si5 0.340895 0.076905 0.241569
Si Si6 0.233914 0.760507 0.770102
Si Si7 0.112419 0.353481 0.154637
O O1 0.297189 0.679502 0.512684
O O2 0.230918 0.867794 0.639743
O O3 0.206129 0.179456 0.454227
O O4 0.399584 0.934424 0.979904
O O5 0.719099 0.707646 0.737806
O O6 0.842645 0.468649 0.764326
O O7 0.901495 0.251104 0.092372
O O8 0.895730 0.186170 0.515211
O O9 0.000000 0.000000 0.500000
O O10 0.088925 0.190810 0.937665
O O11 0.652597 0.788462 0.849160
O O12 0.468843 0.871661 0.559872
O O13 0.675966 0.544806 0.075086
O O14 0.269355 0.918846 0.007601
O O15 0.000000 0.500000 0.000000
#
# Coordination Sequence:
#
# PCOD8013872 Si02
#       7
#     2   2   2   2   2   2   2
#     4  10  22  38  59  86 115 154 196 236 288 344
#     4  11  23  39  58  89 123 151 190 239 292 345
#     4  11  23  36  58  89 118 151 189 238 294 346
#     4  10  21  41  63  85 114 154 198 240 288 342
#     4  10  23  39  61  88 116 152 196 242 288 344
#     4  11  21  39  62  85 116 154 197 239 288 345
#     4  11  22  38  58  84 120 157 194 234 283 348
#
# _framework density 21.241425
#
# number of rings (size 3 to 8) (size 9 to 14) (size 15 to 20)
#    0.000    1.429    0.000    5.571    0.000    8.571 
#    0.000    2.857    0.000    0.000    0.000    0.000 
#    0.000    0.000    0.000    0.000    0.000    0.000 
#
# Total GULP energy -173552.590765 kJ/mol
# GULP energy per Si atom -12396.613626 kJ/mol
# Density = 2.119308 g / cm^3
# Si number density = 21.241425 Si / 1000 Ang^3
#
#
#
# Elastic Constant Matrix: (Units=GPa)
#
#
# Indices 1 2 3 4 5 6 
#
# 1 62.6424 28.9240 24.7744 -7.7753 -14.2051 5.0298
# 2 28.9240 94.3102 25.3849 8.1920 -9.8577 -2.2190
# 3 24.7744 25.3849 87.5460 10.8747 -13.2523 2.3400
# 4 -7.7753 8.1920 10.8747 40.9378 2.5492 -5.6713
# 5 -14.2051 -9.8577 -13.2523 2.5492 35.0783 -4.1181
# 6 5.0298 -2.2190 2.3400 -5.6713 -4.1181 32.5304
#
#
#
# Elastic Compliance Matrix: (Units=1/GPa)
#
#
# Indices 1 2 3 4 5 6 
#
# 1 0.022481 -0.005681 -0.004649 0.006071 0.005095 -0.001826
# 2 -0.005681 0.013235 -0.001701 -0.003141 0.001181 0.001506
# 3 -0.004649 -0.001701 0.014332 -0.004669 0.003297 -0.000825
# 4 0.006071 -0.003141 -0.004669 0.028094 -0.001777 0.003856
# 5 0.005095 0.001181 0.003297 -0.001777 0.032615 0.002875
# 6 -0.001826 0.001506 -0.000825 0.003856 0.002875 0.032221
#
#
# Mechanical properties :
#
#
# Convention : Reuss Voigt Hill
#
# Bulk Modulus (GPa) = 38.48155 44.74059 41.61107
# Shear Modulus (GPa) = 28.45716 32.73700 30.59708
#
# Velocity S-wave (km/s) = 3.66416 3.93005 3.79944
# Velocity P-wave (km/s) = 6.00475 6.45774 6.23536
#
# Compressibility (1/GPa) = 0.02598648
#
# Stress axis : x y z
#
# Youngs Moduli (GPa) = 44.48227 75.55566 69.77178
#
# Poissons Ratio (x) = 0.42924 0.32434
# Poissons Ratio (y) = 0.25271 0.11871
# Poissons Ratio (z) = 0.20678 0.12855
#
# Static dielectric constant tensor:
#      x y z
#    x 3.662790 0.181820 -0.057470 
#    y 0.181820 3.987720 0.328940 
#    z -0.057470 0.328940 4.110090 
# 
# 
# High freq. dielectric constant tensor:
#      x y z
#    x 1.816680 0.009880 -0.014720 
#    y 0.009880 1.840540 0.016830 
#    z -0.014720 0.016830 1.854700 
# 
# From -- ./inp_files/26722.got.cif
#   From: 2010.06.25/outbox.cif.g09.slc.cpg/sg2_14_cif.got.tgz:26722.got - 2010.06.27 13:26:56.
