data_PCOD8013387
_publ_section_title
;
Structure prediction by ZEFSAII (Michael W. Deem and Ramdas Pophale) SiO2 
 PCOD8013387
Probable space group: P -1
;
_chemical_formula_sum "Si O2"
_cell_formula_units_Z 16
_cell_length_a 20.963914
_cell_length_b 17.624975
_cell_length_c 11.651241
_cell_angle_alpha 147.916968
_cell_angle_beta 41.791502
_cell_angle_gamma 160.695412
_cell_volume 719.198835
_symmetry_space_group_name_H-M "P -1"
_symmetry_group_IT_number 2
_symmetry_cell_setting 'triclinic'
loop_
_space_group_symop_operation_xyz
x,y,z
-x,-y,-z
loop_
_atom_site_type_symbol
_atom_site_label
_atom_site_fract_x
_atom_site_fract_y
_atom_site_fract_z
Si Si1 0.962448 0.619399 0.679820
Si Si2 0.012760 0.307034 0.660513
Si Si3 0.424181 0.336749 0.573656
Si Si4 0.670970 0.681952 0.914515
Si Si5 0.546054 0.771851 0.837467
Si Si6 0.998720 0.394534 0.024448
Si Si7 0.664161 0.234881 0.781286
Si Si8 0.262215 0.543679 0.431256
O O1 0.774206 0.429856 0.766422
O O2 0.890602 0.558608 0.568845
O O3 0.000000 0.500000 0.500000
O O4 0.166558 0.978274 0.887450
O O5 0.986003 0.436938 0.841673
O O6 0.206291 0.498005 0.580627
O O7 0.804733 0.960704 0.452569
O O8 0.043310 0.329014 0.785551
O O9 0.578317 0.523033 0.710610
O O10 0.437668 0.501947 0.700760
O O11 0.457978 0.253193 0.328079
O O12 0.769030 0.666654 0.816630
O O13 0.500000 0.500000 0.000000
O O14 0.430180 0.762286 0.015252
O O15 0.774769 0.078480 0.971762
O O16 0.157645 0.604497 0.181897
O O17 0.494487 0.892914 0.543255
#
# Coordination Sequence:
#
# PCOD8013387 Si02
#       8
#     2   2   2   2   2   2   2   2
#     4  12  28  48  72  98 135 182 235 290 341 407
#     4  10  21  40  67  94 143 172 220 277 336 406
#     4  10  23  43  66  97 142 178 224 277 347 394
#     4  12  27  45  72  99 139 180 229 289 349 403
#     4  10  23  43  67 102 140 181 224 279 331 417
#     4  10  21  42  64 101 135 180 218 278 333 401
#     4  12  25  41  75  98 138 180 233 275 340 411
#     4  12  26  44  68 105 134 180 235 282 343 412
#
# _framework density 22.246977000000001
#
# number of rings (size 3 to 8) (size 9 to 14) (size 15 to 20)
#    0.000    1.000    1.250    4.500    7.000    0.500 
#    0.000    2.500    0.000    0.000    0.000    0.000 
#    0.000    0.000    0.000    0.000    0.000    0.000 
#
# Total GULP energy -198376.156138 kJ/mol
# GULP energy per Si atom -12398.509759 kJ/mol
# Density = 2.219634 g / cm^3
# Si number density = 22.246977 Si / 1000 Ang^3
#
#
#
# Elastic Constant Matrix: (Units=GPa)
#
#
# Indices 1 2 3 4 5 6 
#
# 1 91.0235 23.0779 33.6111 10.0063 0.3720 6.0745
# 2 23.0779 142.2944 45.6803 12.9357 -3.0625 -16.1514
# 3 33.6111 45.6803 103.4745 10.6990 -12.3754 0.2210
# 4 10.0063 12.9357 10.6990 57.3179 4.8615 0.8543
# 5 0.3720 -3.0625 -12.3754 4.8615 40.9097 4.7331
# 6 6.0745 -16.1514 0.2210 0.8543 4.7331 31.5348
#
#
#
# Elastic Compliance Matrix: (Units=1/GPa)
#
#
# Indices 1 2 3 4 5 6 
#
# 1 0.012965 -0.001165 -0.003667 -0.001202 -0.000835 -0.002910
# 2 -0.001165 0.009032 -0.003600 -0.001166 -0.000846 0.005034
# 3 -0.003667 -0.003600 0.013072 -0.001307 0.004082 -0.001807
# 4 -0.001202 -0.001166 -0.001307 0.018391 -0.002603 -0.000464
# 5 -0.000835 -0.000846 0.004082 -0.002603 0.026418 -0.004196
# 6 -0.002910 0.005034 -0.001807 -0.000464 -0.004196 0.035505
#
#
# Mechanical properties :
#
#
# Convention : Reuss Voigt Hill
#
# Bulk Modulus (GPa) = 54.92817 60.17010 57.54914
# Shear Modulus (GPa) = 36.14965 41.58070 38.86517
#
# Velocity S-wave (km/s) = 4.03541 4.32794 4.18423
# Velocity P-wave (km/s) = 6.81590 7.21664 7.01913
#
# Compressibility (1/GPa) = 0.01820559
#
# Stress axis : x y z
#
# Youngs Moduli (GPa) = 77.12988 110.72342 76.50082
#
# Poissons Ratio (x) = 0.12896 0.28049
# Poissons Ratio (y) = 0.08984 0.27541
# Poissons Ratio (z) = 0.28280 0.39862
#
# Static dielectric constant tensor:
#      x y z
#    x 3.922130 -0.244500 0.174270 
#    y -0.244500 4.188320 -0.029390 
#    z 0.174270 -0.029390 4.170950 
# 
# 
# High freq. dielectric constant tensor:
#      x y z
#    x 1.865820 -0.014600 0.006240 
#    y -0.014600 1.891480 0.005050 
#    z 0.006240 0.005050 1.883960 
# 
# From -- ./inp_files/307326.got.cif
#   From: 2010.06.25/outbox.cif.g09.slc.cpg/sg2_154_cif.got.tgz:307326.got - 2010.06.27 13:26:56.
