data_PCOD8013863
_publ_section_title
;
Structure prediction by ZEFSAII (Michael W. Deem and Ramdas Pophale) SiO2 
 PCOD8013863
Probable space group: P -1
;
_chemical_formula_sum "Si O2"
_cell_formula_units_Z 16
_cell_length_a 19.790741
_cell_length_b 9.629284
_cell_length_c 7.772497
_cell_angle_alpha 96.326354
_cell_angle_beta 32.406032
_cell_angle_gamma 98.236063
_cell_volume 785.455103
_symmetry_space_group_name_H-M "P -1"
_symmetry_group_IT_number 2
_symmetry_cell_setting 'triclinic'
loop_
_space_group_symop_operation_xyz
x,y,z
-x,-y,-z
loop_
_atom_site_type_symbol
_atom_site_label
_atom_site_fract_x
_atom_site_fract_y
_atom_site_fract_z
Si Si1 0.467672 0.381093 0.424272
Si Si2 0.114092 0.908325 0.923099
Si Si3 0.212037 0.450578 0.812316
Si Si4 0.377237 0.899191 0.219137
Si Si5 0.387338 0.589621 0.198804
Si Si6 0.421552 0.868585 0.732326
Si Si7 0.829711 0.262444 0.894504
Si Si8 0.998270 0.197171 0.202135
O O1 0.500000 0.500000 0.500000
O O2 0.335549 0.389327 0.615694
O O3 0.465716 0.231695 0.499160
O O4 0.598027 0.401354 0.035361
O O5 0.258036 0.961941 0.572173
O O6 0.057657 0.812227 0.872089
O O7 0.102702 0.814102 0.106400
O O8 0.042767 0.045600 0.132484
O O9 0.253164 0.519280 0.547706
O O10 0.163780 0.570484 0.056044
O O11 0.110023 0.321537 0.981743
O O12 0.398681 0.753435 0.251934
O O13 0.354211 0.894740 0.062545
O O14 0.500000 0.000000 0.000000
O O15 0.500000 0.500000 0.000000
O O16 0.500000 0.000000 0.500000
O O17 0.315761 0.802024 0.817764
O O18 0.898313 0.238100 0.563813
#
# Coordination Sequence:
#
# PCOD8013863 Si02
#       8
#     2   2   2   2   2   2   2   2
#     4  10  21  41  62  97 136 164 207 273 337 392
#     4  11  25  47  68  94 138 173 225 287 327 401
#     4  11  23  43  69  94 135 178 220 276 331 407
#     4  11  22  40  69  96 132 174 212 274 342 391
#     4   9  21  38  62  95 127 166 209 267 326 399
#     4  11  24  39  65 101 135 167 217 273 338 403
#     4  12  23  46  70  95 133 177 229 279 331 398
#     4  11  27  47  65  97 131 181 233 274 335 390
#
# _framework density 20.370355
#
# number of rings (size 3 to 8) (size 9 to 14) (size 15 to 20)
#    0.000    1.250    3.750    1.500    7.000    0.500 
#    2.250    0.000    0.000    0.000    0.000    0.000 
#    0.000    0.000    0.000    0.000    0.000    0.000 
#
# Total GULP energy -198259.706196 kJ/mol
# GULP energy per Si atom -12391.231637 kJ/mol
# Density = 2.032399 g / cm^3
# Si number density = 20.370355 Si / 1000 Ang^3
#
#
#
# Elastic Constant Matrix: (Units=GPa)
#
#
# Indices 1 2 3 4 5 6 
#
# 1 105.9116 56.3857 34.6447 -8.5147 -2.4120 3.8726
# 2 56.3857 130.3054 56.3353 -8.5145 4.1313 1.0980
# 3 34.6447 56.3353 106.8402 -1.2468 1.5311 8.1920
# 4 -8.5147 -8.5145 -1.2468 41.2333 5.4411 -3.5019
# 5 -2.4120 4.1313 1.5311 5.4411 27.3574 -2.4494
# 6 3.8726 1.0980 8.1920 -3.5019 -2.4494 40.3623
#
#
#
# Elastic Compliance Matrix: (Units=1/GPa)
#
#
# Indices 1 2 3 4 5 6 
#
# 1 0.012649 -0.004760 -0.001556 0.001322 0.001608 -0.000556
# 2 -0.004760 0.011988 -0.004812 0.001733 -0.002205 0.001124
# 3 -0.001556 -0.004812 0.012572 -0.001123 -0.000104 -0.002375
# 4 0.001322 0.001733 -0.001123 0.025679 -0.005012 0.001978
# 5 0.001608 -0.002205 -0.000104 -0.005012 0.038193 0.001810
# 6 -0.000556 0.001124 -0.002375 0.001978 0.001810 0.025562
#
#
# Mechanical properties :
#
#
# Convention : Reuss Voigt Hill
#
# Bulk Modulus (GPa) = 66.88241 70.86539 68.87390
# Shear Modulus (GPa) = 32.49212 34.83669 33.66440
#
# Velocity S-wave (km/s) = 3.99816 4.13990 4.06965
# Velocity P-wave (km/s) = 7.36330 7.59709 7.48111
#
# Compressibility (1/GPa) = 0.01495161
#
# Stress axis : x y z
#
# Youngs Moduli (GPa) = 79.06054 83.41533 79.54026
#
# Poissons Ratio (x) = 0.39708 0.12380
# Poissons Ratio (y) = 0.37635 0.38274
# Poissons Ratio (z) = 0.12306 0.40139
#
# Static dielectric constant tensor:
#      x y z
#    x 3.893600 -0.086440 0.344870 
#    y -0.086440 3.857430 -0.010870 
#    z 0.344870 -0.010870 3.733460 
# 
# 
# High freq. dielectric constant tensor:
#      x y z
#    x 1.796550 -0.007680 0.010990 
#    y -0.007680 1.807550 0.011410 
#    z 0.010990 0.011410 1.801040 
# 
# From -- ./inp_files/343609.got.cif
#   From: 2010.06.25/outbox.cif.g09.slc.cpg/sg2_172_cif.got.tgz:343609.got - 2010.06.27 13:26:56.
