data_PCOD8013342
_publ_section_title
;
Structure prediction by ZEFSAII (Michael W. Deem and Ramdas Pophale) SiO2 
 PCOD8013342
Probable space group: P -1
;
_chemical_formula_sum "Si O2"
_cell_formula_units_Z 14
_cell_length_a 13.876805
_cell_length_b 15.626342
_cell_length_c 6.773048
_cell_angle_alpha 102.421233
_cell_angle_beta 85.250315
_cell_angle_gamma 151.094814
_cell_volume 675.756623
_symmetry_space_group_name_H-M "P -1"
_symmetry_group_IT_number 2
_symmetry_cell_setting 'triclinic'
loop_
_space_group_symop_operation_xyz
x,y,z
-x,-y,-z
loop_
_atom_site_type_symbol
_atom_site_label
_atom_site_fract_x
_atom_site_fract_y
_atom_site_fract_z
Si Si1 0.684693 0.087225 0.585865
Si Si2 0.424478 0.320684 0.853771
Si Si3 0.614613 0.551004 0.318458
Si Si4 0.514575 0.114588 0.099664
Si Si5 0.803588 0.593467 0.631864
Si Si6 0.079664 0.489629 0.623127
Si Si7 0.765227 0.011790 0.211069
O O1 0.757227 0.072703 0.418409
O O2 0.888526 0.307378 0.702678
O O3 0.500000 0.000000 0.500000
O O4 0.608731 0.969759 0.722030
O O5 0.299792 0.301102 0.760096
O O6 0.623522 0.461481 0.755285
O O7 0.275268 0.119006 0.777732
O O8 0.476440 0.383726 0.105744
O O9 0.500000 0.500000 0.500000
O O10 0.780105 0.621333 0.432699
O O11 0.748595 0.332146 0.176151
O O12 0.500000 0.000000 0.000000
O O13 0.408054 0.095794 0.961189
O O14 0.827237 0.510268 0.535760
O O15 0.001500 0.793131 0.808488
O O16 0.000000 0.500000 0.500000
#
# Coordination Sequence:
#
# PCOD8013342 Si02
#       7
#     2   2   2   2   2   2   2
#     4  11  22  42  59  84 126 163 205 258 305 354
#     4  10  21  40  67  89 121 160 201 255 313 362
#     4   9  20  42  65  91 122 158 199 254 314 372
#     4  12  23  38  57  85 121 161 212 255 297 363
#     4  10  22  40  61  90 126 159 206 252 304 371
#     4  11  22  38  63  88 122 168 205 252 308 357
#     4  11  24  38  60  93 120 160 210 252 300 369
#
# _framework density 20.71752
#
# number of rings (size 3 to 8) (size 9 to 14) (size 15 to 20)
#    0.000    1.429    2.857    2.571    0.000    5.714 
#    0.000    6.429    0.000    0.000    0.000    0.000 
#    0.000    0.000    0.000    0.000    0.000    0.000 
#
# Total GULP energy -173473.248557 kJ/mol
# GULP energy per Si atom -12390.946325 kJ/mol
# Density = 2.067037 g / cm^3
# Si number density = 20.717520 Si / 1000 Ang^3
#
#
#
# Elastic Constant Matrix: (Units=GPa)
#
#
# Indices 1 2 3 4 5 6 
#
# 1 96.8881 27.9318 27.8903 9.9404 7.8292 -18.6115
# 2 27.9318 128.2829 38.8769 28.6086 -1.8045 -6.6672
# 3 27.8903 38.8769 87.7191 10.9052 15.9226 2.6842
# 4 9.9404 28.6086 10.9052 34.8038 3.2471 -1.2900
# 5 7.8292 -1.8045 15.9226 3.2471 35.1106 -3.7587
# 6 -18.6115 -6.6672 2.6842 -1.2900 -3.7587 34.7831
#
#
#
# Elastic Compliance Matrix: (Units=1/GPa)
#
#
# Indices 1 2 3 4 5 6 
#
# 1 0.013232 -0.001086 -0.003683 -0.001429 -0.000449 0.007055
# 2 -0.001086 0.011284 -0.004427 -0.007855 0.003775 0.002040
# 3 -0.003683 -0.004427 0.015961 0.000181 -0.007177 -0.004820
# 4 -0.001429 -0.007855 0.000181 0.035829 -0.003625 -0.001347
# 5 -0.000449 0.003775 -0.007177 -0.003625 0.032842 0.004452
# 6 0.007055 0.002040 -0.004820 -0.001347 0.004452 0.033718
#
#
# Mechanical properties :
#
#
# Convention : Reuss Voigt Hill
#
# Bulk Modulus (GPa) = 45.27696 55.80979 50.54338
# Shear Modulus (GPa) = 29.65243 35.48557 32.56900
#
# Velocity S-wave (km/s) = 3.78732 4.14312 3.96921
# Velocity P-wave (km/s) = 6.40523 7.06288 6.74208
#
# Compressibility (1/GPa) = 0.02208629
#
# Stress axis : x y z
#
# Youngs Moduli (GPa) = 75.57163 88.61963 62.65385
#
# Poissons Ratio (x) = 0.09624 0.23073
# Poissons Ratio (y) = 0.08207 0.27736
# Poissons Ratio (z) = 0.27830 0.39231
#
# Static dielectric constant tensor:
#      x y z
#    x 3.934820 0.112400 -0.104910 
#    y 0.112400 3.784760 0.493300 
#    z -0.104910 0.493300 3.543520 
# 
# 
# High freq. dielectric constant tensor:
#      x y z
#    x 1.825040 -0.011630 0.000190 
#    y -0.011630 1.809000 0.002340 
#    z 0.000190 0.002340 1.809720 
# 
# From -- ./inp_files/98311.got.cif
#   From: 2010.06.25/outbox.cif.g09.slc.cpg/sg2_50_cif.got.tgz:98311.got - 2010.06.27 13:26:56.
