data_PCOD8013298
_publ_section_title
;
Structure prediction by ZEFSAII (Michael W. Deem and Ramdas Pophale) SiO2 
 PCOD8013298
Probable space group: P -1
;
_chemical_formula_sum "Si O2"
_cell_formula_units_Z 14
_cell_length_a 10.546889
_cell_length_b 13.741045
_cell_length_c 9.081726
_cell_angle_alpha 140.097068
_cell_angle_beta 48.030244
_cell_angle_gamma 121.581474
_cell_volume 627.584370
_symmetry_space_group_name_H-M "P -1"
_symmetry_group_IT_number 2
_symmetry_cell_setting 'triclinic'
loop_
_space_group_symop_operation_xyz
x,y,z
-x,-y,-z
loop_
_atom_site_type_symbol
_atom_site_label
_atom_site_fract_x
_atom_site_fract_y
_atom_site_fract_z
Si Si1 0.877111 0.340411 0.833999
Si Si2 0.386128 0.466568 0.207633
Si Si3 0.291018 0.353836 0.709432
Si Si4 0.760581 0.722090 0.645373
Si Si5 0.009509 0.848622 0.221603
Si Si6 0.159994 0.963715 0.935470
Si Si7 0.658071 0.283865 0.669470
O O1 0.868223 0.264043 0.913455
O O2 0.728875 0.271869 0.765318
O O3 0.043394 0.291690 0.561900
O O4 0.850796 0.520515 0.078371
O O5 0.547557 0.578589 0.252694
O O6 0.285296 0.415722 0.370187
O O7 0.268252 0.567804 0.308855
O O8 0.456770 0.319662 0.893679
O O9 0.353134 0.287775 0.426434
O O10 0.182532 0.224744 0.733215
O O11 0.734495 0.884401 0.929147
O O12 0.091183 0.875560 0.030256
O O13 0.000000 0.000000 0.500000
O O14 0.301161 0.865653 0.627571
O O15 0.000000 0.000000 0.000000
#
# Coordination Sequence:
#
# PCOD8013298 Si02
#       7
#     2   2   2   2   2   2   2
#     4  10  21  40  66  97 122 166 217 268 310 365
#     4  10  24  42  64  90 136 171 209 257 316 390
#     4  10  22  41  65  97 126 168 213 261 318 375
#     4  11  21  40  64  97 127 166 216 263 317 375
#     4  11  20  39  66  95 126 159 210 270 312 370
#     4  12  24  40  65 101 127 161 213 269 320 369
#     4  10  23  44  61  96 129 169 215 256 323 372
#
# _framework density 22.307759000000001
#
# number of rings (size 3 to 8) (size 9 to 14) (size 15 to 20)
#    0.000    1.429    4.286    2.143    4.000    4.571 
#    0.000    3.571    0.000    0.000    0.000    0.000 
#    0.000    0.000    0.000    0.000    0.000    0.000 
#
# Total GULP energy -173483.349648 kJ/mol
# GULP energy per Si atom -12391.667832 kJ/mol
# Density = 2.225699 g / cm^3
# Si number density = 22.307759 Si / 1000 Ang^3
#
#
#
# Elastic Constant Matrix: (Units=GPa)
#
#
# Indices 1 2 3 4 5 6 
#
# 1 67.6960 32.6009 21.5946 2.1372 5.4251 -20.8331
# 2 32.6009 105.2125 -8.7710 0.6897 13.3989 -15.2571
# 3 21.5946 -8.7710 116.3899 19.9120 14.5287 0.0387
# 4 2.1372 0.6897 19.9120 30.7838 -5.6173 10.7432
# 5 5.4251 13.3989 14.5287 -5.6173 27.4135 0.6285
# 6 -20.8331 -15.2571 0.0387 10.7432 0.6285 29.3961
#
#
#
# Elastic Compliance Matrix: (Units=1/GPa)
#
#
# Indices 1 2 3 4 5 6 
#
# 1 0.023591 -0.005068 -0.003710 -0.004985 -0.001612 0.015950
# 2 -0.005068 0.013524 0.004227 -0.006474 -0.009311 0.005987
# 3 -0.003710 0.004227 0.012889 -0.011498 -0.010610 0.003977
# 4 -0.004985 -0.006474 -0.011498 0.053839 0.021896 -0.027022
# 5 -0.001612 -0.009311 -0.010610 0.021896 0.051804 -0.015071
# 6 0.015950 0.005987 0.003977 -0.027022 -0.015071 0.058622
#
#
# Mechanical properties :
#
#
# Convention : Reuss Voigt Hill
#
# Bulk Modulus (GPa) = 24.44893 42.23863 33.34378
# Shear Modulus (GPa) = 21.09662 33.77693 27.43678
#
# Velocity S-wave (km/s) = 3.07857 3.89541 3.51083
# Velocity P-wave (km/s) = 4.86009 6.26162 5.60483
#
# Compressibility (1/GPa) = 0.04090159
#
# Stress axis : x y z
#
# Youngs Moduli (GPa) = 42.38844 73.94353 77.58586
#
# Poissons Ratio (x) = 0.37477 0.28786
# Poissons Ratio (y) = 0.21484 -0.32798
# Poissons Ratio (z) = 0.15727 -0.31259
#
# Static dielectric constant tensor:
#      x y z
#    x 4.134150 -0.492980 0.197330 
#    y -0.492980 4.237250 0.114190 
#    z 0.197330 0.114190 4.225780 
# 
# 
# High freq. dielectric constant tensor:
#      x y z
#    x 1.870740 -0.023610 0.020180 
#    y -0.023610 1.872850 0.002130 
#    z 0.020180 0.002130 1.886710 
# 
# From -- ./inp_files/154982.got.cif
#   From: 2010.06.25/outbox.cif.g09.slc.cpg/sg2_78_cif.got.tgz:154982.got - 2010.06.27 13:26:56.
