data_PCOD8013633
_publ_section_title
;
Structure prediction by ZEFSAII (Michael W. Deem and Ramdas Pophale) SiO2 
 PCOD8013633
Probable space group: P -1
;
_chemical_formula_sum "Si O2"
_cell_formula_units_Z 14
_cell_length_a 5.773307
_cell_length_b 18.205463
_cell_length_c 8.945332
_cell_angle_alpha 133.807747
_cell_angle_beta 63.944887
_cell_angle_gamma 119.712207
_cell_volume 582.335626
_symmetry_space_group_name_H-M "P -1"
_symmetry_group_IT_number 2
_symmetry_cell_setting 'triclinic'
loop_
_space_group_symop_operation_xyz
x,y,z
-x,-y,-z
loop_
_atom_site_type_symbol
_atom_site_label
_atom_site_fract_x
_atom_site_fract_y
_atom_site_fract_z
Si Si1 0.581270 0.702381 0.380704
Si Si2 0.686951 0.127948 0.271407
Si Si3 0.740432 0.724059 0.683321
Si Si4 0.182096 0.425435 0.293732
Si Si5 0.305653 0.575957 0.011918
Si Si6 0.549061 0.106148 0.940849
Si Si7 0.109592 0.726057 0.093956
O O1 0.542615 0.819295 0.540472
O O2 0.555858 0.670092 0.517568
O O3 0.371353 0.612651 0.216159
O O4 0.879467 0.712445 0.259848
O O5 0.691196 0.111223 0.068331
O O6 0.963744 0.209584 0.364156
O O7 0.632463 0.014315 0.209862
O O8 0.745768 0.627323 0.651335
O O9 0.623217 0.811356 0.914995
O O10 0.000000 0.500000 0.500000
O O11 0.989898 0.335463 0.118361
O O12 0.468051 0.477288 0.193459
O O13 0.328030 0.676919 0.040406
O O14 0.000000 0.500000 0.000000
O O15 0.771874 0.148934 0.807805
#
# Coordination Sequence:
#
# PCOD8013633 Si02
#       7
#     2   2   2   2   2   2   2
#     4  10  25  43  71 102 139 187 226 291 354 417
#     4  10  21  40  70 108 139 181 230 286 344 426
#     4  11  21  45  71 102 141 181 231 294 348 421
#     4  11  26  46  75 104 136 186 243 296 354 420
#     4  11  26  51  71  98 143 193 235 296 358 419
#     4  10  21  40  71 104 140 183 231 281 354 408
#     4  11  23  46  68  98 144 185 227 294 349 419
#
# _framework density 24.041117
#
# number of rings (size 3 to 8) (size 9 to 14) (size 15 to 20)
#    0.000    1.429    2.857    1.286    0.000    6.857 
#    2.571    5.714    0.000    0.000    0.000    0.000 
#    0.000    0.000    0.000    0.000    0.000    0.000 
#
# Total GULP energy -173531.976427 kJ/mol
# GULP energy per Si atom -12395.141173 kJ/mol
# Density = 2.398640 g / cm^3
# Si number density = 24.041117 Si / 1000 Ang^3
#
#
#
# Elastic Constant Matrix: (Units=GPa)
#
#
# Indices 1 2 3 4 5 6 
#
# 1 113.0338 45.6488 47.4403 -0.7689 2.3802 -11.3573
# 2 45.6488 118.7076 36.4391 8.2522 5.8751 -11.1774
# 3 47.4403 36.4391 112.0648 2.2575 1.3050 -7.7582
# 4 -0.7689 8.2522 2.2575 25.2297 -3.1429 -6.0264
# 5 2.3802 5.8751 1.3050 -3.1429 27.4133 1.3282
# 6 -11.3573 -11.1774 -7.7582 -6.0264 1.3282 41.4235
#
#
#
# Elastic Compliance Matrix: (Units=1/GPa)
#
#
# Indices 1 2 3 4 5 6 
#
# 1 0.012086 -0.003422 -0.003913 0.002319 0.000040 0.001994
# 2 -0.003422 0.010789 -0.001879 -0.003477 -0.002382 0.001191
# 3 -0.003913 -0.001879 0.011229 -0.000381 0.000142 0.000463
# 4 0.002319 -0.003477 -0.000381 0.042887 0.005203 0.005699
# 5 0.000040 -0.002382 0.000142 0.005203 0.037627 -0.001055
# 6 0.001994 0.001191 0.000463 0.005699 -0.001055 0.025959
#
#
# Mechanical properties :
#
#
# Convention : Reuss Voigt Hill
#
# Bulk Modulus (GPa) = 63.79293 66.98473 65.38883
# Shear Modulus (GPa) = 30.44508 33.09850 31.77179
#
# Velocity S-wave (km/s) = 3.56248 3.71448 3.63927
# Velocity P-wave (km/s) = 6.59653 6.80584 6.70200
#
# Compressibility (1/GPa) = 0.01567572
#
# Stress axis : x y z
#
# Youngs Moduli (GPa) = 82.73718 92.69013 89.05530
#
# Poissons Ratio (x) = 0.31720 0.34847
# Poissons Ratio (y) = 0.28314 0.16734
# Poissons Ratio (z) = 0.32375 0.17417
#
# Static dielectric constant tensor:
#      x y z
#    x 4.585230 -0.027330 -0.130880 
#    y -0.027330 4.320220 0.001510 
#    z -0.130880 0.001510 4.394580 
# 
# 
# High freq. dielectric constant tensor:
#      x y z
#    x 1.964380 -0.008150 -0.007990 
#    y -0.008150 1.955940 -0.004070 
#    z -0.007990 -0.004070 1.947840 
# 
# From -- ./inp_files/122800.got.cif
#   From: 2010.06.25/outbox.cif.g09.slc.cpg/sg2_62_cif.got.tgz:122800.got - 2010.06.27 13:26:56.
