data_PCOD8013835
_publ_section_title
;
Structure prediction by ZEFSAII (Michael W. Deem and Ramdas Pophale) SiO2 
 PCOD8013835
Probable space group: P -1
;
_chemical_formula_sum "Si O2"
_cell_formula_units_Z 16
_cell_length_a 12.004827
_cell_length_b 20.484529
_cell_length_c 8.990931
_cell_angle_alpha 91.563526
_cell_angle_beta 69.808732
_cell_angle_gamma 151.600215
_cell_volume 775.131089
_symmetry_space_group_name_H-M "P -1"
_symmetry_group_IT_number 2
_symmetry_cell_setting 'triclinic'
loop_
_space_group_symop_operation_xyz
x,y,z
-x,-y,-z
loop_
_atom_site_type_symbol
_atom_site_label
_atom_site_fract_x
_atom_site_fract_y
_atom_site_fract_z
Si Si1 0.344082 0.892651 0.417805
Si Si2 0.950245 0.799212 0.421232
Si Si3 0.756058 0.518128 0.225468
Si Si4 0.203969 0.867465 0.031728
Si Si5 0.117084 0.596552 0.234583
Si Si6 0.476745 0.262674 0.178794
Si Si7 0.286936 0.723716 0.477731
Si Si8 0.187602 0.031028 0.534089
O O1 0.149757 0.727206 0.533792
O O2 0.083129 0.805449 0.453932
O O3 0.500000 0.000000 0.500000
O O4 0.649587 0.030174 0.181959
O O5 0.572024 0.613326 0.592231
O O6 0.015280 0.824482 0.215502
O O7 0.125475 0.951096 0.418819
O O8 0.703262 0.441575 0.106616
O O9 0.999555 0.698677 0.077575
O O10 0.895682 0.546534 0.300543
O O11 0.500000 0.000000 0.000000
O O12 0.322258 0.713457 0.294922
O O13 0.927925 0.432648 0.332622
O O14 0.353503 0.706003 0.994585
O O15 0.141440 0.111791 0.251217
O O16 0.398861 0.197052 0.377227
O O17 0.630748 0.907263 0.407275
#
# Coordination Sequence:
#
# PCOD8013835 Si02
#       8
#     2   2   2   2   2   2   2   2
#     4  11  23  40  63  90 126 168 198 250 309 374
#     4  10  22  41  66  92 123 161 206 263 301 360
#     4  11  22  41  67  94 122 155 217 259 305 354
#     4  10  23  38  63  93 116 166 210 248 301 359
#     4  11  24  39  64  93 121 166 201 260 304 367
#     4  10  23  38  66  92 120 163 208 258 303 359
#     4  11  24  41  58  90 130 160 205 241 322 369
#     4  10  21  41  62  92 124 160 205 255 312 362
#
# _framework density 20.641669
#
# number of rings (size 3 to 8) (size 9 to 14) (size 15 to 20)
#    0.000    1.500    2.500    2.250    7.000    0.500 
#    0.000    4.375    0.000    0.000    0.000    0.000 
#    0.000    0.000    0.000    0.000    0.000    0.000 
#
# Total GULP energy -198297.248114 kJ/mol
# GULP energy per Si atom -12393.578007 kJ/mol
# Density = 2.059469 g / cm^3
# Si number density = 20.641669 Si / 1000 Ang^3
#
#
#
# Elastic Constant Matrix: (Units=GPa)
#
#
# Indices 1 2 3 4 5 6 
#
# 1 108.4857 31.9656 36.2796 -7.6085 -9.3746 2.6333
# 2 31.9656 103.6733 41.4110 -1.9579 -4.4996 -0.3142
# 3 36.2796 41.4110 75.3578 3.4631 -12.3756 14.4522
# 4 -7.6085 -1.9579 3.4631 28.4835 -2.9708 5.4559
# 5 -9.3746 -4.4996 -12.3756 -2.9708 28.4521 -1.1730
# 6 2.6333 -0.3142 14.4522 5.4559 -1.1730 31.9940
#
#
#
# Elastic Compliance Matrix: (Units=1/GPa)
#
#
# Indices 1 2 3 4 5 6 
#
# 1 0.011668 -0.001553 -0.004729 0.003672 0.001951 0.000606
# 2 -0.001553 0.013005 -0.007315 0.000565 -0.001437 0.003411
# 3 -0.004729 -0.007315 0.022500 -0.002053 0.006476 -0.009259
# 4 0.003672 0.000565 -0.002053 0.037896 0.004129 -0.005681
# 5 0.001951 -0.001437 0.006476 0.004129 0.038712 -0.002385
# 6 0.000606 0.003411 -0.009259 -0.005681 -0.002385 0.036303
#
#
# Mechanical properties :
#
#
# Convention : Reuss Voigt Hill
#
# Bulk Modulus (GPa) = 50.05085 56.31436 53.18260
# Shear Modulus (GPa) = 25.78155 29.64329 27.71242
#
# Velocity S-wave (km/s) = 3.53796 3.79369 3.66805
# Velocity P-wave (km/s) = 6.40232 6.82133 6.61514
#
# Compressibility (1/GPa) = 0.01997968
#
# Stress axis : x y z
#
# Youngs Moduli (GPa) = 85.70348 76.89305 44.44499
#
# Poissons Ratio (x) = 0.11942 0.21016
# Poissons Ratio (y) = 0.13310 0.32512
# Poissons Ratio (z) = 0.40525 0.56248
#
# Static dielectric constant tensor:
#      x y z
#    x 3.829080 -0.058240 -0.091700 
#    y -0.058240 3.964580 0.222700 
#    z -0.091700 0.222700 3.783440 
# 
# 
# High freq. dielectric constant tensor:
#      x y z
#    x 1.806140 -0.007810 -0.004650 
#    y -0.007810 1.825640 0.000590 
#    z -0.004650 0.000590 1.788160 
# 
# From -- ./inp_files/188682.got.cif
#   From: 2010.06.25/outbox.cif.g09.slc.cpg/sg2_95_cif.got.tgz:188682.got - 2010.06.27 13:26:56.
