data_PCOD8013820
_publ_section_title
;
Structure prediction by ZEFSAII (Michael W. Deem and Ramdas Pophale) SiO2 
 PCOD8013820
Probable space group: P -1
;
_chemical_formula_sum "Si O2"
_cell_formula_units_Z 12
_cell_length_a 5.085412
_cell_length_b 8.091926
_cell_length_c 15.277745
_cell_angle_alpha 124.874991
_cell_angle_beta 74.799623
_cell_angle_gamma 122.926456
_cell_volume 431.849152
_symmetry_space_group_name_H-M "P -1"
_symmetry_group_IT_number 2
_symmetry_cell_setting 'triclinic'
loop_
_space_group_symop_operation_xyz
x,y,z
-x,-y,-z
loop_
_atom_site_type_symbol
_atom_site_label
_atom_site_fract_x
_atom_site_fract_y
_atom_site_fract_z
Si Si1 0.609363 0.549675 0.908236
Si Si2 0.596091 0.733984 0.374022
Si Si3 0.113304 0.585828 0.700885
Si Si4 0.505298 0.089741 0.385763
Si Si5 0.926815 0.279903 0.814964
Si Si6 0.600767 0.965996 0.072553
O O1 0.868684 0.479932 0.837426
O O2 0.302216 0.393371 0.827103
O O3 0.500000 0.500000 0.000000
O O4 0.776277 0.827241 0.980579
O O5 0.806165 0.602179 0.317115
O O6 0.630023 0.838106 0.498850
O O7 0.250586 0.529935 0.322550
O O8 0.676561 0.944867 0.360194
O O9 0.274216 0.681907 0.621466
O O10 0.186683 0.808141 0.821409
O O11 0.197953 0.935450 0.305971
O O12 0.726361 0.200980 0.897690
O O13 0.500000 0.000000 0.000000
#
# Coordination Sequence:
#
# PCOD8013820 Si02
#       6
#     2   2   2   2   2   2
#     4  10  21  41  62  90 126 171 213 259 325 391
#     4  11  26  45  72 102 134 180 227 279 344 406
#     4  11  26  46  67 103 138 176 228 283 335 404
#     4  10  25  45  73 101 137 178 226 281 344 402
#     4  10  23  41  65  92 128 169 215 270 328 393
#     4  10  23  39  62  94 127 168 214 267 327 387
#
# _framework density 27.787485
#
# number of rings (size 3 to 8) (size 9 to 14) (size 15 to 20)
#    0.000    1.667    0.000    3.000    4.667   14.667 
#    0.000    8.333    0.000    0.000    0.000    0.000 
#    0.000    0.000    0.000    0.000    0.000    0.000 
#
# Total GULP energy -148663.879141 kJ/mol
# GULP energy per Si atom -12388.656595 kJ/mol
# Density = 2.772424 g / cm^3
# Si number density = 27.787485 Si / 1000 Ang^3
#
#
#
# Elastic Constant Matrix: (Units=GPa)
#
#
# Indices 1 2 3 4 5 6 
#
# 1 182.3052 33.7076 72.5864 17.5489 -15.7014 -10.9811
# 2 33.7076 132.3997 9.0226 6.6513 0.4145 -10.1195
# 3 72.5864 9.0226 157.2472 0.8227 -19.2652 -14.9680
# 4 17.5489 6.6513 0.8227 44.7067 -14.0248 1.4953
# 5 -15.7014 0.4145 -19.2652 -14.0248 49.7763 7.7978
# 6 -10.9811 -10.1195 -14.9680 1.4953 7.7978 43.3212
#
#
#
# Elastic Compliance Matrix: (Units=1/GPa)
#
#
# Indices 1 2 3 4 5 6 
#
# 1 0.007332 -0.001490 -0.003207 -0.002516 0.000307 0.000434
# 2 -0.001490 0.008106 0.000279 -0.001000 -0.000997 0.001826
# 3 -0.003207 0.000279 0.008266 0.001775 0.002433 0.001609
# 4 -0.002516 -0.001000 0.001775 0.025942 0.007606 -0.002523
# 5 0.000307 -0.000997 0.002433 0.007606 0.023887 -0.003877
# 6 0.000434 0.001826 0.001609 -0.002523 -0.003877 0.024961
#
#
# Mechanical properties :
#
#
# Convention : Reuss Voigt Hill
#
# Bulk Modulus (GPa) = 67.25094 78.06505 72.65799
# Shear Modulus (GPa) = 44.52926 51.33655 47.93291
#
# Velocity S-wave (km/s) = 4.00746 4.30288 4.15780
# Velocity P-wave (km/s) = 6.75776 7.26918 7.01813
#
# Compressibility (1/GPa) = 0.01486968
#
# Stress axis : x y z
#
# Youngs Moduli (GPa) = 136.38019 123.36448 120.98075
#
# Poissons Ratio (x) = 0.18377 0.38800
# Poissons Ratio (y) = 0.20315 -0.03380
# Poissons Ratio (z) = 0.43739 -0.03447
#
# Static dielectric constant tensor:
#      x y z
#    x 5.297070 -0.609640 -0.701890 
#    y -0.609640 6.366440 0.067950 
#    z -0.701890 0.067950 5.703130 
# 
# 
# High freq. dielectric constant tensor:
#      x y z
#    x 2.121020 0.005800 -0.008200 
#    y 0.005800 2.161540 -0.015990 
#    z -0.008200 -0.015990 2.163100 
# 
# From -- ./inp_files/349821.got.cif
#   From: 2010.06.25/outbox.cif.g09.slc.cpg/sg2_175_cif.got.tgz:349821.got - 2010.06.27 13:26:56.
