data_PCOD8013295
_publ_section_title
;
Structure prediction by ZEFSAII (Michael W. Deem and Ramdas Pophale) SiO2 
 PCOD8013295
Probable space group: P -1
;
_chemical_formula_sum "Si O2"
_cell_formula_units_Z 16
_cell_length_a 8.251309
_cell_length_b 14.354470
_cell_length_c 12.805075
_cell_angle_alpha 109.638946
_cell_angle_beta 81.944449
_cell_angle_gamma 148.795930
_cell_volume 705.518473
_symmetry_space_group_name_H-M "P -1"
_symmetry_group_IT_number 2
_symmetry_cell_setting 'triclinic'
loop_
_space_group_symop_operation_xyz
x,y,z
-x,-y,-z
loop_
_atom_site_type_symbol
_atom_site_label
_atom_site_fract_x
_atom_site_fract_y
_atom_site_fract_z
Si Si1 0.787111 0.863102 0.194065
Si Si2 0.814948 0.809099 0.401729
Si Si3 0.191425 0.297114 0.014260
Si Si4 0.142982 0.774437 0.418165
Si Si5 0.979671 0.154999 0.193236
Si Si6 0.915104 0.411932 0.832456
Si Si7 0.738593 0.233241 0.984463
Si Si8 0.745051 0.558052 0.562783
O O1 0.827494 0.825987 0.283522
O O2 0.908640 0.857151 0.087883
O O3 0.409083 0.693758 0.157212
O O4 0.017057 0.079549 0.237738
O O5 0.455819 0.627380 0.420405
O O6 0.954205 0.773861 0.399969
O O7 0.000000 0.000000 0.500000
O O8 0.875666 0.204023 0.009584
O O9 0.500000 0.500000 0.000000
O O10 0.263213 0.311445 0.136675
O O11 0.129309 0.680389 0.298870
O O12 0.982549 0.637458 0.482627
O O13 0.500000 0.000000 0.500000
O O14 0.012796 0.262273 0.309734
O O15 0.636545 0.973585 0.094126
O O16 0.966182 0.369845 0.912993
O O17 0.210615 0.648158 0.892899
O O18 0.500000 0.500000 0.500000
#
# Coordination Sequence:
#
# PCOD8013295 Si02
#       8
#     2   2   2   2   2   2   2   2
#     4  11  22  41  65  98 134 178 226 281 333 403
#     4  11  23  44  70  98 135 176 229 288 339 406
#     4  12  23  41  67 100 133 179 230 278 346 400
#     4  11  22  43  73 100 135 185 225 280 346 402
#     4  11  24  44  68  97 138 176 225 284 344 408
#     4  10  21  40  66  96 140 175 223 270 335 405
#     4  10  22  42  65  98 138 181 220 278 334 406
#     4  10  23  44  68  98 132 175 226 281 339 406
#
# _framework density 22.678356999999998
#
# number of rings (size 3 to 8) (size 9 to 14) (size 15 to 20)
#    0.000    1.250    1.250    6.000    0.000    1.000 
#    6.750    2.500    0.000    0.000    0.000    0.000 
#    0.000    0.000    0.000    0.000    0.000    0.000 
#
# Total GULP energy -198245.529165 kJ/mol
# GULP energy per Si atom -12390.345573 kJ/mol
# Density = 2.262674 g / cm^3
# Si number density = 22.678357 Si / 1000 Ang^3
#
#
#
# Elastic Constant Matrix: (Units=GPa)
#
#
# Indices 1 2 3 4 5 6 
#
# 1 70.7314 35.2635 40.0107 -3.5377 -9.9317 -14.8066
# 2 35.2635 126.1271 58.8570 -7.0919 -5.8515 -14.0204
# 3 40.0107 58.8570 170.3698 -0.7014 -24.5374 -9.3682
# 4 -3.5377 -7.0919 -0.7014 54.0803 -8.9420 2.7421
# 5 -9.9317 -5.8515 -24.5374 -8.9420 37.0284 0.6010
# 6 -14.8066 -14.0204 -9.3682 2.7421 0.6010 26.2461
#
#
#
# Elastic Compliance Matrix: (Units=1/GPa)
#
#
# Indices 1 2 3 4 5 6 
#
# 1 0.019325 -0.003102 -0.002571 0.000919 0.003079 0.008161
# 2 -0.003102 0.010437 -0.002855 0.000838 -0.000917 0.002740
# 3 -0.002571 -0.002855 0.008064 0.000280 0.004274 -0.000224
# 4 0.000919 0.000838 0.000280 0.019600 0.005316 -0.001103
# 5 0.003079 -0.000917 0.004274 0.005316 0.031779 0.001490
# 6 0.008161 0.002740 -0.000224 -0.001103 0.001490 0.044170
#
#
# Mechanical properties :
#
#
# Convention : Reuss Voigt Hill
#
# Bulk Modulus (GPa) = 48.14353 70.61007 59.37680
# Shear Modulus (GPa) = 31.77532 39.01076 35.39304
#
# Velocity S-wave (km/s) = 3.74723 4.15200 3.95480
# Velocity P-wave (km/s) = 6.32434 7.36128 6.86242
#
# Compressibility (1/GPa) = 0.02077122
#
# Stress axis : x y z
#
# Youngs Moduli (GPa) = 51.74530 95.81062 124.00535
#
# Poissons Ratio (x) = 0.29717 0.31881
# Poissons Ratio (y) = 0.16050 0.35406
# Poissons Ratio (z) = 0.13304 0.27356
#
# Static dielectric constant tensor:
#      x y z
#    x 4.350240 -0.301190 0.562600 
#    y -0.301190 4.583860 -0.319400 
#    z 0.562600 -0.319400 5.163420 
# 
# 
# High freq. dielectric constant tensor:
#      x y z
#    x 1.875080 -0.015680 0.001280 
#    y -0.015680 1.909220 -0.004780 
#    z 0.001280 -0.004780 1.907910 
# 
# From -- ./inp_files/399287.got.cif
#   From: 2010.06.25/outbox.cif.g09.slc.cpg/sg2_200_cif.got.tgz:399287.got - 2010.06.27 13:26:56.
