data_PCOD8013703
_publ_section_title
;
Structure prediction by ZEFSAII (Michael W. Deem and Ramdas Pophale) SiO2 
 PCOD8013703
Probable space group: P -1
;
_chemical_formula_sum "Si O2"
_cell_formula_units_Z 14
_cell_length_a 11.459236
_cell_length_b 11.500458
_cell_length_c 11.240279
_cell_angle_alpha 27.305117
_cell_angle_beta 121.587336
_cell_angle_gamma 110.970615
_cell_volume 556.492741
_symmetry_space_group_name_H-M "P -1"
_symmetry_group_IT_number 2
_symmetry_cell_setting 'triclinic'
loop_
_space_group_symop_operation_xyz
x,y,z
-x,-y,-z
loop_
_atom_site_type_symbol
_atom_site_label
_atom_site_fract_x
_atom_site_fract_y
_atom_site_fract_z
Si Si1 0.901738 0.330850 0.553313
Si Si2 0.791524 0.320507 0.253794
Si Si3 0.891288 0.775915 0.868943
Si Si4 0.859441 0.187818 0.905761
Si Si5 0.504801 0.392607 0.917938
Si Si6 0.578580 0.226707 0.851662
Si Si7 0.611859 0.007665 0.654282
O O1 0.807783 0.439942 0.286936
O O2 0.803441 0.304536 0.639687
O O3 0.000000 0.500000 0.500000
O O4 0.009760 0.065149 0.809966
O O5 0.622903 0.359127 0.116280
O O6 0.882832 0.017647 0.551171
O O7 0.841909 0.532750 0.004745
O O8 0.774231 0.937579 0.757702
O O9 0.052394 0.643026 0.125575
O O10 0.734696 0.123782 0.971997
O O11 0.402041 0.203423 0.059995
O O12 0.594030 0.283458 0.946542
O O13 0.419950 0.697724 0.577234
O O14 0.500000 0.500000 0.500000
O O15 0.500000 0.000000 0.000000
O O16 0.500000 0.000000 0.500000
#
# Coordination Sequence:
#
# PCOD8013703 Si02
#       7
#     2   2   2   2   2   2   2
#     4  10  21  40  73 106 142 180 237 299 370 418
#     4  11  21  38  64 108 139 177 225 288 359 423
#     4  11  22  38  67 102 145 174 226 293 356 419
#     4  10  25  46  67 103 141 188 244 300 358 431
#     4  12  25  45  70 104 149 187 243 295 363 433
#     4  12  31  54  73  99 144 201 254 293 362 446
#     4  12  22  41  71 110 149 181 233 301 367 432
#
# _framework density 25.15756
#
# number of rings (size 3 to 8) (size 9 to 14) (size 15 to 20)
#    0.000    0.857    4.286    2.143    2.000    8.000 
#    0.000    3.571    0.000    0.000    0.000    0.000 
#    0.000    0.000    0.000    0.000    0.000    0.000 
#
# Total GULP energy -173468.951835 kJ/mol
# GULP energy per Si atom -12390.639417 kJ/mol
# Density = 2.510030 g / cm^3
# Si number density = 25.157560 Si / 1000 Ang^3
#
#
#
# Elastic Constant Matrix: (Units=GPa)
#
#
# Indices 1 2 3 4 5 6 
#
# 1 159.5157 50.0798 25.5831 -2.7178 -5.9152 18.9759
# 2 50.0798 88.0251 38.1547 -5.4866 -4.6950 22.1111
# 3 25.5831 38.1547 117.6892 -26.2351 -24.2186 16.5151
# 4 -2.7178 -5.4866 -26.2351 45.6005 19.2857 -2.8656
# 5 -5.9152 -4.6950 -24.2186 19.2857 27.8813 2.0870
# 6 18.9759 22.1111 16.5151 -2.8656 2.0870 40.2995
#
#
#
# Elastic Compliance Matrix: (Units=1/GPa)
#
#
# Indices 1 2 3 4 5 6 
#
# 1 0.007755 -0.003962 -0.000019 -0.000826 0.001655 -0.001615
# 2 -0.003962 0.016712 -0.004042 -0.000615 -0.000689 -0.005655
# 3 -0.000019 -0.004042 0.012677 0.003020 0.008477 -0.003193
# 4 -0.000826 -0.000615 0.003020 0.032256 -0.020179 0.002827
# 5 0.001655 -0.000689 0.008477 -0.020179 0.058045 -0.008316
# 6 -0.001615 -0.005655 -0.003193 0.002827 -0.008316 0.030618
#
#
# Mechanical properties :
#
#
# Convention : Reuss Voigt Hill
#
# Bulk Modulus (GPa) = 47.39385 65.87391 56.63388
# Shear Modulus (GPa) = 27.60290 39.51707 33.55999
#
# Velocity S-wave (km/s) = 3.31600 3.96761 3.65635
# Velocity P-wave (km/s) = 5.79144 6.87245 6.35498
#
# Compressibility (1/GPa) = 0.02109978
#
# Stress axis : x y z
#
# Youngs Moduli (GPa) = 128.94763 59.83787 78.88192
#
# Poissons Ratio (x) = 0.23706 0.00146
# Poissons Ratio (y) = 0.51085 0.31884
# Poissons Ratio (z) = 0.00239 0.24186
#
# Static dielectric constant tensor:
#      x y z
#    x 4.411560 0.115070 -0.413510 
#    y 0.115070 4.217090 -0.227520 
#    z -0.413510 -0.227520 4.975800 
# 
# 
# High freq. dielectric constant tensor:
#      x y z
#    x 1.989860 0.041790 -0.012650 
#    y 0.041790 1.998540 -0.007160 
#    z -0.012650 -0.007160 2.018570 
# 
# From -- ./inp_files/427287.got.cif
#   From: 2010.06.25/outbox.cif.g09.slc.cpg/sg2_214_cif.got.tgz:427287.got - 2010.06.27 13:26:56.
