data_PCOD8013450
_publ_section_title
;
Structure prediction by ZEFSAII (Michael W. Deem and Ramdas Pophale) SiO2 
 PCOD8013450
Probable space group: P -1
;
_chemical_formula_sum "Si O2"
_cell_formula_units_Z 16
_cell_length_a 9.568594
_cell_length_b 12.259620
_cell_length_c 10.154475
_cell_angle_alpha 127.994509
_cell_angle_beta 126.335105
_cell_angle_gamma 70.885257
_cell_volume 754.914998
_symmetry_space_group_name_H-M "P -1"
_symmetry_group_IT_number 2
_symmetry_cell_setting 'triclinic'
loop_
_space_group_symop_operation_xyz
x,y,z
-x,-y,-z
loop_
_atom_site_type_symbol
_atom_site_label
_atom_site_fract_x
_atom_site_fract_y
_atom_site_fract_z
Si Si1 0.453745 0.502544 0.254032
Si Si2 0.918212 0.688783 0.498047
Si Si3 0.216267 0.690708 0.111056
Si Si4 0.320576 0.239630 0.350909
Si Si5 0.763988 0.383167 0.214597
Si Si6 0.831663 0.696044 0.949717
Si Si7 0.402984 0.943872 0.531014
Si Si8 0.138120 0.125384 0.642189
O O1 0.354999 0.579478 0.140702
O O2 0.578069 0.609557 0.485519
O O3 0.570472 0.387542 0.168226
O O4 0.310451 0.431711 0.217645
O O5 0.805181 0.771735 0.600712
O O6 0.831581 0.535272 0.313758
O O7 0.931844 0.771030 0.429580
O O8 0.113433 0.676608 0.650069
O O9 0.252556 0.831215 0.317884
O O10 0.020855 0.634912 0.996352
O O11 0.237278 0.718787 0.987529
O O12 0.458531 0.122113 0.344498
O O13 0.206553 0.217179 0.138921
O O14 0.818578 0.792679 0.139997
O O15 0.500000 0.000000 0.500000
O O16 0.318269 0.067204 0.651812
O O17 0.000000 0.000000 0.500000
#
# Coordination Sequence:
#
# PCOD8013450 Si02
#       8
#     2   2   2   2   2   2   2   2
#     4  10  23  38  66 101 135 164 212 278 330 384
#     4  10  21  42  69  93 137 168 210 277 323 391
#     4  11  22  41  65  97 130 174 219 262 328 399
#     4  10  22  44  67  97 128 172 220 266 326 392
#     4  10  21  40  68 102 124 168 225 265 330 383
#     4  12  24  42  65  97 136 171 214 271 331 389
#     4  11  24  44  68  89 129 175 219 268 318 384
#     4  12  26  45  63  97 133 175 219 268 329 384
#
# _framework density 21.194438999999999
#
# number of rings (size 3 to 8) (size 9 to 14) (size 15 to 20)
#    0.000    1.250    3.750    1.875    1.750    1.500 
#    2.250    1.875    0.000    0.000    0.000    0.000 
#    0.000    0.000    0.000    0.000    0.000    0.000 
#
# Total GULP energy -198468.232888 kJ/mol
# GULP energy per Si atom -12404.264556 kJ/mol
# Density = 2.114620 g / cm^3
# Si number density = 21.194439 Si / 1000 Ang^3
#
#
#
# Elastic Constant Matrix: (Units=GPa)
#
#
# Indices 1 2 3 4 5 6 
#
# 1 123.1930 30.3596 39.1335 -10.4297 7.0855 -18.6456
# 2 30.3596 87.2981 41.8813 -15.7283 -1.2198 -3.6662
# 3 39.1335 41.8813 95.4410 -32.9014 -12.6575 -6.9267
# 4 -10.4297 -15.7283 -32.9014 23.5187 2.1406 -1.0642
# 5 7.0855 -1.2198 -12.6575 2.1406 37.4370 2.2666
# 6 -18.6456 -3.6662 -6.9267 -1.0642 2.2666 42.2175
#
#
#
# Elastic Compliance Matrix: (Units=1/GPa)
#
#
# Indices 1 2 3 4 5 6 
#
# 1 0.010631 -0.001809 -0.004614 -0.002433 -0.003729 0.003920
# 2 -0.001809 0.014954 -0.005374 0.001765 -0.001071 -0.000280
# 3 -0.004614 -0.005374 0.026591 0.030952 0.007784 0.002221
# 4 -0.002433 0.001765 0.030952 0.085671 0.005720 0.006009
# 5 -0.003729 -0.001071 0.007784 0.005720 0.029803 -0.001919
# 6 0.003920 -0.000280 0.002221 0.006009 -0.001919 0.026013
#
#
# Mechanical properties :
#
#
# Convention : Reuss Voigt Hill
#
# Bulk Modulus (GPa) = 34.98844 58.74235 46.86539
# Shear Modulus (GPa) = 22.04737 33.60515 27.82626
#
# Velocity S-wave (km/s) = 3.22878 3.98623 3.62733
# Velocity P-wave (km/s) = 5.51762 6.99735 6.30107
#
# Compressibility (1/GPa) = 0.02858087
#
# Stress axis : x y z
#
# Youngs Moduli (GPa) = 94.06796 66.87302 37.60640
#
# Poissons Ratio (x) = 0.12100 0.17351
# Poissons Ratio (y) = 0.17021 0.20210
# Poissons Ratio (z) = 0.43401 0.35938
#
# Static dielectric constant tensor:
#      x y z
#    x 4.177630 -0.346290 -0.007490 
#    y -0.346290 4.069950 0.204260 
#    z -0.007490 0.204260 4.102870 
# 
# 
# High freq. dielectric constant tensor:
#      x y z
#    x 1.843700 -0.009600 0.002600 
#    y -0.009600 1.819130 -0.014280 
#    z 0.002600 -0.014280 1.829540 
# 
# From -- ./inp_files/185253.got.cif
#   From: 2010.06.25/outbox.cif.g09.slc.cpg/sg2_93_cif.got.tgz:185253.got - 2010.06.27 13:26:56.
