data_PCOD8013486
_publ_section_title
;
Structure prediction by ZEFSAII (Michael W. Deem and Ramdas Pophale) SiO2 
 PCOD8013486
Probable space group: P -1
;
_chemical_formula_sum "Si O2"
_cell_formula_units_Z 16
_cell_length_a 12.126372
_cell_length_b 12.191377
_cell_length_c 15.083629
_cell_angle_alpha 36.045398
_cell_angle_beta 123.997841
_cell_angle_gamma 144.102756
_cell_volume 739.086397
_symmetry_space_group_name_H-M "P -1"
_symmetry_group_IT_number 2
_symmetry_cell_setting 'triclinic'
loop_
_space_group_symop_operation_xyz
x,y,z
-x,-y,-z
loop_
_atom_site_type_symbol
_atom_site_label
_atom_site_fract_x
_atom_site_fract_y
_atom_site_fract_z
Si Si1 0.067465 0.710136 0.537270
Si Si2 0.557199 0.773610 0.345781
Si Si3 0.970142 0.845430 0.255437
Si Si4 0.670336 0.345951 0.347691
Si Si5 0.309341 0.132858 0.840214
Si Si6 0.607403 0.774660 0.560784
Si Si7 0.284401 0.836142 0.185152
Si Si8 0.595477 0.794344 0.835572
O O1 0.243400 0.773365 0.529995
O O2 0.916258 0.639358 0.443289
O O3 0.945744 0.442592 0.719686
O O4 0.175963 0.996372 0.447429
O O5 0.500000 0.500000 0.500000
O O6 0.697143 0.956074 0.204690
O O7 0.654771 0.905657 0.398985
O O8 0.375019 0.724921 0.288629
O O9 0.854244 0.678086 0.221644
O O10 0.896774 0.972711 0.169282
O O11 0.200171 0.058293 0.211358
O O12 0.538177 0.234127 0.448649
O O13 0.548761 0.246536 0.268728
O O14 0.503701 0.464367 0.720432
O O15 0.319609 0.977819 0.016319
O O16 0.377912 0.056692 0.161342
O O17 0.500000 0.500000 0.000000
#
# Coordination Sequence:
#
# PCOD8013486 Si02
#       8
#     2   2   2   2   2   2   2   2
#     4  12  23  38  65 104 140 178 226 286 339 413
#     4  10  22  46  73  97 130 184 237 289 343 395
#     4  11  24  42  66  98 142 180 229 276 342 406
#     4  11  22  39  64  98 140 175 227 277 336 410
#     4  10  24  46  68  92 139 185 229 287 339 403
#     4  10  21  40  68  94 131 183 227 277 341 403
#     4  12  25  42  70 104 137 180 232 281 349 408
#     4  12  26  41  69 104 146 187 218 278 354 416
#
# _framework density 21.648347999999999
#
# number of rings (size 3 to 8) (size 9 to 14) (size 15 to 20)
#    0.000    1.000    2.500    5.625    3.500    1.000 
#    0.000    6.250    0.000    0.000    0.000    0.000 
#    0.000    0.000    0.000    0.000    0.000    0.000 
#
# Total GULP energy -198230.508761 kJ/mol
# GULP energy per Si atom -12389.406798 kJ/mol
# Density = 2.159908 g / cm^3
# Si number density = 21.648348 Si / 1000 Ang^3
#
#
#
# Elastic Constant Matrix: (Units=GPa)
#
#
# Indices 1 2 3 4 5 6 
#
# 1 99.2769 26.9156 44.4658 13.9180 12.9782 -6.4174
# 2 26.9156 92.7340 47.3874 7.9366 -1.5019 12.1927
# 3 44.4658 47.3874 120.1511 7.3530 -3.4899 -8.8519
# 4 13.9180 7.9366 7.3530 34.4920 -3.8260 -6.6091
# 5 12.9782 -1.5019 -3.4899 -3.8260 33.0476 6.8836
# 6 -6.4174 12.1927 -8.8519 -6.6091 6.8836 22.9411
#
#
#
# Elastic Compliance Matrix: (Units=1/GPa)
#
#
# Indices 1 2 3 4 5 6 
#
# 1 0.014481 -0.002618 -0.003919 -0.004305 -0.007763 0.005019
# 2 -0.002618 0.017211 -0.006552 -0.003902 0.003717 -0.014647
# 3 -0.003919 -0.006552 0.012829 0.001933 0.001254 0.007517
# 4 -0.004305 -0.003902 0.001933 0.033563 0.003469 0.010243
# 5 -0.007763 0.003717 0.001254 0.003469 0.036870 -0.013727
# 6 0.005019 -0.014647 0.007517 0.010243 -0.013727 0.062749
#
#
# Mechanical properties :
#
#
# Convention : Reuss Voigt Hill
#
# Bulk Modulus (GPa) = 54.51243 61.07772 57.79508
# Shear Modulus (GPa) = 23.81028 30.98903 27.39965
#
# Velocity S-wave (km/s) = 3.32002 3.78759 3.56148
# Velocity P-wave (km/s) = 6.31920 6.88495 6.60813
#
# Compressibility (1/GPa) = 0.01834444
#
# Stress axis : x y z
#
# Youngs Moduli (GPa) = 69.05798 58.10201 77.94810
#
# Poissons Ratio (x) = 0.15208 0.30547
# Poissons Ratio (y) = 0.18076 0.51069
# Poissons Ratio (z) = 0.27063 0.38067
#
# Static dielectric constant tensor:
#      x y z
#    x 3.972560 -0.410610 -0.071980 
#    y -0.410610 4.124080 0.343080 
#    z -0.071980 0.343080 4.036420 
# 
# 
# High freq. dielectric constant tensor:
#      x y z
#    x 1.850910 -0.004520 -0.000820 
#    y -0.004520 1.850150 0.007780 
#    z -0.000820 0.007780 1.849190 
# 
# From -- ./inp_files/519550.got.cif
#   From: 2010.06.25/outbox.cif.g09.slc.cpg/sg2_260_cif.got.tgz:519550.got - 2010.06.27 13:26:56.
