data_PCOD8013804
_publ_section_title
;
Structure prediction by ZEFSAII (Michael W. Deem and Ramdas Pophale) SiO2 
 PCOD8013804
Probable space group: P -1
;
_chemical_formula_sum "Si O2"
_cell_formula_units_Z 16
_cell_length_a 8.966728
_cell_length_b 19.726275
_cell_length_c 9.559361
_cell_angle_alpha 144.850563
_cell_angle_beta 69.625580
_cell_angle_gamma 123.240557
_cell_volume 796.400024
_symmetry_space_group_name_H-M "P -1"
_symmetry_group_IT_number 2
_symmetry_cell_setting 'triclinic'
loop_
_space_group_symop_operation_xyz
x,y,z
-x,-y,-z
loop_
_atom_site_type_symbol
_atom_site_label
_atom_site_fract_x
_atom_site_fract_y
_atom_site_fract_z
Si Si1 0.965918 0.070675 0.499210
Si Si2 0.144013 0.115296 0.241178
Si Si3 0.491654 0.886664 0.914412
Si Si4 0.337991 0.592695 0.466773
Si Si5 0.300903 0.616531 0.844300
Si Si6 0.291890 0.404263 0.700050
Si Si7 0.433610 0.082924 0.748017
Si Si8 0.063204 0.372075 0.991267
O O1 0.120693 0.090045 0.371872
O O2 0.991670 0.214781 0.782304
O O3 0.781295 0.981519 0.320310
O O4 0.000000 0.000000 0.500000
O O5 0.332363 0.128427 0.164840
O O6 0.145033 0.255125 0.440787
O O7 0.000000 0.000000 0.000000
O O8 0.334687 0.733500 0.668699
O O9 0.490033 0.930126 0.147156
O O10 0.500000 0.000000 0.000000
O O11 0.318139 0.576197 0.612535
O O12 0.514557 0.592757 0.340048
O O13 0.162144 0.463639 0.246902
O O14 0.323979 0.513491 0.759999
O O15 0.471954 0.762035 0.067404
O O16 0.114903 0.612663 0.945984
O O17 0.207032 0.428515 0.910901
O O18 0.500000 0.000000 0.500000
#
# Coordination Sequence:
#
# PCOD8013804 Si02
#       8
#     2   2   2   2   2   2   2   2
#     4  11  25  40  64  93 123 166 204 253 314 360
#     4  10  21  41  62  88 127 156 210 257 293 372
#     4  10  23  40  65  92 122 166 202 252 314 359
#     4  10  23  41  60  92 126 157 208 254 299 375
#     4  11  23  40  66  89 123 164 204 252 314 359
#     4  10  23  40  62  91 120 164 203 249 313 359
#     4  11  23  42  61  92 129 155 209 258 299 373
#     4  11  23  42  60  92 128 156 209 255 298 377
#
# _framework density 20.090406999999999
#
# number of rings (size 3 to 8) (size 9 to 14) (size 15 to 20)
#    0.000    1.500    2.500    1.500    3.500    3.000 
#    0.000    0.000    0.000    0.000    0.000    0.000 
#    0.000    0.000    0.000    0.000    0.000    0.000 
#
# Total GULP energy -198246.318334 kJ/mol
# GULP energy per Si atom -12390.394896 kJ/mol
# Density = 2.004468 g / cm^3
# Si number density = 20.090407 Si / 1000 Ang^3
#
#
#
# Elastic Constant Matrix: (Units=GPa)
#
#
# Indices 1 2 3 4 5 6 
#
# 1 37.8534 18.9412 27.8734 5.9121 -0.0483 -6.7996
# 2 18.9412 122.6673 54.6881 15.2156 -7.3881 -20.7623
# 3 27.8734 54.6881 154.4549 14.9151 12.3589 -11.4035
# 4 5.9121 15.2156 14.9151 34.0076 11.9001 -14.1988
# 5 -0.0483 -7.3881 12.3589 11.9001 32.3771 0.3793
# 6 -6.7996 -20.7623 -11.4035 -14.1988 0.3793 39.8262
#
#
#
# Elastic Compliance Matrix: (Units=1/GPa)
#
#
# Indices 1 2 3 4 5 6 
#
# 1 0.031711 -0.001940 -0.004828 -0.002454 0.002325 0.002123
# 2 -0.001940 0.011320 -0.003483 -0.003690 0.005229 0.003207
# 3 -0.004828 -0.003483 0.008915 -0.000085 -0.004173 -0.000078
# 4 -0.002454 -0.003690 -0.000085 0.042817 -0.016704 0.013057
# 5 0.002325 0.005229 -0.004173 -0.016704 0.039867 -0.004407
# 6 0.002123 0.003207 -0.000078 0.013057 -0.004407 0.031818
#
#
# Mechanical properties :
#
#
# Convention : Reuss Voigt Hill
#
# Bulk Modulus (GPa) = 31.80282 57.55345 44.67813
# Shear Modulus (GPa) = 25.32508 35.47370 30.39939
#
# Velocity S-wave (km/s) = 3.55428 4.20659 3.89412
# Velocity P-wave (km/s) = 5.71910 7.23210 6.51964
#
# Compressibility (1/GPa) = 0.03144375
#
# Stress axis : x y z
#
# Youngs Moduli (GPa) = 31.53444 88.33802 112.16683
#
# Poissons Ratio (x) = 0.17141 0.54154
# Poissons Ratio (y) = 0.06119 0.39070
# Poissons Ratio (z) = 0.15225 0.30770
#
# Static dielectric constant tensor:
#      x y z
#    x 3.309030 0.283440 -0.526110 
#    y 0.283440 3.607900 0.096950 
#    z -0.526110 0.096950 3.531560 
# 
# 
# High freq. dielectric constant tensor:
#      x y z
#    x 1.769750 0.019450 -0.009500 
#    y 0.019450 1.793950 0.002240 
#    z -0.009500 0.002240 1.809050 
# 
# From -- ./inp_files/185068.got.cif
#   From: 2010.06.25/outbox.cif.g09.slc.cpg/sg2_93_cif.got.tgz:185068.got - 2010.06.27 13:26:56.
