data_PCOD8013351
_publ_section_title
;
Structure prediction by ZEFSAII (Michael W. Deem and Ramdas Pophale) SiO2 
 PCOD8013351
Probable space group: P -1
;
_chemical_formula_sum "Si O2"
_cell_formula_units_Z 14
_cell_length_a 19.065819
_cell_length_b 25.952966
_cell_length_c 10.397060
_cell_angle_alpha 26.361302
_cell_angle_beta 26.881750
_cell_angle_gamma 18.013500
_cell_volume 676.017949
_symmetry_space_group_name_H-M "P -1"
_symmetry_group_IT_number 2
_symmetry_cell_setting 'triclinic'
loop_
_space_group_symop_operation_xyz
x,y,z
-x,-y,-z
loop_
_atom_site_type_symbol
_atom_site_label
_atom_site_fract_x
_atom_site_fract_y
_atom_site_fract_z
Si Si1 0.927198 0.948756 0.339266
Si Si2 0.072309 0.580196 0.270953
Si Si3 0.283474 0.833214 0.414346
Si Si4 0.288775 0.656802 0.586766
Si Si5 0.458209 0.282823 0.495051
Si Si6 0.618589 0.958924 0.263722
Si Si7 0.667098 0.886211 0.859312
O O1 0.913059 0.820890 0.603147
O O2 0.115806 0.845833 0.375371
O O3 0.659991 0.122956 0.427771
O O4 0.000000 0.000000 0.000000
O O5 0.289645 0.454968 0.296271
O O6 0.000000 0.500000 0.500000
O O7 0.866740 0.752237 0.308333
O O8 0.141848 0.627056 0.936903
O O9 0.385071 0.675268 0.508853
O O10 0.399308 0.733513 0.586225
O O11 0.000000 0.000000 0.500000
O O12 0.367550 0.911261 0.059615
O O13 0.500000 0.500000 0.500000
O O14 0.290520 0.276520 0.844595
O O15 0.500000 0.000000 0.500000
O O16 0.461655 0.998063 0.317577
O O17 0.500000 0.000000 0.000000
#
# Coordination Sequence:
#
# PCOD8013351 Si02
#       7
#     2   2   2   2   2   2   2
#     4  11  21  37  64  95 127 168 219 268 326 390
#     4  12  24  43  69  99 134 173 222 271 324 397
#     4  11  22  47  67  88 137 175 216 271 336 392
#     4  12  26  43  65  98 134 171 220 278 328 388
#     4  10  21  40  67  91 125 178 215 262 329 390
#     4  11  25  42  68  97 130 178 216 273 334 394
#     4   9  19  40  62  88 125 171 217 259 324 394
#
# _framework density 20.709509000000001
#
# number of rings (size 3 to 8) (size 9 to 14) (size 15 to 20)
#    0.000    1.143    2.857    5.143    4.000    0.571 
#    2.571    1.429    0.000    0.000    0.000    0.000 
#    0.000    0.000    0.000    0.000    0.000    0.000 
#
# Total GULP energy -173497.868639 kJ/mol
# GULP energy per Si atom -12392.704903 kJ/mol
# Density = 2.066237 g / cm^3
# Si number density = 20.709509 Si / 1000 Ang^3
#
#
#
# Elastic Constant Matrix: (Units=GPa)
#
#
# Indices 1 2 3 4 5 6 
#
# 1 139.4947 33.9379 55.4109 2.5443 11.8396 0.5713
# 2 33.9379 100.6414 33.7579 4.7428 15.3370 8.0069
# 3 55.4109 33.7579 137.8474 10.8822 10.5356 3.5166
# 4 2.5443 4.7428 10.8822 32.1001 -1.8937 6.9219
# 5 11.8396 15.3370 10.5356 -1.8937 44.1555 -9.3176
# 6 0.5713 8.0069 3.5166 6.9219 -9.3176 37.3378
#
#
#
# Elastic Compliance Matrix: (Units=1/GPa)
#
#
# Indices 1 2 3 4 5 6 
#
# 1 0.008926 -0.001869 -0.003106 0.000517 -0.000933 0.000228
# 2 -0.001869 0.012053 -0.001769 -0.000561 -0.003980 -0.003279
# 3 -0.003106 -0.001769 0.009217 -0.002632 -0.000903 -0.000179
# 4 0.000517 -0.000561 -0.002632 0.033347 0.000935 -0.005588
# 5 -0.000933 -0.003980 -0.000903 0.000935 0.026073 0.007286
# 6 0.000228 -0.003279 -0.000179 -0.005588 0.007286 0.030353
#
#
# Mechanical properties :
#
#
# Convention : Reuss Voigt Hill
#
# Bulk Modulus (GPa) = 59.84162 69.35519 64.59840
# Shear Modulus (GPa) = 35.96481 39.71048 37.83764
#
# Velocity S-wave (km/s) = 4.17181 4.38368 4.27906
# Velocity P-wave (km/s) = 7.22245 7.69314 7.46151
#
# Compressibility (1/GPa) = 0.01671078
#
# Stress axis : x y z
#
# Youngs Moduli (GPa) = 112.03473 82.96459 108.49219
#
# Poissons Ratio (x) = 0.15502 0.33694
# Poissons Ratio (y) = 0.20934 0.19188
# Poissons Ratio (z) = 0.34794 0.14673
#
# Static dielectric constant tensor:
#      x y z
#    x 4.115590 -0.224280 -0.018680 
#    y -0.224280 3.376440 0.206660 
#    z -0.018680 0.206660 3.541450 
# 
# 
# High freq. dielectric constant tensor:
#      x y z
#    x 1.827920 -0.010470 -0.001020 
#    y -0.010470 1.787000 -0.004040 
#    z -0.001020 -0.004040 1.819340 
# 
# From -- ./inp_files/159550.got.cif
#   From: 2010.06.25/outbox.cif.g09.slc.cpg/sg2_80_cif.got.tgz:159550.got - 2010.06.27 13:26:56.
