data_PCOD8013358
_publ_section_title
;
Structure prediction by ZEFSAII (Michael W. Deem and Ramdas Pophale) SiO2 
 PCOD8013358
Probable space group: P -1
;
_chemical_formula_sum "Si O2"
_cell_formula_units_Z 14
_cell_length_a 11.777729
_cell_length_b 10.867439
_cell_length_c 11.136134
_cell_angle_alpha 133.026244
_cell_angle_beta 68.821803
_cell_angle_gamma 75.124426
_cell_volume 655.405183
_symmetry_space_group_name_H-M "P -1"
_symmetry_group_IT_number 2
_symmetry_cell_setting 'triclinic'
loop_
_space_group_symop_operation_xyz
x,y,z
-x,-y,-z
loop_
_atom_site_type_symbol
_atom_site_label
_atom_site_fract_x
_atom_site_fract_y
_atom_site_fract_z
Si Si1 0.058521 0.961983 0.175050
Si Si2 0.125970 0.259619 0.373072
Si Si3 0.625041 0.199617 0.170390
Si Si4 0.169248 0.261790 0.622500
Si Si5 0.537707 0.294614 0.774218
Si Si6 0.824873 0.466860 0.009410
Si Si7 0.670733 0.272152 0.450058
O O1 0.029080 0.179141 0.387396
O O2 0.883967 0.084817 0.248917
O O3 0.233048 0.792307 0.908190
O O4 0.095170 0.794751 0.156966
O O5 0.172483 0.306400 0.510171
O O6 0.000000 0.500000 0.500000
O O7 0.309797 0.037619 0.078235
O O8 0.626656 0.179715 0.301183
O O9 0.429402 0.450951 0.361518
O O10 0.224066 0.372010 0.747800
O O11 0.307430 0.969040 0.395916
O O12 0.966932 0.416745 0.838243
O O13 0.355479 0.371671 0.891811
O O14 0.598311 0.275324 0.604242
O O15 0.500000 0.500000 0.000000
#
# Coordination Sequence:
#
# PCOD8013358 Si02
#       7
#     2   2   2   2   2   2   2
#     4  10  21  40  67  92 123 170 217 258 325 378
#     4  10  24  44  65  95 130 167 215 273 319 382
#     4   9  22  38  61  93 129 162 220 257 319 383
#     4  11  25  43  66  94 137 169 216 269 322 383
#     4  12  24  40  69  97 132 168 217 270 320 388
#     4  11  24  42  68  99 127 175 216 263 327 383
#     4  11  20  38  65  95 124 169 212 269 311 387
#
# _framework density 21.360831999999998
#
# number of rings (size 3 to 8) (size 9 to 14) (size 15 to 20)
#    0.857    0.571    2.857    2.571    4.000    1.143 
#    0.000    0.714    0.000    0.000    0.000    0.000 
#    0.000    0.000    0.000    0.000    0.000    0.000 
#
# Total GULP energy -173578.261019 kJ/mol
# GULP energy per Si atom -12398.447216 kJ/mol
# Density = 2.131221 g / cm^3
# Si number density = 21.360832 Si / 1000 Ang^3
#
#
#
# Elastic Constant Matrix: (Units=GPa)
#
#
# Indices 1 2 3 4 5 6 
#
# 1 78.6621 13.6579 27.1177 -4.9258 1.4778 -14.8747
# 2 13.6579 97.0926 41.4742 -8.0951 9.2886 -25.7404
# 3 27.1177 41.4742 117.3240 -2.9675 13.5447 -18.3267
# 4 -4.9258 -8.0951 -2.9675 35.0604 -3.9687 3.3429
# 5 1.4778 9.2886 13.5447 -3.9687 38.8952 4.2749
# 6 -14.8747 -25.7404 -18.3267 3.3429 4.2749 33.5598
#
#
#
# Elastic Compliance Matrix: (Units=1/GPa)
#
#
# Indices 1 2 3 4 5 6 
#
# 1 0.014650 0.000676 -0.002718 0.001444 -0.000219 0.005412
# 2 0.000676 0.014779 -0.003390 0.001894 -0.003282 0.010013
# 3 -0.002718 -0.003390 0.011155 -0.000869 -0.003368 0.002802
# 4 0.001444 0.001894 -0.000869 0.029592 0.003003 -0.001712
# 5 -0.000219 -0.003282 -0.003368 0.003003 0.028909 -0.008435
# 6 0.005412 0.010013 0.002802 -0.001712 -0.008435 0.042652
#
#
# Mechanical properties :
#
#
# Convention : Reuss Voigt Hill
#
# Bulk Modulus (GPa) = 33.64676 50.84202 42.24439
# Shear Modulus (GPa) = 30.76818 35.55836 33.16327
#
# Velocity S-wave (km/s) = 3.79938 4.08444 3.94449
# Velocity P-wave (km/s) = 5.91886 6.78946 6.36905
#
# Compressibility (1/GPa) = 0.02972055
#
# Stress axis : x y z
#
# Youngs Moduli (GPa) = 68.25910 67.66439 89.64972
#
# Poissons Ratio (x) = -0.04576 0.24367
# Poissons Ratio (y) = -0.04616 0.30389
# Poissons Ratio (z) = 0.18553 0.22936
#
# Static dielectric constant tensor:
#      x y z
#    x 3.750770 -0.195800 -0.097010 
#    y -0.195800 3.699420 0.026600 
#    z -0.097010 0.026600 4.023650 
# 
# 
# High freq. dielectric constant tensor:
#      x y z
#    x 1.821990 -0.018510 -0.005980 
#    y -0.018510 1.833430 0.001160 
#    z -0.005980 0.001160 1.850090 
# 
# From -- ./inp_files/429060.got.cif
#   From: 2010.06.25/outbox.cif.g09.slc.cpg/sg2_215_cif.got.tgz:429060.got - 2010.06.27 13:26:56.
