data_PCOD8013477
_publ_section_title
;
Structure prediction by ZEFSAII (Michael W. Deem and Ramdas Pophale) SiO2 
 PCOD8013477
Probable space group: P -1
;
_chemical_formula_sum "Si O2"
_cell_formula_units_Z 14
_cell_length_a 13.990380
_cell_length_b 9.542167
_cell_length_c 12.378854
_cell_angle_alpha 128.443241
_cell_angle_beta 146.785452
_cell_angle_gamma 44.733742
_cell_volume 635.501320
_symmetry_space_group_name_H-M "P -1"
_symmetry_group_IT_number 2
_symmetry_cell_setting 'triclinic'
loop_
_space_group_symop_operation_xyz
x,y,z
-x,-y,-z
loop_
_atom_site_type_symbol
_atom_site_label
_atom_site_fract_x
_atom_site_fract_y
_atom_site_fract_z
Si Si1 0.812839 0.264578 0.907625
Si Si2 0.003179 0.317611 0.482543
Si Si3 0.936064 0.504036 0.734947
Si Si4 0.744133 0.870495 0.043877
Si Si5 0.418045 0.520676 0.549731
Si Si6 0.318730 0.940737 0.700232
Si Si7 0.110901 0.939897 0.900602
O O1 0.600868 0.439259 0.765269
O O2 0.779948 0.161959 0.934725
O O3 0.893398 0.106921 0.808681
O O4 0.979840 0.335825 0.128173
O O5 0.000000 0.500000 0.500000
O O6 0.911143 0.405630 0.552935
O O7 0.884895 0.226343 0.258572
O O8 0.214767 0.133419 0.617117
O O9 0.716879 0.596389 0.621775
O O10 0.080373 0.347646 0.881978
O O11 0.740477 0.008809 0.207059
O O12 0.769507 0.957595 0.995534
O O13 0.546416 0.850127 0.848194
O O14 0.500000 0.500000 0.500000
O O15 0.269946 0.755706 0.541240
#
# Coordination Sequence:
#
# PCOD8013477 Si02
#       7
#     2   2   2   2   2   2   2
#     4  11  25  45  64 101 136 170 220 266 328 400
#     4  11  22  42  66  94 132 174 218 269 326 385
#     4  11  23  43  70  96 132 175 220 270 322 391
#     4  10  21  40  68  92 130 172 216 270 325 378
#     4  12  25  41  69 100 131 171 220 271 326 390
#     4  10  22  39  63 101 127 164 227 268 314 394
#     4  11  24  43  65  94 138 175 211 275 332 381
#
# _framework density 22.029851000000001
#
# number of rings (size 3 to 8) (size 9 to 14) (size 15 to 20)
#    0.000    1.143    2.857    3.429    2.000    4.571 
#    0.000    3.571    0.000    0.000    0.000    0.000 
#    0.000    0.000    0.000    0.000    0.000    0.000 
#
# Total GULP energy -173554.601470 kJ/mol
# GULP energy per Si atom -12396.757248 kJ/mol
# Density = 2.197971 g / cm^3
# Si number density = 22.029851 Si / 1000 Ang^3
#
#
#
# Elastic Constant Matrix: (Units=GPa)
#
#
# Indices 1 2 3 4 5 6 
#
# 1 127.0223 34.0632 23.6924 -17.0200 -4.2845 23.8604
# 2 34.0632 99.4258 17.3345 -12.1960 -4.8778 17.9336
# 3 23.6924 17.3345 57.6218 -12.8722 0.7770 4.9033
# 4 -17.0200 -12.1960 -12.8722 33.4154 -2.1037 -1.0180
# 5 -4.2845 -4.8778 0.7770 -2.1037 26.4300 -2.4516
# 6 23.8604 17.9336 4.9033 -1.0180 -2.4516 32.7328
#
#
#
# Elastic Compliance Matrix: (Units=1/GPa)
#
#
# Indices 1 2 3 4 5 6 
#
# 1 0.010446 -0.001511 -0.002504 0.003692 0.001206 -0.006207
# 2 -0.001511 0.012294 -0.002020 0.002900 0.001841 -0.005104
# 3 -0.002504 -0.002020 0.020287 0.005745 -0.000918 0.000003
# 4 0.003692 0.002900 0.005745 0.035177 0.003413 -0.003791
# 5 0.001206 0.001841 -0.000918 0.003413 0.038787 0.001261
# 6 -0.006207 -0.005104 0.000003 -0.003791 0.001261 0.037847
#
#
# Mechanical properties :
#
#
# Convention : Reuss Voigt Hill
#
# Bulk Modulus (GPa) = 32.30212 48.25001 40.27607
# Shear Modulus (GPa) = 28.21235 32.44762 30.32998
#
# Velocity S-wave (km/s) = 3.58249 3.84199 3.71451
# Velocity P-wave (km/s) = 5.63977 6.45220 6.05962
#
# Compressibility (1/GPa) = 0.03095772
#
# Stress axis : x y z
#
# Youngs Moduli (GPa) = 95.73010 81.33981 49.29204
#
# Poissons Ratio (x) = 0.12288 0.12343
# Poissons Ratio (y) = 0.14462 0.09957
# Poissons Ratio (z) = 0.23972 0.16431
#
# Static dielectric constant tensor:
#      x y z
#    x 4.007830 0.002430 -0.155920 
#    y 0.002430 4.327910 0.156530 
#    z -0.155920 0.156530 3.970940 
# 
# 
# High freq. dielectric constant tensor:
#      x y z
#    x 1.875890 0.004610 -0.009990 
#    y 0.004610 1.870680 0.007160 
#    z -0.009990 0.007160 1.855380 
# 
# From -- ./inp_files/199041.got.cif
#   From: 2010.06.25/outbox.cif.g09.slc.cpg/sg2_100_cif.got.tgz:199041.got - 2010.06.27 13:26:56.
