data_PCOD8013537
_publ_section_title
;
Structure prediction by ZEFSAII (Michael W. Deem and Ramdas Pophale) SiO2 
 PCOD8013537
Probable space group: P -1
;
_chemical_formula_sum "Si O2"
_cell_formula_units_Z 12
_cell_length_a 16.115362
_cell_length_b 9.859766
_cell_length_c 15.954215
_cell_angle_alpha 142.381838
_cell_angle_beta 150.282477
_cell_angle_gamma 25.284532
_cell_volume 536.464008
_symmetry_space_group_name_H-M "P -1"
_symmetry_group_IT_number 2
_symmetry_cell_setting 'triclinic'
loop_
_space_group_symop_operation_xyz
x,y,z
-x,-y,-z
loop_
_atom_site_type_symbol
_atom_site_label
_atom_site_fract_x
_atom_site_fract_y
_atom_site_fract_z
Si Si1 0.474109 0.649406 0.139265
Si Si2 0.606295 0.073078 0.253283
Si Si3 0.998858 0.279077 0.447322
Si Si4 0.177844 0.644490 0.250316
Si Si5 0.068125 0.358677 0.119028
Si Si6 0.631283 0.620002 0.967203
O O1 0.729804 0.453706 0.309133
O O2 0.336775 0.013027 0.197830
O O3 0.500000 0.500000 0.000000
O O4 0.322558 0.641784 0.066586
O O5 0.455253 0.322377 0.318767
O O6 0.879677 0.798201 0.392177
O O7 0.510116 0.916945 0.068579
O O8 0.552985 0.261749 0.213100
O O9 0.000000 0.500000 0.500000
O O10 0.144657 0.939878 0.366387
O O11 0.092004 0.600391 0.238884
O O12 0.021038 0.698648 0.064956
O O13 0.885779 0.486465 0.097673
#
# Coordination Sequence:
#
# PCOD8013537 Si02
#       6
#     2   2   2   2   2   2
#     4  12  23  41  67  95 131 170 219 265 322 387
#     4  10  23  42  66  94 135 169 220 260 325 384
#     4  12  25  40  67  99 131 169 220 272 318 382
#     4  10  21  40  69  95 128 172 217 265 320 387
#     4  10  21  40  68  99 127 168 221 264 319 389
#     4  10  23  42  68  95 131 174 216 266 326 387
#
# _framework density 22.368694999999999
#
# number of rings (size 3 to 8) (size 9 to 14) (size 15 to 20)
#    0.000    1.333    1.667    4.000    7.000    0.667 
#    0.000    0.833    0.000    0.000    0.000    0.000 
#    0.000    0.000    0.000    0.000    0.000    0.000 
#
# Total GULP energy -148698.698656 kJ/mol
# GULP energy per Si atom -12391.558221 kJ/mol
# Density = 2.231778 g / cm^3
# Si number density = 22.368695 Si / 1000 Ang^3
#
#
#
# Elastic Constant Matrix: (Units=GPa)
#
#
# Indices 1 2 3 4 5 6 
#
# 1 101.9821 46.3276 30.0523 9.9668 16.2238 14.3992
# 2 46.3276 127.0519 45.8658 4.2140 5.5503 5.6756
# 3 30.0523 45.8658 85.6767 -12.4914 -3.1915 5.9772
# 4 9.9668 4.2140 -12.4914 53.2094 8.2895 7.5230
# 5 16.2238 5.5503 -3.1915 8.2895 25.7776 -0.8104
# 6 14.3992 5.6756 5.9772 7.5230 -0.8104 30.0337
#
#
#
# Elastic Compliance Matrix: (Units=1/GPa)
#
#
# Indices 1 2 3 4 5 6 
#
# 1 0.014671 -0.003455 -0.003388 -0.001109 -0.008730 -0.005664
# 2 -0.003455 0.010929 -0.004928 -0.001462 -0.000289 0.000930
# 3 -0.003388 -0.004928 0.016422 0.004550 0.003708 -0.001752
# 4 -0.001109 -0.001462 0.004550 0.021874 -0.005638 -0.005729
# 5 -0.008730 -0.000289 0.003708 -0.005638 0.046817 0.006178
# 6 -0.005664 0.000930 -0.001752 -0.005729 0.006178 0.037786
#
#
# Mechanical properties :
#
#
# Convention : Reuss Voigt Hill
#
# Bulk Modulus (GPa) = 54.11205 62.13357 58.12281
# Shear Modulus (GPa) = 28.05845 34.63514 31.34680
#
# Velocity S-wave (km/s) = 3.54554 3.93921 3.74755
# Velocity P-wave (km/s) = 6.40349 6.96614 6.69073
#
# Compressibility (1/GPa) = 0.01848017
#
# Stress axis : x y z
#
# Youngs Moduli (GPa) = 68.16376 91.49892 60.89461
#
# Poissons Ratio (x) = 0.31614 0.20631
# Poissons Ratio (y) = 0.23552 0.30006
# Poissons Ratio (z) = 0.23093 0.45087
#
# Static dielectric constant tensor:
#      x y z
#    x 4.013240 0.078440 0.015110 
#    y 0.078440 4.328440 -0.101890 
#    z 0.015110 -0.101890 3.953070 
# 
# 
# High freq. dielectric constant tensor:
#      x y z
#    x 1.865340 0.008310 0.000230 
#    y 0.008310 1.898800 -0.008760 
#    z 0.000230 -0.008760 1.867160 
# 
# From -- ./inp_files/152835.got.cif
#   From: 2010.06.25/outbox.cif.g09.slc.cpg/sg2_77_cif.got.tgz:152835.got - 2010.06.27 13:26:56.
