data_PCOD8013400
_publ_section_title
;
Structure prediction by ZEFSAII (Michael W. Deem and Ramdas Pophale) SiO2 
 PCOD8013400
Probable space group: P -1
;
_chemical_formula_sum "Si O2"
_cell_formula_units_Z 16
_cell_length_a 9.154629
_cell_length_b 8.978789
_cell_length_c 15.290419
_cell_angle_alpha 84.238425
_cell_angle_beta 47.295708
_cell_angle_gamma 110.678253
_cell_volume 751.129119
_symmetry_space_group_name_H-M "P -1"
_symmetry_group_IT_number 2
_symmetry_cell_setting 'triclinic'
loop_
_space_group_symop_operation_xyz
x,y,z
-x,-y,-z
loop_
_atom_site_type_symbol
_atom_site_label
_atom_site_fract_x
_atom_site_fract_y
_atom_site_fract_z
Si Si1 0.638855 0.245230 0.640858
Si Si2 0.373512 0.088693 0.356008
Si Si3 0.003630 0.943937 0.359579
Si Si4 0.786127 0.792534 0.083160
Si Si5 0.955576 0.592229 0.400909
Si Si6 0.151428 0.506672 0.858389
Si Si7 0.740799 0.762347 0.898748
Si Si8 0.200587 0.547225 0.145862
O O1 0.462957 0.239677 0.784211
O O2 0.902690 0.325208 0.570061
O O3 0.702313 0.389864 0.528137
O O4 0.529379 0.039922 0.662663
O O5 0.197529 0.044925 0.511016
O O6 0.589476 0.300800 0.259080
O O7 0.243474 0.045339 0.317186
O O8 0.893733 0.734861 0.389953
O O9 0.069430 0.041262 0.232679
O O10 0.819838 0.658672 0.134878
O O11 0.781897 0.752203 0.985105
O O12 0.000000 0.000000 0.000000
O O13 0.139315 0.588985 0.261818
O O14 0.007072 0.481259 0.831070
O O15 0.000000 0.500000 0.000000
O O16 0.788303 0.626780 0.838471
O O17 0.470496 0.712633 0.995189
#
# Coordination Sequence:
#
# PCOD8013400 Si02
#       8
#     2   2   2   2   2   2   2   2
#     4  10  21  42  67  92 128 169 214 262 319 378
#     4  10  22  42  67  97 129 171 215 262 324 381
#     4  10  22  40  68  97 129 170 216 265 315 384
#     4  12  26  43  64  97 132 169 211 263 324 383
#     4  10  21  40  67  96 125 166 217 267 311 376
#     4  12  24  43  65  95 133 169 213 264 325 378
#     4  11  24  43  66  95 130 170 216 260 317 388
#     4  11  24  42  65  97 126 172 214 265 319 377
#
# _framework density 21.301264
#
# number of rings (size 3 to 8) (size 9 to 14) (size 15 to 20)
#    0.000    1.250    2.500    3.000    3.500    3.500 
#    2.250    2.500    0.000    0.000    0.000    0.000 
#    0.000    0.000    0.000    0.000    0.000    0.000 
#
# Total GULP energy -198399.966529 kJ/mol
# GULP energy per Si atom -12399.997908 kJ/mol
# Density = 2.125278 g / cm^3
# Si number density = 21.301264 Si / 1000 Ang^3
#
#
#
# Elastic Constant Matrix: (Units=GPa)
#
#
# Indices 1 2 3 4 5 6 
#
# 1 64.9141 23.4991 28.4673 -9.9344 -0.1296 -2.0155
# 2 23.4991 125.5690 49.8186 -5.6187 8.1125 -16.8487
# 3 28.4673 49.8186 124.6864 -7.7851 12.9631 -14.1114
# 4 -9.9344 -5.6187 -7.7851 48.4637 -3.0072 -2.4934
# 5 -0.1296 8.1125 12.9631 -3.0072 23.4464 -6.6463
# 6 -2.0155 -16.8487 -14.1114 -2.4934 -6.6463 26.6767
#
#
#
# Elastic Compliance Matrix: (Units=1/GPa)
#
#
# Indices 1 2 3 4 5 6 
#
# 1 0.018171 -0.002183 -0.003486 0.003051 0.002938 -0.000832
# 2 -0.002183 0.010232 -0.002981 0.000465 -0.000531 0.004631
# 3 -0.003486 -0.002981 0.010762 0.000544 -0.004141 0.002566
# 4 0.003051 0.000465 0.000544 0.021802 0.003399 0.003697
# 5 0.002938 -0.000531 -0.004141 0.003399 0.048434 0.010081
# 6 -0.000832 0.004631 0.002566 0.003697 0.010081 0.044562
#
#
# Mechanical properties :
#
#
# Convention : Reuss Voigt Hill
#
# Bulk Modulus (GPa) = 45.73488 57.63773 51.68631
# Shear Modulus (GPa) = 28.00347 33.94299 30.97323
#
# Velocity S-wave (km/s) = 3.62973 3.99616 3.81735
# Velocity P-wave (km/s) = 6.25169 6.95770 6.61412
#
# Compressibility (1/GPa) = 0.02186515
#
# Stress axis : x y z
#
# Youngs Moduli (GPa) = 55.03382 97.73673 92.91995
#
# Poissons Ratio (x) = 0.21331 0.32389
# Poissons Ratio (y) = 0.12011 0.27702
# Poissons Ratio (z) = 0.19183 0.29138
#
# Static dielectric constant tensor:
#      x y z
#    x 3.523550 -0.143400 0.025200 
#    y -0.143400 3.916650 0.061950 
#    z 0.025200 0.061950 3.777400 
# 
# 
# High freq. dielectric constant tensor:
#      x y z
#    x 1.813050 -0.012990 -0.000570 
#    y -0.012990 1.848430 -0.000140 
#    z -0.000570 -0.000140 1.848340 
# 
# From -- ./inp_files/206870.got.cif
#   From: 2010.06.25/outbox.cif.g09.slc.cpg/sg2_104_cif.got.tgz:206870.got - 2010.06.27 13:26:56.
