data_PCOD8013663
_publ_section_title
;
Structure prediction by ZEFSAII (Michael W. Deem and Ramdas Pophale) SiO2 
 PCOD8013663
Probable space group: P -1
;
_chemical_formula_sum "Si O2"
_cell_formula_units_Z 16
_cell_length_a 8.097138
_cell_length_b 11.752480
_cell_length_c 9.477409
_cell_angle_alpha 80.992501
_cell_angle_beta 91.249626
_cell_angle_gamma 129.316178
_cell_volume 685.604355
_symmetry_space_group_name_H-M "P -1"
_symmetry_group_IT_number 2
_symmetry_cell_setting 'triclinic'
loop_
_space_group_symop_operation_xyz
x,y,z
-x,-y,-z
loop_
_atom_site_type_symbol
_atom_site_label
_atom_site_fract_x
_atom_site_fract_y
_atom_site_fract_z
Si Si1 0.485659 0.233177 0.820395
Si Si2 0.853509 0.122554 0.453189
Si Si3 0.430724 0.799031 0.471664
Si Si4 0.812543 0.724039 0.801934
Si Si5 0.802977 0.952307 0.916687
Si Si6 0.209476 0.517186 0.009167
Si Si7 0.107657 0.225868 0.705197
Si Si8 0.616425 0.437450 0.292403
O O1 0.591583 0.210723 0.697456
O O2 0.661013 0.392149 0.865339
O O3 0.291436 0.219370 0.753380
O O4 0.393791 0.108573 0.967561
O O5 0.754310 0.202243 0.470928
O O6 0.956950 0.171047 0.290459
O O7 0.049363 0.179468 0.549897
O O8 0.667447 0.944744 0.493569
O O9 0.389125 0.655573 0.562990
O O10 0.748065 0.821516 0.838202
O O11 0.833907 0.639885 0.945185
O O12 0.615699 0.602948 0.716036
O O13 0.879990 0.101131 0.806372
O O14 0.000000 0.000000 0.000000
O O15 0.338203 0.598740 0.852476
O O16 0.000000 0.500000 0.000000
O O17 0.189194 0.390532 0.701278
#
# Coordination Sequence:
#
# PCOD8013663 Si02
#       8
#     2   2   2   2   2   2   2   2
#     4  11  23  45  70 104 135 181 231 287 333 417
#     4  11  26  46  69 102 141 186 227 281 349 411
#     4  11  27  47  69 101 146 180 228 282 350 414
#     4  12  23  45  72  99 136 185 233 281 337 406
#     4  10  21  40  70  99 133 172 231 284 333 395
#     4  12  26  43  69 107 144 181 224 285 355 408
#     4  11  24  42  72 104 134 179 236 285 339 403
#     4  12  25  44  73 103 137 184 230 289 337 411
#
# _framework density 23.337076
#
# number of rings (size 3 to 8) (size 9 to 14) (size 15 to 20)
#    0.000    0.750    2.500    5.625    3.500    3.000 
#    0.000    0.625    0.000    0.000    0.000    0.000 
#    0.000    0.000    0.000    0.000    0.000    0.000 
#
# Total GULP energy -198374.829227 kJ/mol
# GULP energy per Si atom -12398.426827 kJ/mol
# Density = 2.328396 g / cm^3
# Si number density = 23.337076 Si / 1000 Ang^3
#
#
#
# Elastic Constant Matrix: (Units=GPa)
#
#
# Indices 1 2 3 4 5 6 
#
# 1 70.1803 32.4799 29.3940 -14.3233 -10.8513 10.2854
# 2 32.4799 132.8096 43.4543 -13.1297 -0.3304 -0.2470
# 3 29.3940 43.4543 117.8525 -8.7835 -20.2912 4.3872
# 4 -14.3233 -13.1297 -8.7835 49.8938 6.0878 4.8404
# 5 -10.8513 -0.3304 -20.2912 6.0878 37.4332 2.4326
# 6 10.2854 -0.2470 4.3872 4.8404 2.4326 28.3497
#
#
#
# Elastic Compliance Matrix: (Units=1/GPa)
#
#
# Indices 1 2 3 4 5 6 
#
# 1 0.019590 -0.003632 -0.002183 0.004536 0.004242 -0.007939
# 2 -0.003632 0.009541 -0.003113 0.001092 -0.002960 0.001950
# 3 -0.002183 -0.003113 0.011176 -0.000009 0.005492 -0.001434
# 4 0.004536 0.001092 -0.000009 0.022385 -0.001977 -0.005287
# 5 0.004242 -0.002960 0.005492 -0.001977 0.031527 -0.004782
# 6 -0.007939 0.001950 -0.001434 -0.005287 -0.004782 0.039706
#
#
# Mechanical properties :
#
#
# Convention : Reuss Voigt Hill
#
# Bulk Modulus (GPa) = 44.54299 59.05544 51.79921
# Shear Modulus (GPa) = 31.39460 37.50294 34.44877
#
# Velocity S-wave (km/s) = 3.67177 4.01310 3.84622
# Velocity P-wave (km/s) = 6.09131 6.84351 6.47834
#
# Compressibility (1/GPa) = 0.02245022
#
# Stress axis : x y z
#
# Youngs Moduli (GPa) = 51.04772 104.81525 89.48028
#
# Poissons Ratio (x) = 0.38073 0.19530
# Poissons Ratio (y) = 0.18543 0.27853
# Poissons Ratio (z) = 0.11142 0.32626
#
# Static dielectric constant tensor:
#      x y z
#    x 3.908820 0.260420 -0.150210 
#    y 0.260420 4.541970 -0.431890 
#    z -0.150210 -0.431890 4.749600 
# 
# 
# High freq. dielectric constant tensor:
#      x y z
#    x 1.899800 0.019010 -0.002400 
#    y 0.019010 1.933640 -0.004820 
#    z -0.002400 -0.004820 1.934400 
# 
# From -- ./inp_files/187721.got.cif
#   From: 2010.06.25/outbox.cif.g09.slc.cpg/sg2_94_cif.got.tgz:187721.got - 2010.06.27 13:26:56.
