data_PCOD8013250
_publ_section_title
;
Structure prediction by ZEFSAII (Michael W. Deem and Ramdas Pophale) SiO2 
 PCOD8013250
Probable space group: P -1
;
_chemical_formula_sum "Si O2"
_cell_formula_units_Z 16
_cell_length_a 8.755657
_cell_length_b 8.984503
_cell_length_c 26.509950
_cell_angle_alpha 38.921779
_cell_angle_beta 39.284279
_cell_angle_gamma 66.625899
_cell_volume 710.353624
_symmetry_space_group_name_H-M "P -1"
_symmetry_group_IT_number 2
_symmetry_cell_setting 'triclinic'
loop_
_space_group_symop_operation_xyz
x,y,z
-x,-y,-z
loop_
_atom_site_type_symbol
_atom_site_label
_atom_site_fract_x
_atom_site_fract_y
_atom_site_fract_z
Si Si1 0.267130 0.190169 0.130488
Si Si2 0.930509 0.242644 0.491802
Si Si3 0.803797 0.096914 0.456012
Si Si4 0.554531 0.174054 0.214550
Si Si5 0.338518 0.800757 0.277567
Si Si6 0.850521 0.235736 0.296437
Si Si7 0.099440 0.188396 0.875947
Si Si8 0.857591 0.787482 0.956299
O O1 0.205859 0.134500 0.101947
O O2 0.995472 0.127728 0.249102
O O3 0.387454 0.993933 0.165918
O O4 0.500000 0.500000 0.000000
O O5 0.944625 0.312392 0.410023
O O6 0.029704 0.523775 0.423745
O O7 0.608141 0.990558 0.650059
O O8 0.151224 0.153924 0.475311
O O9 0.951873 0.242159 0.326799
O O10 0.476515 0.990252 0.564043
O O11 0.852958 0.206078 0.123795
O O12 0.338780 0.978515 0.277950
O O13 0.605087 0.482577 0.118493
O O14 0.579709 0.724572 0.240569
O O15 0.920170 0.540543 0.182241
O O16 0.894323 0.013309 0.928295
O O17 0.000000 0.000000 0.000000
#
# Coordination Sequence:
#
# PCOD8013250 Si02
#       8
#     2   2   2   2   2   2   2   2
#     4  12  24  44  68  99 134 175 222 283 332 388
#     4  11  22  41  67  99 129 174 226 273 333 391
#     4  10  24  41  67  93 135 178 213 274 337 400
#     4  10  21  40  66  93 132 177 218 272 330 400
#     4  11  23  42  65  99 133 169 227 274 334 392
#     4  11  24  46  66  96 137 175 220 270 340 392
#     4  11  25  44  69  95 134 178 220 275 329 401
#     4  10  24  41  67  97 133 176 228 262 338 403
#
# _framework density 22.523993000000001
#
# number of rings (size 3 to 8) (size 9 to 14) (size 15 to 20)
#    0.000    1.250    2.500    2.625    7.000    0.000 
#    2.250    2.500    0.000    0.000    0.000    0.000 
#    0.000    0.000    0.000    0.000    0.000    0.000 
#
# Total GULP energy -198362.905390 kJ/mol
# GULP energy per Si atom -12397.681587 kJ/mol
# Density = 2.247273 g / cm^3
# Si number density = 22.523993 Si / 1000 Ang^3
#
#
#
# Elastic Constant Matrix: (Units=GPa)
#
#
# Indices 1 2 3 4 5 6 
#
# 1 124.2633 27.1420 22.1599 -10.3021 19.3332 25.7691
# 2 27.1420 51.0157 3.6545 -9.1323 -8.9481 13.8886
# 3 22.1599 3.6545 82.0241 -4.4667 -4.4855 10.4236
# 4 -10.3021 -9.1323 -4.4667 34.8802 4.7020 2.1685
# 5 19.3332 -8.9481 -4.4855 4.7020 33.0259 2.3899
# 6 25.7691 13.8886 10.4236 2.1685 2.3899 28.9201
#
#
#
# Elastic Compliance Matrix: (Units=1/GPa)
#
#
# Indices 1 2 3 4 5 6 
#
# 1 0.013144 -0.005779 -0.002665 0.003789 -0.009621 -0.007465
# 2 -0.005779 0.028345 0.002569 0.005166 0.011452 -0.010723
# 3 -0.002665 0.002569 0.013637 0.001325 0.004225 -0.004223
# 4 0.003789 0.005166 0.001325 0.032459 -0.004653 -0.008384
# 5 -0.009621 0.011452 0.004225 -0.004653 0.040355 -0.001435
# 6 -0.007465 -0.010723 -0.004223 -0.008384 -0.001435 0.048648
#
#
# Mechanical properties :
#
#
# Convention : Reuss Voigt Hill
#
# Bulk Modulus (GPa) = 23.05448 40.35733 31.70590
# Shear Modulus (GPa) = 24.65511 32.98835 28.82173
#
# Velocity S-wave (km/s) = 3.31209 3.83114 3.58103
# Velocity P-wave (km/s) = 4.98842 6.12590 5.58618
#
# Compressibility (1/GPa) = 0.04337552
#
# Stress axis : x y z
#
# Youngs Moduli (GPa) = 76.07988 35.27933 73.33095
#
# Poissons Ratio (x) = 0.20389 0.19541
# Poissons Ratio (y) = 0.43968 -0.18836
# Poissons Ratio (z) = 0.20273 -0.09062
#
# Static dielectric constant tensor:
#      x y z
#    x 4.984150 0.603070 0.268140 
#    y 0.603070 4.342980 0.154700 
#    z 0.268140 0.154700 4.111170 
# 
# 
# High freq. dielectric constant tensor:
#      x y z
#    x 1.898890 0.011610 -0.000830 
#    y 0.011610 1.876580 -0.000570 
#    z -0.000830 -0.000570 1.887850 
# 
# From -- ./inp_files/224057.got.cif
#   From: 2010.06.25/outbox.cif.g09.slc.cpg/sg2_113_cif.got.tgz:224057.got - 2010.06.27 13:26:56.
