data_PCOD8013880
_publ_section_title
;
Structure prediction by ZEFSAII (Michael W. Deem and Ramdas Pophale) SiO2 
 PCOD8013880
Probable space group: P -1
;
_chemical_formula_sum "Si O2"
_cell_formula_units_Z 12
_cell_length_a 5.066614
_cell_length_b 25.851768
_cell_length_c 20.318841
_cell_angle_alpha 12.108670
_cell_angle_beta 51.436408
_cell_angle_gamma 53.987784
_cell_volume 432.733404
_symmetry_space_group_name_H-M "P -1"
_symmetry_group_IT_number 2
_symmetry_cell_setting 'triclinic'
loop_
_space_group_symop_operation_xyz
x,y,z
-x,-y,-z
loop_
_atom_site_type_symbol
_atom_site_label
_atom_site_fract_x
_atom_site_fract_y
_atom_site_fract_z
Si Si1 0.266485 0.897244 0.723364
Si Si2 0.722750 0.175873 0.408616
Si Si3 0.733244 0.397238 0.723370
Si Si4 0.178935 0.675865 0.408626
Si Si5 0.337524 0.515987 0.841487
Si Si6 0.640887 0.984012 0.158513
O O1 0.500000 0.000000 0.500000
O O2 0.388765 0.047659 0.583417
O O3 0.322066 0.606976 0.079294
O O4 0.883622 0.951139 0.700555
O O5 0.620763 0.387541 0.209794
O O6 0.996466 0.316769 0.137754
O O7 0.408207 0.547655 0.583422
O O8 0.000000 0.500000 0.500000
O O9 0.906787 0.451129 0.700566
O O10 0.639619 0.106972 0.079298
O O11 0.005019 0.887530 0.209808
O O12 0.414136 0.816765 0.137761
O O13 0.339500 0.750004 0.499995
#
# Coordination Sequence:
#
# PCOD8013880 Si02
#       6
#     2   2   2   2   2   2
#     4  10  21  41  63  86 122 161 194 244 305 354
#     4  10  23  42  61  87 124 159 197 247 300 355
#     4  10  21  41  63  86 122 161 194 244 305 354
#     4  10  23  42  61  87 124 159 197 247 300 355
#     4  10  22  39  63  91 119 158 204 247 296 355
#     4  10  22  39  63  91 119 158 204 247 296 355
#
# _framework density 27.730701
#
# number of rings (size 3 to 8) (size 9 to 14) (size 15 to 20)
#    0.000    2.000    0.000    4.000    0.000   17.333 
#    0.000   23.333    0.000    0.000    0.000    0.000 
#    0.000    0.000    0.000    0.000    0.000    0.000 
#
# Total GULP energy -148752.315537 kJ/mol
# GULP energy per Si atom -12396.026295 kJ/mol
# Density = 2.766758 g / cm^3
# Si number density = 27.730701 Si / 1000 Ang^3
#
#
#
# Elastic Constant Matrix: (Units=GPa)
#
#
# Indices 1 2 3 4 5 6 
#
# 1 97.4302 9.9574 5.7679 -7.7537 3.5040 0.7281
# 2 9.9574 94.2074 10.0443 -23.3938 -0.1406 2.2046
# 3 5.7679 10.0443 149.1782 -0.4084 -7.3157 -0.9547
# 4 -7.7537 -23.3938 -0.4084 40.1962 -0.3644 -1.0506
# 5 3.5040 -0.1406 -7.3157 -0.3644 13.4110 -8.8345
# 6 0.7281 2.2046 -0.9547 -1.0506 -8.8345 25.8324
#
#
#
# Elastic Compliance Matrix: (Units=1/GPa)
#
#
# Indices 1 2 3 4 5 6 
#
# 1 0.010650 -0.000635 -0.000577 0.001599 -0.004123 -0.001612
# 2 -0.000635 0.012570 -0.000840 0.007153 -0.000632 -0.001011
# 3 -0.000577 -0.000840 0.007061 -0.000422 0.005422 0.002186
# 4 0.001599 0.007153 -0.000422 0.029372 0.000736 0.000775
# 5 -0.004123 -0.000632 0.005422 0.000736 0.101815 0.035220
# 6 -0.001612 -0.001011 0.002186 0.000775 0.035220 0.051000
#
#
# Mechanical properties :
#
#
# Convention : Reuss Voigt Hill
#
# Bulk Modulus (GPa) = 38.20106 43.59498 40.89802
# Shear Modulus (GPa) = 22.19271 36.89102 29.54187
#
# Velocity S-wave (km/s) = 2.83202 3.65133 3.26745
# Velocity P-wave (km/s) = 4.94969 5.79062 5.38659
#
# Compressibility (1/GPa) = 0.02617729
#
# Stress axis : x y z
#
# Youngs Moduli (GPa) = 93.89275 79.55173 141.62304
#
# Poissons Ratio (x) = 0.05055 0.08173
# Poissons Ratio (y) = 0.05967 0.11892
# Poissons Ratio (z) = 0.05419 0.06680
#
# Static dielectric constant tensor:
#      x y z
#    x 5.095940 0.051160 -0.086840 
#    y 0.051160 5.558980 -0.652290 
#    z -0.086840 -0.652290 6.251200 
# 
# 
# High freq. dielectric constant tensor:
#      x y z
#    x 2.068710 0.001780 -0.004400 
#    y 0.001780 2.143460 -0.000630 
#    z -0.004400 -0.000630 2.139380 
# 
# From -- ./inp_files/484568.got.cif
#   From: 2010.06.25/outbox.cif.g09.slc.cpg/sg2_243_cif.got.tgz:484568.got - 2010.06.27 13:26:56.
