data_PCOD8013758
_publ_section_title
;
Structure prediction by ZEFSAII (Michael W. Deem and Ramdas Pophale) SiO2 
 PCOD8013758
Probable space group: P -1
;
_chemical_formula_sum "Si O2"
_cell_formula_units_Z 16
_cell_length_a 7.913350
_cell_length_b 19.511469
_cell_length_c 16.983244
_cell_angle_alpha 158.743610
_cell_angle_beta 107.393189
_cell_angle_gamma 62.406552
_cell_volume 767.257613
_symmetry_space_group_name_H-M "P -1"
_symmetry_group_IT_number 2
_symmetry_cell_setting 'triclinic'
loop_
_space_group_symop_operation_xyz
x,y,z
-x,-y,-z
loop_
_atom_site_type_symbol
_atom_site_label
_atom_site_fract_x
_atom_site_fract_y
_atom_site_fract_z
Si Si1 0.135984 0.309491 0.418219
Si Si2 0.061787 0.175966 0.676650
Si Si3 0.872461 0.811712 0.880468
Si Si4 0.373098 0.957906 0.613665
Si Si5 0.392229 0.525973 0.095434
Si Si6 0.994009 0.087441 0.280721
Si Si7 0.598556 0.124870 0.298407
Si Si8 0.304202 0.962671 0.325493
O O1 0.954642 0.558723 0.641918
O O2 0.068582 0.234197 0.405597
O O3 0.350886 0.304089 0.456682
O O4 0.160808 0.152500 0.179687
O O5 0.846921 0.416890 0.890623
O O6 0.193338 0.168215 0.763062
O O7 0.213232 0.092606 0.533473
O O8 0.000000 0.000000 0.500000
O O9 0.031382 0.885485 0.011986
O O10 0.652445 0.956864 0.052279
O O11 0.380544 0.727452 0.357371
O O12 0.334375 0.019784 0.766517
O O13 0.595407 0.915447 0.573323
O O14 0.500000 0.500000 0.000000
O O15 0.523151 0.298463 0.918318
O O16 0.743611 0.232199 0.423346
O O17 0.120636 0.984003 0.268328
#
# Coordination Sequence:
#
# PCOD8013758 Si02
#       8
#     2   2   2   2   2   2   2   2
#     4  11  20  48  64  95 130 165 206 268 315 376
#     4  10  21  41  61  87 125 159 213 259 302 374
#     4   9  24  41  70  94 127 165 214 254 320 388
#     4  11  23  43  62  91 129 162 212 264 308 374
#     4  11  24  40  66  87 120 174 207 260 318 360
#     4  10  23  40  65  96 130 164 210 261 311 378
#     4  10  23  42  63  97 129 166 206 267 310 374
#     4  12  23  43  61  92 128 167 209 258 318 369
#
# _framework density 20.853489
#
# number of rings (size 3 to 8) (size 9 to 14) (size 15 to 20)
#    0.750    0.750    3.750    2.625    1.750    0.500 
#    6.750    1.250    0.000    0.000    0.000    0.000 
#    0.000    0.000    0.000    0.000    0.000    0.000 
#
# Total GULP energy -198289.724359 kJ/mol
# GULP energy per Si atom -12393.107772 kJ/mol
# Density = 2.080603 g / cm^3
# Si number density = 20.853489 Si / 1000 Ang^3
#
#
#
# Elastic Constant Matrix: (Units=GPa)
#
#
# Indices 1 2 3 4 5 6 
#
# 1 97.3164 14.1729 6.0019 3.0944 -25.4622 5.0648
# 2 14.1729 84.9875 -0.9338 1.3809 -7.6422 4.9384
# 3 6.0019 -0.9338 35.6006 11.6321 -12.7699 8.4909
# 4 3.0944 1.3809 11.6321 26.2324 -1.6824 -3.9986
# 5 -25.4622 -7.6422 -12.7699 -1.6824 26.0736 -4.6824
# 6 5.0648 4.9384 8.4909 -3.9986 -4.6824 37.6773
#
#
#
# Elastic Compliance Matrix: (Units=1/GPa)
#
#
# Indices 1 2 3 4 5 6 
#
# 1 0.014324 -0.000842 0.004267 -0.002721 0.015450 -0.001146
# 2 -0.000842 0.012418 0.002887 -0.001882 0.003770 -0.001896
# 3 0.004267 0.002887 0.045332 -0.020801 0.024007 -0.010392
# 4 -0.002721 -0.001882 -0.020801 0.048647 -0.008570 0.009398
# 5 0.015450 0.003770 0.024007 -0.008570 0.065618 -0.000736
# 6 -0.001146 -0.001896 -0.010392 0.009398 -0.000736 0.030192
#
#
# Mechanical properties :
#
#
# Convention : Reuss Voigt Hill
#
# Bulk Modulus (GPa) = 11.80652 28.48739 20.14696
# Shear Modulus (GPa) = 21.53885 31.24090 26.38988
#
# Velocity S-wave (km/s) = 3.21731 3.87475 3.56123
# Velocity P-wave (km/s) = 4.41309 5.80591 5.15674
#
# Compressibility (1/GPa) = 0.08469893
#
# Stress axis : x y z
#
# Youngs Moduli (GPa) = 69.81472 80.52638 22.05948
#
# Poissons Ratio (x) = 0.06778 -0.09413
# Poissons Ratio (y) = 0.05877 -0.06369
# Poissons Ratio (z) = -0.29792 -0.23248
#
# Static dielectric constant tensor:
#      x y z
#    x 3.923400 -0.178610 -0.307780 
#    y -0.178610 4.054520 -0.227960 
#    z -0.307780 -0.227960 4.010920 
# 
# 
# High freq. dielectric constant tensor:
#      x y z
#    x 1.824380 -0.003350 -0.013470 
#    y -0.003350 1.828110 -0.011600 
#    z -0.013470 -0.011600 1.785070 
# 
# From -- ./inp_files/507103.got.cif
#   From: 2010.06.25/outbox.cif.g09.slc.cpg/sg2_254_cif.got.tgz:507103.got - 2010.06.27 13:26:56.
