data_PCOD8013943
_publ_section_title
;
Structure prediction by ZEFSAII (Michael W. Deem and Ramdas Pophale) SiO2 
 PCOD8013943
Probable space group: P -1
;
_chemical_formula_sum "Si O2"
_cell_formula_units_Z 16
_cell_length_a 5.540365
_cell_length_b 12.519367
_cell_length_c 14.858949
_cell_angle_alpha 43.701683
_cell_angle_beta 99.796572
_cell_angle_gamma 114.174776
_cell_volume 636.533790
_symmetry_space_group_name_H-M "P -1"
_symmetry_group_IT_number 2
_symmetry_cell_setting 'triclinic'
loop_
_space_group_symop_operation_xyz
x,y,z
-x,-y,-z
loop_
_atom_site_type_symbol
_atom_site_label
_atom_site_fract_x
_atom_site_fract_y
_atom_site_fract_z
Si Si1 0.016658 0.035106 0.817263
Si Si2 0.005726 0.993930 0.366434
Si Si3 0.447188 0.716854 0.498019
Si Si4 0.665539 0.461530 0.733774
Si Si5 0.362650 0.330672 0.966214
Si Si6 0.659321 0.213821 0.743416
Si Si7 0.504092 0.696503 0.817329
Si Si8 0.164446 0.757495 0.626163
O O1 0.943058 0.070208 0.689459
O O2 0.837378 0.102763 0.827874
O O3 0.338079 0.116397 0.805537
O O4 0.925090 0.832644 0.950037
O O5 0.125890 0.926906 0.497763
O O6 0.682397 0.910998 0.405279
O O7 0.172376 0.201772 0.250102
O O8 0.543271 0.564189 0.600519
O O9 0.297570 0.699418 0.404478
O O10 0.252320 0.687390 0.586682
O O11 0.469292 0.327851 0.874778
O O12 0.782321 0.360306 0.737092
O O13 0.885011 0.599392 0.728628
O O14 0.352476 0.510957 0.875596
O O15 0.541670 0.310046 0.073874
O O16 0.359129 0.805406 0.696068
#
# Coordination Sequence:
#
# PCOD8013943 Si02
#       8
#     2   2   2   2   2   2   2   2
#     4  10  23  43  68  98 133 173 220 272 322 390
#     4   9  20  40  62  98 130 165 215 266 328 394
#     4  10  21  41  63  95 135 163 208 275 323 394
#     4  11  25  40  63  96 129 170 217 269 323 397
#     4  10  23  44  62  93 130 168 223 271 322 390
#     4  11  24  43  71  98 131 176 217 270 336 383
#     4  10  21  41  67  88 129 172 216 270 332 385
#     4  11  21  38  65  94 129 165 216 269 327 390
#
# _framework density 25.136137999999999
#
# number of rings (size 3 to 8) (size 9 to 14) (size 15 to 20)
#    0.000    1.750    2.500    0.750    1.750    3.500 
#    2.250    2.500    0.000    0.000    0.000    0.000 
#    0.000    0.000    0.000    0.000    0.000    0.000 
#
# Total GULP energy -198214.700810 kJ/mol
# GULP energy per Si atom -12388.418801 kJ/mol
# Density = 2.507893 g / cm^3
# Si number density = 25.136138 Si / 1000 Ang^3
#
#
#
# Elastic Constant Matrix: (Units=GPa)
#
#
# Indices 1 2 3 4 5 6 
#
# 1 71.2977 16.5842 9.2331 -8.1640 -3.8994 -6.8842
# 2 16.5842 89.1257 26.5046 -9.8724 3.9166 -16.1220
# 3 9.2331 26.5046 104.4000 -5.7641 -12.3687 11.3745
# 4 -8.1640 -9.8724 -5.7641 34.7528 1.2277 1.9597
# 5 -3.8994 3.9166 -12.3687 1.2277 13.5018 -0.8008
# 6 -6.8842 -16.1220 11.3745 1.9597 -0.8008 26.0550
#
#
#
# Elastic Compliance Matrix: (Units=1/GPa)
#
#
# Indices 1 2 3 4 5 6 
#
# 1 0.015408 -0.002119 -0.000453 0.002617 0.004583 0.002902
# 2 -0.002119 0.016457 -0.006409 0.002826 -0.010810 0.011876
# 3 -0.000453 -0.006409 0.013987 0.000454 0.013919 -0.009798
# 4 0.002617 0.002826 0.000454 0.030359 -0.002416 -0.000115
# 5 0.004583 -0.010810 0.013919 -0.002416 0.090986 -0.008576
# 6 0.002902 0.011876 -0.009798 -0.000115 -0.008576 0.050518
#
#
# Mechanical properties :
#
#
# Convention : Reuss Voigt Hill
#
# Bulk Modulus (GPa) = 35.85610 41.05190 38.45400
# Shear Modulus (GPa) = 20.41028 29.02868 24.71948
#
# Velocity S-wave (km/s) = 2.85263 3.40201 3.13936
# Velocity P-wave (km/s) = 5.01455 5.63904 5.33594
#
# Compressibility (1/GPa) = 0.02788925
#
# Stress axis : x y z
#
# Youngs Moduli (GPa) = 64.90229 60.76541 71.49274
#
# Poissons Ratio (x) = 0.12875 0.03242
# Poissons Ratio (y) = 0.13751 0.45821
# Poissons Ratio (z) = 0.02943 0.38945
#
# Static dielectric constant tensor:
#      x y z
#    x 4.203130 0.096670 -0.182640 
#    y 0.096670 4.321460 0.044170 
#    z -0.182640 0.044170 4.755630 
# 
# 
# High freq. dielectric constant tensor:
#      x y z
#    x 1.970880 0.007080 -0.014250 
#    y 0.007080 2.005080 0.001780 
#    z -0.014250 0.001780 2.015790 
# 
# From -- ./inp_files/77918.got.cif
#   From: 2010.06.25/outbox.cif.g09.slc.cpg/sg2_39_cif.got.tgz:77918.got - 2010.06.27 13:26:56.
