data_PCOD8013283
_publ_section_title
;
Structure prediction by ZEFSAII (Michael W. Deem and Ramdas Pophale) SiO2 
 PCOD8013283
Probable space group: P -1
;
_chemical_formula_sum "Si O2"
_cell_formula_units_Z 16
_cell_length_a 21.724096
_cell_length_b 12.581836
_cell_length_c 18.387031
_cell_angle_alpha 151.564501
_cell_angle_beta 160.303886
_cell_angle_gamma 29.819237
_cell_volume 781.486896
_symmetry_space_group_name_H-M "P -1"
_symmetry_group_IT_number 2
_symmetry_cell_setting 'triclinic'
loop_
_space_group_symop_operation_xyz
x,y,z
-x,-y,-z
loop_
_atom_site_type_symbol
_atom_site_label
_atom_site_fract_x
_atom_site_fract_y
_atom_site_fract_z
Si Si1 0.008992 0.549039 0.123095
Si Si2 0.674639 0.587378 0.876954
Si Si3 0.240544 0.079113 0.122467
Si Si4 0.851349 0.644781 0.260240
Si Si5 0.020833 0.878985 0.873005
Si Si6 0.517235 0.998509 0.174131
Si Si7 0.123680 0.961020 0.764784
Si Si8 0.382753 0.890739 0.491203
O O1 0.182521 0.359202 0.236561
O O2 0.014180 0.817578 0.296386
O O3 0.000000 0.500000 0.000000
O O4 0.818675 0.516009 0.927800
O O5 0.512702 0.812047 0.809628
O O6 0.591426 0.367438 0.666139
O O7 0.781213 0.644052 0.099999
O O8 0.466547 0.001235 0.319285
O O9 0.138084 0.007561 0.894687
O O10 0.181508 0.959824 0.055746
O O11 0.916173 0.392966 0.214148
O O12 0.034324 0.746952 0.525059
O O13 0.685742 0.784872 0.211494
O O14 0.823354 0.947522 0.652770
O O15 0.000000 0.000000 0.000000
O O16 0.571374 0.120539 0.379317
O O17 0.329589 0.908012 0.924593
#
# Coordination Sequence:
#
# PCOD8013283 Si02
#       8
#     2   2   2   2   2   2   2   2
#     4   9  18  36  64  94 127 164 211 262 314 379
#     4  11  22  43  63 100 135 164 216 267 324 384
#     4  10  21  40  66  96 124 171 222 263 313 376
#     4  12  25  42  66  92 136 179 201 269 327 380
#     4  12  25  46  62  93 134 173 222 256 318 393
#     4  10  24  41  66  99 129 163 217 267 326 382
#     4   9  22  40  62  97 131 165 213 264 325 383
#     4  11  23  42  69  95 125 173 218 270 310 381
#
# _framework density 20.473790999999999
#
# number of rings (size 3 to 8) (size 9 to 14) (size 15 to 20)
#    0.000    1.500    2.500    2.250    3.500    5.500 
#    4.500    2.500    0.000    0.000    0.000    0.000 
#    0.000    0.000    0.000    0.000    0.000    0.000 
#
# Total GULP energy -198399.614904 kJ/mol
# GULP energy per Si atom -12399.975932 kJ/mol
# Density = 2.042719 g / cm^3
# Si number density = 20.473791 Si / 1000 Ang^3
#
#
#
# Elastic Constant Matrix: (Units=GPa)
#
#
# Indices 1 2 3 4 5 6 
#
# 1 88.0715 29.2705 58.0786 7.3161 10.3135 8.4348
# 2 29.2705 117.6340 35.2220 6.0267 9.5319 2.5410
# 3 58.0786 35.2220 101.2016 3.1347 1.0171 -4.3326
# 4 7.3161 6.0267 3.1347 26.1615 -2.4534 -0.3454
# 5 10.3135 9.5319 1.0171 -2.4534 26.1928 -1.2795
# 6 8.4348 2.5410 -4.3326 -0.3454 -1.2795 31.3770
#
#
#
# Elastic Compliance Matrix: (Units=1/GPa)
#
#
# Indices 1 2 3 4 5 6 
#
# 1 0.022107 -0.000556 -0.012579 -0.005490 -0.008922 -0.008059
# 2 -0.000556 0.009995 -0.003112 -0.002124 -0.003558 -0.001258
# 3 -0.012579 -0.003112 0.018316 0.002682 0.005940 0.006434
# 4 -0.005490 -0.002124 0.002682 0.040598 0.006767 0.002741
# 5 -0.008922 -0.003558 0.005940 0.006767 0.043651 0.005361
# 6 -0.008059 -0.001258 0.006434 0.002741 0.005361 0.035276
#
#
# Mechanical properties :
#
#
# Convention : Reuss Voigt Hill
#
# Bulk Modulus (GPa) = 55.78923 61.33882 58.56402
# Shear Modulus (GPa) = 23.99097 29.03533 26.51315
#
# Velocity S-wave (km/s) = 3.42685 3.76995 3.60249
# Velocity P-wave (km/s) = 6.55485 6.99819 6.78015
#
# Compressibility (1/GPa) = 0.01792461
#
# Stress axis : x y z
#
# Youngs Moduli (GPa) = 45.23492 100.04566 54.59784
#
# Poissons Ratio (x) = 0.05565 0.68676
# Poissons Ratio (y) = 0.02516 0.16990
# Poissons Ratio (z) = 0.56899 0.31133
#
# Static dielectric constant tensor:
#      x y z
#    x 3.708660 0.067350 0.064060 
#    y 0.067350 3.842690 0.008070 
#    z 0.064060 0.008070 3.586620 
# 
# 
# High freq. dielectric constant tensor:
#      x y z
#    x 1.806070 -0.001180 0.009040 
#    y -0.001180 1.802890 -0.001810 
#    z 0.009040 -0.001810 1.791420 
# 
# From -- ./inp_files/273862.got.cif
#   From: 2010.06.25/outbox.cif.g09.slc.cpg/sg2_137_cif.got.tgz:273862.got - 2010.06.27 13:26:56.
