data_PCOD8013506
_publ_section_title
;
Structure prediction by ZEFSAII (Michael W. Deem and Ramdas Pophale) SiO2 
 PCOD8013506
Probable space group: P -1
;
_chemical_formula_sum "Si O2"
_cell_formula_units_Z 14
_cell_length_a 9.730233
_cell_length_b 9.138562
_cell_length_c 8.326385
_cell_angle_alpha 110.389728
_cell_angle_beta 114.351705
_cell_angle_gamma 92.666828
_cell_volume 616.372072
_symmetry_space_group_name_H-M "P -1"
_symmetry_group_IT_number 2
_symmetry_cell_setting 'triclinic'
loop_
_space_group_symop_operation_xyz
x,y,z
-x,-y,-z
loop_
_atom_site_type_symbol
_atom_site_label
_atom_site_fract_x
_atom_site_fract_y
_atom_site_fract_z
Si Si1 0.932231 0.598084 0.684451
Si Si2 0.509681 0.609172 0.800300
Si Si3 0.962585 0.958202 0.784665
Si Si4 0.328863 0.959303 0.476604
Si Si5 0.344045 0.611914 0.391133
Si Si6 0.757597 0.842517 0.207190
Si Si7 0.202984 0.473493 0.737874
O O1 0.968745 0.775599 0.704110
O O2 0.794987 0.547966 0.727920
O O3 0.858085 0.493819 0.455683
O O4 0.085914 0.551511 0.818353
O O5 0.452664 0.654551 0.616515
O O6 0.562118 0.439651 0.734477
O O7 0.380178 0.573156 0.864878
O O8 0.641629 0.757272 0.980506
O O9 0.791156 0.981169 0.674321
O O10 0.086437 0.057925 0.759931
O O11 0.000000 0.000000 0.000000
O O12 0.322972 0.041021 0.679996
O O13 0.500000 0.000000 0.500000
O O14 0.275913 0.767044 0.384779
O O15 0.808377 0.710820 0.294413
#
# Coordination Sequence:
#
# PCOD8013506 Si02
#       7
#     2   2   2   2   2   2   2
#     4  10  22  41  68  94 132 180 230 276 340 413
#     4  10  23  41  71 102 135 183 235 288 339 420
#     4  12  28  46  69 104 145 184 230 291 350 414
#     4  12  28  46  72 106 145 180 233 294 352 413
#     4  10  23  44  70  96 142 183 232 283 354 404
#     4  12  25  44  74 101 144 180 238 283 360 408
#     4  10  21  40  68  96 130 177 233 279 334 414
#
# _framework density 22.713553000000001
#
# number of rings (size 3 to 8) (size 9 to 14) (size 15 to 20)
#    0.000    1.143    1.429    3.429   12.000    2.857 
#    0.000    2.857    0.000    0.000    0.000    0.000 
#    0.000    0.000    0.000    0.000    0.000    0.000 
#
# Total GULP energy -173507.374661 kJ/mol
# GULP energy per Si atom -12393.383904 kJ/mol
# Density = 2.266186 g / cm^3
# Si number density = 22.713553 Si / 1000 Ang^3
#
#
#
# Elastic Constant Matrix: (Units=GPa)
#
#
# Indices 1 2 3 4 5 6 
#
# 1 167.7883 54.1975 52.2694 -0.5670 17.3717 -3.0863
# 2 54.1975 112.5232 9.5714 16.2120 9.9475 -4.5894
# 3 52.2694 9.5714 92.9026 11.5547 -1.7343 -4.6954
# 4 -0.5670 16.2120 11.5547 21.5780 6.3318 -1.5110
# 5 17.3717 9.9475 -1.7343 6.3318 27.0977 4.1024
# 6 -3.0863 -4.5894 -4.6954 -1.5110 4.1024 43.5123
#
#
#
# Elastic Compliance Matrix: (Units=1/GPa)
#
#
# Indices 1 2 3 4 5 6 
#
# 1 0.010666 -0.005323 -0.006848 0.010275 -0.007806 0.000549
# 2 -0.005323 0.012778 0.003224 -0.011880 0.001589 0.000756
# 3 -0.006848 0.003224 0.016101 -0.013331 0.007286 0.000442
# 4 0.010275 -0.011880 -0.013331 0.068538 -0.019435 0.002250
# 5 -0.007806 0.001589 0.007286 -0.019435 0.047045 -0.004710
# 6 0.000549 0.000756 0.000442 0.002250 -0.004710 0.023671
#
#
# Mechanical properties :
#
#
# Convention : Reuss Voigt Hill
#
# Bulk Modulus (GPa) = 46.18810 67.25452 56.72131
# Shear Modulus (GPa) = 24.52053 35.58265 30.05159
#
# Velocity S-wave (km/s) = 3.28922 3.96230 3.64135
# Velocity P-wave (km/s) = 5.89953 7.11388 6.53497
#
# Compressibility (1/GPa) = 0.02165060
#
# Stress axis : x y z
#
# Youngs Moduli (GPa) = 93.76014 78.25646 62.10700
#
# Poissons Ratio (x) = 0.41652 0.42533
# Poissons Ratio (y) = 0.49904 -0.20020
# Poissons Ratio (z) = 0.64210 -0.25226
#
# Static dielectric constant tensor:
#      x y z
#    x 4.547930 -0.108820 0.063450 
#    y -0.108820 4.014290 -0.021160 
#    z 0.063450 -0.021160 3.923810 
# 
# 
# High freq. dielectric constant tensor:
#      x y z
#    x 1.917900 -0.002650 0.005310 
#    y -0.002650 1.895400 0.000570 
#    z 0.005310 0.000570 1.885140 
# 
# From -- ./inp_files/159981.got.cif
#   From: 2010.06.25/outbox.cif.g09.slc.cpg/sg2_80_cif.got.tgz:159981.got - 2010.06.27 13:26:56.
