data_PCOD8013990
_publ_section_title
;
Structure prediction by ZEFSAII (Michael W. Deem and Ramdas Pophale) SiO2 
 PCOD8013990
Probable space group: P -1
;
_chemical_formula_sum "Si O2"
_cell_formula_units_Z 16
_cell_length_a 6.052810
_cell_length_b 18.496476
_cell_length_c 8.694329
_cell_angle_alpha 94.128833
_cell_angle_beta 132.385680
_cell_angle_gamma 86.452375
_cell_volume 716.977615
_symmetry_space_group_name_H-M "P -1"
_symmetry_group_IT_number 2
_symmetry_cell_setting 'triclinic'
loop_
_space_group_symop_operation_xyz
x,y,z
-x,-y,-z
loop_
_atom_site_type_symbol
_atom_site_label
_atom_site_fract_x
_atom_site_fract_y
_atom_site_fract_z
Si Si1 0.564905 0.467586 0.692527
Si Si2 0.790398 0.599862 0.997648
Si Si3 0.442892 0.217869 0.580510
Si Si4 0.175769 0.846834 0.740814
Si Si5 0.441404 0.033449 0.142197
Si Si6 0.572149 0.287813 0.326793
Si Si7 0.809671 0.104664 0.897635
Si Si8 0.793789 0.646805 0.339767
O O1 0.500000 0.500000 0.500000
O O2 0.277608 0.419844 0.590408
O O3 0.855759 0.414877 0.827434
O O4 0.609121 0.529878 0.848890
O O5 0.673215 0.624556 0.112797
O O6 0.717449 0.665296 0.855127
O O7 0.487494 0.250563 0.439639
O O8 0.729114 0.168952 0.752008
O O9 0.389085 0.281268 0.687587
O O10 0.172998 0.162096 0.451590
O O11 0.284904 0.912047 0.688406
O O12 0.352605 0.772386 0.774546
O O13 0.238305 0.865763 0.948970
O O14 0.397238 0.967268 0.231689
O O15 0.147452 0.084374 0.013122
O O16 0.500000 0.000000 0.000000
O O17 0.851171 0.341093 0.487999
#
# Coordination Sequence:
#
# PCOD8013990 Si02
#       8
#     2   2   2   2   2   2   2   2
#     4  11  25  44  66  95 127 161 207 257 306 366
#     4  11  24  42  66  91 125 167 204 253 310 367
#     4  11  24  40  63  93 125 163 208 260 310 368
#     4  10  22  40  63  91 125 164 209 258 314 374
#     4   9  20  39  63  91 124 165 210 258 312 370
#     4  11  25  42  62  93 128 163 208 257 309 371
#     4  10  21  41  64  89 126 165 208 261 312 368
#     4  11  24  42  64  92 125 163 206 253 308 372
#
# _framework density 22.315899000000002
#
# number of rings (size 3 to 8) (size 9 to 14) (size 15 to 20)
#    0.000    1.500    0.000    4.125    0.000   14.500 
#    0.000    8.750    0.000    0.000    0.000    0.000 
#    0.000    0.000    0.000    0.000    0.000    0.000 
#
# Total GULP energy -198385.538060 kJ/mol
# GULP energy per Si atom -12399.096129 kJ/mol
# Density = 2.226511 g / cm^3
# Si number density = 22.315899 Si / 1000 Ang^3
#
#
#
# Elastic Constant Matrix: (Units=GPa)
#
#
# Indices 1 2 3 4 5 6 
#
# 1 128.6810 68.4063 55.0473 4.2413 -1.3504 9.0189
# 2 68.4063 128.7091 74.3516 -1.2526 -4.0077 0.3580
# 3 55.0473 74.3516 98.9953 -2.1382 -11.9862 -2.6660
# 4 4.2413 -1.2526 -2.1382 46.4722 9.7354 13.3120
# 5 -1.3504 -4.0077 -11.9862 9.7354 27.0845 1.1981
# 6 9.0189 0.3580 -2.6660 13.3120 1.1981 43.6443
#
#
#
# Elastic Compliance Matrix: (Units=1/GPa)
#
#
# Indices 1 2 3 4 5 6 
#
# 1 0.011706 -0.004170 -0.003621 -0.000349 -0.001402 -0.002461
# 2 -0.004170 0.015439 -0.009558 0.000890 -0.002471 -0.000052
# 3 -0.003621 -0.009558 0.020262 -0.001253 0.007724 0.002234
# 4 -0.000349 0.000890 -0.001253 0.025639 -0.009321 -0.007576
# 5 -0.001402 -0.002471 0.007724 -0.009321 0.043146 0.002440
# 6 -0.002461 -0.000052 0.002234 -0.007576 0.002440 0.025802
#
#
# Mechanical properties :
#
#
# Convention : Reuss Voigt Hill
#
# Bulk Modulus (GPa) = 78.68509 83.55509 81.12009
# Shear Modulus (GPa) = 27.63503 34.01222 30.82363
#
# Velocity S-wave (km/s) = 3.52285 3.90824 3.72054
# Velocity P-wave (km/s) = 7.20302 7.60848 7.40852
#
# Compressibility (1/GPa) = 0.01270889
#
# Stress axis : x y z
#
# Youngs Moduli (GPa) = 85.42488 64.77001 49.35343
#
# Poissons Ratio (x) = 0.27010 0.17870
# Poissons Ratio (y) = 0.35624 0.47174
# Poissons Ratio (z) = 0.30931 0.61909
#
# Static dielectric constant tensor:
#      x y z
#    x 4.189710 0.032900 0.097200 
#    y 0.032900 4.485460 0.294270 
#    z 0.097200 0.294270 3.837840 
# 
# 
# High freq. dielectric constant tensor:
#      x y z
#    x 1.887230 -0.003140 -0.000420 
#    y -0.003140 1.904910 0.016170 
#    z -0.000420 0.016170 1.857480 
# 
# From -- ./inp_files/48455.got.cif
#   From: 2010.06.25/outbox.cif.g09.slc.cpg/sg2_25_cif.got.tgz:48455.got - 2010.06.27 13:26:56.
