data_PCOD8013285
_publ_section_title
;
Structure prediction by ZEFSAII (Michael W. Deem and Ramdas Pophale) SiO2 
 PCOD8013285
Probable space group: P -1
;
_chemical_formula_sum "Si O2"
_cell_formula_units_Z 16
_cell_length_a 9.508705
_cell_length_b 17.167471
_cell_length_c 9.065437
_cell_angle_alpha 126.103511
_cell_angle_beta 100.006407
_cell_angle_gamma 45.418596
_cell_volume 774.112713
_symmetry_space_group_name_H-M "P -1"
_symmetry_group_IT_number 2
_symmetry_cell_setting 'triclinic'
loop_
_space_group_symop_operation_xyz
x,y,z
-x,-y,-z
loop_
_atom_site_type_symbol
_atom_site_label
_atom_site_fract_x
_atom_site_fract_y
_atom_site_fract_z
Si Si1 0.506084 0.099153 0.691838
Si Si2 0.458368 0.837647 0.617802
Si Si3 0.103196 0.050958 0.584956
Si Si4 0.573924 0.570943 0.260015
Si Si5 0.017176 0.561670 0.710110
Si Si6 0.438247 0.126535 0.042969
Si Si7 0.206015 0.622895 0.198817
Si Si8 0.146150 0.333651 0.686541
O O1 0.285335 0.269519 0.793866
O O2 0.500000 0.000000 0.500000
O O3 0.724659 0.040405 0.617941
O O4 0.543603 0.073605 0.843799
O O5 0.449719 0.736165 0.430436
O O6 0.472953 0.830307 0.790598
O O7 0.673277 0.786421 0.539661
O O8 0.237171 0.001910 0.707045
O O9 0.928697 0.224943 0.737978
O O10 0.000000 0.000000 0.500000
O O11 0.402762 0.573503 0.271072
O O12 0.770045 0.478119 0.311223
O O13 0.681133 0.503003 0.041761
O O14 0.817810 0.734994 0.875452
O O15 0.000000 0.500000 0.500000
O O16 0.040742 0.488377 0.786236
O O17 0.500000 0.000000 0.000000
O O18 0.048955 0.644378 0.305592
#
# Coordination Sequence:
#
# PCOD8013285 Si02
#       8
#     2   2   2   2   2   2   2   2
#     4  11  23  40  66 100 126 168 228 272 322 393
#     4  10  22  41  65  95 132 166 220 268 330 389
#     4  11  22  39  66  95 131 176 213 274 326 387
#     4  10  22  40  61  95 129 173 215 264 328 389
#     4  11  23  42  68  95 132 171 213 271 332 386
#     4  12  25  41  68 100 134 170 214 279 340 390
#     4  11  22  38  67  95 132 169 224 271 321 381
#     4  10  21  40  66  96 126 167 226 270 316 386
#
# _framework density 20.668824999999998
#
# number of rings (size 3 to 8) (size 9 to 14) (size 15 to 20)
#    0.000    1.250    5.000    2.250    1.750    5.500 
#    0.000    1.250    0.000    0.000    0.000    0.000 
#    0.000    0.000    0.000    0.000    0.000    0.000 
#
# Total GULP energy -198220.778393 kJ/mol
# GULP energy per Si atom -12388.798650 kJ/mol
# Density = 2.062178 g / cm^3
# Si number density = 20.668825 Si / 1000 Ang^3
#
#
#
# Elastic Constant Matrix: (Units=GPa)
#
#
# Indices 1 2 3 4 5 6 
#
# 1 147.1088 40.0919 53.6287 -5.6357 -8.5410 -19.5015
# 2 40.0919 144.9264 44.1332 0.9944 2.7008 -1.1706
# 3 53.6287 44.1332 100.7513 -16.9167 8.6368 -3.9253
# 4 -5.6357 0.9944 -16.9167 40.3730 1.5071 2.2075
# 5 -8.5410 2.7008 8.6368 1.5071 27.6168 2.1025
# 6 -19.5015 -1.1706 -3.9253 2.2075 2.1025 36.1059
#
#
#
# Elastic Compliance Matrix: (Units=1/GPa)
#
#
# Indices 1 2 3 4 5 6 
#
# 1 0.009790 -0.001199 -0.005085 -0.001147 0.004455 0.004507
# 2 -0.001199 0.008238 -0.003282 -0.001710 -0.000009 -0.000632
# 3 -0.005085 -0.003282 0.015615 0.006216 -0.006386 -0.001164
# 4 -0.001147 -0.001710 0.006216 0.027467 -0.003518 -0.001474
# 5 0.004455 -0.000009 -0.006386 -0.003518 0.039807 -0.000391
# 6 0.004507 -0.000632 -0.001164 -0.001474 -0.000391 0.030097
#
#
# Mechanical properties :
#
#
# Convention : Reuss Voigt Hill
#
# Bulk Modulus (GPa) = 68.90411 74.27713 71.59062
# Shear Modulus (GPa) = 32.26161 37.81465 35.03813
#
# Velocity S-wave (km/s) = 3.95509 4.28196 4.12177
# Velocity P-wave (km/s) = 7.36658 7.77572 7.57391
#
# Compressibility (1/GPa) = 0.01451292
#
# Stress axis : x y z
#
# Youngs Moduli (GPa) = 102.14185 121.39297 64.03906
#
# Poissons Ratio (x) = 0.14550 0.32565
# Poissons Ratio (y) = 0.12242 0.21015
# Poissons Ratio (z) = 0.51941 0.39836
#
# Static dielectric constant tensor:
#      x y z
#    x 3.770510 -0.162550 0.330370 
#    y -0.162550 4.212620 -0.258560 
#    z 0.330370 -0.258560 2.303280 
# 
# 
# High freq. dielectric constant tensor:
#      x y z
#    x 1.796790 -0.013540 0.007050 
#    y -0.013540 1.819570 0.018320 
#    z 0.007050 0.018320 1.798100 
# 
# From -- ./inp_files/218278.got.cif
#   From: 2010.06.25/outbox.cif.g09.slc.cpg/sg2_110_cif.got.tgz:218278.got - 2010.06.27 13:26:56.
