data_PCOD8013436
_publ_section_title
;
Structure prediction by ZEFSAII (Michael W. Deem and Ramdas Pophale) SiO2 
 PCOD8013436
Probable space group: P -1
;
_chemical_formula_sum "Si O2"
_cell_formula_units_Z 16
_cell_length_a 21.306615
_cell_length_b 5.185668
_cell_length_c 9.218151
_cell_angle_alpha 122.439182
_cell_angle_beta 127.942121
_cell_angle_gamma 70.630079
_cell_volume 677.888693
_symmetry_space_group_name_H-M "P -1"
_symmetry_group_IT_number 2
_symmetry_cell_setting 'triclinic'
loop_
_space_group_symop_operation_xyz
x,y,z
-x,-y,-z
loop_
_atom_site_type_symbol
_atom_site_label
_atom_site_fract_x
_atom_site_fract_y
_atom_site_fract_z
Si Si1 0.003902 0.285038 0.194492
Si Si2 0.646461 0.062308 0.957813
Si Si3 0.318314 0.316870 0.648847
Si Si4 0.774004 0.807559 0.266042
Si Si5 0.062127 0.925945 0.439880
Si Si6 0.742167 0.734118 0.758452
Si Si7 0.485763 0.142829 0.867907
Si Si8 0.823961 0.324492 0.990536
O O1 0.052246 0.567771 0.277091
O O2 0.915821 0.409080 0.134178
O O3 0.046107 0.170406 0.365177
O O4 0.000000 0.000000 0.000000
O O5 0.551326 0.992945 0.807381
O O6 0.676902 0.952496 0.810120
O O7 0.660252 0.415536 0.126191
O O8 0.691891 0.874692 0.088577
O O9 0.242955 0.155852 0.574096
O O10 0.294508 0.425461 0.485787
O O11 0.394325 0.087182 0.670988
O O12 0.844427 0.032023 0.376967
O O13 0.796747 0.462365 0.147788
O O14 0.000000 0.000000 0.500000
O O15 0.776173 0.472775 0.832158
O O16 0.811615 0.960514 0.868704
O O17 0.500000 0.500000 0.000000
O O18 0.500000 0.000000 0.000000
#
# Coordination Sequence:
#
# PCOD8013436 Si02
#       8
#     2   2   2   2   2   2   2   2
#     4  12  28  48  68  99 141 183 224 293 354 407
#     4  10  23  43  68  98 140 181 225 279 346 401
#     4  11  24  42  70 101 136 180 228 281 343 407
#     4  11  24  42  73  94 135 181 231 283 347 404
#     4  12  27  45  71 101 132 181 239 279 345 420
#     4  11  26  41  71 102 136 178 233 279 338 411
#     4  10  21  40  67  99 137 177 225 275 338 410
#     4  11  25  47  67  96 139 180 225 286 344 410
#
# _framework density 23.602696999999999
#
# number of rings (size 3 to 8) (size 9 to 14) (size 15 to 20)
#    0.000    1.000    3.750    1.500    7.000    0.500 
#    0.000    0.000    0.000    5.250    0.000    0.000 
#    0.000    0.000    0.000    0.000    0.000    0.000 
#
# Total GULP energy -198310.046059 kJ/mol
# GULP energy per Si atom -12394.377879 kJ/mol
# Density = 2.354898 g / cm^3
# Si number density = 23.602697 Si / 1000 Ang^3
#
#
#
# Elastic Constant Matrix: (Units=GPa)
#
#
# Indices 1 2 3 4 5 6 
#
# 1 119.8082 27.2256 38.2485 -7.9067 2.4457 -2.7629
# 2 27.2256 87.0650 16.0942 -7.4883 2.3163 3.8478
# 3 38.2485 16.0942 75.7711 -12.2619 -11.4783 -0.9180
# 4 -7.9067 -7.4883 -12.2619 34.7296 3.1954 0.1057
# 5 2.4457 2.3163 -11.4783 3.1954 31.3588 -5.1612
# 6 -2.7629 3.8478 -0.9180 0.1057 -5.1612 35.8738
#
#
#
# Elastic Compliance Matrix: (Units=1/GPa)
#
#
# Indices 1 2 3 4 5 6 
#
# 1 0.010608 -0.002290 -0.005189 0.000317 -0.002496 0.000570
# 2 -0.002290 0.012780 -0.001558 0.001858 -0.001830 -0.001856
# 3 -0.005189 -0.001558 0.017871 0.004160 0.006834 0.001196
# 4 0.000317 0.001858 0.004160 0.030908 -0.001859 -0.000427
# 5 -0.002496 -0.001830 0.006834 -0.001859 0.035787 0.005333
# 6 0.000570 -0.001856 0.001196 -0.000427 0.005333 0.028918
#
#
# Mechanical properties :
#
#
# Convention : Reuss Voigt Hill
#
# Bulk Modulus (GPa) = 43.12726 49.53121 46.32924
# Shear Modulus (GPa) = 30.73645 33.79750 32.26697
#
# Velocity S-wave (km/s) = 3.61258 3.78820 3.70143
# Velocity P-wave (km/s) = 5.97602 6.33758 6.15945
#
# Compressibility (1/GPa) = 0.02318719
#
# Stress axis : x y z
#
# Youngs Moduli (GPa) = 94.26436 78.24616 55.95790
#
# Poissons Ratio (x) = 0.17916 0.29034
# Poissons Ratio (y) = 0.21583 0.08717
# Poissons Ratio (z) = 0.48909 0.12189
#
# Static dielectric constant tensor:
#      x y z
#    x 5.017360 -0.170550 0.206860 
#    y -0.170550 4.175010 -0.044200 
#    z 0.206860 -0.044200 4.065950 
# 
# 
# High freq. dielectric constant tensor:
#      x y z
#    x 1.954760 -0.005020 0.005290 
#    y -0.005020 1.937990 -0.006320 
#    z 0.005290 -0.006320 1.909390 
# 
# From -- ./inp_files/112418.got.cif
#   From: 2010.06.25/outbox.cif.g09.slc.cpg/sg2_57_cif.got.tgz:112418.got - 2010.06.27 13:26:56.
