data_PCOD8013462
_publ_section_title
;
Structure prediction by ZEFSAII (Michael W. Deem and Ramdas Pophale) SiO2 
 PCOD8013462
Probable space group: P -1
;
_chemical_formula_sum "Si O2"
_cell_formula_units_Z 12
_cell_length_a 13.347549
_cell_length_b 11.489267
_cell_length_c 17.886401
_cell_angle_alpha 147.509161
_cell_angle_beta 145.982550
_cell_angle_gamma 22.084252
_cell_volume 538.567887
_symmetry_space_group_name_H-M "P -1"
_symmetry_group_IT_number 2
_symmetry_cell_setting 'triclinic'
loop_
_space_group_symop_operation_xyz
x,y,z
-x,-y,-z
loop_
_atom_site_type_symbol
_atom_site_label
_atom_site_fract_x
_atom_site_fract_y
_atom_site_fract_z
Si Si1 0.280538 0.090835 0.119554
Si Si2 0.108555 0.832271 0.804860
Si Si3 0.485448 0.759635 0.376278
Si Si4 0.930688 0.271865 0.502346
Si Si5 0.235960 0.610944 0.372787
Si Si6 0.132002 0.521964 0.791253
O O1 0.296202 0.318754 0.216941
O O2 0.124328 0.228428 0.176315
O O3 0.586587 0.723678 0.122720
O O4 0.138293 0.064805 0.956423
O O5 0.365029 0.500936 0.739545
O O6 0.108000 0.744245 0.840991
O O7 0.828456 0.028319 0.695083
O O8 0.632028 0.563044 0.438315
O O9 0.500000 0.000000 0.500000
O O10 0.935664 0.275837 0.597302
O O11 0.112395 0.317495 0.618213
O O12 0.069155 0.912625 0.372968
O O13 0.500000 0.500000 0.500000
#
# Coordination Sequence:
#
# PCOD8013462 Si02
#       6
#     2   2   2   2   2   2
#     4  11  23  40  64  96 129 162 213 261 316 366
#     4  12  25  41  62  97 131 171 200 256 324 378
#     4  12  26  42  65  91 135 169 208 251 311 396
#     4  10  23  39  63  97 118 164 219 259 310 360
#     4  10  21  40  68  89 121 163 217 271 300 360
#     4  11  21  38  67  92 130 161 209 268 308 369
#
# _framework density 22.281313000000001
#
# number of rings (size 3 to 8) (size 9 to 14) (size 15 to 20)
#    0.000    1.000    3.333    3.500    4.667    0.000 
#    0.000    1.667    0.000    0.000    0.000    0.000 
#    0.000    0.000    0.000    0.000    0.000    0.000 
#
# Total GULP energy -148792.505061 kJ/mol
# GULP energy per Si atom -12399.375422 kJ/mol
# Density = 2.223060 g / cm^3
# Si number density = 22.281313 Si / 1000 Ang^3
#
#
#
# Elastic Constant Matrix: (Units=GPa)
#
#
# Indices 1 2 3 4 5 6 
#
# 1 29.0331 6.1920 14.1165 12.1182 11.2925 -2.1188
# 2 6.1920 128.1118 42.3765 -4.6266 21.1039 18.9967
# 3 14.1165 42.3765 150.3152 14.4756 36.9270 18.2698
# 4 12.1182 -4.6266 14.4756 41.6794 -0.8746 2.5370
# 5 11.2925 21.1039 36.9270 -0.8746 34.8232 1.6749
# 6 -2.1188 18.9967 18.2698 2.5370 1.6749 34.5387
#
#
#
# Elastic Compliance Matrix: (Units=1/GPa)
#
#
# Indices 1 2 3 4 5 6 
#
# 1 0.047021 -0.001142 0.000579 -0.014637 -0.015780 0.005047
# 2 -0.001142 0.009695 -0.001316 0.002069 -0.003834 -0.004673
# 3 0.000579 -0.001316 0.010343 -0.003883 -0.010267 -0.003929
# 4 -0.014637 0.002069 -0.003883 0.030164 0.008493 -0.002610
# 5 -0.015780 -0.003834 -0.010267 0.008493 0.047081 0.003664
# 6 0.005047 -0.004673 -0.003929 -0.002610 0.003664 0.033925
#
#
# Mechanical properties :
#
#
# Convention : Reuss Voigt Hill
#
# Bulk Modulus (GPa) = 15.79719 48.09222 31.94470
# Shear Modulus (GPa) = 24.62013 38.52661 31.57337
#
# Velocity S-wave (km/s) = 3.32771 4.16276 3.76843
# Velocity P-wave (km/s) = 4.67655 6.68847 5.77087
#
# Compressibility (1/GPa) = 0.06330241
#
# Stress axis : x y z
#
# Youngs Moduli (GPa) = 21.26705 103.14472 96.68580
#
# Poissons Ratio (x) = 0.11775 -0.05597
# Poissons Ratio (y) = 0.02428 0.12720
# Poissons Ratio (z) = -0.01231 0.13569
#
# Static dielectric constant tensor:
#      x y z
#    x 4.243270 0.226640 0.475650 
#    y 0.226640 4.280050 0.345410 
#    z 0.475650 0.345410 4.240110 
# 
# 
# High freq. dielectric constant tensor:
#      x y z
#    x 1.859830 -0.004830 0.025300 
#    y -0.004830 1.888270 0.012090 
#    z 0.025300 0.012090 1.875080 
# 
# From -- ./inp_files/18920.got.cif
#   From: 2010.06.25/outbox.cif.g09.slc.cpg/sg2_10_cif.got.tgz:18920.got - 2010.06.27 13:26:56.
