data_PCOD8013178
_publ_section_title
;
Structure prediction by ZEFSAII (Michael W. Deem and Ramdas Pophale) SiO2 
 PCOD8013178
Probable space group: P -1
;
_chemical_formula_sum "Si O2"
_cell_formula_units_Z 16
_cell_length_a 11.433804
_cell_length_b 9.310738
_cell_length_c 10.863847
_cell_angle_alpha 83.026790
_cell_angle_beta 56.737684
_cell_angle_gamma 51.313385
_cell_volume 710.097091
_symmetry_space_group_name_H-M "P -1"
_symmetry_group_IT_number 2
_symmetry_cell_setting 'triclinic'
loop_
_space_group_symop_operation_xyz
x,y,z
-x,-y,-z
loop_
_atom_site_type_symbol
_atom_site_label
_atom_site_fract_x
_atom_site_fract_y
_atom_site_fract_z
Si Si1 0.951837 0.428045 0.646310
Si Si2 0.294960 0.159952 0.656539
Si Si3 0.781844 0.260692 0.773213
Si Si4 0.350175 0.157043 0.170630
Si Si5 0.854450 0.487932 0.148762
Si Si6 0.361901 0.897560 0.840622
Si Si7 0.110896 0.108980 0.201165
Si Si8 0.626685 0.437871 0.106499
O O1 0.879346 0.327028 0.640457
O O2 0.784875 0.611801 0.811500
O O3 0.000000 0.500000 0.500000
O O4 0.137959 0.269219 0.632423
O O5 0.297534 0.308311 0.714396
O O6 0.500000 0.000000 0.500000
O O7 0.244418 0.058637 0.784945
O O8 0.583933 0.351957 0.814353
O O9 0.933201 0.022148 0.710929
O O10 0.742430 0.344405 0.924505
O O11 0.445488 0.140248 0.246524
O O12 0.201660 0.127697 0.265196
O O13 0.500000 0.000000 0.000000
O O14 0.744255 0.465862 0.118767
O O15 0.943120 0.318350 0.217055
O O16 0.000000 0.500000 0.000000
O O17 0.395535 0.706981 0.804120
O O18 0.263765 0.974002 0.020602
#
# Coordination Sequence:
#
# PCOD8013178 Si02
#       8
#     2   2   2   2   2   2   2   2
#     4  12  25  47  71  93 138 190 233 279 346 423
#     4  12  27  44  68  99 138 188 230 276 352 418
#     4  10  23  41  67 105 136 182 228 284 351 402
#     4  10  21  40  70  99 134 176 230 285 337 408
#     4  12  24  42  69 106 136 175 227 289 348 409
#     4  10  21  40  66 100 138 175 221 285 346 399
#     4  10  22  37  66 104 133 169 224 289 338 401
#     4  10  23  39  69 105 141 170 228 293 346 401
#
# _framework density 22.532131
#
# number of rings (size 3 to 8) (size 9 to 14) (size 15 to 20)
#    0.000    1.250    3.750    1.500    5.250    1.000 
#    0.000    1.250    0.000    0.000    0.000    0.000 
#    0.000    0.000    0.000    0.000    0.000    0.000 
#
# Total GULP energy -198216.208122 kJ/mol
# GULP energy per Si atom -12388.513008 kJ/mol
# Density = 2.248085 g / cm^3
# Si number density = 22.532131 Si / 1000 Ang^3
#
#
#
# Elastic Constant Matrix: (Units=GPa)
#
#
# Indices 1 2 3 4 5 6 
#
# 1 178.9096 67.1396 44.3443 -8.3444 -0.9475 8.8051
# 2 67.1396 191.2944 47.3244 -4.7596 -6.9130 11.2166
# 3 44.3443 47.3244 38.6612 1.2016 -8.4432 6.1243
# 4 -8.3444 -4.7596 1.2016 43.9822 -0.5855 -5.1468
# 5 -0.9475 -6.9130 -8.4432 -0.5855 16.1823 -1.6820
# 6 8.8051 11.2166 6.1243 -5.1468 -1.6820 43.0362
#
#
#
# Elastic Compliance Matrix: (Units=1/GPa)
#
#
# Indices 1 2 3 4 5 6 
#
# 1 0.008335 -0.000595 -0.009937 0.001709 -0.004902 -0.000124
# 2 -0.000595 0.007649 -0.008939 0.000875 -0.001457 -0.000552
# 3 -0.009937 -0.008939 0.053880 -0.004356 0.023251 -0.002917
# 4 0.001709 0.000875 -0.004356 0.023598 -0.000650 0.002839
# 5 -0.004902 -0.001457 0.023251 -0.000650 0.073083 0.000852
# 6 -0.000124 -0.000552 -0.002917 0.002839 0.000852 0.024193
#
#
# Mechanical properties :
#
#
# Convention : Reuss Voigt Hill
#
# Bulk Modulus (GPa) = 32.33712 80.72022 56.52867
# Shear Modulus (GPa) = 20.83437 37.31060 29.07249
#
# Velocity S-wave (km/s) = 3.04411 4.07367 3.59593
# Velocity P-wave (km/s) = 5.17090 7.61765 6.51025
#
# Compressibility (1/GPa) = 0.03092421
#
# Stress axis : x y z
#
# Youngs Moduli (GPa) = 119.97220 130.73292 18.55961
#
# Poissons Ratio (x) = 0.07774 0.18442
# Poissons Ratio (y) = 0.07134 0.16591
# Poissons Ratio (z) = 1.19212 1.16863
#
# Static dielectric constant tensor:
#      x y z
#    x 4.048630 -0.141910 -0.077370 
#    y -0.141910 4.540240 -0.228980 
#    z -0.077370 -0.228980 3.863270 
# 
# 
# High freq. dielectric constant tensor:
#      x y z
#    x 1.894250 0.007410 -0.000900 
#    y 0.007410 1.914550 0.004370 
#    z -0.000900 0.004370 1.844120 
# 
# From -- ./inp_files/417086.got.cif
#   From: 2010.06.25/outbox.cif.g09.slc.cpg/sg2_209_cif.got.tgz:417086.got - 2010.06.27 13:26:56.
