data_PCOD8013481
_publ_section_title
;
Structure prediction by ZEFSAII (Michael W. Deem and Ramdas Pophale) SiO2 
 PCOD8013481
Probable space group: P -1
;
_chemical_formula_sum "Si O2"
_cell_formula_units_Z 14
_cell_length_a 9.156156
_cell_length_b 22.755014
_cell_length_c 13.189296
_cell_angle_alpha 19.914496
_cell_angle_beta 44.909058
_cell_angle_gamma 42.706553
_cell_volume 633.051079
_symmetry_space_group_name_H-M "P -1"
_symmetry_group_IT_number 2
_symmetry_cell_setting 'triclinic'
loop_
_space_group_symop_operation_xyz
x,y,z
-x,-y,-z
loop_
_atom_site_type_symbol
_atom_site_label
_atom_site_fract_x
_atom_site_fract_y
_atom_site_fract_z
Si Si1 0.189790 0.906726 0.921878
Si Si2 0.552649 0.335521 0.163368
Si Si3 0.750337 0.556793 0.048205
Si Si4 0.633694 0.947259 0.845210
Si Si5 0.099583 0.829984 0.888823
Si Si6 0.655455 0.874913 0.732315
Si Si7 0.247448 0.812460 0.274481
O O1 0.223871 0.803561 0.178939
O O2 0.156809 0.763009 0.085615
O O3 0.397921 0.979315 0.673763
O O4 0.983795 0.081478 0.738071
O O5 0.776359 0.311737 0.028071
O O6 0.573440 0.158125 0.506426
O O7 0.500000 0.500000 0.000000
O O8 0.364027 0.359334 0.135595
O O9 0.672822 0.385492 0.396638
O O10 0.703660 0.692224 0.944297
O O11 0.000000 0.500000 0.000000
O O12 0.687483 0.825085 0.916271
O O13 0.843157 0.887775 0.909333
O O14 0.426424 0.911091 0.060124
O O15 0.184467 0.006874 0.560790
#
# Coordination Sequence:
#
# PCOD8013481 Si02
#       7
#     2   2   2   2   2   2   2
#     4  10  21  40  68  93 132 176 224 267 326 398
#     4  11  26  45  65 103 137 174 225 277 329 396
#     4  12  27  41  70 102 133 172 224 290 332 384
#     4  10  25  44  70  94 137 185 218 267 336 407
#     4  11  22  43  72  99 132 184 219 271 331 408
#     4  10  21  41  68  98 131 170 231 271 329 390
#     4  10  25  44  66 100 135 175 224 278 335 394
#
# _framework density 22.115119
#
# number of rings (size 3 to 8) (size 9 to 14) (size 15 to 20)
#    0.000    1.429    1.429    3.000   18.000    2.857 
#    0.000    2.143    0.000    0.000    0.000    0.000 
#    0.000    0.000    0.000    0.000    0.000    0.000 
#
# Total GULP energy -173535.880125 kJ/mol
# GULP energy per Si atom -12395.420009 kJ/mol
# Density = 2.206478 g / cm^3
# Si number density = 22.115119 Si / 1000 Ang^3
#
#
#
# Elastic Constant Matrix: (Units=GPa)
#
#
# Indices 1 2 3 4 5 6 
#
# 1 125.4453 48.4402 23.8405 3.5072 -18.8913 -17.1412
# 2 48.4402 129.9264 54.7642 2.2104 -17.5237 -6.9815
# 3 23.8405 54.7642 63.8783 -4.8274 -12.3757 -0.1505
# 4 3.5072 2.2104 -4.8274 29.9101 -2.9357 -15.4237
# 5 -18.8913 -17.5237 -12.3757 -2.9357 24.2954 -2.5681
# 6 -17.1412 -6.9815 -0.1505 -15.4237 -2.5681 49.0505
#
#
#
# Elastic Compliance Matrix: (Units=1/GPa)
#
#
# Indices 1 2 3 4 5 6 
#
# 1 0.010635 -0.002804 -0.000087 0.001810 0.006870 0.004246
# 2 -0.002804 0.013351 -0.010132 -0.001875 0.002104 0.000410
# 3 -0.000087 -0.010132 0.026149 0.006098 0.006774 0.000880
# 4 0.001810 -0.001875 0.006098 0.042696 0.009834 0.014325
# 5 0.006870 0.002104 0.006774 0.009834 0.053570 0.008618
# 6 0.004246 0.000410 0.000880 0.014325 0.008618 0.026887
#
#
# Mechanical properties :
#
#
# Convention : Reuss Voigt Hill
#
# Bulk Modulus (GPa) = 41.51546 63.70441 52.60994
# Shear Modulus (GPa) = 24.11202 33.46485 28.78844
#
# Velocity S-wave (km/s) = 3.30554 3.89422 3.61190
# Velocity P-wave (km/s) = 5.77772 7.00630 6.42146
#
# Compressibility (1/GPa) = 0.02408741
#
# Stress axis : x y z
#
# Youngs Moduli (GPa) = 94.02702 74.90208 38.24204
#
# Poissons Ratio (x) = 0.21006 0.00333
# Poissons Ratio (y) = 0.26369 0.38748
# Poissons Ratio (z) = 0.00820 0.75893
#
# Static dielectric constant tensor:
#      x y z
#    x 4.314140 0.132340 0.070700 
#    y 0.132340 4.425420 0.070950 
#    z 0.070700 0.070950 3.783340 
# 
# 
# High freq. dielectric constant tensor:
#      x y z
#    x 1.890220 0.002710 -0.003060 
#    y 0.002710 1.887290 0.010190 
#    z -0.003060 0.010190 1.834800 
# 
# From -- ./inp_files/508535.got.cif
#   From: 2010.06.25/outbox.cif.g09.slc.cpg/sg2_255_cif.got.tgz:508535.got - 2010.06.27 13:26:56.
