data_PCOD8013016
_publ_section_title
;
Structure prediction by ZEFSAII (Michael W. Deem and Ramdas Pophale) SiO2 
 PCOD8013016
Probable space group: P -1
;
_chemical_formula_sum "Si O2"
_cell_formula_units_Z 14
_cell_length_a 9.030076
_cell_length_b 14.147881
_cell_length_c 20.405845
_cell_angle_alpha 149.606699
_cell_angle_beta 31.522677
_cell_angle_gamma 129.769308
_cell_volume 642.998245
_symmetry_space_group_name_H-M "P -1"
_symmetry_group_IT_number 2
_symmetry_cell_setting 'triclinic'
loop_
_space_group_symop_operation_xyz
x,y,z
-x,-y,-z
loop_
_atom_site_type_symbol
_atom_site_label
_atom_site_fract_x
_atom_site_fract_y
_atom_site_fract_z
Si Si1 0.720006 0.146830 0.757626
Si Si2 0.182907 0.272382 0.474627
Si Si3 0.258361 0.067556 0.786787
Si Si4 0.903052 0.392911 0.031714
Si Si5 0.783072 0.032233 0.039780
Si Si6 0.780847 0.688538 0.371317
Si Si7 0.374918 0.356734 0.133423
O O1 0.455201 0.153226 0.811205
O O2 0.987261 0.191014 0.646092
O O3 0.863954 0.935166 0.614601
O O4 0.567278 0.321771 0.972693
O O5 0.472014 0.216109 0.283615
O O6 0.237443 0.372694 0.582450
O O7 0.898897 0.429608 0.638586
O O8 0.450282 0.836199 0.560575
O O9 0.175580 0.181490 0.816364
O O10 0.936557 0.091887 0.955361
O O11 0.881829 0.500442 0.173841
O O12 0.587925 0.367078 0.119372
O O13 0.000000 0.500000 0.000000
O O14 0.737905 0.824464 0.917794
O O15 0.000000 0.000000 0.000000
#
# Coordination Sequence:
#
# PCOD8013016 Si02
#       7
#     2   2   2   2   2   2   2
#     4  10  21  40  65 100 128 166 218 274 321 370
#     4  10  22  39  71  96 125 166 217 274 319 370
#     4  11  24  44  68  95 131 168 222 270 316 380
#     4  12  28  42  61  98 137 176 210 258 327 393
#     4  11  22  45  70  98 125 166 221 273 320 370
#     4  11  23  39  68  98 130 171 215 264 335 375
#     4  11  24  42  63  96 135 169 211 263 323 387
#
# _framework density 21.772998000000001
#
# number of rings (size 3 to 8) (size 9 to 14) (size 15 to 20)
#    0.000    1.143    5.714    2.571    4.000    6.286 
#    0.000    1.429    0.000    0.000    0.000    0.000 
#    0.000    0.000    0.000    0.000    0.000    0.000 
#
# Total GULP energy -173610.900194 kJ/mol
# GULP energy per Si atom -12400.778585 kJ/mol
# Density = 2.172344 g / cm^3
# Si number density = 21.772998 Si / 1000 Ang^3
#
#
#
# Elastic Constant Matrix: (Units=GPa)
#
#
# Indices 1 2 3 4 5 6 
#
# 1 88.2272 42.3137 31.9756 13.3854 -30.0105 10.2717
# 2 42.3137 88.8388 23.5331 -15.5757 -5.5708 5.1094
# 3 31.9756 23.5331 114.2061 -8.4984 -19.9347 -1.1006
# 4 13.3854 -15.5757 -8.4984 33.1804 -6.4235 2.3214
# 5 -30.0105 -5.5708 -19.9347 -6.4235 30.5654 5.1234
# 6 10.2717 5.1094 -1.1006 2.3214 5.1234 35.0691
#
#
#
# Elastic Compliance Matrix: (Units=1/GPa)
#
#
# Indices 1 2 3 4 5 6 
#
# 1 0.030888 -0.014477 -0.002539 -0.014467 0.024611 -0.009655
# 2 -0.014477 0.020013 -0.000522 0.013365 -0.008375 0.001647
# 3 -0.002539 -0.000522 0.010872 0.004618 0.005464 0.000057
# 4 -0.014467 0.013365 0.004618 0.043561 0.000485 -0.000519
# 5 0.024611 -0.008375 0.005464 0.000485 0.061507 -0.014835
# 6 -0.009655 0.001647 0.000057 -0.000519 -0.014835 0.033307
#
#
# Mechanical properties :
#
#
# Convention : Reuss Voigt Hill
#
# Bulk Modulus (GPa) = 37.45552 54.10186 45.77869
# Shear Modulus (GPa) = 20.48139 32.65964 26.57051
#
# Velocity S-wave (km/s) = 3.07038 3.87719 3.49713
# Velocity P-wave (km/s) = 5.45983 6.70415 6.11373
#
# Compressibility (1/GPa) = 0.02669833
#
# Stress axis : x y z
#
# Youngs Moduli (GPa) = 32.37486 49.96641 91.97647
#
# Poissons Ratio (x) = 0.72338 0.23349
# Poissons Ratio (y) = 0.46870 0.04801
# Poissons Ratio (z) = 0.08219 0.02608
#
# Static dielectric constant tensor:
#      x y z
#    x 3.870120 0.167180 -0.013220 
#    y 0.167180 4.141900 -0.200400 
#    z -0.013220 -0.200400 4.162410 
# 
# 
# High freq. dielectric constant tensor:
#      x y z
#    x 1.840360 0.001250 -0.003730 
#    y 0.001250 1.849830 -0.001750 
#    z -0.003730 -0.001750 1.870290 
# 
# From -- ./inp_files/319188.got.cif
#   From: 2010.06.25/outbox.cif.g09.slc.cpg/sg2_160_cif.got.tgz:319188.got - 2010.06.27 13:26:56.
