data_PCOD8013653
_publ_section_title
;
Structure prediction by ZEFSAII (Michael W. Deem and Ramdas Pophale) SiO2 
 PCOD8013653
Probable space group: P -1
;
_chemical_formula_sum "Si O2"
_cell_formula_units_Z 14
_cell_length_a 9.964640
_cell_length_b 20.486494
_cell_length_c 8.848686
_cell_angle_alpha 48.526203
_cell_angle_beta 125.747929
_cell_angle_gamma 151.783978
_cell_volume 639.902781
_symmetry_space_group_name_H-M "P -1"
_symmetry_group_IT_number 2
_symmetry_cell_setting 'triclinic'
loop_
_space_group_symop_operation_xyz
x,y,z
-x,-y,-z
loop_
_atom_site_type_symbol
_atom_site_label
_atom_site_fract_x
_atom_site_fract_y
_atom_site_fract_z
Si Si1 0.057060 0.217246 0.384404
Si Si2 0.626665 0.404404 0.353585
Si Si3 0.313670 0.691554 0.883146
Si Si4 0.112095 0.654726 0.495379
Si Si5 0.188693 0.464693 0.045401
Si Si6 0.539262 0.023295 0.812536
Si Si7 0.832545 0.012935 0.817744
O O1 0.288322 0.261376 0.375431
O O2 0.194825 0.371550 0.264596
O O3 0.764229 0.096568 0.284791
O O4 0.014838 0.155900 0.614854
O O5 0.703005 0.335678 0.492790
O O6 0.792680 0.519194 0.427476
O O7 0.715685 0.499011 0.120820
O O8 0.099116 0.620926 0.712533
O O9 0.137084 0.638360 0.000206
O O10 0.584251 0.868235 0.771191
O O11 0.389390 0.620328 0.029818
O O12 0.257090 0.809700 0.342666
O O13 0.700215 0.006357 0.883543
O O14 0.500000 0.000000 0.000000
O O15 0.000000 0.000000 0.000000
#
# Coordination Sequence:
#
# PCOD8013653 Si02
#       7
#     2   2   2   2   2   2   2
#     4  12  24  45  74 101 148 178 237 291 353 411
#     4  10  24  40  69 106 141 181 231 294 347 418
#     4  10  21  43  69  95 137 186 229 284 349 415
#     4  10  22  43  66  99 141 186 232 277 356 412
#     4  10  21  40  70  96 135 183 227 282 345 415
#     4  12  26  44  74 101 142 185 236 285 352 419
#     4  12  28  46  71 104 143 186 239 289 351 417
#
# _framework density 21.878325
#
# number of rings (size 3 to 8) (size 9 to 14) (size 15 to 20)
#    0.000    1.143    2.857    2.571    2.000    7.429 
#    0.000    2.143    0.000    0.000    0.000    0.000 
#    0.000    0.000    0.000    0.000    0.000    0.000 
#
# Total GULP energy -173545.972655 kJ/mol
# GULP energy per Si atom -12396.140904 kJ/mol
# Density = 2.182853 g / cm^3
# Si number density = 21.878325 Si / 1000 Ang^3
#
#
#
# Elastic Constant Matrix: (Units=GPa)
#
#
# Indices 1 2 3 4 5 6 
#
# 1 122.7201 61.5107 55.6564 5.0827 3.4700 6.5751
# 2 61.5107 84.8511 39.3062 -9.2883 0.7744 4.8319
# 3 55.6564 39.3062 131.7263 -8.2730 -2.6894 0.3388
# 4 5.0827 -9.2883 -8.2730 30.2670 -6.8269 8.9747
# 5 3.4700 0.7744 -2.6894 -6.8269 43.1666 -9.8244
# 6 6.5751 4.8319 0.3388 8.9747 -9.8244 37.6954
#
#
#
# Elastic Compliance Matrix: (Units=1/GPa)
#
#
# Indices 1 2 3 4 5 6 
#
# 1 0.015395 -0.010057 -0.004010 -0.007250 -0.002520 -0.000291
# 2 -0.010057 0.020818 -0.001383 0.008750 0.001120 -0.002693
# 3 -0.004010 -0.001383 0.009930 0.003187 0.001569 0.000438
# 4 -0.007250 0.008750 0.003187 0.041491 0.005277 -0.008389
# 5 -0.002520 0.001120 0.001569 0.005277 0.025576 0.005691
# 6 -0.000291 -0.002693 0.000438 -0.008389 0.005691 0.030401
#
#
# Mechanical properties :
#
#
# Convention : Reuss Voigt Hill
#
# Bulk Modulus (GPa) = 65.60643 72.47157 69.03900
# Shear Modulus (GPa) = 27.84112 34.41408 31.12760
#
# Velocity S-wave (km/s) = 3.57114 3.97038 3.77604
# Velocity P-wave (km/s) = 6.85975 7.36310 7.11588
#
# Compressibility (1/GPa) = 0.01524241
#
# Stress axis : x y z
#
# Youngs Moduli (GPa) = 64.95640 48.03634 100.70964
#
# Poissons Ratio (x) = 0.48309 0.40382
# Poissons Ratio (y) = 0.65325 0.13932
# Poissons Ratio (z) = 0.26046 0.06645
#
# Static dielectric constant tensor:
#      x y z
#    x 4.612250 0.272490 2.918730 
#    y 0.272490 4.437470 2.373120 
#    z 2.918730 2.373120 20.716120 
# 
# 
# High freq. dielectric constant tensor:
#      x y z
#    x 1.869010 -0.009300 0.003330 
#    y -0.009300 1.851460 -0.022190 
#    z 0.003330 -0.022190 1.865500 
# 
# From -- ./inp_files/223272.got.cif
#   From: 2010.06.25/outbox.cif.g09.slc.cpg/sg2_112_cif.got.tgz:223272.got - 2010.06.27 13:26:56.
