data_PCOD8013187
_publ_section_title
;
Structure prediction by ZEFSAII (Michael W. Deem and Ramdas Pophale) SiO2 
 PCOD8013187
Probable space group: P -1
;
_chemical_formula_sum "Si O2"
_cell_formula_units_Z 14
_cell_length_a 8.650092
_cell_length_b 16.169503
_cell_length_c 6.160755
_cell_angle_alpha 108.507636
_cell_angle_beta 83.587188
_cell_angle_gamma 129.432588
_cell_volume 626.349307
_symmetry_space_group_name_H-M "P -1"
_symmetry_group_IT_number 2
_symmetry_cell_setting 'triclinic'
loop_
_space_group_symop_operation_xyz
x,y,z
-x,-y,-z
loop_
_atom_site_type_symbol
_atom_site_label
_atom_site_fract_x
_atom_site_fract_y
_atom_site_fract_z
Si Si1 0.858449 0.484940 0.197685
Si Si2 0.117685 0.671263 0.652041
Si Si3 0.763653 0.636647 0.851458
Si Si4 0.464305 0.600418 0.167113
Si Si5 0.848896 0.965715 0.305572
Si Si6 0.824718 0.832997 0.816032
Si Si7 0.478649 0.191629 0.478933
O O1 0.805749 0.388457 0.290572
O O2 0.967742 0.599815 0.413952
O O3 0.658202 0.450677 0.085412
O O4 0.000000 0.500000 0.000000
O O5 0.324486 0.788779 0.626201
O O6 0.000062 0.692114 0.858437
O O7 0.629898 0.500776 0.724607
O O8 0.745424 0.704745 0.723631
O O9 0.692413 0.652704 0.108042
O O10 0.446396 0.690330 0.334457
O O11 0.629301 0.906143 0.399359
O O12 0.828643 0.870023 0.090284
O O13 0.000000 0.000000 0.500000
O O14 0.945508 0.079157 0.243712
O O15 0.677824 0.843778 0.716313
#
# Coordination Sequence:
#
# PCOD8013187 Si02
#       7
#     2   2   2   2   2   2   2
#     4  11  20  40  55  80 123 176 201 231 275 368
#     4  11  23  35  59  87 122 161 203 236 299 346
#     4  11  23  37  55  96 123 156 191 253 301 343
#     4  11  22  37  60  86 128 161 199 234 295 354
#     4   9  20  41  66  88 109 155 209 248 287 360
#     4  10  21  40  66  87 119 152 203 250 297 347
#     4  11  21  38  63  91 114 164 205 233 288 369
#
# _framework density 22.351745999999999
#
# number of rings (size 3 to 8) (size 9 to 14) (size 15 to 20)
#    0.000    1.429    4.286    1.714    0.000    3.429 
#    0.000    0.714    0.000    7.714    0.000    0.000 
#    0.000    0.000    0.000    0.000    0.000    0.000 
#
# Total GULP energy -173438.287364 kJ/mol
# GULP energy per Si atom -12388.449097 kJ/mol
# Density = 2.230087 g / cm^3
# Si number density = 22.351746 Si / 1000 Ang^3
#
#
#
# Elastic Constant Matrix: (Units=GPa)
#
#
# Indices 1 2 3 4 5 6 
#
# 1 81.5898 41.7079 29.9210 -15.0301 -20.4457 27.2366
# 2 41.7079 137.6579 36.0883 -34.7183 -14.6344 29.6323
# 3 29.9210 36.0883 79.0322 -7.5628 10.4919 13.7498
# 4 -15.0301 -34.7183 -7.5628 36.0029 16.8493 -12.7314
# 5 -20.4457 -14.6344 10.4919 16.8493 31.8377 -15.7065
# 6 27.2366 29.6323 13.7498 -12.7314 -15.7065 38.6558
#
#
#
# Elastic Compliance Matrix: (Units=1/GPa)
#
#
# Indices 1 2 3 4 5 6 
#
# 1 0.021416 -0.002606 -0.008330 -0.004197 0.014811 -0.005493
# 2 -0.002606 0.011679 -0.002370 0.009388 -0.002580 -0.004230
# 3 -0.008330 -0.002370 0.020945 0.005559 -0.019090 -0.005690
# 4 -0.004197 0.009388 0.005559 0.048145 -0.026184 -0.001000
# 5 0.014811 -0.002580 -0.019090 -0.026184 0.068546 0.017559
# 6 -0.005493 -0.004230 -0.005690 -0.001000 0.017559 0.041811
#
#
# Mechanical properties :
#
#
# Convention : Reuss Voigt Hill
#
# Bulk Modulus (GPa) = 36.45898 57.07938 46.76918
# Shear Modulus (GPa) = 20.13721 34.00347 27.07034
#
# Velocity S-wave (km/s) = 3.00479 3.90460 3.48387
# Velocity P-wave (km/s) = 5.32778 6.77645 6.09530
#
# Compressibility (1/GPa) = 0.02742809
#
# Stress axis : x y z
#
# Youngs Moduli (GPa) = 46.69511 85.62132 47.74424
#
# Poissons Ratio (x) = 0.22315 0.39771
# Poissons Ratio (y) = 0.12170 0.11314
# Poissons Ratio (z) = 0.38897 0.20289
#
# Static dielectric constant tensor:
#      x y z
#    x 3.924500 0.348780 -0.005440 
#    y 0.348780 4.615520 -0.407010 
#    z -0.005440 -0.407010 4.055500 
# 
# 
# High freq. dielectric constant tensor:
#      x y z
#    x 1.846760 0.025750 -0.008700 
#    y 0.025750 1.886050 -0.031500 
#    z -0.008700 -0.031500 1.870690 
# 
# From -- ./inp_files/45000.got.cif
#   From: 2010.06.25/outbox.cif.g09.slc.cpg/sg2_23_cif.got.tgz:45000.got - 2010.06.27 13:26:56.
