data_PCOD8013153
_publ_section_title
;
Structure prediction by ZEFSAII (Michael W. Deem and Ramdas Pophale) SiO2 
 PCOD8013153
Probable space group: P -1
;
_chemical_formula_sum "Si O2"
_cell_formula_units_Z 16
_cell_length_a 14.029044
_cell_length_b 8.444780
_cell_length_c 8.240722
_cell_angle_alpha 106.029700
_cell_angle_beta 72.555416
_cell_angle_gamma 136.059812
_cell_volume 643.616481
_symmetry_space_group_name_H-M "P -1"
_symmetry_group_IT_number 2
_symmetry_cell_setting 'triclinic'
loop_
_space_group_symop_operation_xyz
x,y,z
-x,-y,-z
loop_
_atom_site_type_symbol
_atom_site_label
_atom_site_fract_x
_atom_site_fract_y
_atom_site_fract_z
Si Si1 0.038577 0.744573 0.369396
Si Si2 0.211279 0.685871 0.093290
Si Si3 0.102912 0.283084 0.854631
Si Si4 0.617324 0.817471 0.952639
Si Si5 0.155007 0.019266 0.894919
Si Si6 0.760191 0.411062 0.613796
Si Si7 0.461761 0.583997 0.290238
Si Si8 0.282403 0.995855 0.552158
O O1 0.980498 0.822260 0.302839
O O2 0.918555 0.575108 0.515046
O O3 0.072821 0.629730 0.199786
O O4 0.185558 0.955596 0.442688
O O5 0.242032 0.587303 0.189556
O O6 0.342238 0.957513 0.074586
O O7 0.190905 0.553840 0.901715
O O8 0.191428 0.217900 0.815343
O O9 0.004863 0.173573 0.032529
O O10 0.558239 0.635629 0.785369
O O11 0.754373 0.875490 0.958075
O O12 0.512955 0.718081 0.129254
O O13 0.194373 0.904431 0.737664
O O14 0.679241 0.478765 0.606939
O O15 0.679834 0.151797 0.532324
O O16 0.574412 0.737903 0.420572
#
# Coordination Sequence:
#
# PCOD8013153 Si02
#       8
#     2   2   2   2   2   2   2   2
#     4  11  23  40  67 104 136 171 217 275 340 399
#     4  11  22  41  68 102 130 176 229 277 333 391
#     4  11  22  37  68 103 131 173 222 281 332 394
#     4  10  22  42  71  95 129 177 232 282 325 389
#     4  10  21  40  65  96 139 169 221 277 337 390
#     4  11  23  42  68 100 141 172 217 276 340 404
#     4  10  23  44  69  93 135 182 224 275 333 393
#     4  10  22  42  66  94 134 183 211 267 340 399
#
# _framework density 24.859525999999999
#
# number of rings (size 3 to 8) (size 9 to 14) (size 15 to 20)
#    0.000    1.500    1.250    4.500    3.500    2.000 
#    4.500    2.500    5.500    0.000    0.000    0.000 
#    0.000    0.000    0.000    0.000    0.000    0.000 
#
# Total GULP energy -198277.776985 kJ/mol
# GULP energy per Si atom -12392.361062 kJ/mol
# Density = 2.480295 g / cm^3
# Si number density = 24.859526 Si / 1000 Ang^3
#
#
#
# Elastic Constant Matrix: (Units=GPa)
#
#
# Indices 1 2 3 4 5 6 
#
# 1 84.0214 25.1462 16.9778 17.1897 16.1606 6.1724
# 2 25.1462 100.2707 26.1200 15.7510 5.9000 0.7323
# 3 16.9778 26.1200 68.8203 23.3244 9.6171 2.9248
# 4 17.1897 15.7510 23.3244 41.5917 7.4369 6.2971
# 5 16.1606 5.9000 9.6171 7.4369 39.4150 -5.6587
# 6 6.1724 0.7323 2.9248 6.2971 -5.6587 27.9180
#
#
#
# Elastic Compliance Matrix: (Units=1/GPa)
#
#
# Indices 1 2 3 4 5 6 
#
# 1 0.014794 -0.002694 -0.000622 -0.003250 -0.005399 -0.003496
# 2 -0.002694 0.011747 -0.003340 -0.001757 0.000660 0.001168
# 3 -0.000622 -0.003340 0.019282 -0.008835 -0.002322 -0.000273
# 4 -0.003250 -0.001757 -0.008835 0.032553 -0.003298 -0.006321
# 5 -0.005399 0.000660 -0.002322 -0.003298 0.029854 0.008215
# 6 -0.003496 0.001168 -0.000273 -0.006321 0.008215 0.039681
#
#
# Mechanical properties :
#
#
# Convention : Reuss Voigt Hill
#
# Bulk Modulus (GPa) = 30.76014 43.28894 37.02454
# Shear Modulus (GPa) = 29.05918 34.10950 31.58434
#
# Velocity S-wave (km/s) = 3.42268 3.70819 3.56829
# Velocity P-wave (km/s) = 5.29340 5.98210 5.64825
#
# Compressibility (1/GPa) = 0.03250961
#
# Stress axis : x y z
#
# Youngs Moduli (GPa) = 67.59449 85.12518 51.86122
#
# Poissons Ratio (x) = 0.22934 0.03228
# Poissons Ratio (y) = 0.18211 0.17324
# Poissons Ratio (z) = 0.04208 0.28435
#
# Static dielectric constant tensor:
#      x y z
#    x 4.300670 0.097400 -0.007350 
#    y 0.097400 4.342330 0.132510 
#    z -0.007350 0.132510 4.464440 
# 
# 
# High freq. dielectric constant tensor:
#      x y z
#    x 1.976870 0.004000 -0.000400 
#    y 0.004000 1.971540 0.010480 
#    z -0.000400 0.010480 1.989210 
# 
# From -- ./inp_files/299146.got.cif
#   From: 2010.06.25/outbox.cif.g09.slc.cpg/sg2_150_cif.got.tgz:299146.got - 2010.06.27 13:26:56.
