data_PCOD8013805
_publ_section_title
;
Structure prediction by ZEFSAII (Michael W. Deem and Ramdas Pophale) SiO2 
 PCOD8013805
Probable space group: P -1
;
_chemical_formula_sum "Si O2"
_cell_formula_units_Z 14
_cell_length_a 11.584967
_cell_length_b 8.369677
_cell_length_c 9.473562
_cell_angle_alpha 48.768512
_cell_angle_beta 88.658068
_cell_angle_gamma 79.090384
_cell_volume 671.919597
_symmetry_space_group_name_H-M "P -1"
_symmetry_group_IT_number 2
_symmetry_cell_setting 'triclinic'
loop_
_space_group_symop_operation_xyz
x,y,z
-x,-y,-z
loop_
_atom_site_type_symbol
_atom_site_label
_atom_site_fract_x
_atom_site_fract_y
_atom_site_fract_z
Si Si1 0.241058 0.783002 0.880645
Si Si2 0.476038 0.834974 0.979405
Si Si3 0.944899 0.786461 0.410322
Si Si4 0.182879 0.515904 0.532790
Si Si5 0.359395 0.593545 0.698441
Si Si6 0.600155 0.965105 0.631281
Si Si7 0.205330 0.410687 0.290221
O O1 0.337569 0.878011 0.913313
O O2 0.306802 0.673901 0.804037
O O3 0.125032 0.963174 0.734991
O O4 0.186115 0.611508 0.067976
O O5 0.560209 0.864161 0.831301
O O6 0.516770 0.583788 0.177882
O O7 0.500000 0.000000 0.000000
O O8 0.895808 0.666935 0.348696
O O9 0.915618 0.668514 0.625383
O O10 0.087542 0.753204 0.410898
O O11 0.273455 0.474745 0.683230
O O12 0.252042 0.486703 0.396197
O O13 0.373730 0.796566 0.482225
O O14 0.709910 0.798335 0.658346
O O15 0.500000 0.000000 0.500000
#
# Coordination Sequence:
#
# PCOD8013805 Si02
#       7
#     2   2   2   2   2   2   2
#     4  12  22  40  64  90 124 161 202 256 301 360
#     4  12  27  40  60  95 125 159 204 252 304 367
#     4   9  20  44  64  86 126 160 201 253 306 351
#     4   9  22  42  64  90 123 161 204 253 297 365
#     4  12  23  40  63  92 124 160 204 248 306 359
#     4  12  23  41  63  86 127 167 199 249 307 358
#     4  10  21  41  62  89 118 165 204 243 308 355
#
# _framework density 20.835826999999998
#
# number of rings (size 3 to 8) (size 9 to 14) (size 15 to 20)
#    0.857    0.286    4.286    2.143    4.000    1.714 
#    0.000    0.714    0.000    0.000    0.000    0.000 
#    0.000    0.000    0.000    0.000    0.000    0.000 
#
# Total GULP energy -173476.513723 kJ/mol
# GULP energy per Si atom -12391.179552 kJ/mol
# Density = 2.078840 g / cm^3
# Si number density = 20.835827 Si / 1000 Ang^3
#
#
#
# Elastic Constant Matrix: (Units=GPa)
#
#
# Indices 1 2 3 4 5 6 
#
# 1 34.8527 9.3548 23.4417 0.2603 -2.3976 -9.5988
# 2 9.3548 79.3809 25.5721 -10.4481 -1.2517 -17.1734
# 3 23.4417 25.5721 91.2150 -20.8333 -12.7734 -3.8344
# 4 0.2603 -10.4481 -20.8333 27.0545 8.0400 5.1822
# 5 -2.3976 -1.2517 -12.7734 8.0400 24.5257 0.6030
# 6 -9.5988 -17.1734 -3.8344 5.1822 0.6030 31.7980
#
#
#
# Elastic Compliance Matrix: (Units=1/GPa)
#
#
# Indices 1 2 3 4 5 6 
#
# 1 0.041101 0.000487 -0.012957 -0.013092 0.001261 0.013217
# 2 0.000487 0.015791 -0.004038 0.002108 -0.002134 0.007885
# 3 -0.012957 -0.004038 0.018699 0.012870 0.004195 -0.006014
# 4 -0.013092 0.002108 0.012870 0.053133 -0.011649 -0.009700
# 5 0.001261 -0.002134 0.004195 -0.011649 0.046773 0.000745
# 6 0.013217 0.007885 -0.006014 -0.009700 0.000745 0.040538
#
#
# Mechanical properties :
#
#
# Convention : Reuss Voigt Hill
#
# Bulk Modulus (GPa) = 23.48849 35.79842 29.64345
# Shear Modulus (GPa) = 18.99388 26.48097 22.73743
#
# Velocity S-wave (km/s) = 3.02254 3.56888 3.30702
# Velocity P-wave (km/s) = 4.84547 5.84817 5.37027
#
# Compressibility (1/GPa) = 0.04257405
#
# Stress axis : x y z
#
# Youngs Moduli (GPa) = 24.33032 63.32872 53.47863
#
# Poissons Ratio (x) = -0.03081 0.69292
# Poissons Ratio (y) = -0.01184 0.21594
# Poissons Ratio (z) = 0.31525 0.25572
#
# Static dielectric constant tensor:
#      x y z
#    x 3.593540 -0.061710 0.110810 
#    y -0.061710 3.940140 0.006280 
#    z 0.110810 0.006280 3.570110 
# 
# 
# High freq. dielectric constant tensor:
#      x y z
#    x 1.796560 -0.016400 -0.001050 
#    y -0.016400 1.827030 -0.005620 
#    z -0.001050 -0.005620 1.808880 
# 
# From -- ./inp_files/242053.got.cif
#   From: 2010.06.25/outbox.cif.g09.slc.cpg/sg2_122_cif.got.tgz:242053.got - 2010.06.27 13:26:56.
