data_PCOD8013334
_publ_section_title
;
Structure prediction by ZEFSAII (Michael W. Deem and Ramdas Pophale) SiO2 
 PCOD8013334
Probable space group: P -1
;
_chemical_formula_sum "Si O2"
_cell_formula_units_Z 16
_cell_length_a 8.681796
_cell_length_b 13.030880
_cell_length_c 8.928150
_cell_angle_alpha 55.884602
_cell_angle_beta 66.381819
_cell_angle_gamma 96.351603
_cell_volume 687.256982
_symmetry_space_group_name_H-M "P -1"
_symmetry_group_IT_number 2
_symmetry_cell_setting 'triclinic'
loop_
_space_group_symop_operation_xyz
x,y,z
-x,-y,-z
loop_
_atom_site_type_symbol
_atom_site_label
_atom_site_fract_x
_atom_site_fract_y
_atom_site_fract_z
Si Si1 0.511583 0.221206 0.486323
Si Si2 0.545106 0.159612 0.848874
Si Si3 0.179831 0.056730 0.242648
Si Si4 0.115261 0.975885 0.840449
Si Si5 0.042532 0.223059 0.341324
Si Si6 0.813633 0.401501 0.735057
Si Si7 0.151132 0.731265 0.889681
Si Si8 0.362145 0.421475 0.250425
O O1 0.602038 0.237772 0.603045
O O2 0.644554 0.208771 0.316040
O O3 0.454779 0.344656 0.377042
O O4 0.330107 0.078624 0.680107
O O5 0.713256 0.249293 0.823053
O O6 0.347833 0.149250 0.992898
O O7 0.500000 0.000000 0.000000
O O8 0.184522 0.159020 0.289161
O O9 0.975931 0.003137 0.291230
O O10 0.162277 0.906301 0.428304
O O11 0.116849 0.827900 0.947024
O O12 0.000000 0.000000 0.000000
O O13 0.151346 0.322159 0.354406
O O14 0.003179 0.308293 0.151383
O O15 0.666269 0.467033 0.726572
O O16 0.000000 0.500000 0.500000
O O17 0.867028 0.395547 0.894443
O O18 0.500000 0.500000 0.000000
#
# Coordination Sequence:
#
# PCOD8013334 Si02
#       8
#     2   2   2   2   2   2   2   2
#     4  12  25  44  76 107 146 200 243 307 373 441
#     4  12  27  46  74 110 152 187 249 310 375 432
#     4  10  21  40  67 110 143 182 237 303 368 434
#     4  11  22  41  72 110 146 187 241 308 370 433
#     4  10  23  41  75 103 144 189 243 302 363 441
#     4  12  31  48  73 106 150 198 249 311 368 443
#     4  11  26  46  71 107 144 196 249 302 371 446
#     4  12  26  48  72 102 151 196 250 299 375 444
#
# _framework density 23.280957999999998
#
# number of rings (size 3 to 8) (size 9 to 14) (size 15 to 20)
#    0.000    0.750    3.750    2.625    5.250    2.000 
#    0.000    0.000    0.000    0.000    0.000    0.000 
#    0.000    0.000    0.000    0.000    0.000    0.000 
#
# Total GULP energy -198277.056189 kJ/mol
# GULP energy per Si atom -12392.316012 kJ/mol
# Density = 2.322797 g / cm^3
# Si number density = 23.280958 Si / 1000 Ang^3
#
#
#
# Elastic Constant Matrix: (Units=GPa)
#
#
# Indices 1 2 3 4 5 6 
#
# 1 97.2121 31.9110 41.0993 2.3367 14.8753 -3.5664
# 2 31.9110 97.4782 33.4681 3.0916 -0.5128 -12.0778
# 3 41.0993 33.4681 134.7922 18.7881 -0.1533 -4.9221
# 4 2.3367 3.0916 18.7881 35.0482 -4.4838 -7.4016
# 5 14.8753 -0.5128 -0.1533 -4.4838 54.5259 2.0924
# 6 -3.5664 -12.0778 -4.9221 -7.4016 2.0924 39.3333
#
#
#
# Elastic Compliance Matrix: (Units=1/GPa)
#
#
# Indices 1 2 3 4 5 6 
#
# 1 0.013307 -0.003229 -0.003362 0.000765 -0.003612 0.000130
# 2 -0.003229 0.012442 -0.002133 0.001105 0.000952 0.003418
# 3 -0.003362 -0.002133 0.009621 -0.004820 0.000554 -0.000692
# 4 0.000765 0.001105 -0.004820 0.032478 0.002236 0.005798
# 5 -0.003612 0.000952 0.000554 0.002236 0.019542 -0.000585
# 6 0.000130 0.003418 -0.000692 0.005798 -0.000585 0.027521
#
#
# Mechanical properties :
#
#
# Convention : Reuss Voigt Hill
#
# Bulk Modulus (GPa) = 55.79655 60.27106 58.03381
# Shear Modulus (GPa) = 36.14505 40.64841 38.39673
#
# Velocity S-wave (km/s) = 3.94453 4.18304 4.06553
# Velocity P-wave (km/s) = 6.69062 7.01963 6.85710
#
# Compressibility (1/GPa) = 0.01792225
#
# Stress axis : x y z
#
# Youngs Moduli (GPa) = 75.14721 80.37607 103.94380
#
# Poissons Ratio (x) = 0.25955 0.34943
# Poissons Ratio (y) = 0.24267 0.22167
# Poissons Ratio (z) = 0.25262 0.17141
#
# Static dielectric constant tensor:
#      x y z
#    x 4.184870 -0.099830 0.005640 
#    y -0.099830 4.664770 0.291380 
#    z 0.005640 0.291380 4.273570 
# 
# 
# High freq. dielectric constant tensor:
#      x y z
#    x 1.925650 -0.012130 0.005120 
#    y -0.012130 1.917570 0.010700 
#    z 0.005120 0.010700 1.923930 
# 
# From -- ./inp_files/205537.got.cif
#   From: 2010.06.25/outbox.cif.g09.slc.cpg/sg2_103_cif.got.tgz:205537.got - 2010.06.27 13:26:56.
