data_PCOD8013122
_publ_section_title
;
Structure prediction by ZEFSAII (Michael W. Deem and Ramdas Pophale) SiO2 
 PCOD8013122
Probable space group: P -1
;
_chemical_formula_sum "Si O2"
_cell_formula_units_Z 16
_cell_length_a 20.869979
_cell_length_b 12.350435
_cell_length_c 11.033876
_cell_angle_alpha 55.082092
_cell_angle_beta 39.415299
_cell_angle_gamma 25.245693
_cell_volume 681.160368
_symmetry_space_group_name_H-M "P -1"
_symmetry_group_IT_number 2
_symmetry_cell_setting 'triclinic'
loop_
_space_group_symop_operation_xyz
x,y,z
-x,-y,-z
loop_
_atom_site_type_symbol
_atom_site_label
_atom_site_fract_x
_atom_site_fract_y
_atom_site_fract_z
Si Si1 0.669155 0.720647 0.354077
Si Si2 0.752453 0.269605 0.144617
Si Si3 0.334578 0.174451 0.284367
Si Si4 0.095272 0.593148 0.557833
Si Si5 0.009157 0.075272 0.697742
Si Si6 0.582328 0.565237 0.440998
Si Si7 0.188524 0.324895 0.057710
Si Si8 0.062734 0.252023 0.658024
O O1 0.555391 0.745505 0.415064
O O2 0.797091 0.672040 0.109242
O O3 0.841060 0.450659 0.367831
O O4 0.500000 0.000000 0.500000
O O5 0.610903 0.527661 0.276350
O O6 0.644192 0.248259 0.313623
O O7 0.776616 0.288754 0.955175
O O8 0.000000 0.000000 0.000000
O O9 0.145101 0.459533 0.300130
O O10 0.305219 0.275389 0.395403
O O11 0.287167 0.072248 0.421733
O O12 0.582552 0.919216 0.046322
O O13 0.034297 0.799409 0.445411
O O14 0.887852 0.734880 0.762338
O O15 0.113220 0.046088 0.672421
O O16 0.202996 0.744280 0.606593
O O17 0.014718 0.636381 0.161470
#
# Coordination Sequence:
#
# PCOD8013122 Si02
#       8
#     2   2   2   2   2   2   2   2
#     4  12  25  46  65  87 129 175 224 270 306 382
#     4   9  20  43  68 102 129 162 206 262 324 386
#     4   9  18  35  55  92 129 162 203 259 317 381
#     4  10  23  42  60  94 128 167 220 261 323 376
#     4  10  21  40  65  94 134 162 204 273 317 392
#     4  10  23  43  69  99 126 171 212 255 331 380
#     4  11  21  38  63  91 124 174 213 266 320 374
#     4   9  19  32  59  92 127 159 203 258 325 380
#
# _framework density 23.489328
#
# number of rings (size 3 to 8) (size 9 to 14) (size 15 to 20)
#    0.000    2.000    1.250    2.250    0.000    6.500 
#    9.000    0.625    0.000    0.000    0.000    0.000 
#    0.000    0.000    0.000    0.000    0.000    0.000 
#
# Total GULP energy -198227.831785 kJ/mol
# GULP energy per Si atom -12389.239487 kJ/mol
# Density = 2.343586 g / cm^3
# Si number density = 23.489328 Si / 1000 Ang^3
#
#
#
# Elastic Constant Matrix: (Units=GPa)
#
#
# Indices 1 2 3 4 5 6 
#
# 1 77.4534 13.2609 38.8021 9.4104 -1.4810 -1.6641
# 2 13.2609 41.6598 38.6646 8.1169 1.7995 -0.8425
# 3 38.8021 38.6646 145.0648 -8.9709 -12.4076 -4.5906
# 4 9.4104 8.1169 -8.9709 33.3915 -5.0461 3.9483
# 5 -1.4810 1.7995 -12.4076 -5.0461 40.6155 -4.6438
# 6 -1.6641 -0.8425 -4.5906 3.9483 -4.6438 42.8422
#
#
#
# Elastic Compliance Matrix: (Units=1/GPa)
#
#
# Indices 1 2 3 4 5 6 
#
# 1 0.016053 0.000943 -0.005077 -0.006441 -0.001750 0.000502
# 2 0.000943 0.037464 -0.011662 -0.013547 -0.006868 0.000028
# 3 -0.005077 -0.011662 0.012340 0.008286 0.005210 0.000697
# 4 -0.006441 -0.013547 0.008286 0.038687 0.007430 -0.002389
# 5 -0.001750 -0.006868 0.005210 0.007430 0.027682 0.002671
# 6 0.000502 0.000028 0.000697 -0.002389 0.002671 0.023946
#
#
# Mechanical properties :
#
#
# Convention : Reuss Voigt Hill
#
# Bulk Modulus (GPa) = 29.18459 49.51481 39.34970
# Shear Modulus (GPa) = 25.10212 34.93318 30.01765
#
# Velocity S-wave (km/s) = 3.27258 3.86060 3.57869
# Velocity P-wave (km/s) = 5.17024 6.40295 5.81933
#
# Compressibility (1/GPa) = 0.03426465
#
# Stress axis : x y z
#
# Youngs Moduli (GPa) = 62.29329 26.69231 81.03702
#
# Poissons Ratio (x) = -0.02518 0.41146
# Poissons Ratio (y) = -0.05876 0.94505
# Poissons Ratio (z) = 0.31629 0.31129
#
# Static dielectric constant tensor:
#      x y z
#    x 4.478510 0.118020 0.210270 
#    y 0.118020 4.225450 -0.242780 
#    z 0.210270 -0.242780 5.002000 
# 
# 
# High freq. dielectric constant tensor:
#      x y z
#    x 1.910660 -0.010400 0.000630 
#    y -0.010400 1.927440 -0.002240 
#    z 0.000630 -0.002240 1.945260 
# 
# From -- ./inp_files/470964.got.cif
#   From: 2010.06.25/outbox.cif.g09.slc.cpg/sg2_236_cif.got.tgz:470964.got - 2010.06.27 13:26:56.
