data_PCOD8013020
_publ_section_title
;
Structure prediction by ZEFSAII (Michael W. Deem and Ramdas Pophale) SiO2 
 PCOD8013020
Probable space group: P -1
;
_chemical_formula_sum "Si O2"
_cell_formula_units_Z 14
_cell_length_a 21.920865
_cell_length_b 13.731198
_cell_length_c 13.760035
_cell_angle_alpha 148.128761
_cell_angle_beta 155.772517
_cell_angle_gamma 20.708044
_cell_volume 600.792256
_symmetry_space_group_name_H-M "P -1"
_symmetry_group_IT_number 2
_symmetry_cell_setting 'triclinic'
loop_
_space_group_symop_operation_xyz
x,y,z
-x,-y,-z
loop_
_atom_site_type_symbol
_atom_site_label
_atom_site_fract_x
_atom_site_fract_y
_atom_site_fract_z
Si Si1 0.702200 0.452938 0.746804
Si Si2 0.516727 0.696931 0.367088
Si Si3 0.253134 0.274515 0.837810
Si Si4 0.284140 0.888586 0.827458
Si Si5 0.161528 0.925518 0.890546
Si Si6 0.922505 0.354674 0.553348
Si Si7 0.469657 0.959828 0.710676
O O1 0.500000 0.500000 0.500000
O O2 0.653313 0.667194 0.784149
O O3 0.757654 0.492610 0.967217
O O4 0.911361 0.151197 0.756606
O O5 0.413262 0.907926 0.484892
O O6 0.731024 0.613622 0.565664
O O7 0.587252 0.423470 0.266712
O O8 0.323540 0.871947 0.155910
O O9 0.049744 0.387342 0.702710
O O10 0.244393 0.197537 0.650562
O O11 0.500000 0.000000 0.000000
O O12 0.446603 0.910397 0.070035
O O13 0.179578 0.009738 0.884779
O O14 0.090526 0.075996 0.624953
O O15 0.216369 0.657639 0.728474
#
# Coordination Sequence:
#
# PCOD8013020 Si02
#       7
#     2   2   2   2   2   2   2
#     4  11  23  42  74  95 134 175 227 279 333 394
#     4  11  26  43  66  98 144 179 217 270 343 401
#     4  10  21  40  65 101 130 163 226 282 327 383
#     4  11  22  41  72 102 129 171 234 284 322 385
#     4  11  24  43  66 101 135 182 216 273 345 398
#     4  11  20  42  70  98 130 173 229 281 320 392
#     4  11  24  42  70 103 130 173 230 279 329 394
#
# _framework density 23.302564
#
# number of rings (size 3 to 8) (size 9 to 14) (size 15 to 20)
#    0.000    1.143    2.857    6.857    4.000    1.714 
#    2.571    3.571    0.000    0.000    0.000    0.000 
#    0.000    0.000    0.000    0.000    0.000    0.000 
#
# Total GULP energy -173479.706596 kJ/mol
# GULP energy per Si atom -12391.407614 kJ/mol
# Density = 2.324953 g / cm^3
# Si number density = 23.302564 Si / 1000 Ang^3
#
#
#
# Elastic Constant Matrix: (Units=GPa)
#
#
# Indices 1 2 3 4 5 6 
#
# 1 134.1002 55.0020 79.0484 12.6346 4.7600 -36.8178
# 2 55.0020 51.4589 30.3212 11.7518 3.3211 -20.7546
# 3 79.0484 30.3212 125.4636 15.6542 -0.2395 -10.3461
# 4 12.6346 11.7518 15.6542 34.9303 -9.7500 -6.9123
# 5 4.7600 3.3211 -0.2395 -9.7500 51.4288 10.4177
# 6 -36.8178 -20.7546 -10.3461 -6.9123 10.4177 23.8281
#
#
#
# Elastic Compliance Matrix: (Units=1/GPa)
#
#
# Indices 1 2 3 4 5 6 
#
# 1 0.028873 -0.008383 -0.013587 0.003140 -0.008938 0.036231
# 2 -0.008383 0.041179 -0.001799 -0.007632 -0.008090 0.023456
# 3 -0.013587 -0.001799 0.015935 -0.004089 0.004478 -0.018785
# 4 0.003140 -0.007632 -0.004089 0.034295 0.005917 0.003791
# 5 -0.008938 -0.008090 0.004478 0.005917 0.027890 -0.029390
# 6 0.036231 0.023456 -0.018785 0.003791 -0.029390 0.124171
#
#
# Mechanical properties :
#
#
# Convention : Reuss Voigt Hill
#
# Bulk Modulus (GPa) = 26.00822 71.08511 48.54666
# Shear Modulus (GPa) = 15.02870 31.81419 23.42144
#
# Velocity S-wave (km/s) = 2.54232 3.69896 3.17377
# Velocity P-wave (km/s) = 4.45007 6.98674 5.85738
#
# Compressibility (1/GPa) = 0.03844939
#
# Stress axis : x y z
#
# Youngs Moduli (GPa) = 34.63432 24.28442 62.75403
#
# Poissons Ratio (x) = 0.20358 0.85262
# Poissons Ratio (y) = 0.29034 0.11289
# Poissons Ratio (z) = 0.47057 0.04369
#
# Static dielectric constant tensor:
#      x y z
#    x 4.674810 -0.524730 -0.208640 
#    y -0.524730 4.248510 0.310910 
#    z -0.208640 0.310910 4.253680 
# 
# 
# High freq. dielectric constant tensor:
#      x y z
#    x 1.923020 -0.028600 0.002450 
#    y -0.028600 1.904310 0.018410 
#    z 0.002450 0.018410 1.929290 
# 
# From -- ./inp_files/543078.got.cif
#   From: 2010.06.25/outbox.cif.g09.slc.cpg/sg2_272_cif.got.tgz:543078.got - 2010.06.27 13:26:56.
