data_PCOD8013004
_publ_section_title
;
Structure prediction by ZEFSAII (Michael W. Deem and Ramdas Pophale) SiO2 
 PCOD8013004
Probable space group: P -1
;
_chemical_formula_sum "Si O2"
_cell_formula_units_Z 16
_cell_length_a 12.306402
_cell_length_b 13.226248
_cell_length_c 8.983439
_cell_angle_alpha 49.746297
_cell_angle_beta 129.124310
_cell_angle_gamma 138.275591
_cell_volume 710.163505
_symmetry_space_group_name_H-M "P -1"
_symmetry_group_IT_number 2
_symmetry_cell_setting 'triclinic'
loop_
_space_group_symop_operation_xyz
x,y,z
-x,-y,-z
loop_
_atom_site_type_symbol
_atom_site_label
_atom_site_fract_x
_atom_site_fract_y
_atom_site_fract_z
Si Si1 0.686183 0.882103 0.973295
Si Si2 0.660150 0.491080 0.621891
Si Si3 0.550065 0.872935 0.181541
Si Si4 0.900822 0.260233 0.740925
Si Si5 0.813008 0.114205 0.369289
Si Si6 0.377056 0.821290 0.622478
Si Si7 0.872522 0.721545 0.323664
Si Si8 0.014865 0.366710 0.065879
O O1 0.648522 0.871992 0.124636
O O2 0.779730 0.796382 0.100258
O O3 0.506304 0.775075 0.828386
O O4 0.808105 0.067965 0.852872
O O5 0.500000 0.500000 0.500000
O O6 0.609574 0.308279 0.749404
O O7 0.748659 0.569597 0.466219
O O8 0.794239 0.585818 0.782890
O O9 0.673534 0.927631 0.381678
O O10 0.500000 0.000000 0.000000
O O11 0.761924 0.288278 0.522421
O O12 0.062558 0.336504 0.698362
O O13 0.973790 0.354770 0.867615
O O14 0.724747 0.187476 0.310366
O O15 0.965359 0.135479 0.577937
O O16 0.877062 0.198229 0.184022
O O17 0.500000 0.000000 0.500000
O O18 0.000000 0.500000 0.000000
#
# Coordination Sequence:
#
# PCOD8013004 Si02
#       8
#     2   2   2   2   2   2   2   2
#     4  11  20  37  73 101 133 172 230 278 331 397
#     4  11  25  44  66 102 143 176 218 284 343 401
#     4  12  22  38  73 102 132 174 234 278 332 391
#     4  10  22  43  66  98 133 178 230 274 337 399
#     4  10  21  40  64  98 129 170 226 275 328 397
#     4   9  20  37  62  98 132 163 217 284 328 384
#     4  10  23  43  67  98 140 178 214 281 344 405
#     4  11  24  42  69  95 133 178 227 276 335 402
#
# _framework density 22.530024000000001
#
# number of rings (size 3 to 8) (size 9 to 14) (size 15 to 20)
#    0.000    1.500    3.750    1.125    0.000    1.500 
#    0.000    8.750    2.750    0.000    0.000    0.000 
#    0.000    0.000    0.000    0.000    0.000    0.000 
#
# Total GULP energy -198338.929070 kJ/mol
# GULP energy per Si atom -12396.183067 kJ/mol
# Density = 2.247874 g / cm^3
# Si number density = 22.530024 Si / 1000 Ang^3
#
#
#
# Elastic Constant Matrix: (Units=GPa)
#
#
# Indices 1 2 3 4 5 6 
#
# 1 108.0313 49.5221 65.0063 26.9398 -6.4353 15.3650
# 2 49.5221 112.4487 60.3622 16.2218 -5.0406 8.2676
# 3 65.0063 60.3622 137.1662 38.9816 3.5819 0.5470
# 4 26.9398 16.2218 38.9816 45.4561 0.1223 -1.7445
# 5 -6.4353 -5.0406 3.5819 0.1223 48.1881 4.1053
# 6 15.3650 8.2676 0.5470 -1.7445 4.1053 32.3702
#
#
#
# Elastic Compliance Matrix: (Units=1/GPa)
#
#
# Indices 1 2 3 4 5 6 
#
# 1 0.015977 -0.003037 -0.005045 -0.004347 0.002825 -0.007316
# 2 -0.003037 0.012675 -0.004460 0.001026 0.001406 -0.001844
# 3 -0.005045 -0.004460 0.013692 -0.007030 -0.002415 0.003230
# 4 -0.004347 0.001026 -0.007030 0.030377 -0.000334 0.003600
# 5 0.002825 0.001406 -0.002415 -0.000334 0.021836 -0.004447
# 6 -0.007316 -0.001844 0.003230 0.003600 -0.004447 0.035539
#
#
# Mechanical properties :
#
#
# Convention : Reuss Voigt Hill
#
# Bulk Modulus (GPa) = 57.93191 78.60303 68.26747
# Shear Modulus (GPa) = 31.06918 37.38660 34.22789
#
# Velocity S-wave (km/s) = 3.71753 4.07801 3.90194
# Velocity P-wave (km/s) = 6.64799 7.55893 7.11805
#
# Compressibility (1/GPa) = 0.01726165
#
# Stress axis : x y z
#
# Youngs Moduli (GPa) = 62.58987 78.89740 73.03644
#
# Poissons Ratio (x) = 0.23958 0.36845
# Poissons Ratio (y) = 0.19006 0.32572
# Poissons Ratio (z) = 0.31575 0.35185
#
# Static dielectric constant tensor:
#      x y z
#    x 4.037510 0.467660 -0.088420 
#    y 0.467660 4.297060 0.287450 
#    z -0.088420 0.287450 4.329710 
# 
# 
# High freq. dielectric constant tensor:
#      x y z
#    x 1.879690 0.030970 -0.008310 
#    y 0.030970 1.883610 0.016520 
#    z -0.008310 0.016520 1.895800 
# 
# From -- ./inp_files/271934.got.cif
#   From: 2010.06.25/outbox.cif.g09.slc.cpg/sg2_136_cif.got.tgz:271934.got - 2010.06.27 13:26:56.
