data_PCOD8013515
_publ_section_title
;
Structure prediction by ZEFSAII (Michael W. Deem and Ramdas Pophale) SiO2 
 PCOD8013515
Probable space group: P -1
;
_chemical_formula_sum "Si O2"
_cell_formula_units_Z 16
_cell_length_a 5.393837
_cell_length_b 21.527397
_cell_length_c 8.703943
_cell_angle_alpha 127.335252
_cell_angle_beta 87.355357
_cell_angle_gamma 91.603393
_cell_volume 802.720939
_symmetry_space_group_name_H-M "P -1"
_symmetry_group_IT_number 2
_symmetry_cell_setting 'triclinic'
loop_
_space_group_symop_operation_xyz
x,y,z
-x,-y,-z
loop_
_atom_site_type_symbol
_atom_site_label
_atom_site_fract_x
_atom_site_fract_y
_atom_site_fract_z
Si Si1 0.499999 0.304823 0.957232
Si Si2 0.256768 0.155692 0.658293
Si Si3 0.309020 0.567257 0.073982
Si Si4 0.241044 0.909495 0.956308
Si Si5 0.690981 0.567257 0.627790
Si Si6 0.999997 0.530132 0.295197
Si Si7 0.758962 0.909496 0.772180
Si Si8 0.743235 0.155692 0.808781
O O1 0.434340 0.355197 0.185411
O O2 0.270328 0.249219 0.830028
O O3 0.565653 0.355197 0.880175
O O4 0.729673 0.249220 0.917628
O O5 0.254088 0.141458 0.456533
O O6 0.500003 0.115601 0.673400
O O7 0.000002 0.121635 0.682452
O O8 0.171342 0.586244 0.268685
O O9 0.500000 0.500000 0.000000
O O10 0.130730 0.532644 0.901196
O O11 0.500007 0.893417 0.840131
O O12 0.000007 0.883242 0.824860
O O13 0.254087 0.858540 0.032157
O O14 0.213979 1.000000 0.137685
O O15 0.500000 0.500000 0.500000
O O16 0.828650 0.586245 0.490046
O O17 0.869271 0.532641 0.696729
#
# Coordination Sequence:
#
# PCOD8013515 Si02
#       8
#     2   2   2   2   2   2   2   2
#     4  10  24  38  61  80 130 160 204 262 317 372
#     4  10  23  40  63  92 129 172 205 256 314 380
#     4  11  20  39  58  86 113 149 205 257 312 361
#     4  10  21  40  68  97 129 166 210 260 305 366
#     4  11  20  39  58  86 113 149 205 257 312 361
#     4  10  22  32  66  86 108 152 200 274 306 374
#     4  10  21  40  68  97 129 166 210 260 305 366
#     4  10  23  40  63  92 129 172 205 256 314 380
#
# _framework density 19.932209
#
# number of rings (size 3 to 8) (size 9 to 14) (size 15 to 20)
#    0.750    1.000    2.500    1.500    1.750    1.000 
#    0.000    5.000    2.750    0.000    0.000    0.000 
#    0.000    0.000    0.000    0.000    0.000    0.000 
#
# Total GULP energy -198257.276332 kJ/mol
# GULP energy per Si atom -12391.079771 kJ/mol
# Density = 1.988684 g / cm^3
# Si number density = 19.932209 Si / 1000 Ang^3
#
#
#
# Elastic Constant Matrix: (Units=GPa)
#
#
# Indices 1 2 3 4 5 6 
#
# 1 151.7102 40.4599 53.8924 -21.4230 -3.4226 -3.2706
# 2 40.4599 98.4530 35.5494 -25.7010 -6.4313 0.9207
# 3 53.8924 35.5494 127.6147 -21.8837 -5.1397 6.4580
# 4 -21.4230 -25.7010 -21.8837 31.6105 4.6939 -1.5848
# 5 -3.4226 -6.4313 -5.1397 4.6939 26.4248 -9.7278
# 6 -3.2706 0.9207 6.4580 -1.5848 -9.7278 20.4496
#
#
#
# Elastic Compliance Matrix: (Units=1/GPa)
#
#
# Indices 1 2 3 4 5 6 
#
# 1 0.008482 -0.001845 -0.002778 0.002358 0.000740 0.002852
# 2 -0.001845 0.013862 -0.001570 0.008739 0.001662 0.001044
# 3 -0.002778 -0.001570 0.010267 0.003882 -0.000794 -0.003693
# 4 0.002358 0.008739 0.003882 0.043705 -0.004590 -0.000039
# 5 0.000740 0.001662 -0.000794 -0.004590 0.047257 0.022419
# 6 0.002852 0.001044 -0.003693 -0.000039 0.022419 0.061137
#
#
# Mechanical properties :
#
#
# Convention : Reuss Voigt Hill
#
# Bulk Modulus (GPa) = 49.44349 70.84238 60.14293
# Shear Modulus (GPa) = 24.52921 32.22207 28.37564
#
# Velocity S-wave (km/s) = 3.51184 4.02504 3.77717
# Velocity P-wave (km/s) = 6.42680 7.56439 7.01868
#
# Compressibility (1/GPa) = 0.02022511
#
# Stress axis : x y z
#
# Youngs Moduli (GPa) = 117.90265 72.13770 97.39928
#
# Poissons Ratio (x) = 0.13312 0.27057
# Poissons Ratio (y) = 0.21757 0.15288
# Poissons Ratio (z) = 0.32753 0.11323
#
# Static dielectric constant tensor:
#      x y z
#    x 4.032070 0.087260 -0.174370 
#    y 0.087260 3.442280 -0.209100 
#    z -0.174370 -0.209100 3.585660 
# 
# 
# High freq. dielectric constant tensor:
#      x y z
#    x 1.795460 -0.001800 -0.001710 
#    y -0.001800 1.760040 -0.023900 
#    z -0.001710 -0.023900 1.774340 
# 
# From -- ./inp_files/142362.got.cif
#   From: 2010.06.25/outbox.cif.g09.slc.cpg/sg2_72_cif.got.tgz:142362.got - 2010.06.27 13:26:56.
