data_PCOD8013732
_publ_section_title
;
Structure prediction by ZEFSAII (Michael W. Deem and Ramdas Pophale) SiO2 
 PCOD8013732
Probable space group: P -1
;
_chemical_formula_sum "Si O2"
_cell_formula_units_Z 14
_cell_length_a 17.852340
_cell_length_b 9.362647
_cell_length_c 15.572375
_cell_angle_alpha 135.039656
_cell_angle_beta 21.438903
_cell_angle_gamma 134.164518
_cell_volume 664.900990
_symmetry_space_group_name_H-M "P -1"
_symmetry_group_IT_number 2
_symmetry_cell_setting 'triclinic'
loop_
_space_group_symop_operation_xyz
x,y,z
-x,-y,-z
loop_
_atom_site_type_symbol
_atom_site_label
_atom_site_fract_x
_atom_site_fract_y
_atom_site_fract_z
Si Si1 0.942465 0.653351 0.886000
Si Si2 0.570492 0.814145 0.567052
Si Si3 0.954499 0.399375 0.599743
Si Si4 0.303790 0.984781 0.646220
Si Si5 0.623193 0.996700 0.761394
Si Si6 0.178832 0.537788 0.895243
Si Si7 0.782588 0.871766 0.703835
O O1 0.892766 0.560991 0.804413
O O2 0.813800 0.836057 0.117662
O O3 0.906287 0.475371 0.921504
O O4 0.179364 0.757414 0.688054
O O5 0.619484 0.996594 0.525603
O O6 0.321523 0.755428 0.820165
O O7 0.669750 0.628112 0.344655
O O8 0.688071 0.891445 0.561479
O O9 0.764493 0.215504 0.716968
O O10 0.000000 0.500000 0.500000
O O11 0.163300 0.322654 0.382884
O O12 0.500000 0.000000 0.500000
O O13 0.656117 0.834192 0.732600
O O14 0.378558 0.018016 0.021376
O O15 0.000000 0.500000 0.000000
O O16 0.000000 0.000000 0.500000
#
# Coordination Sequence:
#
# PCOD8013732 Si02
#       7
#     2   2   2   2   2   2   2
#     4  10  23  38  61  88 122 155 205 247 302 369
#     4  10  22  37  60  90 117 153 209 247 301 370
#     4  11  24  40  61  95 127 162 211 257 310 376
#     4  10  21  41  60  86 120 163 196 247 314 364
#     4  10  22  40  63  86 127 164 207 256 309 376
#     4  10  22  37  59  91 118 154 201 255 303 352
#     4   9  22  39  58  88 118 166 207 247 310 362
#
# _framework density 21.055765999999998
#
# number of rings (size 3 to 8) (size 9 to 14) (size 15 to 20)
#    0.000    2.000    0.000    1.714    8.000    4.000 
#    0.000    0.000    0.000    0.000    0.000    0.000 
#    0.000    0.000    0.000    0.000    0.000    0.000 
#
# Total GULP energy -173454.450551 kJ/mol
# GULP energy per Si atom -12389.603611 kJ/mol
# Density = 2.100784 g / cm^3
# Si number density = 21.055766 Si / 1000 Ang^3
#
#
#
# Elastic Constant Matrix: (Units=GPa)
#
#
# Indices 1 2 3 4 5 6 
#
# 1 140.7376 41.1649 50.9014 -6.8596 20.4116 -8.7493
# 2 41.1649 71.7849 43.7862 -17.8031 5.9203 -0.5886
# 3 50.9014 43.7862 79.4395 -28.3701 2.3576 -7.8025
# 4 -6.8596 -17.8031 -28.3701 27.2095 0.9510 -0.7762
# 5 20.4116 5.9203 2.3576 0.9510 48.6652 -0.3106
# 6 -8.7493 -0.5886 -7.8025 -0.7762 -0.3106 45.2164
#
#
#
# Elastic Compliance Matrix: (Units=1/GPa)
#
#
# Indices 1 2 3 4 5 6 
#
# 1 0.011046 -0.003050 -0.007794 -0.007189 -0.003740 0.000604
# 2 -0.003050 0.022278 -0.008822 0.004597 -0.001105 -0.001751
# 3 -0.007794 -0.008822 0.031953 0.025622 0.002321 0.004347
# 4 -0.007189 0.004597 0.025622 0.064783 -0.000024 0.004202
# 5 -0.003740 -0.001105 0.002321 -0.000024 0.022138 -0.000186
# 6 0.000604 -0.001751 0.004347 0.004202 -0.000186 0.023031
#
#
# Mechanical properties :
#
#
# Convention : Reuss Voigt Hill
#
# Bulk Modulus (GPa) = 38.54364 62.62965 50.58664
# Shear Modulus (GPa) = 22.40053 34.62551 28.51302
#
# Velocity S-wave (km/s) = 3.26524 4.05960 3.68389
# Velocity P-wave (km/s) = 5.70622 7.19604 6.49400
#
# Compressibility (1/GPa) = 0.02594462
#
# Stress axis : x y z
#
# Youngs Moduli (GPa) = 90.53158 44.88801 31.29579
#
# Poissons Ratio (x) = 0.13690 0.24391
# Poissons Ratio (y) = 0.27611 0.27610
# Poissons Ratio (z) = 0.70559 0.39602
#
# Static dielectric constant tensor:
#      x y z
#    x 3.991270 -0.177840 -0.026940 
#    y -0.177840 3.826870 -0.225550 
#    z -0.026940 -0.225550 4.130700 
# 
# 
# High freq. dielectric constant tensor:
#      x y z
#    x 1.835480 -0.002140 0.006780 
#    y -0.002140 1.810200 -0.017520 
#    z 0.006780 -0.017520 1.829300 
# 
# From -- ./inp_files/106822.got.cif
#   From: 2010.06.25/outbox.cif.g09.slc.cpg/sg2_54_cif.got.tgz:106822.got - 2010.06.27 13:26:56.
