data_PCOD8013512
_publ_section_title
;
Structure prediction by ZEFSAII (Michael W. Deem and Ramdas Pophale) SiO2 
 PCOD8013512
Probable space group: P -1
;
_chemical_formula_sum "Si O2"
_cell_formula_units_Z 14
_cell_length_a 8.855962
_cell_length_b 19.123010
_cell_length_c 9.388884
_cell_angle_alpha 127.036372
_cell_angle_beta 148.079196
_cell_angle_gamma 55.788816
_cell_volume 666.192394
_symmetry_space_group_name_H-M "P -1"
_symmetry_group_IT_number 2
_symmetry_cell_setting 'triclinic'
loop_
_space_group_symop_operation_xyz
x,y,z
-x,-y,-z
loop_
_atom_site_type_symbol
_atom_site_label
_atom_site_fract_x
_atom_site_fract_y
_atom_site_fract_z
Si Si1 0.175383 0.002102 0.287560
Si Si2 0.945217 0.831362 0.406298
Si Si3 0.324700 0.459649 0.690243
Si Si4 0.502282 0.278566 0.189977
Si Si5 0.664290 0.531648 0.798141
Si Si6 0.175944 0.836514 0.285199
Si Si7 0.719823 0.726326 0.682418
O O1 0.070239 0.088691 0.399363
O O2 0.500000 0.000000 0.500000
O O3 0.129527 0.921008 0.252323
O O4 0.000000 0.000000 0.000000
O O5 0.159724 0.751608 0.551136
O O6 0.043329 0.860009 0.363753
O O7 0.633006 0.800035 0.095283
O O8 0.521863 0.482282 0.747365
O O9 0.294118 0.355491 0.535710
O O10 0.000000 0.500000 0.500000
O O11 0.500000 0.500000 0.000000
O O12 0.421732 0.363022 0.127436
O O13 0.368650 0.301845 0.266057
O O14 0.500000 0.500000 0.500000
O O15 0.000000 0.500000 0.000000
O O16 0.511840 0.806270 0.543638
O O17 0.032850 0.758805 0.993185
#
# Coordination Sequence:
#
# PCOD8013512 Si02
#       7
#     2   2   2   2   2   2   2
#     4  12  25  44  64  96 135 164 203 264 337 394
#     4  10  22  42  67  93 125 163 218 264 310 393
#     4  12  26  44  62  99 139 178 219 271 334 396
#     4  10  21  40  68  97 120 165 225 274 309 367
#     4  12  24  42  71  95 132 177 226 272 328 387
#     4  10  22  42  69  93 117 174 216 262 316 385
#     4  10  21  41  68  91 128 166 222 267 316 383
#
# _framework density 21.014949999999999
#
# number of rings (size 3 to 8) (size 9 to 14) (size 15 to 20)
#    0.000    1.143    1.429    4.714    4.000    0.000 
#   15.429    5.714    0.000    0.000    0.000    0.000 
#    0.000    0.000    0.000    0.000    0.000    0.000 
#
# Total GULP energy -173459.014062 kJ/mol
# GULP energy per Si atom -12389.929576 kJ/mol
# Density = 2.096712 g / cm^3
# Si number density = 21.014950 Si / 1000 Ang^3
#
#
#
# Elastic Constant Matrix: (Units=GPa)
#
#
# Indices 1 2 3 4 5 6 
#
# 1 90.8058 39.1088 52.6042 1.3153 2.1588 -5.8958
# 2 39.1088 112.6225 37.1889 4.8251 -10.4274 -2.1540
# 3 52.6042 37.1889 166.5556 1.4085 -8.0463 -11.1260
# 4 1.3153 4.8251 1.4085 40.3954 -11.7967 -8.8380
# 5 2.1588 -10.4274 -8.0463 -11.7967 43.9869 1.3279
# 6 -5.8958 -2.1540 -11.1260 -8.8380 1.3279 24.5616
#
#
#
# Elastic Compliance Matrix: (Units=1/GPa)
#
#
# Indices 1 2 3 4 5 6 
#
# 1 0.015247 -0.004206 -0.003894 -0.000267 -0.002577 0.001570
# 2 -0.004206 0.010922 -0.001044 -0.000601 0.002470 -0.000875
# 3 -0.003894 -0.001044 0.007717 0.001039 0.001551 0.002760
# 4 -0.000267 -0.000601 0.001039 0.029316 0.007606 0.010491
# 5 -0.002577 0.002470 0.001551 0.007606 0.025720 0.001647
# 6 0.001570 -0.000875 0.002760 0.010491 0.001647 0.045950
#
#
# Mechanical properties :
#
#
# Convention : Reuss Voigt Hill
#
# Bulk Modulus (GPa) = 64.10881 69.75420 66.93151
# Shear Modulus (GPa) = 31.57365 37.86091 34.71728
#
# Velocity S-wave (km/s) = 3.88033 4.24915 4.06892
# Velocity P-wave (km/s) = 7.11678 7.57221 7.34803
#
# Compressibility (1/GPa) = 0.01559848
#
# Stress axis : x y z
#
# Youngs Moduli (GPa) = 65.58842 91.55579 129.57686
#
# Poissons Ratio (x) = 0.38507 0.50453
# Poissons Ratio (y) = 0.27585 0.13534
# Poissons Ratio (z) = 0.25538 0.09562
#
# Static dielectric constant tensor:
#      x y z
#    x 3.743930 -0.034410 -0.013860 
#    y -0.034410 4.072380 0.288410 
#    z -0.013860 0.288410 4.291000 
# 
# 
# High freq. dielectric constant tensor:
#      x y z
#    x 1.813380 -0.002250 -0.002420 
#    y -0.002250 1.826310 0.002030 
#    z -0.002420 0.002030 1.853020 
# 
# From -- ./inp_files/40357.got.cif
#   From: 2010.06.25/outbox.cif.g09.slc.cpg/sg2_21_cif.got.tgz:40357.got - 2010.06.27 13:26:56.
