data_PCOD8013545
_publ_section_title
;
Structure prediction by ZEFSAII (Michael W. Deem and Ramdas Pophale) SiO2 
 PCOD8013545
Probable space group: P -1
;
_chemical_formula_sum "Si O2"
_cell_formula_units_Z 12
_cell_length_a 8.447782
_cell_length_b 10.942749
_cell_length_c 5.329176
_cell_angle_alpha 89.893512
_cell_angle_beta 78.146156
_cell_angle_gamma 105.033046
_cell_volume 464.840475
_symmetry_space_group_name_H-M "P -1"
_symmetry_group_IT_number 2
_symmetry_cell_setting 'triclinic'
loop_
_space_group_symop_operation_xyz
x,y,z
-x,-y,-z
loop_
_atom_site_type_symbol
_atom_site_label
_atom_site_fract_x
_atom_site_fract_y
_atom_site_fract_z
Si Si1 0.836039 0.190717 0.699544
Si Si2 0.421788 0.621428 0.523022
Si Si3 0.474116 0.113280 0.681156
Si Si4 0.974318 0.718227 0.843043
Si Si5 0.845137 0.945174 0.877118
Si Si6 0.319098 0.529596 0.055456
O O1 0.638093 0.171456 0.795271
O O2 0.897299 0.274373 0.429624
O O3 0.930888 0.249532 0.922484
O O4 0.857319 0.047082 0.647612
O O5 0.500000 0.500000 0.500000
O O6 0.552880 0.762652 0.465626
O O7 0.300163 0.603122 0.317411
O O8 0.314284 0.616662 0.812603
O O9 0.322515 0.059030 0.914975
O O10 0.500000 0.000000 0.500000
O O11 0.844421 0.584163 0.917005
O O12 0.855133 0.807022 0.791991
O O13 0.000000 0.000000 0.000000
O O14 0.500000 0.500000 0.000000
#
# Coordination Sequence:
#
# PCOD8013545 Si02
#       6
#     2   2   2   2   2   2
#     4  11  25  43  65 104 146 187 230 291 360 416
#     4  10  23  43  68 102 136 182 236 282 341 420
#     4  12  26  46  73 106 146 186 231 296 361 416
#     4  11  23  45  71 102 143 188 238 289 345 424
#     4  10  22  41  68 102 138 186 237 286 343 421
#     4  10  21  40  69 100 130 175 234 290 336 399
#
# _framework density 25.815307000000001
#
# number of rings (size 3 to 8) (size 9 to 14) (size 15 to 20)
#    0.000    1.333    0.000    6.000    0.000   12.000 
#    0.000    5.000    0.000    0.000    0.000    0.000 
#    0.000    0.000    0.000    0.000    0.000    0.000 
#
# Total GULP energy -148663.572621 kJ/mol
# GULP energy per Si atom -12388.631052 kJ/mol
# Density = 2.575655 g / cm^3
# Si number density = 25.815307 Si / 1000 Ang^3
#
#
#
# Elastic Constant Matrix: (Units=GPa)
#
#
# Indices 1 2 3 4 5 6 
#
# 1 107.6088 19.8453 39.1552 3.7898 -1.7351 32.1070
# 2 19.8453 144.5777 40.6318 -9.2443 7.6288 5.9121
# 3 39.1552 40.6318 186.6761 -10.2870 23.8532 23.3834
# 4 3.7898 -9.2443 -10.2870 45.2886 -1.5350 -6.7852
# 5 -1.7351 7.6288 23.8532 -1.5350 37.6279 -6.4367
# 6 32.1070 5.9121 23.3834 -6.7852 -6.4367 39.4379
#
#
#
# Elastic Compliance Matrix: (Units=1/GPa)
#
#
# Indices 1 2 3 4 5 6 
#
# 1 0.013209 -0.001202 -0.001367 -0.003218 -0.000182 -0.010346
# 2 -0.001202 0.007547 -0.001343 0.001438 -0.000538 0.000803
# 3 -0.001367 -0.001343 0.007033 0.000748 -0.004820 -0.003514
# 4 -0.003218 0.001438 0.000748 0.023786 0.001123 0.006236
# 5 -0.000182 -0.000538 -0.004820 0.001123 0.031210 0.008373
# 6 -0.010346 0.000803 -0.003514 0.006236 0.008373 0.038182
#
#
# Mechanical properties :
#
#
# Convention : Reuss Voigt Hill
#
# Bulk Modulus (GPa) = 50.08816 70.90302 60.49559
# Shear Modulus (GPa) = 36.91495 47.08625 42.00060
#
# Velocity S-wave (km/s) = 3.78559 4.27543 4.03794
# Velocity P-wave (km/s) = 6.20904 7.20399 6.72494
#
# Compressibility (1/GPa) = 0.01996480
#
# Stress axis : x y z
#
# Youngs Moduli (GPa) = 75.70323 132.50931 142.18311
#
# Poissons Ratio (x) = 0.15928 0.19438
# Poissons Ratio (y) = 0.09100 0.19097
# Poissons Ratio (z) = 0.10350 0.17797
#
# Static dielectric constant tensor:
#      x y z
#    x 5.693610 -1.105820 0.453850 
#    y -1.105820 5.822140 -0.362990 
#    z 0.453850 -0.362990 5.587560 
# 
# 
# High freq. dielectric constant tensor:
#      x y z
#    x 2.033380 -0.011340 0.005190 
#    y -0.011340 2.054680 -0.013470 
#    z 0.005190 -0.013470 2.038290 
# 
# From -- ./inp_files/24667.got.cif
#   From: 2010.06.25/outbox.cif.g09.slc.cpg/sg2_13_cif.got.tgz:24667.got - 2010.06.27 13:26:56.
