data_PCOD8013535
_publ_section_title
;
Structure prediction by ZEFSAII (Michael W. Deem and Ramdas Pophale) SiO2 
 PCOD8013535
Probable space group: P -1
;
_chemical_formula_sum "Si O2"
_cell_formula_units_Z 12
_cell_length_a 12.249890
_cell_length_b 13.120811
_cell_length_c 10.491869
_cell_angle_alpha 145.842103
_cell_angle_beta 47.146565
_cell_angle_gamma 146.211606
_cell_volume 526.407363
_symmetry_space_group_name_H-M "P -1"
_symmetry_group_IT_number 2
_symmetry_cell_setting 'triclinic'
loop_
_space_group_symop_operation_xyz
x,y,z
-x,-y,-z
loop_
_atom_site_type_symbol
_atom_site_label
_atom_site_fract_x
_atom_site_fract_y
_atom_site_fract_z
Si Si1 0.791183 0.289989 0.887602
Si Si2 0.613390 0.252617 0.739431
Si Si3 0.081627 0.081693 0.206882
Si Si4 0.084154 0.363970 0.282717
Si Si5 0.498458 0.651811 0.836273
Si Si6 0.186712 0.097292 0.533783
O O1 0.787186 0.318461 0.765801
O O2 0.736622 0.041074 0.704427
O O3 0.623338 0.287890 0.079990
O O4 0.000000 0.500000 0.000000
O O5 0.706497 0.454140 0.765819
O O6 0.500000 0.000000 0.500000
O O7 0.467325 0.257249 0.948416
O O8 0.113626 0.294199 0.324047
O O9 0.288086 0.215480 0.258657
O O10 0.889704 0.951770 0.311191
O O11 0.060205 0.883531 0.935253
O O12 0.000000 0.500000 0.500000
O O13 0.370416 0.369324 0.643295
O O14 0.000000 0.000000 0.500000
#
# Coordination Sequence:
#
# PCOD8013535 Si02
#       6
#     2   2   2   2   2   2
#     4  10  22  44  66  95 134 181 225 277 343 405
#     4  10  21  40  68  98 135 177 226 276 340 402
#     4  11  25  42  67 104 134 177 233 280 343 414
#     4  11  23  42  65 100 145 175 221 289 345 406
#     4  10  24  42  67  99 134 176 233 274 345 406
#     4  12  23  44  70  94 136 184 226 287 339 402
#
# _framework density 22.796033999999999
#
# number of rings (size 3 to 8) (size 9 to 14) (size 15 to 20)
#    1.000    0.333    3.333    2.000    2.333    2.667 
#    0.000    0.833    0.000    0.000    0.000    0.000 
#    0.000    0.000    0.000    0.000    0.000    0.000 
#
# Total GULP energy -148694.692362 kJ/mol
# GULP energy per Si atom -12391.224364 kJ/mol
# Density = 2.274415 g / cm^3
# Si number density = 22.796034 Si / 1000 Ang^3
#
#
#
# Elastic Constant Matrix: (Units=GPa)
#
#
# Indices 1 2 3 4 5 6 
#
# 1 100.3450 7.6212 39.8016 16.9634 -10.5409 8.7128
# 2 7.6212 49.4052 13.7842 18.1691 -10.2288 18.4776
# 3 39.8016 13.7842 140.0512 32.0751 -20.6537 6.0176
# 4 16.9634 18.1691 32.0751 29.7452 -3.2279 2.2832
# 5 -10.5409 -10.2288 -20.6537 -3.2279 52.9756 2.7109
# 6 8.7128 18.4776 6.0176 2.2832 2.7109 38.7356
#
#
#
# Elastic Compliance Matrix: (Units=1/GPa)
#
#
# Indices 1 2 3 4 5 6 
#
# 1 0.012016 0.002513 -0.001879 -0.005889 0.001959 -0.003400
# 2 0.002513 0.036410 0.003425 -0.025126 0.008233 -0.017561
# 3 -0.001879 0.003425 0.010768 -0.012023 0.003878 -0.002447
# 4 -0.005889 -0.025126 -0.012023 0.063564 -0.007449 0.011952
# 5 0.001959 0.008233 0.003878 -0.007449 0.022226 -0.006087
# 6 -0.003400 -0.017561 -0.002447 0.011952 -0.006087 0.035059
#
#
# Mechanical properties :
#
#
# Convention : Reuss Voigt Hill
#
# Bulk Modulus (GPa) = 14.85582 45.80172 30.32877
# Shear Modulus (GPa) = 25.72531 39.53091 32.62811
#
# Velocity S-wave (km/s) = 3.36296 4.16879 3.78737
# Velocity P-wave (km/s) = 4.64869 6.58083 5.69726
#
# Compressibility (1/GPa) = 0.06731367
#
# Stress axis : x y z
#
# Youngs Moduli (GPa) = 83.21965 27.46499 92.86997
#
# Poissons Ratio (x) = -0.06903 0.17448
# Poissons Ratio (y) = -0.20915 -0.31811
# Poissons Ratio (z) = 0.15635 -0.09408
#
# Static dielectric constant tensor:
#      x y z
#    x 4.066590 0.003040 -0.158810 
#    y 0.003040 4.132220 0.110300 
#    z -0.158810 0.110300 3.935850 
# 
# 
# High freq. dielectric constant tensor:
#      x y z
#    x 1.891590 0.003020 -0.005360 
#    y 0.003020 1.885630 0.011230 
#    z -0.005360 0.011230 1.914280 
# 
# From -- ./inp_files/426863.got.cif
#   From: 2010.06.25/outbox.cif.g09.slc.cpg/sg2_214_cif.got.tgz:426863.got - 2010.06.27 13:26:56.
