data_PCOD8013683
_publ_section_title
;
Structure prediction by ZEFSAII (Michael W. Deem and Ramdas Pophale) SiO2 
 PCOD8013683
Probable space group: P -1
;
_chemical_formula_sum "Si O2"
_cell_formula_units_Z 16
_cell_length_a 8.472681
_cell_length_b 20.520232
_cell_length_c 11.945402
_cell_angle_alpha 144.694976
_cell_angle_beta 142.509208
_cell_angle_gamma 50.148762
_cell_volume 730.390639
_symmetry_space_group_name_H-M "P -1"
_symmetry_group_IT_number 2
_symmetry_cell_setting 'triclinic'
loop_
_space_group_symop_operation_xyz
x,y,z
-x,-y,-z
loop_
_atom_site_type_symbol
_atom_site_label
_atom_site_fract_x
_atom_site_fract_y
_atom_site_fract_z
Si Si1 0.914315 0.905059 0.904435
Si Si2 0.914318 0.921328 0.179203
Si Si3 0.265059 0.515970 0.607299
Si Si4 0.610836 0.701854 0.757315
Si Si5 0.020450 0.649842 0.103144
Si Si6 0.885196 0.302259 0.391113
Si Si7 0.240909 0.415044 0.904962
Si Si8 0.307275 0.875188 0.526442
O O1 0.612034 0.877102 0.681165
O O2 0.081800 0.795476 0.817561
O O3 0.994239 0.945743 0.130500
O O4 0.000000 0.000000 0.000000
O O5 0.170649 0.897141 0.361187
O O6 0.765266 0.028105 0.291652
O O7 0.720569 0.813816 0.916894
O O8 0.391716 0.398185 0.476272
O O9 0.225636 0.587421 0.574435
O O10 0.000000 0.500000 0.500000
O O11 0.454723 0.582673 0.893395
O O12 0.320644 0.729122 0.671512
O O13 0.780038 0.670827 0.916342
O O14 0.918704 0.628667 0.139958
O O15 0.219625 0.755592 0.361519
O O16 0.164635 0.538069 0.989390
O O17 0.167040 0.328677 0.642527
#
# Coordination Sequence:
#
# PCOD8013683 Si02
#       8
#     2   2   2   2   2   2   2   2
#     4  12  28  45  67 106 140 177 228 284 345 409
#     4  10  24  46  74  99 133 181 230 284 346 401
#     4  12  26  43  67  99 138 180 224 285 344 406
#     4  11  21  45  70  96 137 178 235 278 341 410
#     4  10  21  40  71  99 133 174 229 282 333 400
#     4  12  26  43  67 100 138 184 222 280 343 409
#     4  11  24  40  66 101 134 179 222 277 339 400
#     4  10  24  46  73 101 132 184 232 284 338 407
#
# _framework density 21.906085999999998
#
# number of rings (size 3 to 8) (size 9 to 14) (size 15 to 20)
#    0.000    1.000    2.500    3.750    7.000    4.000 
#    0.000    0.000    0.000    0.000    0.000    0.000 
#    0.000    0.000    0.000    0.000    0.000    0.000 
#
# Total GULP energy -198475.180484 kJ/mol
# GULP energy per Si atom -12404.698780 kJ/mol
# Density = 2.185623 g / cm^3
# Si number density = 21.906086 Si / 1000 Ang^3
#
#
#
# Elastic Constant Matrix: (Units=GPa)
#
#
# Indices 1 2 3 4 5 6 
#
# 1 122.9389 47.5558 55.1553 4.5820 1.2579 -6.3695
# 2 47.5558 74.5927 41.2422 7.3325 4.7884 10.9353
# 3 55.1553 41.2422 124.3622 -6.4217 1.8265 4.2884
# 4 4.5820 7.3325 -6.4217 38.1428 -4.0136 6.1536
# 5 1.2579 4.7884 1.8265 -4.0136 39.0864 -0.1787
# 6 -6.3695 10.9353 4.2884 6.1536 -0.1787 39.2665
#
#
#
# Elastic Compliance Matrix: (Units=1/GPa)
#
#
# Indices 1 2 3 4 5 6 
#
# 1 0.012593 -0.006542 -0.003657 -0.001553 0.000428 0.004509
# 2 -0.006542 0.021182 -0.004047 -0.003266 -0.002558 -0.006018
# 3 -0.003657 -0.004047 0.011213 0.003346 0.000427 -0.001213
# 4 -0.001553 -0.003266 0.003346 0.028607 0.003212 -0.004176
# 5 0.000428 -0.002558 0.000427 0.003212 0.026195 0.000351
# 6 0.004509 -0.006018 -0.001213 -0.004176 0.000351 0.028663
#
#
# Mechanical properties :
#
#
# Convention : Reuss Voigt Hill
#
# Bulk Modulus (GPa) = 60.62148 67.75560 64.18854
# Shear Modulus (GPa) = 30.77985 35.16183 32.97084
#
# Velocity S-wave (km/s) = 3.75251 4.01074 3.88377
# Velocity P-wave (km/s) = 6.81972 7.24191 7.03398
#
# Compressibility (1/GPa) = 0.01649580
#
# Stress axis : x y z
#
# Youngs Moduli (GPa) = 79.41075 47.21035 89.17882
#
# Poissons Ratio (x) = 0.30885 0.32616
# Poissons Ratio (y) = 0.51951 0.36087
# Poissons Ratio (z) = 0.29044 0.19104
#
# Static dielectric constant tensor:
#      x y z
#    x 3.822020 0.172830 0.087980 
#    y 0.172830 4.052360 0.035460 
#    z 0.087980 0.035460 4.174040 
# 
# 
# High freq. dielectric constant tensor:
#      x y z
#    x 1.855010 0.009670 0.003800 
#    y 0.009670 1.870030 -0.004950 
#    z 0.003800 -0.004950 1.875620 
# 
# From -- ./inp_files/405745.got.cif
#   From: 2010.06.25/outbox.cif.g09.slc.cpg/sg2_203_cif.got.tgz:405745.got - 2010.06.27 13:26:56.
