data_PCOD8013939
_publ_section_title
;
Structure prediction by ZEFSAII (Michael W. Deem and Ramdas Pophale) SiO2 
 PCOD8013939
Probable space group: P -1
;
_chemical_formula_sum "Si O2"
_cell_formula_units_Z 16
_cell_length_a 8.448905
_cell_length_b 17.373890
_cell_length_c 10.991314
_cell_angle_alpha 55.088345
_cell_angle_beta 41.752162
_cell_angle_gamma 83.758651
_cell_volume 715.948964
_symmetry_space_group_name_H-M "P -1"
_symmetry_group_IT_number 2
_symmetry_cell_setting 'triclinic'
loop_
_space_group_symop_operation_xyz
x,y,z
-x,-y,-z
loop_
_atom_site_type_symbol
_atom_site_label
_atom_site_fract_x
_atom_site_fract_y
_atom_site_fract_z
Si Si1 0.087461 0.905589 0.641784
Si Si2 0.493315 0.142726 0.081835
Si Si3 0.763303 0.252671 0.418659
Si Si4 0.332890 0.447486 0.016336
Si Si5 0.743771 0.386630 0.816616
Si Si6 0.018965 0.877797 0.222276
Si Si7 0.380431 0.658469 0.798063
Si Si8 0.104283 0.107293 0.991222
O O1 0.176917 0.843143 0.555354
O O2 0.762151 0.870933 0.838441
O O3 0.059214 0.868487 0.833253
O O4 0.335112 0.042405 0.364982
O O5 0.699427 0.269919 0.906201
O O6 0.714347 0.129575 0.885245
O O7 0.788293 0.308297 0.222129
O O8 0.986243 0.346040 0.306145
O O9 0.450261 0.202528 0.700372
O O10 0.500000 0.500000 0.000000
O O11 0.466700 0.385629 0.933994
O O12 0.386026 0.558450 0.815903
O O13 0.000000 0.500000 0.500000
O O14 0.794053 0.394944 0.926397
O O15 0.711062 0.764828 0.543858
O O16 0.049618 0.986084 0.167929
O O17 0.043888 0.896309 0.045819
#
# Coordination Sequence:
#
# PCOD8013939 Si02
#       8
#     2   2   2   2   2   2   2   2
#     4  11  24  40  64  98 135 175 212 271 329 385
#     4  11  23  41  62  96 135 170 220 268 317 395
#     4  11  22  45  65  98 137 163 225 270 329 400
#     4  10  22  43  65  88 127 172 218 270 326 387
#     4  11  23  40  62  95 129 167 223 268 323 389
#     4  10  21  41  63  95 131 168 223 257 323 399
#     4  10  23  40  68  94 124 179 212 275 332 379
#     4  10  23  40  65  96 132 175 206 269 328 382
#
# _framework density 22.347961999999999
#
# number of rings (size 3 to 8) (size 9 to 14) (size 15 to 20)
#    0.000    1.500    2.500    1.875    1.750    5.000 
#    0.000    0.625    0.000    0.000    0.000    0.000 
#    0.000    0.000    0.000    0.000    0.000    0.000 
#
# Total GULP energy -198282.787993 kJ/mol
# GULP energy per Si atom -12392.674250 kJ/mol
# Density = 2.229710 g / cm^3
# Si number density = 22.347962 Si / 1000 Ang^3
#
#
#
# Elastic Constant Matrix: (Units=GPa)
#
#
# Indices 1 2 3 4 5 6 
#
# 1 58.4148 9.0511 29.6590 -5.3108 -7.1839 -1.9301
# 2 9.0511 74.6048 26.5965 -20.5496 3.9409 -3.5828
# 3 29.6590 26.5965 100.0809 -18.6035 9.0632 12.0236
# 4 -5.3108 -20.5496 -18.6035 41.0687 2.7479 1.6370
# 5 -7.1839 3.9409 9.0632 2.7479 36.7727 1.4029
# 6 -1.9301 -3.5828 12.0236 1.6370 1.4029 35.2725
#
#
#
# Elastic Compliance Matrix: (Units=1/GPa)
#
#
# Indices 1 2 3 4 5 6 
#
# 1 0.021782 -0.000486 -0.007570 -0.001408 0.006143 0.003544
# 2 -0.000486 0.016693 -0.003159 0.006874 -0.001714 0.002495
# 3 -0.007570 -0.003159 0.015146 0.004873 -0.005011 -0.005925
# 4 -0.001408 0.006874 0.004873 0.030198 -0.004383 -0.002267
# 5 0.006143 -0.001714 -0.005011 -0.004383 0.030107 0.000876
# 6 0.003544 0.002495 -0.005925 -0.002267 0.000876 0.030888
#
#
# Mechanical properties :
#
#
# Convention : Reuss Voigt Hill
#
# Bulk Modulus (GPa) = 32.05950 40.41263 36.23606
# Shear Modulus (GPa) = 28.14664 33.80902 30.97783
#
# Velocity S-wave (km/s) = 3.55275 3.89375 3.72715
# Velocity P-wave (km/s) = 5.58625 6.19174 5.89677
#
# Compressibility (1/GPa) = 0.03119200
#
# Stress axis : x y z
#
# Youngs Moduli (GPa) = 45.90887 59.90583 66.02356
#
# Poissons Ratio (x) = 0.02912 0.49978
# Poissons Ratio (y) = 0.02232 0.20855
# Poissons Ratio (z) = 0.34752 0.18923
#
# Static dielectric constant tensor:
#      x y z
#    x 4.035710 -0.373780 -0.029250 
#    y -0.373780 4.262810 -0.215380 
#    z -0.029250 -0.215380 4.010520 
# 
# 
# High freq. dielectric constant tensor:
#      x y z
#    x 1.871090 -0.016480 -0.006180 
#    y -0.016480 1.880130 -0.013910 
#    z -0.006180 -0.013910 1.884660 
# 
# From -- ./inp_files/272261.got.cif
#   From: 2010.06.25/outbox.cif.g09.slc.cpg/sg2_137_cif.got.tgz:272261.got - 2010.06.27 13:26:56.
