data_PCOD8013259
_publ_section_title
;
Structure prediction by ZEFSAII (Michael W. Deem and Ramdas Pophale) SiO2 
 PCOD8013259
Probable space group: P -1
;
_chemical_formula_sum "Si O2"
_cell_formula_units_Z 16
_cell_length_a 16.203539
_cell_length_b 16.058826
_cell_length_c 12.072961
_cell_angle_alpha 131.181347
_cell_angle_beta 146.137759
_cell_angle_gamma 24.252794
_cell_volume 648.802946
_symmetry_space_group_name_H-M "P -1"
_symmetry_group_IT_number 2
_symmetry_cell_setting 'triclinic'
loop_
_space_group_symop_operation_xyz
x,y,z
-x,-y,-z
loop_
_atom_site_type_symbol
_atom_site_label
_atom_site_fract_x
_atom_site_fract_y
_atom_site_fract_z
Si Si1 0.311765 0.390668 0.960324
Si Si2 0.767850 0.245189 0.051624
Si Si3 0.698077 0.357104 0.829550
Si Si4 0.348408 0.213883 0.049284
Si Si5 0.210544 0.502399 0.421063
Si Si6 0.610506 0.828587 0.557042
Si Si7 0.661708 0.079777 0.878247
Si Si8 0.761964 0.926043 0.449001
O O1 0.409650 0.271387 0.079784
O O2 0.441690 0.226642 0.866383
O O3 0.955705 0.639609 0.769187
O O4 0.448301 0.425633 0.132483
O O5 0.049469 0.093735 0.309350
O O6 0.500000 0.500000 0.000000
O O7 0.842546 0.211240 0.975140
O O8 0.641373 0.207817 0.903853
O O9 0.426999 0.455988 0.571060
O O10 0.993950 0.168431 0.914680
O O11 0.987011 0.424359 0.834733
O O12 0.500000 0.000000 0.000000
O O13 0.499498 0.153010 0.279660
O O14 0.406330 0.286556 0.517008
O O15 0.973378 0.704422 0.424197
O O16 0.450615 0.941202 0.355172
O O17 0.413178 0.023760 0.601247
#
# Coordination Sequence:
#
# PCOD8013259 Si02
#       8
#     2   2   2   2   2   2   2   2
#     4  11  26  42  62 100 136 172 213 276 326 381
#     4  12  20  39  70 100 133 173 211 272 327 388
#     4  12  23  39  66 102 134 167 217 270 335 385
#     4   9  23  47  71  89 126 180 226 263 319 389
#     4  10  21  40  66  94 127 170 219 265 315 382
#     4  11  23  39  65  96 131 176 214 264 329 388
#     4  12  23  40  64  99 141 170 215 263 338 394
#     4  11  21  40  70  96 123 169 227 264 311 386
#
# _framework density 24.660799999999998
#
# number of rings (size 3 to 8) (size 9 to 14) (size 15 to 20)
#    0.000    1.000    5.000    1.500    0.000    5.500 
#    2.250    6.875    0.000    6.750    0.000    0.000 
#    0.000    0.000    0.000    0.000    0.000    0.000 
#
# Total GULP energy -198367.755855 kJ/mol
# GULP energy per Si atom -12397.984741 kJ/mol
# Density = 2.460467 g / cm^3
# Si number density = 24.660800 Si / 1000 Ang^3
#
#
#
# Elastic Constant Matrix: (Units=GPa)
#
#
# Indices 1 2 3 4 5 6 
#
# 1 106.6572 16.9573 56.0805 -6.4662 -3.3827 3.3032
# 2 16.9573 63.3766 11.3633 -16.0019 12.7232 -2.9618
# 3 56.0805 11.3633 171.6937 -5.3489 -5.3233 -2.4291
# 4 -6.4662 -16.0019 -5.3489 34.9220 3.2440 11.0995
# 5 -3.3827 12.7232 -5.3233 3.2440 38.7844 -12.5466
# 6 3.3032 -2.9618 -2.4291 11.0995 -12.5466 44.8014
#
#
#
# Elastic Compliance Matrix: (Units=1/GPa)
#
#
# Indices 1 2 3 4 5 6 
#
# 1 0.011814 -0.002561 -0.003654 0.000736 0.000932 -0.001160
# 2 -0.002561 0.021103 -0.000557 0.011211 -0.009409 -0.003858
# 3 -0.003654 -0.000557 0.007097 -0.000280 0.001192 0.001020
# 4 0.000736 0.011211 -0.000280 0.038649 -0.010737 -0.011910
# 5 0.000932 -0.009409 0.001192 -0.010737 0.033726 0.011479
# 6 -0.001160 -0.003858 0.001020 -0.011910 0.011479 0.028372
#
#
# Mechanical properties :
#
#
# Convention : Reuss Voigt Hill
#
# Bulk Modulus (GPa) = 37.77900 56.72553 47.25226
# Shear Modulus (GPa) = 30.65035 40.85665 35.75350
#
# Velocity S-wave (km/s) = 3.52927 4.07473 3.81177
# Velocity P-wave (km/s) = 5.65335 6.72236 6.21090
#
# Compressibility (1/GPa) = 0.02646973
#
# Stress axis : x y z
#
# Youngs Moduli (GPa) = 84.64183 47.38667 140.89714
#
# Poissons Ratio (x) = 0.12138 0.51484
# Poissons Ratio (y) = 0.21681 0.07849
# Poissons Ratio (z) = 0.30928 0.02640
#
# Static dielectric constant tensor:
#      x y z
#    x 4.595530 -0.049600 -0.062410 
#    y -0.049600 4.728620 0.007240 
#    z -0.062410 0.007240 4.873060 
# 
# 
# High freq. dielectric constant tensor:
#      x y z
#    x 1.970890 0.000800 0.020530 
#    y 0.000800 2.013410 -0.001680 
#    z 0.020530 -0.001680 1.977480 
# 
# From -- ./inp_files/455830.got.cif
#   From: 2010.06.25/outbox.cif.g09.slc.cpg/sg2_228_cif.got.tgz:455830.got - 2010.06.27 13:26:56.
