data_PCOD8013718
_publ_section_title
;
Structure prediction by ZEFSAII (Michael W. Deem and Ramdas Pophale) SiO2 
 PCOD8013718
Probable space group: P -1
;
_chemical_formula_sum "Si O2"
_cell_formula_units_Z 14
_cell_length_a 11.780978
_cell_length_b 7.390247
_cell_length_c 13.519967
_cell_angle_alpha 38.998993
_cell_angle_beta 59.987875
_cell_angle_gamma 62.833116
_cell_volume 636.446256
_symmetry_space_group_name_H-M "P -1"
_symmetry_group_IT_number 2
_symmetry_cell_setting 'triclinic'
loop_
_space_group_symop_operation_xyz
x,y,z
-x,-y,-z
loop_
_atom_site_type_symbol
_atom_site_label
_atom_site_fract_x
_atom_site_fract_y
_atom_site_fract_z
Si Si1 0.382299 0.905162 0.402506
Si Si2 0.050112 0.201432 0.151838
Si Si3 0.706166 0.829538 0.057170
Si Si4 0.867206 0.392809 0.317225
Si Si5 0.012385 0.619915 0.335911
Si Si6 0.689040 0.470051 0.781186
Si Si7 0.467456 0.536268 0.336558
O O1 0.237219 0.832383 0.525618
O O2 0.424032 0.785916 0.327992
O O3 0.485975 0.764389 0.499728
O O4 0.387441 0.250580 0.249109
O O5 0.995506 0.213253 0.283531
O O6 0.987647 0.966488 0.211850
O O7 0.210801 0.151925 0.090509
O O8 0.000000 0.500000 0.000000
O O9 0.803141 0.673661 0.164711
O O10 0.584440 0.646274 0.172556
O O11 0.653303 0.162191 0.970027
O O12 0.905634 0.511467 0.355796
O O13 0.156856 0.517771 0.274129
O O14 0.000000 0.500000 0.500000
O O15 0.653089 0.505399 0.665183
#
# Coordination Sequence:
#
# PCOD8013718 Si02
#       7
#     2   2   2   2   2   2   2
#     4  10  22  38  62  85 110 156 195 235 294 339
#     4   9  20  38  59  85 116 154 192 230 287 345
#     4   9  21  39  60  85 117 157 193 236 289 341
#     4  10  21  41  60  84 122 154 190 238 290 348
#     4  11  23  37  59  90 120 152 192 240 292 345
#     4  11  22  36  58  87 114 149 196 239 284 340
#     4  10  21  41  58  81 120 151 192 242 284 344
#
# _framework density 21.997143000000001
#
# number of rings (size 3 to 8) (size 9 to 14) (size 15 to 20)
#    0.000    2.000    0.000    2.571    0.000   10.286 
#    0.000   12.857    0.000    0.000    0.000    0.000 
#    0.000    0.000    0.000    0.000    0.000    0.000 
#
# Total GULP energy -173530.109807 kJ/mol
# GULP energy per Si atom -12395.007843 kJ/mol
# Density = 2.194708 g / cm^3
# Si number density = 21.997143 Si / 1000 Ang^3
#
#
#
# Elastic Constant Matrix: (Units=GPa)
#
#
# Indices 1 2 3 4 5 6 
#
# 1 67.0005 24.1115 16.9614 -0.2587 14.8357 8.6465
# 2 24.1115 124.0484 32.7472 -21.5432 9.0950 -5.6141
# 3 16.9614 32.7472 49.4237 -9.9910 -1.5239 -8.8052
# 4 -0.2587 -21.5432 -9.9910 47.4707 -6.7469 3.2737
# 5 14.8357 9.0950 -1.5239 -6.7469 25.4574 6.4880
# 6 8.6465 -5.6141 -8.8052 3.2737 6.4880 28.5553
#
#
#
# Elastic Compliance Matrix: (Units=1/GPa)
#
#
# Indices 1 2 3 4 5 6 
#
# 1 0.021017 -0.002045 -0.008069 -0.003700 -0.011390 -0.006242
# 2 -0.002045 0.010738 -0.005621 0.003255 -0.002418 0.001173
# 3 -0.008069 -0.005621 0.029235 0.004051 0.007445 0.008197
# 4 -0.003700 0.003255 0.004051 0.024656 0.008199 -0.001680
# 5 -0.011390 -0.002418 0.007445 0.008199 0.051267 -0.007319
# 6 -0.006242 0.001173 0.008197 -0.001680 -0.007319 0.041524
#
#
# Mechanical properties :
#
#
# Convention : Reuss Voigt Hill
#
# Bulk Modulus (GPa) = 33.87375 43.12365 38.49870
# Shear Modulus (GPa) = 22.75339 31.40685 27.08012
#
# Velocity S-wave (km/s) = 3.21967 3.78268 3.51247
# Velocity P-wave (km/s) = 5.40872 6.22294 5.83006
#
# Compressibility (1/GPa) = 0.02952138
#
# Stress axis : x y z
#
# Youngs Moduli (GPa) = 47.57991 93.12518 34.20509
#
# Poissons Ratio (x) = 0.19044 0.27600
# Poissons Ratio (y) = 0.09730 0.19226
# Poissons Ratio (z) = 0.38392 0.52343
#
# Static dielectric constant tensor:
#      x y z
#    x 4.483070 -0.851550 -0.563800 
#    y -0.851550 4.548270 0.252340 
#    z -0.563800 0.252340 4.362700 
# 
# 
# High freq. dielectric constant tensor:
#      x y z
#    x 1.853700 -0.014520 -0.002560 
#    y -0.014520 1.865150 -0.014480 
#    z -0.002560 -0.014480 1.868560 
# 
# From -- ./inp_files/61087.got.cif
#   From: 2010.06.25/outbox.cif.g09.slc.cpg/sg2_31_cif.got.tgz:61087.got - 2010.06.27 13:26:56.
