data_PCOD8013827
_publ_section_title
;
Structure prediction by ZEFSAII (Michael W. Deem and Ramdas Pophale) SiO2 
 PCOD8013827
Probable space group: P -1
;
_chemical_formula_sum "Si O2"
_cell_formula_units_Z 16
_cell_length_a 11.898378
_cell_length_b 12.932152
_cell_length_c 9.744875
_cell_angle_alpha 69.054879
_cell_angle_beta 106.089266
_cell_angle_gamma 48.701607
_cell_volume 717.657669
_symmetry_space_group_name_H-M "P -1"
_symmetry_group_IT_number 2
_symmetry_cell_setting 'triclinic'
loop_
_space_group_symop_operation_xyz
x,y,z
-x,-y,-z
loop_
_atom_site_type_symbol
_atom_site_label
_atom_site_fract_x
_atom_site_fract_y
_atom_site_fract_z
Si Si1 0.346860 0.087306 0.146164
Si Si2 0.455848 0.399765 0.182673
Si Si3 0.710102 0.220352 0.084897
Si Si4 0.168803 0.288990 0.480907
Si Si5 0.794302 0.013672 0.954608
Si Si6 0.848434 0.038554 0.671178
Si Si7 0.960497 0.671523 0.292617
Si Si8 0.006632 0.320871 0.141268
O O1 0.577699 0.951235 0.339558
O O2 0.377157 0.929766 0.209913
O O3 0.153152 0.268587 0.104093
O O4 0.259433 0.205222 0.914101
O O5 0.382730 0.584673 0.070614
O O6 0.248012 0.483431 0.083901
O O7 0.589137 0.262907 0.153796
O O8 0.607959 0.264096 0.431669
O O9 0.672606 0.175016 0.959095
O O10 0.970393 0.021347 0.299209
O O11 0.073143 0.295767 0.572076
O O12 0.021844 0.375364 0.261170
O O13 0.159029 0.429138 0.439416
O O14 0.878778 0.025567 0.854357
O O15 0.988749 0.774870 0.193027
O O16 0.897317 0.877610 0.707877
#
# Coordination Sequence:
#
# PCOD8013827 Si02
#       8
#     2   2   2   2   2   2   2   2
#     4   9  21  40  58  89 124 155 201 252 293 362
#     4  10  23  40  62  92 122 157 206 250 295 370
#     4  10  21  41  63  91 124 155 201 250 304 362
#     4  11  21  40  65  88 122 165 201 246 310 349
#     4   9  21  41  59  91 127 153 197 257 295 359
#     4  10  21  41  62  91 121 162 199 247 304 365
#     4   9  23  39  58  93 121 155 205 254 289 370
#     4  10  23  39  61  91 122 157 207 248 298 359
#
# _framework density 22.294751000000002
#
# number of rings (size 3 to 8) (size 9 to 14) (size 15 to 20)
#    0.750    1.500    0.000    1.500    1.750    6.000 
#    2.250    0.000    0.000    0.000    0.000    0.000 
#    0.000    0.000    0.000    0.000    0.000    0.000 
#
# Total GULP energy -198243.792380 kJ/mol
# GULP energy per Si atom -12390.237024 kJ/mol
# Density = 2.224401 g / cm^3
# Si number density = 22.294751 Si / 1000 Ang^3
#
#
#
# Elastic Constant Matrix: (Units=GPa)
#
#
# Indices 1 2 3 4 5 6 
#
# 1 36.7470 35.7327 27.2732 4.5543 2.0400 -15.3164
# 2 35.7327 129.3442 49.6194 25.5374 1.7058 -16.9220
# 3 27.2732 49.6194 116.5833 3.0138 5.8332 -16.8626
# 4 4.5543 25.5374 3.0138 36.0869 -5.7347 3.8299
# 5 2.0400 1.7058 5.8332 -5.7347 30.4444 -2.1452
# 6 -15.3164 -16.9220 -16.8626 3.8299 -2.1452 15.3784
#
#
#
# Elastic Compliance Matrix: (Units=1/GPa)
#
#
# Indices 1 2 3 4 5 6 
#
# 1 0.056979 -0.006839 -0.003361 -0.007212 -0.000822 0.047220
# 2 -0.006839 0.013502 -0.002820 -0.009377 -0.001021 0.007147
# 3 -0.003361 -0.002820 0.011444 0.000649 -0.001282 0.005758
# 4 -0.007212 -0.009377 0.000649 0.038938 0.006416 -0.025592
# 5 -0.000822 -0.001021 -0.001282 0.006416 0.034403 -0.000146
# 6 0.047220 0.007147 0.005758 -0.025592 -0.000146 0.132587
#
#
# Mechanical properties :
#
#
# Convention : Reuss Voigt Hill
#
# Bulk Modulus (GPa) = 17.89371 56.43611 37.16491
# Shear Modulus (GPa) = 15.03659 27.71855 21.37757
#
# Velocity S-wave (km/s) = 2.59983 3.52984 3.09991
# Velocity P-wave (km/s) = 4.12983 6.47932 5.43310
#
# Compressibility (1/GPa) = 0.05588556
#
# Stress axis : x y z
#
# Youngs Moduli (GPa) = 17.55032 74.06157 87.38130
#
# Poissons Ratio (x) = 0.50651 0.29371
# Poissons Ratio (y) = 0.12003 0.24638
# Poissons Ratio (z) = 0.05899 0.20882
#
# Static dielectric constant tensor:
#      x y z
#    x 3.756940 -0.109390 -0.079420 
#    y -0.109390 3.965230 0.033440 
#    z -0.079420 0.033440 3.835300 
# 
# 
# High freq. dielectric constant tensor:
#      x y z
#    x 1.850860 -0.002410 -0.009130 
#    y -0.002410 1.881100 0.007500 
#    z -0.009130 0.007500 1.871570 
# 
# From -- ./inp_files/315126.got.cif
#   From: 2010.06.25/outbox.cif.g09.slc.cpg/sg2_158_cif.got.tgz:315126.got - 2010.06.27 13:26:56.
