data_PCOD8013494
_publ_section_title
;
Structure prediction by ZEFSAII (Michael W. Deem and Ramdas Pophale) SiO2 
 PCOD8013494
Probable space group: P -1
;
_chemical_formula_sum "Si O2"
_cell_formula_units_Z 16
_cell_length_a 9.169830
_cell_length_b 9.215583
_cell_length_c 10.980151
_cell_angle_alpha 81.206243
_cell_angle_beta 52.020864
_cell_angle_gamma 74.467888
_cell_volume 704.591880
_symmetry_space_group_name_H-M "P -1"
_symmetry_group_IT_number 2
_symmetry_cell_setting 'triclinic'
loop_
_space_group_symop_operation_xyz
x,y,z
-x,-y,-z
loop_
_atom_site_type_symbol
_atom_site_label
_atom_site_fract_x
_atom_site_fract_y
_atom_site_fract_z
Si Si1 0.618823 0.516781 0.559231
Si Si2 0.606666 0.992266 0.070524
Si Si3 0.987029 0.151352 0.142228
Si Si4 0.320908 0.955451 0.539724
Si Si5 0.040063 0.392933 0.283801
Si Si6 0.334357 0.217827 0.345797
Si Si7 0.018543 0.376693 0.903601
Si Si8 0.557750 0.722932 0.279710
O O1 0.500000 0.500000 0.500000
O O2 0.582236 0.686817 0.606648
O O3 0.521815 0.417075 0.715600
O O4 0.841016 0.446925 0.446175
O O5 0.590034 0.827633 0.141538
O O6 0.515311 0.125760 0.190922
O O7 0.829888 0.987545 0.944635
O O8 0.500000 0.000000 0.000000
O O9 0.028405 0.262724 0.210896
O O10 0.819178 0.071988 0.278039
O O11 0.945775 0.236499 0.020219
O O12 0.392646 0.803793 0.446562
O O13 0.500000 0.000000 0.500000
O O14 0.228417 0.097170 0.480082
O O15 0.194632 0.330653 0.314674
O O16 0.093547 0.538061 0.167727
O O17 0.238295 0.329885 0.750488
O O18 0.000000 0.500000 0.000000
#
# Coordination Sequence:
#
# PCOD8013494 Si02
#       8
#     2   2   2   2   2   2   2   2
#     4  12  23  42  71 100 138 184 237 285 351 413
#     4  10  21  44  70  96 146 181 227 288 352 418
#     4  10  21  41  74  98 131 193 232 278 358 411
#     4  11  24  43  70 100 136 178 243 293 337 422
#     4  11  21  40  71 104 141 178 234 295 345 415
#     4  11  26  41  70 109 140 177 236 296 349 411
#     4   9  20  37  65  98 130 176 230 275 342 417
#     4  10  21  40  68  95 125 188 236 276 340 412
#
# _framework density 22.708179000000001
#
# number of rings (size 3 to 8) (size 9 to 14) (size 15 to 20)
#    0.000    1.500    3.750    1.125    0.000    1.500 
#    0.000    7.500    8.250    0.000    0.000    0.000 
#    0.000    0.000    0.000    0.000    0.000    0.000 
#
# Total GULP energy -198257.826987 kJ/mol
# GULP energy per Si atom -12391.114187 kJ/mol
# Density = 2.265649 g / cm^3
# Si number density = 22.708179 Si / 1000 Ang^3
#
#
#
# Elastic Constant Matrix: (Units=GPa)
#
#
# Indices 1 2 3 4 5 6 
#
# 1 87.8449 53.8665 48.3309 -20.8659 5.5992 -20.0591
# 2 53.8665 130.0924 65.3028 -1.7795 -6.0355 -9.5760
# 3 48.3309 65.3028 145.3309 -15.9995 -23.9828 -10.2391
# 4 -20.8659 -1.7795 -15.9995 39.5251 -2.2247 7.5544
# 5 5.5992 -6.0355 -23.9828 -2.2247 31.8284 -2.2949
# 6 -20.0591 -9.5760 -10.2391 7.5544 -2.2949 44.4628
#
#
#
# Elastic Compliance Matrix: (Units=1/GPa)
#
#
# Indices 1 2 3 4 5 6 
#
# 1 0.021187 -0.006576 -0.004004 0.007815 -0.007046 0.005529
# 2 -0.006576 0.012221 -0.003764 -0.004342 0.000302 -0.000448
# 3 -0.004004 -0.003764 0.011724 0.002962 0.009035 0.000046
# 4 0.007815 -0.004342 0.002962 0.030903 0.002059 -0.001872
# 5 -0.007046 0.000302 0.009035 0.002059 0.039715 0.000667
# 6 0.005529 -0.000448 0.000046 -0.001872 0.000667 0.025251
#
#
# Mechanical properties :
#
#
# Convention : Reuss Voigt Hill
#
# Bulk Modulus (GPa) = 60.81383 77.58540 69.19961
# Shear Modulus (GPa) = 28.54358 36.21446 32.37902
#
# Velocity S-wave (km/s) = 3.54923 3.99780 3.78017
# Velocity P-wave (km/s) = 6.60566 7.45321 7.04220
#
# Compressibility (1/GPa) = 0.01644363
#
# Stress axis : x y z
#
# Youngs Moduli (GPa) = 47.19944 81.82757 85.29380
#
# Poissons Ratio (x) = 0.53808 0.34151
# Poissons Ratio (y) = 0.31037 0.32107
# Poissons Ratio (z) = 0.18899 0.30802
#
# Static dielectric constant tensor:
#      x y z
#    x 4.232660 -0.300280 0.399580 
#    y -0.300280 4.614810 -0.328160 
#    z 0.399580 -0.328160 4.714350 
# 
# 
# High freq. dielectric constant tensor:
#      x y z
#    x 1.860780 -0.023210 0.004400 
#    y -0.023210 1.915840 -0.001820 
#    z 0.004400 -0.001820 1.908410 
# 
# From -- ./inp_files/381876.got.cif
#   From: 2010.06.25/outbox.cif.g09.slc.cpg/sg2_191_cif.got.tgz:381876.got - 2010.06.27 13:26:56.
