data_PCOD8013627
_publ_section_title
;
Structure prediction by ZEFSAII (Michael W. Deem and Ramdas Pophale) SiO2 
 PCOD8013627
Probable space group: P -1
;
_chemical_formula_sum "Si O2"
_cell_formula_units_Z 16
_cell_length_a 14.089723
_cell_length_b 11.401123
_cell_length_c 16.894250
_cell_angle_alpha 52.127603
_cell_angle_beta 148.002353
_cell_angle_gamma 149.208965
_cell_volume 667.191841
_symmetry_space_group_name_H-M "P -1"
_symmetry_group_IT_number 2
_symmetry_cell_setting 'triclinic'
loop_
_space_group_symop_operation_xyz
x,y,z
-x,-y,-z
loop_
_atom_site_type_symbol
_atom_site_label
_atom_site_fract_x
_atom_site_fract_y
_atom_site_fract_z
Si Si1 0.127152 0.889901 0.092811
Si Si2 0.144081 0.756515 0.993240
Si Si3 0.350398 0.214949 0.248492
Si Si4 0.860860 0.730038 0.664473
Si Si5 0.064897 0.195228 0.585092
Si Si6 0.685950 0.450021 0.085210
Si Si7 0.940175 0.826615 0.238785
Si Si8 0.200904 0.805137 0.742833
O O1 0.231789 0.867526 0.099080
O O2 0.852575 0.622401 0.053934
O O3 0.399717 0.124098 0.250261
O O4 0.989578 0.950442 0.937955
O O5 0.455787 0.940950 0.088748
O O6 0.000000 0.500000 0.000000
O O7 0.937415 0.736066 0.806947
O O8 0.595674 0.509664 0.309846
O O9 0.276770 0.092285 0.332369
O O10 0.500000 0.500000 0.500000
O O11 0.966297 0.671336 0.703963
O O12 0.035942 0.996063 0.647568
O O13 0.963466 0.180199 0.606412
O O14 0.852675 0.118480 0.399283
O O15 0.770985 0.590177 0.166923
O O16 0.816802 0.374805 0.225137
O O17 0.316401 0.213664 0.910206
#
# Coordination Sequence:
#
# PCOD8013627 Si02
#       8
#     2   2   2   2   2   2   2   2
#     4  10  21  40  70 104 142 184 247 290 362 432
#     4  12  27  46  75 105 146 189 242 308 373 433
#     4  10  22  40  70 108 139 190 242 298 347 444
#     4  12  29  51  77 104 143 197 253 305 368 443
#     4  12  26  44  74 103 148 191 247 298 366 440
#     4  10  21  43  69 106 146 191 239 303 354 446
#     4  10  22  42  73 104 146 194 244 287 370 435
#     4  12  28  46  70 109 147 189 245 312 369 429
#
# _framework density 23.981109
#
# number of rings (size 3 to 8) (size 9 to 14) (size 15 to 20)
#    0.000    1.000    1.250    4.500    8.750    0.500 
#    0.000    1.250    0.000    0.000    0.000    0.000 
#    0.000    0.000    0.000    0.000    0.000    0.000 
#
# Total GULP energy -198210.350617 kJ/mol
# GULP energy per Si atom -12388.146914 kJ/mol
# Density = 2.392653 g / cm^3
# Si number density = 23.981109 Si / 1000 Ang^3
#
#
#
# Elastic Constant Matrix: (Units=GPa)
#
#
# Indices 1 2 3 4 5 6 
#
# 1 133.4513 39.0160 38.4271 4.1142 3.0049 5.5297
# 2 39.0160 133.1786 32.2905 12.0637 5.3447 -4.5808
# 3 38.4271 32.2905 84.4247 7.5579 -1.9749 0.9967
# 4 4.1142 12.0637 7.5579 41.2845 4.7185 1.9582
# 5 3.0049 5.3447 -1.9749 4.7185 31.4642 -8.0638
# 6 5.5297 -4.5808 0.9967 1.9582 -8.0638 39.6630
#
#
#
# Elastic Compliance Matrix: (Units=1/GPa)
#
#
# Indices 1 2 3 4 5 6 
#
# 1 0.009132 -0.001881 -0.003492 0.000505 -0.001280 -0.001688
# 2 -0.001881 0.008897 -0.002409 -0.001932 -0.000868 0.001269
# 3 -0.003492 -0.002409 0.014566 -0.001862 0.002025 0.000346
# 4 0.000505 -0.001932 -0.001862 0.025682 -0.004301 -0.002389
# 5 -0.001280 -0.000868 0.002025 -0.004301 0.034693 0.007293
# 6 -0.001688 0.001269 0.000346 -0.002389 0.007293 0.027186
#
#
# Mechanical properties :
#
#
# Convention : Reuss Voigt Hill
#
# Bulk Modulus (GPa) = 58.71894 63.39131 61.05512
# Shear Modulus (GPa) = 35.36090 38.57042 36.96566
#
# Velocity S-wave (km/s) = 3.84413 4.01480 3.93039
# Velocity P-wave (km/s) = 6.65145 6.92695 6.79060
#
# Compressibility (1/GPa) = 0.01703028
#
# Stress axis : x y z
#
# Youngs Moduli (GPa) = 109.50341 112.39184 68.65315
#
# Poissons Ratio (x) = 0.21141 0.23977
# Poissons Ratio (y) = 0.20598 0.16540
# Poissons Ratio (z) = 0.38243 0.27077
#
# Static dielectric constant tensor:
#      x y z
#    x 4.553040 0.106760 -0.227240 
#    y 0.106760 4.487090 -0.025590 
#    z -0.227240 -0.025590 4.163790 
# 
# 
# High freq. dielectric constant tensor:
#      x y z
#    x 1.962130 0.006810 -0.019230 
#    y 0.006810 1.967470 0.000010 
#    z -0.019230 0.000010 1.922560 
# 
# From -- ./inp_files/573591.got.cif
#   From: 2010.06.25/outbox.cif.g09.slc.cpg/sg2_287_cif.got.tgz:573591.got - 2010.06.27 13:26:56.
