data_PCOD8013487
_publ_section_title
;
Structure prediction by ZEFSAII (Michael W. Deem and Ramdas Pophale) SiO2 
 PCOD8013487
Probable space group: P -1
;
_chemical_formula_sum "Si O2"
_cell_formula_units_Z 16
_cell_length_a 20.856968
_cell_length_b 8.259575
_cell_length_c 12.133915
_cell_angle_alpha 37.363119
_cell_angle_beta 37.100569
_cell_angle_gamma 60.582727
_cell_volume 704.619191
_symmetry_space_group_name_H-M "P -1"
_symmetry_group_IT_number 2
_symmetry_cell_setting 'triclinic'
loop_
_space_group_symop_operation_xyz
x,y,z
-x,-y,-z
loop_
_atom_site_type_symbol
_atom_site_label
_atom_site_fract_x
_atom_site_fract_y
_atom_site_fract_z
Si Si1 0.432872 0.329659 0.375323
Si Si2 0.807289 0.043779 0.140782
Si Si3 0.444855 0.027172 0.175996
Si Si4 0.459586 0.031312 0.701719
Si Si5 0.077373 0.043244 0.265270
Si Si6 0.201787 0.672954 0.225135
Si Si7 0.191514 0.712300 0.760162
Si Si8 0.963450 0.956759 0.238550
O O1 0.450903 0.068239 0.430673
O O2 0.298000 0.264162 0.573294
O O3 0.453109 0.304677 0.493646
O O4 0.514692 0.629541 0.046315
O O5 0.783579 0.206529 0.190175
O O6 0.820683 0.261355 0.904634
O O7 0.923359 0.977941 0.029404
O O8 0.493017 0.882149 0.285876
O O9 0.306252 0.886606 0.437228
O O10 0.500000 0.000000 0.000000
O O11 0.335926 0.764368 0.018259
O O12 0.153443 0.850577 0.278840
O O13 0.161651 0.377646 0.956652
O O14 0.000000 0.000000 0.500000
O O15 0.995814 0.919359 0.339292
O O16 0.138782 0.329181 0.513969
O O17 0.082217 0.785702 0.836138
#
# Coordination Sequence:
#
# PCOD8013487 Si02
#       8
#     2   2   2   2   2   2   2   2
#     4  10  22  44  70  98 130 179 232 286 333 397
#     4  10  21  40  68  94 132 170 227 282 333 404
#     4  12  28  43  65 100 145 180 226 281 345 409
#     4  10  22  44  71  96 129 178 236 280 332 403
#     4  11  24  44  65  96 143 175 215 276 348 411
#     4  10  22  41  70  98 124 177 231 275 332 408
#     4  12  25  43  65 101 137 176 219 286 343 401
#     4  11  23  41  69 100 128 172 228 277 340 405
#
# _framework density 22.7073
#
# number of rings (size 3 to 8) (size 9 to 14) (size 15 to 20)
#    0.000    1.250    1.250    4.875    7.000    1.500 
#    2.250    0.000    0.000    0.000    0.000    0.000 
#    0.000    0.000    0.000    0.000    0.000    0.000 
#
# Total GULP energy -198417.368249 kJ/mol
# GULP energy per Si atom -12401.085516 kJ/mol
# Density = 2.265562 g / cm^3
# Si number density = 22.707300 Si / 1000 Ang^3
#
#
#
# Elastic Constant Matrix: (Units=GPa)
#
#
# Indices 1 2 3 4 5 6 
#
# 1 76.0803 13.7257 12.4580 10.3005 -11.4937 -2.2434
# 2 13.7257 89.7720 27.8564 12.7523 -4.2406 9.3661
# 3 12.4580 27.8564 126.5952 5.3721 -18.7767 -2.3254
# 4 10.3005 12.7523 5.3721 44.0786 3.2084 3.3072
# 5 -11.4937 -4.2406 -18.7767 3.2084 31.5661 10.2845
# 6 -2.2434 9.3661 -2.3254 3.3072 10.2845 28.0015
#
#
#
# Elastic Compliance Matrix: (Units=1/GPa)
#
#
# Indices 1 2 3 4 5 6 
#
# 1 0.014711 -0.001466 -0.000184 -0.003388 0.005368 0.000082
# 2 -0.001466 0.013142 -0.002466 -0.002907 0.001688 -0.004995
# 3 -0.000184 -0.002466 0.009269 -0.000737 0.005279 -0.000272
# 4 -0.003388 -0.002907 -0.000737 0.024778 -0.004358 -0.000686
# 5 0.005368 0.001688 0.005279 -0.004358 0.042231 -0.014692
# 6 0.000082 -0.004995 -0.000272 -0.000686 -0.014692 0.042844
#
#
# Mechanical properties :
#
#
# Convention : Reuss Voigt Hill
#
# Bulk Modulus (GPa) = 34.61215 44.50307 39.55761
# Shear Modulus (GPa) = 30.33316 36.62306 33.47811
#
# Velocity S-wave (km/s) = 3.65887 4.02036 3.84387
# Velocity P-wave (km/s) = 5.75548 6.41812 6.09581
#
# Compressibility (1/GPa) = 0.02889159
#
# Stress axis : x y z
#
# Youngs Moduli (GPa) = 67.97824 76.08968 107.88523
#
# Poissons Ratio (x) = 0.11154 0.01981
# Poissons Ratio (y) = 0.09965 0.26601
# Poissons Ratio (z) = 0.01248 0.18761
#
# Static dielectric constant tensor:
#      x y z
#    x 4.172960 -0.051740 -0.017820 
#    y -0.051740 4.081950 0.133950 
#    z -0.017820 0.133950 4.248140 
# 
# 
# High freq. dielectric constant tensor:
#      x y z
#    x 1.896930 0.001130 -0.005680 
#    y 0.001130 1.887760 0.015700 
#    z -0.005680 0.015700 1.903570 
# 
# From -- ./inp_files/469759.got.cif
#   From: 2010.06.25/outbox.cif.g09.slc.cpg/sg2_235_cif.got.tgz:469759.got - 2010.06.27 13:26:56.
