data_PCOD8013715
_publ_section_title
;
Structure prediction by ZEFSAII (Michael W. Deem and Ramdas Pophale) SiO2 
 PCOD8013715
Probable space group: P -1
;
_chemical_formula_sum "Si O2"
_cell_formula_units_Z 16
_cell_length_a 15.587317
_cell_length_b 11.800097
_cell_length_c 9.003519
_cell_angle_alpha 50.900917
_cell_angle_beta 131.321675
_cell_angle_gamma 142.969434
_cell_volume 729.116982
_symmetry_space_group_name_H-M "P -1"
_symmetry_group_IT_number 2
_symmetry_cell_setting 'triclinic'
loop_
_space_group_symop_operation_xyz
x,y,z
-x,-y,-z
loop_
_atom_site_type_symbol
_atom_site_label
_atom_site_fract_x
_atom_site_fract_y
_atom_site_fract_z
Si Si1 0.929927 0.756848 0.773745
Si Si2 0.640115 0.538353 0.200295
Si Si3 0.586882 0.985181 0.237005
Si Si4 0.744600 0.328923 0.358846
Si Si5 0.008866 0.589249 0.228577
Si Si6 0.960953 0.902892 0.194672
Si Si7 0.915341 0.203163 0.370618
Si Si8 0.405665 0.543561 0.443170
O O1 0.754051 0.565351 0.731241
O O2 0.002141 0.820761 0.640915
O O3 0.947878 0.933052 0.711536
O O4 0.025952 0.733821 0.012172
O O5 0.652232 0.380494 0.290972
O O6 0.781917 0.754209 0.132560
O O7 0.624916 0.537166 0.359843
O O8 0.500000 0.500000 0.000000
O O9 0.628502 0.129753 0.299517
O O10 0.735661 0.039348 0.288623
O O11 0.487566 0.767902 0.361204
O O12 0.500000 0.000000 0.000000
O O13 0.829682 0.296142 0.601328
O O14 0.871089 0.509609 0.249138
O O15 0.967032 0.411785 0.233221
O O16 0.025862 0.795095 0.397143
O O17 0.000000 0.000000 0.000000
O O18 0.500000 0.500000 0.500000
#
# Coordination Sequence:
#
# PCOD8013715 Si02
#       8
#     2   2   2   2   2   2   2   2
#     4  12  25  43  75 103 141 188 247 299 355 434
#     4  12  29  47  73 109 149 191 241 301 367 436
#     4  11  27  44  75 105 147 193 236 298 372 432
#     4  10  22  45  69 105 147 182 243 297 357 433
#     4  10  21  40  76 103 140 181 235 305 363 416
#     4  12  27  45  74 103 141 192 247 293 360 426
#     4  11  23  46  71 103 142 185 246 296 353 436
#     4  12  28  48  71 106 153 196 238 300 368 430
#
# _framework density 21.944351999999999
#
# number of rings (size 3 to 8) (size 9 to 14) (size 15 to 20)
#    0.000    0.750    2.500    3.750   12.250    1.500 
#    0.000    0.000    0.000    0.000    0.000    0.000 
#    0.000    0.000    0.000    0.000    0.000    0.000 
#
# Total GULP energy -198437.342850 kJ/mol
# GULP energy per Si atom -12402.333928 kJ/mol
# Density = 2.189441 g / cm^3
# Si number density = 21.944352 Si / 1000 Ang^3
#
#
#
# Elastic Constant Matrix: (Units=GPa)
#
#
# Indices 1 2 3 4 5 6 
#
# 1 144.1977 47.5621 44.7639 8.3840 -2.2491 -0.2262
# 2 47.5621 144.7121 39.5967 15.4742 -1.4889 10.0208
# 3 44.7639 39.5967 151.4802 12.8255 -0.0735 19.4228
# 4 8.3840 15.4742 12.8255 40.6396 8.5730 2.7136
# 5 -2.2491 -1.4889 -0.0735 8.5730 35.4739 4.1064
# 6 -0.2262 10.0208 19.4228 2.7136 4.1064 37.4856
#
#
#
# Elastic Compliance Matrix: (Units=1/GPa)
#
#
# Indices 1 2 3 4 5 6 
#
# 1 0.008350 -0.002252 -0.002065 -0.000397 0.000328 0.001715
# 2 -0.002252 0.008336 -0.001099 -0.002463 0.000986 -0.001602
# 3 -0.002065 -0.001099 0.008134 -0.001606 0.000678 -0.003891
# 4 -0.000397 -0.002463 -0.001606 0.027556 -0.006819 0.000240
# 5 0.000328 0.000986 0.000678 -0.006819 0.030299 -0.003439
# 6 0.001715 -0.001602 -0.003891 0.000240 -0.003439 0.029491
#
#
# Mechanical properties :
#
#
# Convention : Reuss Voigt Hill
#
# Bulk Modulus (GPa) = 71.49141 78.24836 74.86989
# Shear Modulus (GPa) = 39.16648 43.28432 41.22540
#
# Velocity S-wave (km/s) = 4.22928 4.44605 4.33902
# Velocity P-wave (km/s) = 7.51654 7.87982 7.70032
#
# Compressibility (1/GPa) = 0.01398769
#
# Stress axis : x y z
#
# Youngs Moduli (GPa) = 119.76515 119.96610 122.93758
#
# Poissons Ratio (x) = 0.27019 0.25384
# Poissons Ratio (y) = 0.26974 0.13510
# Poissons Ratio (z) = 0.24729 0.13183
#
# Static dielectric constant tensor:
#      x y z
#    x 4.040330 -0.117620 0.100870 
#    y -0.117620 4.417630 0.285310 
#    z 0.100870 0.285310 3.592560 
# 
# 
# High freq. dielectric constant tensor:
#      x y z
#    x 1.864610 -0.010470 0.003730 
#    y -0.010470 1.872050 0.004270 
#    z 0.003730 0.004270 1.876780 
# 
# From -- ./inp_files/306599.got.cif
#   From: 2010.06.25/outbox.cif.g09.slc.cpg/sg2_154_cif.got.tgz:306599.got - 2010.06.27 13:26:56.
