data_PCOD8013637
_publ_section_title
;
Structure prediction by ZEFSAII (Michael W. Deem and Ramdas Pophale) SiO2 
 PCOD8013637
Probable space group: P -1
;
_chemical_formula_sum "Si O2"
_cell_formula_units_Z 16
_cell_length_a 12.734127
_cell_length_b 9.187545
_cell_length_c 19.309477
_cell_angle_alpha 142.758184
_cell_angle_beta 141.141729
_cell_angle_gamma 37.586257
_cell_volume 764.100343
_symmetry_space_group_name_H-M "P -1"
_symmetry_group_IT_number 2
_symmetry_cell_setting 'triclinic'
loop_
_space_group_symop_operation_xyz
x,y,z
-x,-y,-z
loop_
_atom_site_type_symbol
_atom_site_label
_atom_site_fract_x
_atom_site_fract_y
_atom_site_fract_z
Si Si1 0.236698 0.767870 0.213606
Si Si2 0.484274 0.271227 0.060496
Si Si3 0.656956 0.805860 0.620980
Si Si4 0.923930 0.261300 0.605209
Si Si5 0.341300 0.648563 0.372700
Si Si6 0.241534 0.403530 0.850947
Si Si7 0.419848 0.071223 0.217257
Si Si8 0.824406 0.070252 0.061371
O O1 0.407815 0.508507 0.167954
O O2 0.224217 0.702648 0.262601
O O3 0.287454 0.015950 0.333566
O O4 0.032229 0.851808 0.107729
O O5 0.689712 0.206237 0.110442
O O6 0.332745 0.382971 0.964216
O O7 0.500000 0.000000 0.000000
O O8 0.818290 0.500942 0.587467
O O9 0.468553 0.802758 0.495984
O O10 0.644735 0.927989 0.737466
O O11 0.794423 0.234186 0.587478
O O12 0.082282 0.310002 0.744033
O O13 0.000000 0.000000 0.500000
O O14 0.463251 0.324858 0.322562
O O15 0.158766 0.703787 0.891690
O O16 0.394854 0.206916 0.801387
O O17 0.258211 0.091203 0.088818
#
# Coordination Sequence:
#
# PCOD8013637 Si02
#       8
#     2   2   2   2   2   2   2   2
#     4  12  25  43  68  95 140 173 211 272 327 399
#     4  11  26  41  67  99 137 175 209 270 333 389
#     4  11  22  43  65  93 125 175 224 263 329 380
#     4  11  23  40  67  94 123 170 223 273 317 387
#     4  11  25  42  63  96 129 174 218 267 332 385
#     4  11  21  41  63  98 131 166 222 269 323 385
#     4  10  21  40  70  91 127 170 216 280 315 385
#     4  11  24  42  66 103 131 171 222 263 330 390
#
# _framework density 20.939658999999999
#
# number of rings (size 3 to 8) (size 9 to 14) (size 15 to 20)
#    0.000    1.000    1.250    7.875    5.250    2.000 
#    0.000    0.625    0.000    0.000    0.000    0.000 
#    0.000    0.000    0.000    0.000    0.000    0.000 
#
# Total GULP energy -198442.484400 kJ/mol
# GULP energy per Si atom -12402.655275 kJ/mol
# Density = 2.089200 g / cm^3
# Si number density = 20.939659 Si / 1000 Ang^3
#
#
#
# Elastic Constant Matrix: (Units=GPa)
#
#
# Indices 1 2 3 4 5 6 
#
# 1 49.4669 30.9359 27.0102 11.0832 -2.8392 8.2297
# 2 30.9359 86.5295 22.9541 8.0709 -17.7777 -0.3630
# 3 27.0102 22.9541 78.0082 5.6104 3.5027 -14.2024
# 4 11.0832 8.0709 5.6104 32.6294 -5.7759 0.1792
# 5 -2.8392 -17.7777 3.5027 -5.7759 39.9693 -2.1913
# 6 8.2297 -0.3630 -14.2024 0.1792 -2.1913 34.8468
#
#
#
# Elastic Compliance Matrix: (Units=1/GPa)
#
#
# Indices 1 2 3 4 5 6 
#
# 1 0.036705 -0.009894 -0.011544 -0.008447 -0.002748 -0.013606
# 2 -0.009894 0.016911 -0.001494 0.000693 0.007179 0.002352
# 3 -0.011544 -0.001494 0.019226 0.000480 -0.002531 0.010385
# 4 -0.008447 0.000693 0.000480 0.034085 0.004719 0.002319
# 5 -0.002748 0.007179 -0.002531 0.004719 0.029002 0.001492
# 6 -0.013606 0.002352 0.010385 0.002319 0.001492 0.036249
#
#
# Mechanical properties :
#
#
# Convention : Reuss Voigt Hill
#
# Bulk Modulus (GPa) = 37.06882 41.75611 39.41246
# Shear Modulus (GPa) = 22.02308 30.36273 26.19291
#
# Velocity S-wave (km/s) = 3.24657 3.81203 3.54061
# Velocity P-wave (km/s) = 5.63868 6.27375 5.96467
#
# Compressibility (1/GPa) = 0.02697685
#
# Stress axis : x y z
#
# Youngs Moduli (GPa) = 27.24432 59.13447 52.01379
#
# Poissons Ratio (x) = 0.58509 0.60044
# Poissons Ratio (y) = 0.26956 0.07771
# Poissons Ratio (z) = 0.31450 0.08835
#
# Static dielectric constant tensor:
#      x y z
#    x 3.867640 -0.014340 0.056340 
#    y -0.014340 3.815280 0.109250 
#    z 0.056340 0.109250 3.787080 
# 
# 
# High freq. dielectric constant tensor:
#      x y z
#    x 1.822020 0.001300 0.003500 
#    y 0.001300 1.826200 0.005980 
#    z 0.003500 0.005980 1.824930 
# 
# From -- ./inp_files/189258.got.cif
#   From: 2010.06.25/outbox.cif.g09.slc.cpg/sg2_95_cif.got.tgz:189258.got - 2010.06.27 13:26:56.
