data_PCOD8013106
_publ_section_title
;
Structure prediction by ZEFSAII (Michael W. Deem and Ramdas Pophale) SiO2 
 PCOD8013106
Probable space group: P -1
;
_chemical_formula_sum "Si O2"
_cell_formula_units_Z 16
_cell_length_a 20.052922
_cell_length_b 17.844359
_cell_length_c 8.397028
_cell_angle_alpha 134.302210
_cell_angle_beta 44.200455
_cell_angle_gamma 158.780773
_cell_volume 752.759070
_symmetry_space_group_name_H-M "P -1"
_symmetry_group_IT_number 2
_symmetry_cell_setting 'triclinic'
loop_
_space_group_symop_operation_xyz
x,y,z
-x,-y,-z
loop_
_atom_site_type_symbol
_atom_site_label
_atom_site_fract_x
_atom_site_fract_y
_atom_site_fract_z
Si Si1 0.129740 0.324410 0.562342
Si Si2 0.978154 0.570996 0.269995
Si Si3 0.936253 0.748919 0.079779
Si Si4 0.886498 0.912145 0.227271
Si Si5 0.540088 0.645522 0.237555
Si Si6 0.278705 0.620501 0.290411
Si Si7 0.804775 0.269999 0.569568
Si Si8 0.665380 0.919216 0.175863
O O1 0.020652 0.319313 0.664619
O O2 0.165005 0.371255 0.759270
O O3 0.340842 0.512748 0.413329
O O4 0.001402 0.102417 0.419583
O O5 0.789818 0.392933 0.442897
O O6 0.164000 0.731037 0.301188
O O7 0.000000 0.500000 0.000000
O O8 0.863967 0.787476 0.185498
O O9 0.894283 0.615992 0.827987
O O10 0.162585 0.965109 0.051254
O O11 0.670235 0.745343 0.317101
O O12 0.000000 0.000000 0.000000
O O13 0.664812 0.846214 0.223545
O O14 0.500000 0.500000 0.000000
O O15 0.334090 0.762508 0.275914
O O16 0.462021 0.719262 0.140185
O O17 0.000000 0.500000 0.500000
O O18 0.706556 0.079508 0.371899
#
# Coordination Sequence:
#
# PCOD8013106 Si02
#       8
#     2   2   2   2   2   2   2   2
#     4  12  26  44  66 103 140 173 229 286 336 401
#     4  11  22  41  69  94 134 181 218 277 340 394
#     4  12  25  43  70 100 139 178 223 284 341 401
#     4  12  23  42  72  98 132 180 226 275 341 405
#     4  12  24  42  71 101 136 180 227 279 339 408
#     4  11  23  43  69  96 136 180 229 274 339 406
#     4  10  21  40  65  93 131 176 225 278 329 397
#     4  12  22  41  72  97 130 184 228 267 343 409
#
# _framework density 21.255140999999998
#
# number of rings (size 3 to 8) (size 9 to 14) (size 15 to 20)
#    0.000    0.500    6.250    3.750    1.750    1.500 
#    0.000    0.625    0.000    0.000    0.000    0.000 
#    0.000    0.000    0.000    0.000    0.000    0.000 
#
# Total GULP energy -198326.178442 kJ/mol
# GULP energy per Si atom -12395.386153 kJ/mol
# Density = 2.120676 g / cm^3
# Si number density = 21.255141 Si / 1000 Ang^3
#
#
#
# Elastic Constant Matrix: (Units=GPa)
#
#
# Indices 1 2 3 4 5 6 
#
# 1 158.5415 20.5954 31.7347 1.8001 -17.9095 -14.8230
# 2 20.5954 72.0065 24.1981 7.0175 -6.1987 -2.4633
# 3 31.7347 24.1981 90.9274 3.0653 -2.4649 -9.3959
# 4 1.8001 7.0175 3.0653 27.6281 -3.3077 -9.4125
# 5 -17.9095 -6.1987 -2.4649 -3.3077 36.5455 4.3354
# 6 -14.8230 -2.4633 -9.3959 -9.4125 4.3354 46.0392
#
#
#
# Elastic Compliance Matrix: (Units=1/GPa)
#
#
# Indices 1 2 3 4 5 6 
#
# 1 0.007382 -0.001201 -0.002019 0.001045 0.003157 0.001817
# 2 -0.001201 0.015974 -0.003787 -0.003780 0.001670 -0.001235
# 3 -0.002019 -0.003787 0.012874 0.000198 -0.000972 0.001907
# 4 0.001045 -0.003780 0.000198 0.040144 0.002552 0.008142
# 5 0.003157 0.001670 -0.000972 0.002552 0.029519 -0.001351
# 6 0.001817 -0.001235 0.001907 0.008142 -0.001351 0.024420
#
#
# Mechanical properties :
#
#
# Convention : Reuss Voigt Hill
#
# Bulk Modulus (GPa) = 45.01070 52.72576 48.86823
# Shear Modulus (GPa) = 32.95277 38.37237 35.66257
#
# Velocity S-wave (km/s) = 3.94171 4.25352 4.10058
# Velocity P-wave (km/s) = 6.47599 6.99880 6.74246
#
# Compressibility (1/GPa) = 0.02221694
#
# Stress axis : x y z
#
# Youngs Moduli (GPa) = 135.46037 62.60351 77.67522
#
# Poissons Ratio (x) = 0.07519 0.15681
# Poissons Ratio (y) = 0.16269 0.29413
# Poissons Ratio (z) = 0.27346 0.23706
#
# Static dielectric constant tensor:
#      x y z
#    x 4.618920 0.141570 -0.349000 
#    y 0.141570 3.761940 0.021970 
#    z -0.349000 0.021970 3.805070 
# 
# 
# High freq. dielectric constant tensor:
#      x y z
#    x 1.864270 0.002450 -0.021760 
#    y 0.002450 1.824280 0.011520 
#    z -0.021760 0.011520 1.816480 
# 
# From -- ./inp_files/348938.got.cif
#   From: 2010.06.25/outbox.cif.g09.slc.cpg/sg2_175_cif.got.tgz:348938.got - 2010.06.27 13:26:56.
