data_PCOD8013779
_publ_section_title
;
Structure prediction by ZEFSAII (Michael W. Deem and Ramdas Pophale) SiO2 
 PCOD8013779
Probable space group: P -1
;
_chemical_formula_sum "Si O2"
_cell_formula_units_Z 14
_cell_length_a 15.203973
_cell_length_b 21.144893
_cell_length_c 12.795719
_cell_angle_alpha 18.947207
_cell_angle_beta 29.417189
_cell_angle_gamma 25.738788
_cell_volume 574.708172
_symmetry_space_group_name_H-M "P -1"
_symmetry_group_IT_number 2
_symmetry_cell_setting 'triclinic'
loop_
_space_group_symop_operation_xyz
x,y,z
-x,-y,-z
loop_
_atom_site_type_symbol
_atom_site_label
_atom_site_fract_x
_atom_site_fract_y
_atom_site_fract_z
Si Si1 0.622050 0.516635 0.588858
Si Si2 0.896954 0.357849 0.368260
Si Si3 0.086463 0.171860 0.879314
Si Si4 0.769888 0.404054 0.214262
Si Si5 0.228112 0.911199 0.767897
Si Si6 0.917218 0.620181 0.238645
Si Si7 0.502114 0.088000 0.245404
O O1 0.699816 0.516117 0.392290
O O2 0.374904 0.651586 0.623795
O O3 0.702509 0.636234 0.399570
O O4 0.693871 0.262396 0.946151
O O5 0.846774 0.256562 0.472122
O O6 0.045436 0.156290 0.606973
O O7 0.000000 0.500000 0.000000
O O8 0.065361 0.391292 0.500954
O O9 0.132458 0.177960 0.945327
O O10 0.275392 0.968880 0.940626
O O11 0.869458 0.171922 0.092294
O O12 0.967126 0.364979 0.006575
O O13 0.640466 0.648880 0.016057
O O14 0.411214 0.960008 0.465281
O O15 0.500000 0.000000 0.500000
#
# Coordination Sequence:
#
# PCOD8013779 Si02
#       7
#     2   2   2   2   2   2   2
#     4  11  22  38  66  90 123 169 211 254 308 374
#     4  12  23  38  62  95 134 160 201 265 322 362
#     4  10  23  38  62  94 128 164 209 259 308 366
#     4  12  23  39  64  94 129 161 208 260 317 367
#     4  11  23  39  64  92 126 165 208 253 313 371
#     4  10  21  41  61  91 129 166 207 260 309 366
#     4  12  21  36  63  97 125 157 208 262 305 366
#
# _framework density 24.360188999999998
#
# number of rings (size 3 to 8) (size 9 to 14) (size 15 to 20)
#    0.000    0.857    5.714    1.714    2.000    1.143 
#    0.000    5.000    0.000    4.286    0.000    0.000 
#    0.000    0.000    0.000    0.000    0.000    0.000 
#
# Total GULP energy -173500.036589 kJ/mol
# GULP energy per Si atom -12392.859756 kJ/mol
# Density = 2.430474 g / cm^3
# Si number density = 24.360189 Si / 1000 Ang^3
#
#
#
# Elastic Constant Matrix: (Units=GPa)
#
#
# Indices 1 2 3 4 5 6 
#
# 1 132.6251 19.1225 20.3981 18.1967 -17.7809 -6.6226
# 2 19.1225 48.5913 -1.2776 8.4737 -0.8433 -0.3399
# 3 20.3981 -1.2776 45.8853 19.1102 -6.5064 -6.9005
# 4 18.1967 8.4737 19.1102 18.5850 -8.2264 -5.0364
# 5 -17.7809 -0.8433 -6.5064 -8.2264 45.1900 4.5526
# 6 -6.6226 -0.3399 -6.9005 -5.0364 4.5526 41.6551
#
#
#
# Elastic Compliance Matrix: (Units=1/GPa)
#
#
# Indices 1 2 3 4 5 6 
#
# 1 0.009211 -0.002807 -0.001822 -0.004711 0.002421 0.000306
# 2 -0.002807 0.025503 0.010056 -0.020697 -0.002872 -0.000761
# 3 -0.001822 0.010056 0.042396 -0.047425 -0.003202 0.001432
# 4 -0.004711 -0.020697 -0.047425 0.123648 0.012961 0.004759
# 5 0.002421 -0.002872 -0.003202 0.012961 0.025061 -0.001341
# 6 0.000306 -0.000761 0.001432 0.004759 -0.001341 0.025008
#
#
# Mechanical properties :
#
#
# Convention : Reuss Voigt Hill
#
# Bulk Modulus (GPa) = 11.36809 33.73196 22.55002
# Shear Modulus (GPa) = 18.56704 33.67661 26.12182
#
# Velocity S-wave (km/s) = 2.76377 3.72216 3.27818
# Velocity P-wave (km/s) = 3.85504 5.68769 4.85856
#
# Compressibility (1/GPa) = 0.08796553
#
# Stress axis : x y z
#
# Youngs Moduli (GPa) = 108.56310 39.21086 23.58726
#
# Poissons Ratio (x) = 0.11007 0.04296
# Poissons Ratio (y) = 0.30475 -0.23720
# Poissons Ratio (z) = 0.19775 -0.39432
#
# Static dielectric constant tensor:
#      x y z
#    x 4.931590 -0.447360 -0.172040 
#    y -0.447360 3.990170 0.001980 
#    z -0.172040 0.001980 4.563380 
# 
# 
# High freq. dielectric constant tensor:
#      x y z
#    x 1.983570 -0.024870 -0.010970 
#    y -0.024870 1.920660 0.007740 
#    z -0.010970 0.007740 1.979810 
# 
# From -- ./inp_files/457576.got.cif
#   From: 2010.06.25/outbox.cif.g09.slc.cpg/sg2_229_cif.got.tgz:457576.got - 2010.06.27 13:26:56.
