data_PCOD8013756
_publ_section_title
;
Structure prediction by ZEFSAII (Michael W. Deem and Ramdas Pophale) SiO2 
 PCOD8013756
Probable space group: P -1
;
_chemical_formula_sum "Si O2"
_cell_formula_units_Z 16
_cell_length_a 6.489961
_cell_length_b 8.867529
_cell_length_c 13.303801
_cell_angle_alpha 96.104097
_cell_angle_beta 93.257075
_cell_angle_gamma 112.184716
_cell_volume 701.014019
_symmetry_space_group_name_H-M "P -1"
_symmetry_group_IT_number 2
_symmetry_cell_setting 'triclinic'
loop_
_space_group_symop_operation_xyz
x,y,z
-x,-y,-z
loop_
_atom_site_type_symbol
_atom_site_label
_atom_site_fract_x
_atom_site_fract_y
_atom_site_fract_z
Si Si1 0.946023 0.729223 0.025292
Si Si2 0.883393 0.449930 0.686830
Si Si3 0.196822 0.583030 0.875510
Si Si4 0.130663 0.816779 0.478313
Si Si5 0.690738 0.650945 0.571866
Si Si6 0.424700 0.154400 0.002814
Si Si7 0.447622 0.072833 0.362969
Si Si8 0.649214 0.177904 0.819239
O O1 0.792731 0.571347 0.073914
O O2 0.828349 0.854114 0.996148
O O3 0.149243 0.836477 0.110798
O O4 0.029001 0.659317 0.925410
O O5 0.891904 0.360186 0.576691
O O6 0.802872 0.591605 0.661313
O O7 0.714581 0.324595 0.751440
O O8 0.123924 0.534279 0.754404
O O9 0.445304 0.719979 0.896799
O O10 0.321227 0.897079 0.572125
O O11 0.880907 0.777704 0.511352
O O12 0.214737 0.946055 0.398102
O O13 0.500000 0.500000 0.500000
O O14 0.567910 0.751940 0.632791
O O15 0.488257 0.220016 0.895026
O O16 0.500000 0.000000 0.000000
O O17 0.469298 0.998671 0.250150
#
# Coordination Sequence:
#
# PCOD8013756 Si02
#       8
#     2   2   2   2   2   2   2   2
#     4   9  19  40  63  86 123 159 205 261 311 377
#     4  10  21  41  61  87 124 161 210 267 311 377
#     4   9  20  39  61  87 120 162 207 255 314 376
#     4  10  22  43  61  86 129 166 209 264 319 387
#     4  12  24  40  63  95 125 164 216 270 324 373
#     4  11  23  38  60  93 127 164 207 262 323 380
#     4  10  22  41  65  89 124 171 209 262 324 379
#     4   9  22  42  59  88 125 166 212 255 317 388
#
# _framework density 22.824078
#
# number of rings (size 3 to 8) (size 9 to 14) (size 15 to 20)
#    0.000    2.000    1.250    1.875    0.000    6.000 
#    9.000    0.000    0.000    0.000    0.000    0.000 
#    0.000    0.000    0.000    0.000    0.000    0.000 
#
# Total GULP energy -198208.980014 kJ/mol
# GULP energy per Si atom -12388.061251 kJ/mol
# Density = 2.277213 g / cm^3
# Si number density = 22.824078 Si / 1000 Ang^3
#
#
#
# Elastic Constant Matrix: (Units=GPa)
#
#
# Indices 1 2 3 4 5 6 
#
# 1 76.0914 24.4607 4.8925 1.8700 8.3601 -2.6689
# 2 24.4607 63.6547 26.3640 23.3155 12.1623 -1.0208
# 3 4.8925 26.3640 89.3488 30.1402 15.4063 10.1310
# 4 1.8700 23.3155 30.1402 42.4630 3.0930 7.4789
# 5 8.3601 12.1623 15.4063 3.0930 24.7043 3.9311
# 6 -2.6689 -1.0208 10.1310 7.4789 3.9311 43.0999
#
#
#
# Elastic Compliance Matrix: (Units=1/GPa)
#
#
# Indices 1 2 3 4 5 6 
#
# 1 0.015494 -0.006650 0.000656 0.002627 -0.002778 0.000445
# 2 -0.006650 0.025087 -0.001985 -0.012109 -0.007899 0.003471
# 3 0.000656 -0.001985 0.016658 -0.009911 -0.008160 -0.001458
# 4 0.002627 -0.012109 -0.009911 0.037457 0.007354 -0.004965
# 5 -0.002778 -0.007899 -0.008160 0.007354 0.050159 -0.004292
# 6 0.000445 0.003471 -0.001458 -0.004965 -0.004292 0.024907
#
#
# Mechanical properties :
#
#
# Convention : Reuss Voigt Hill
#
# Bulk Modulus (GPa) = 24.22426 37.83659 31.03042
# Shear Modulus (GPa) = 25.06513 33.61195 29.33854
#
# Velocity S-wave (km/s) = 3.31749 3.84168 3.58917
# Velocity P-wave (km/s) = 5.03098 6.02424 5.54988
#
# Compressibility (1/GPa) = 0.04128094
#
# Stress axis : x y z
#
# Youngs Moduli (GPa) = 64.54140 39.86056 60.03242
#
# Poissons Ratio (x) = 0.26507 -0.03939
# Poissons Ratio (y) = 0.42920 0.11918
# Poissons Ratio (z) = -0.04235 0.07913
#
# Static dielectric constant tensor:
#      x y z
#    x 3.977380 0.196940 -0.139420 
#    y 0.196940 4.298860 0.070720 
#    z -0.139420 0.070720 4.383070 
# 
# 
# High freq. dielectric constant tensor:
#      x y z
#    x 1.878740 0.002250 0.005400 
#    y 0.002250 1.909700 0.013660 
#    z 0.005400 0.013660 1.902080 
# 
# From -- ./inp_files/480664.got.cif
#   From: 2010.06.25/outbox.cif.g09.slc.cpg/sg2_241_cif.got.tgz:480664.got - 2010.06.27 13:26:56.
