data_PCOD8013622
_publ_section_title
;
Structure prediction by ZEFSAII (Michael W. Deem and Ramdas Pophale) SiO2 
 PCOD8013622
Probable space group: P -1
;
_chemical_formula_sum "Si O2"
_cell_formula_units_Z 16
_cell_length_a 8.683112
_cell_length_b 7.014133
_cell_length_c 15.749715
_cell_angle_alpha 110.124689
_cell_angle_beta 122.672257
_cell_angle_gamma 56.570083
_cell_volume 672.379280
_symmetry_space_group_name_H-M "P -1"
_symmetry_group_IT_number 2
_symmetry_cell_setting 'triclinic'
loop_
_space_group_symop_operation_xyz
x,y,z
-x,-y,-z
loop_
_atom_site_type_symbol
_atom_site_label
_atom_site_fract_x
_atom_site_fract_y
_atom_site_fract_z
Si Si1 0.127361 0.157757 0.859880
Si Si2 0.707368 0.118470 0.988557
Si Si3 0.562044 0.409030 0.597381
Si Si4 0.123372 0.042806 0.324738
Si Si5 0.169048 0.523328 0.612487
Si Si6 0.021445 0.667924 0.932681
Si Si7 0.689377 0.770696 0.716971
Si Si8 0.347858 0.175654 0.765443
O O1 0.182320 0.166810 0.778819
O O2 0.065034 0.407202 0.924813
O O3 0.939711 0.089217 0.787503
O O4 0.324653 0.941013 0.932105
O O5 0.517186 0.193614 0.880296
O O6 0.909748 0.862254 0.000838
O O7 0.766762 0.325948 0.029777
O O8 0.500000 0.500000 0.500000
O O9 0.372792 0.457245 0.609506
O O10 0.696972 0.525799 0.691312
O O11 0.711372 0.141907 0.591465
O O12 0.250979 0.173178 0.348686
O O13 0.926590 0.213091 0.346796
O O14 0.226315 0.384465 0.697082
O O15 0.000000 0.500000 0.500000
O O16 0.865052 0.776726 0.826661
O O17 0.460867 0.953984 0.706223
#
# Coordination Sequence:
#
# PCOD8013622 Si02
#       8
#     2   2   2   2   2   2   2   2
#     4  12  23  43  70 110 141 192 242 297 363 434
#     4  10  23  43  68 102 146 193 240 295 365 427
#     4  12  28  47  79 109 141 193 245 305 369 436
#     4  12  26  47  79 106 151 190 242 303 367 432
#     4  12  29  51  77 109 149 194 243 307 366 432
#     4  10  21  40  70 102 143 191 242 294 357 436
#     4  11  22  48  71 105 146 192 241 300 368 433
#     4  11  26  45  71 105 148 191 245 303 357 438
#
# _framework density 23.796092999999999
#
# number of rings (size 3 to 8) (size 9 to 14) (size 15 to 20)
#    0.000    0.750    3.750    3.000    3.500    2.000 
#    6.750    0.000    0.000    0.000    0.000    0.000 
#    0.000    0.000    0.000    0.000    0.000    0.000 
#
# Total GULP energy -198240.832128 kJ/mol
# GULP energy per Si atom -12390.052008 kJ/mol
# Density = 2.374193 g / cm^3
# Si number density = 23.796093 Si / 1000 Ang^3
#
#
#
# Elastic Constant Matrix: (Units=GPa)
#
#
# Indices 1 2 3 4 5 6 
#
# 1 85.6741 31.9038 23.5012 -5.7155 6.4532 11.9426
# 2 31.9038 137.1668 47.6459 -14.9857 7.4263 7.8968
# 3 23.5012 47.6459 93.1701 -18.4761 5.2637 11.4957
# 4 -5.7155 -14.9857 -18.4761 48.0407 2.3758 -4.0280
# 5 6.4532 7.4263 5.2637 2.3758 27.3318 2.8433
# 6 11.9426 7.8968 11.4957 -4.0280 2.8433 42.2018
#
#
#
# Elastic Compliance Matrix: (Units=1/GPa)
#
#
# Indices 1 2 3 4 5 6 
#
# 1 0.013544 -0.002252 -0.001795 0.000082 -0.001958 -0.002783
# 2 -0.002252 0.009378 -0.003926 0.001230 -0.001384 0.000162
# 3 -0.001795 -0.003926 0.014326 0.003957 -0.001385 -0.002189
# 4 0.000082 0.001230 0.003957 0.022981 -0.003225 0.001080
# 5 -0.001958 -0.001384 -0.001385 -0.003225 0.038148 -0.001688
# 6 -0.002783 0.000162 -0.002189 0.001080 -0.001688 0.025266
#
#
# Mechanical properties :
#
#
# Convention : Reuss Voigt Hill
#
# Bulk Modulus (GPa) = 46.93956 58.01255 52.47605
# Shear Modulus (GPa) = 34.08606 37.71219 35.89913
#
# Velocity S-wave (km/s) = 3.78884 3.98528 3.88830
# Velocity P-wave (km/s) = 6.23771 6.75341 6.50068
#
# Compressibility (1/GPa) = 0.02130399
#
# Stress axis : x y z
#
# Youngs Moduli (GPa) = 73.83486 106.63669 69.80224
#
# Poissons Ratio (x) = 0.24010 0.12526
# Poissons Ratio (y) = 0.16625 0.27402
# Poissons Ratio (z) = 0.13250 0.41862
#
# Static dielectric constant tensor:
#      x y z
#    x 4.374270 -0.076550 -0.190350 
#    y -0.076550 4.254730 0.051030 
#    z -0.190350 0.051030 4.354040 
# 
# 
# High freq. dielectric constant tensor:
#      x y z
#    x 1.941630 0.010540 -0.000810 
#    y 0.010540 1.954910 -0.007920 
#    z -0.000810 -0.007920 1.947320 
# 
# From -- ./inp_files/553770.got.cif
#   From: 2010.06.25/outbox.cif.g09.slc.cpg/sg2_277_cif.got.tgz:553770.got - 2010.06.27 13:26:56.
