data_PCOD8013981
_publ_section_title
;
Structure prediction by ZEFSAII (Michael W. Deem and Ramdas Pophale) SiO2 
 PCOD8013981
Probable space group: P -1
;
_chemical_formula_sum "Si O2"
_cell_formula_units_Z 16
_cell_length_a 16.285858
_cell_length_b 8.782034
_cell_length_c 15.056375
_cell_angle_alpha 87.412475
_cell_angle_beta 28.097195
_cell_angle_gamma 105.091734
_cell_volume 780.131697
_symmetry_space_group_name_H-M "P -1"
_symmetry_group_IT_number 2
_symmetry_cell_setting 'triclinic'
loop_
_space_group_symop_operation_xyz
x,y,z
-x,-y,-z
loop_
_atom_site_type_symbol
_atom_site_label
_atom_site_fract_x
_atom_site_fract_y
_atom_site_fract_z
Si Si1 0.467583 0.516794 0.428461
Si Si2 0.915139 0.727565 0.889456
Si Si3 0.571723 0.267989 0.771503
Si Si4 0.229617 0.173554 0.529913
Si Si5 0.591963 0.480796 0.056314
Si Si6 0.107629 0.530029 0.699195
Si Si7 0.754386 0.336941 0.775641
Si Si8 0.168979 0.841325 0.130312
O O1 0.500000 0.500000 0.500000
O O2 0.333458 0.305687 0.515696
O O3 0.308588 0.575538 0.567070
O O4 0.713419 0.681150 0.144377
O O5 0.024281 0.634060 0.828026
O O6 0.827839 0.630162 0.878701
O O7 0.119182 0.957953 0.675558
O O8 0.523752 0.418357 0.835554
O O9 0.795549 0.383438 0.494565
O O10 0.605963 0.202802 0.835340
O O11 0.372575 0.073578 0.911359
O O12 0.434447 0.266749 0.262461
O O13 0.053440 0.180035 0.643785
O O14 0.649886 0.439815 0.907314
O O15 0.887893 0.297854 0.897294
O O16 0.763192 0.213672 0.845452
O O17 0.000000 0.500000 0.500000
#
# Coordination Sequence:
#
# PCOD8013981 Si02
#       8
#     2   2   2   2   2   2   2   2
#     4  10  23  43  65  95 128 155 198 254 305 373
#     4  11  21  40  66  92 121 165 203 248 308 369
#     4  12  22  39  59  88 123 164 212 254 307 356
#     4  10  21  41  64  87 121 162 204 246 313 367
#     4  11  21  40  59  86 122 162 208 261 300 357
#     4  11  22  41  66  88 126 164 202 251 306 367
#     4  12  23  39  56  86 127 163 213 264 299 350
#     4  11  21  38  59  84 120 165 208 250 307 354
#
# _framework density 20.509357000000001
#
# number of rings (size 3 to 8) (size 9 to 14) (size 15 to 20)
#    0.000    1.000    7.500    0.750    1.750    1.000 
#    2.250    1.875    0.000    0.000    0.000    0.000 
#    0.000    0.000    0.000    0.000    0.000    0.000 
#
# Total GULP energy -198290.739266 kJ/mol
# GULP energy per Si atom -12393.171204 kJ/mol
# Density = 2.046268 g / cm^3
# Si number density = 20.509357 Si / 1000 Ang^3
#
#
#
# Elastic Constant Matrix: (Units=GPa)
#
#
# Indices 1 2 3 4 5 6 
#
# 1 107.0846 22.5589 25.3315 2.9228 -7.5827 -5.8139
# 2 22.5589 85.1201 48.9484 -10.2084 -8.1064 -10.6593
# 3 25.3315 48.9484 90.0211 -15.6563 -11.6558 7.8731
# 4 2.9228 -10.2084 -15.6563 34.2135 -4.0485 -6.0690
# 5 -7.5827 -8.1064 -11.6558 -4.0485 21.7925 1.0051
# 6 -5.8139 -10.6593 7.8731 -6.0690 1.0051 18.6602
#
#
#
# Elastic Compliance Matrix: (Units=1/GPa)
#
#
# Indices 1 2 3 4 5 6 
#
# 1 0.010531 -0.000687 -0.003026 -0.001707 0.001309 0.003540
# 2 -0.000687 0.022276 -0.012668 0.004465 0.001213 0.019242
# 3 -0.003026 -0.012668 0.022069 0.004570 0.007644 -0.016416
# 4 -0.001707 0.004465 0.004570 0.035939 0.009669 0.011258
# 5 0.001309 0.001213 0.007644 0.009669 0.052763 -0.001822
# 6 0.003540 0.019242 -0.016416 0.011258 -0.001822 0.076371
#
#
# Mechanical properties :
#
#
# Convention : Reuss Voigt Hill
#
# Bulk Modulus (GPa) = 45.22559 52.87817 49.05188
# Shear Modulus (GPa) = 19.22473 27.29237 23.25855
#
# Velocity S-wave (km/s) = 3.06496 3.65187 3.37121
# Velocity P-wave (km/s) = 5.88425 6.60454 6.25477
#
# Compressibility (1/GPa) = 0.02211138
#
# Stress axis : x y z
#
# Youngs Moduli (GPa) = 94.96140 44.89177 45.31311
#
# Poissons Ratio (x) = 0.03085 0.13714
# Poissons Ratio (y) = 0.06526 0.57403
# Poissons Ratio (z) = 0.28740 0.56870
#
# Static dielectric constant tensor:
#      x y z
#    x 3.806810 -0.186650 -0.224880 
#    y -0.186650 4.029490 -0.084300 
#    z -0.224880 -0.084300 3.838440 
# 
# 
# High freq. dielectric constant tensor:
#      x y z
#    x 1.782630 -0.011350 -0.023820 
#    y -0.011350 1.798100 -0.002630 
#    z -0.023820 -0.002630 1.807890 
# 
# From -- ./inp_files/337614.got.cif
#   From: 2010.06.25/outbox.cif.g09.slc.cpg/sg2_169_cif.got.tgz:337614.got - 2010.06.27 13:26:56.
