data_PCOD8013873
_publ_section_title
;
Structure prediction by ZEFSAII (Michael W. Deem and Ramdas Pophale) SiO2 
 PCOD8013873
Probable space group: P -1
;
_chemical_formula_sum "Si O2"
_cell_formula_units_Z 12
_cell_length_a 11.010999
_cell_length_b 8.356553
_cell_length_c 8.788114
_cell_angle_alpha 78.194561
_cell_angle_beta 42.071410
_cell_angle_gamma 73.551833
_cell_volume 519.634003
_symmetry_space_group_name_H-M "P -1"
_symmetry_group_IT_number 2
_symmetry_cell_setting 'triclinic'
loop_
_space_group_symop_operation_xyz
x,y,z
-x,-y,-z
loop_
_atom_site_type_symbol
_atom_site_label
_atom_site_fract_x
_atom_site_fract_y
_atom_site_fract_z
Si Si1 0.810278 0.375430 0.498443
Si Si2 0.060295 0.873229 0.330066
Si Si3 0.452870 0.256144 0.879475
Si Si4 0.098121 0.327415 0.013142
Si Si5 0.223049 0.241975 0.597281
Si Si6 0.544430 0.109224 0.134872
O O1 0.867553 0.308179 0.626797
O O2 0.600754 0.360966 0.661352
O O3 0.838868 0.563286 0.421561
O O4 0.943469 0.261156 0.270518
O O5 0.891487 0.865741 0.376962
O O6 0.232006 0.918451 0.065150
O O7 0.000000 0.000000 0.500000
O O8 0.257812 0.352435 0.977763
O O9 0.512099 0.067385 0.803288
O O10 0.452543 0.243806 0.065705
O O11 0.185542 0.206112 0.817030
O O12 0.000000 0.500000 0.000000
O O13 0.443083 0.182104 0.371206
#
# Coordination Sequence:
#
# PCOD8013873 Si02
#       6
#     2   2   2   2   2   2
#     4  10  22  39  63  88 119 162 201 248 297 352
#     4  11  22  40  64  87 120 160 203 251 297 353
#     4  10  21  41  63  85 120 160 201 246 301 355
#     4  10  23  39  59  89 127 162 194 243 302 362
#     4  11  23  37  59  93 122 155 201 247 301 356
#     4  10  22  39  63  89 116 158 205 250 295 349
#
# _framework density 23.093174999999999
#
# number of rings (size 3 to 8) (size 9 to 14) (size 15 to 20)
#    0.000    1.667    0.000    5.500    0.000   11.333 
#    0.000    5.833    0.000    0.000    0.000    0.000 
#    0.000    0.000    0.000    0.000    0.000    0.000 
#
# Total GULP energy -148757.464695 kJ/mol
# GULP energy per Si atom -12396.455391 kJ/mol
# Density = 2.304061 g / cm^3
# Si number density = 23.093175 Si / 1000 Ang^3
#
#
#
# Elastic Constant Matrix: (Units=GPa)
#
#
# Indices 1 2 3 4 5 6 
#
# 1 87.3488 16.4379 40.3479 -8.1907 -25.2798 2.4069
# 2 16.4379 25.0841 15.5210 -1.3663 -4.8515 11.6089
# 3 40.3479 15.5210 158.9428 15.2233 -8.3874 17.9127
# 4 -8.1907 -1.3663 15.2233 31.5558 -0.3329 -4.9774
# 5 -25.2798 -4.8515 -8.3874 -0.3329 32.4263 4.4617
# 6 2.4069 11.6089 17.9127 -4.9774 4.4617 33.1030
#
#
#
# Elastic Compliance Matrix: (Units=1/GPa)
#
#
# Indices 1 2 3 4 5 6 
#
# 1 0.019315 -0.008765 -0.004533 0.007519 0.012154 0.003615
# 2 -0.008765 0.055603 -0.000542 -0.002640 0.004002 -0.019505
# 3 -0.004533 -0.000542 0.008601 -0.006139 -0.000772 -0.004953
# 4 0.007519 -0.002640 -0.006139 0.037940 0.003031 0.008997
# 5 0.012154 0.004002 -0.000772 0.003031 0.041713 -0.007036
# 6 0.003615 -0.019505 -0.004953 0.008997 -0.007036 0.041767
#
#
# Mechanical properties :
#
#
# Convention : Reuss Voigt Hill
#
# Bulk Modulus (GPa) = 17.90944 46.22104 32.06524
# Shear Modulus (GPa) = 19.90194 32.68829 26.29511
#
# Velocity S-wave (km/s) = 2.93885 3.76639 3.37805
# Velocity P-wave (km/s) = 4.39180 6.24281 5.39725
#
# Compressibility (1/GPa) = 0.05583649
#
# Stress axis : x y z
#
# Youngs Moduli (GPa) = 51.77376 17.98480 116.26822
#
# Poissons Ratio (x) = 0.15764 0.52710
# Poissons Ratio (y) = 0.45379 0.06307
# Poissons Ratio (z) = 0.23471 0.00976
#
# Static dielectric constant tensor:
#      x y z
#    x 4.009920 -0.100880 0.158120 
#    y -0.100880 3.919490 -0.117790 
#    z 0.158120 -0.117790 4.813880 
# 
# 
# High freq. dielectric constant tensor:
#      x y z
#    x 1.889940 -0.012680 -0.008710 
#    y -0.012680 1.900900 -0.003410 
#    z -0.008710 -0.003410 1.935420 
# 
# From -- ./inp_files/163959.got.cif
#   From: 2010.06.25/outbox.cif.g09.slc.cpg/sg2_82_cif.got.tgz:163959.got - 2010.06.27 13:26:56.
