data_PCOD8013146
_publ_section_title
;
Structure prediction by ZEFSAII (Michael W. Deem and Ramdas Pophale) SiO2 
 PCOD8013146
Probable space group: P -1
;
_chemical_formula_sum "Si O2"
_cell_formula_units_Z 12
_cell_length_a 8.072713
_cell_length_b 6.946305
_cell_length_c 12.418034
_cell_angle_alpha 56.550975
_cell_angle_beta 79.759658
_cell_angle_gamma 58.541843
_cell_volume 489.677778
_symmetry_space_group_name_H-M "P -1"
_symmetry_group_IT_number 2
_symmetry_cell_setting 'triclinic'
loop_
_space_group_symop_operation_xyz
x,y,z
-x,-y,-z
loop_
_atom_site_type_symbol
_atom_site_label
_atom_site_fract_x
_atom_site_fract_y
_atom_site_fract_z
Si Si1 0.259013 0.057662 0.933131
Si Si2 0.439729 0.839397 0.663821
Si Si3 0.353045 0.437456 0.916363
Si Si4 0.994271 0.865361 0.432818
Si Si5 0.615819 0.639808 0.483191
Si Si6 0.001358 0.945356 0.856605
O O1 0.288683 0.311676 0.864916
O O2 0.099196 0.111782 0.843204
O O3 0.192001 0.991998 0.075416
O O4 0.471880 0.795816 0.961333
O O5 0.426060 0.632956 0.806026
O O6 0.595935 0.670807 0.605568
O O7 0.227901 0.063981 0.569643
O O8 0.482992 0.056299 0.651339
O O9 0.161307 0.624833 0.953371
O O10 0.154298 0.546851 0.517233
O O11 0.047040 0.985959 0.284540
O O12 0.000000 0.000000 0.500000
O O13 0.500000 0.500000 0.500000
#
# Coordination Sequence:
#
# PCOD8013146 Si02
#       6
#     2   2   2   2   2   2
#     4  10  21  41  68  91 129 169 212 271 314 378
#     4  10  23  40  62  96 127 166 215 265 324 382
#     4  10  21  40  65  96 125 164 215 262 329 375
#     4  11  22  42  65  95 132 171 213 264 324 388
#     4  11  22  41  64  88 132 166 217 267 317 388
#     4  10  22  40  63  96 126 166 216 264 320 376
#
# _framework density 24.505911999999999
#
# number of rings (size 3 to 8) (size 9 to 14) (size 15 to 20)
#    0.000    1.667    1.667    2.500    0.000    2.667 
#    6.000    8.333    0.000    0.000    0.000    0.000 
#    0.000    0.000    0.000    0.000    0.000    0.000 
#
# Total GULP energy -148704.698354 kJ/mol
# GULP energy per Si atom -12392.058196 kJ/mol
# Density = 2.445013 g / cm^3
# Si number density = 24.505912 Si / 1000 Ang^3
#
#
#
# Elastic Constant Matrix: (Units=GPa)
#
#
# Indices 1 2 3 4 5 6 
#
# 1 68.1277 28.7668 8.5201 -4.5897 -3.4825 15.2804
# 2 28.7668 148.3554 27.9337 -0.6934 -4.1344 9.1979
# 3 8.5201 27.9337 70.9141 11.6457 -5.3123 18.1260
# 4 -4.5897 -0.6934 11.6457 33.7339 6.7926 -9.7822
# 5 -3.4825 -4.1344 -5.3123 6.7926 24.2131 -4.2639
# 6 15.2804 9.1979 18.1260 -9.7822 -4.2639 55.2770
#
#
#
# Elastic Compliance Matrix: (Units=1/GPa)
#
#
# Indices 1 2 3 4 5 6 
#
# 1 0.016946 -0.003028 0.000113 0.000844 0.001006 -0.003991
# 2 -0.003028 0.007870 -0.003080 0.001007 0.000077 0.000722
# 3 0.000113 -0.003080 0.019106 -0.009745 0.005164 -0.007110
# 4 0.000844 0.001007 -0.009745 0.037855 -0.010941 0.008650
# 5 0.001006 0.000077 0.005164 -0.010941 0.045589 -0.000404
# 6 -0.003991 0.000722 -0.007110 0.008650 -0.000404 0.022905
#
#
# Mechanical properties :
#
#
# Convention : Reuss Voigt Hill
#
# Bulk Modulus (GPa) = 31.31625 46.42648 38.87136
# Shear Modulus (GPa) = 28.91779 37.45658 33.18719
#
# Velocity S-wave (km/s) = 3.43889 3.91381 3.68401
# Velocity P-wave (km/s) = 5.34553 6.27774 5.83030
#
# Compressibility (1/GPa) = 0.03193230
#
# Stress axis : x y z
#
# Youngs Moduli (GPa) = 59.01086 127.06841 52.33988
#
# Poissons Ratio (x) = 0.38475 -0.00594
# Poissons Ratio (y) = 0.17868 0.16122
# Poissons Ratio (z) = -0.00669 0.39140
#
# Static dielectric constant tensor:
#      x y z
#    x 4.791640 -0.106790 -0.178940 
#    y -0.106790 5.137080 -0.092480 
#    z -0.178940 -0.092480 3.893890 
# 
# 
# High freq. dielectric constant tensor:
#      x y z
#    x 1.976840 -0.002340 -0.011360 
#    y -0.002340 2.006640 0.002090 
#    z -0.011360 0.002090 1.931190 
# 
# From -- ./inp_files/360786.got.cif
#   From: 2010.06.25/outbox.cif.g09.slc.cpg/sg2_181_cif.got.tgz:360786.got - 2010.06.27 13:26:56.
