data_PCOD8013511
_publ_section_title
;
Structure prediction by ZEFSAII (Michael W. Deem and Ramdas Pophale) SiO2 
 PCOD8013511
Probable space group: P -1
;
_chemical_formula_sum "Si O2"
_cell_formula_units_Z 16
_cell_length_a 5.119270
_cell_length_b 15.360958
_cell_length_c 14.799341
_cell_angle_alpha 137.489142
_cell_angle_beta 93.506935
_cell_angle_gamma 74.077896
_cell_volume 738.195978
_symmetry_space_group_name_H-M "P -1"
_symmetry_group_IT_number 2
_symmetry_cell_setting 'triclinic'
loop_
_space_group_symop_operation_xyz
x,y,z
-x,-y,-z
loop_
_atom_site_type_symbol
_atom_site_label
_atom_site_fract_x
_atom_site_fract_y
_atom_site_fract_z
Si Si1 0.716827 0.533173 0.966827
Si Si2 0.342027 0.059386 0.951987
Si Si3 0.089660 0.948892 0.715201
Si Si4 0.386015 0.793069 0.069194
Si Si5 0.911973 0.338027 0.161973
Si Si6 0.323353 0.215201 0.448892
Si Si7 0.449429 0.451986 0.559386
Si Si8 0.109887 0.569194 0.293068
O O1 0.761248 0.428932 0.801599
O O2 0.500000 0.500000 0.000000
O O3 0.611420 0.698401 0.071068
O O4 0.000000 0.500000 0.000000
O O5 0.513877 0.106222 0.914555
O O6 0.221208 0.950205 0.819093
O O7 0.095994 0.188323 0.082004
O O8 0.500000 0.000000 0.000000
O O9 0.358499 0.891500 0.608501
O O10 0.892949 0.857051 0.642949
O O11 0.893953 0.106371 0.808685
O O12 0.326801 0.674806 0.918613
O O13 0.797689 0.417998 0.311678
O O14 0.082988 0.418614 0.174804
O O15 0.352326 0.319091 0.450204
O O16 0.191641 0.308685 0.606370
O O17 0.500000 0.500000 0.500000
O O18 0.705546 0.414557 0.606224
#
# Coordination Sequence:
#
# PCOD8013511 Si02
#       8
#     2   2   2   2   2   2   2   2
#     4  12  27  44  80 110 134 178 242 309 378 412
#     4  11  24  40  67  99 145 194 238 289 355 423
#     4  11  24  43  67  98 140 190 237 276 351 428
#     4  11  23  45  68 103 146 181 232 308 348 425
#     4  10  21  40  68  96 148 186 236 293 360 398
#     4  11  24  43  67  98 140 190 237 276 351 428
#     4  11  24  40  67  99 145 194 238 289 355 423
#     4  11  23  45  68 103 146 181 232 308 348 425
#
# _framework density 21.674461999999998
#
# number of rings (size 3 to 8) (size 9 to 14) (size 15 to 20)
#    0.000    1.000    5.000    0.750    3.500    8.000 
#    2.250    0.000    0.000    4.500    0.000    0.000 
#    0.000    0.000    0.000    0.000    0.000    0.000 
#
# Total GULP energy -198239.845422 kJ/mol
# GULP energy per Si atom -12389.990339 kJ/mol
# Density = 2.162513 g / cm^3
# Si number density = 21.674462 Si / 1000 Ang^3
#
#
#
# Elastic Constant Matrix: (Units=GPa)
#
#
# Indices 1 2 3 4 5 6 
#
# 1 151.8062 64.6365 54.7610 -3.3416 1.0248 0.9430
# 2 64.6365 113.7854 54.4398 -7.6235 -10.6497 -4.4325
# 3 54.7610 54.4398 108.5054 3.8901 -6.0742 0.2008
# 4 -3.3416 -7.6235 3.8901 26.4984 5.6780 -0.8315
# 5 1.0248 -10.6497 -6.0742 5.6780 57.6747 7.7877
# 6 0.9430 -4.4325 0.2008 -0.8315 7.7877 41.1596
#
#
#
# Elastic Compliance Matrix: (Units=1/GPa)
#
#
# Indices 1 2 3 4 5 6 
#
# 1 0.009343 -0.004070 -0.002765 0.000662 -0.001221 -0.000395
# 2 -0.004070 0.013961 -0.005008 0.003952 0.001543 0.001409
# 3 -0.002765 -0.005008 0.013327 -0.003993 0.001031 -0.000817
# 4 0.000662 0.003952 -0.003993 0.040455 -0.003955 0.001995
# 5 -0.001221 0.001543 0.001031 -0.003955 0.018604 -0.003411
# 6 -0.000395 0.001409 -0.000817 0.001995 -0.003411 0.025146
#
#
# Mechanical properties :
#
#
# Convention : Reuss Voigt Hill
#
# Bulk Modulus (GPa) = 77.25241 80.19684 78.72462
# Shear Modulus (GPa) = 33.59433 38.41718 36.00575
#
# Velocity S-wave (km/s) = 3.94121 4.21463 4.08021
# Velocity P-wave (km/s) = 7.51202 7.79520 7.65492
#
# Compressibility (1/GPa) = 0.01294458
#
# Stress axis : x y z
#
# Youngs Moduli (GPa) = 107.03549 71.63006 75.03812
#
# Poissons Ratio (x) = 0.29151 0.20745
# Poissons Ratio (y) = 0.43560 0.37582
# Poissons Ratio (z) = 0.29591 0.35875
#
# Static dielectric constant tensor:
#      x y z
#    x 4.354830 -0.059710 -0.303930 
#    y -0.059710 3.675560 0.236290 
#    z -0.303930 0.236290 4.334880 
# 
# 
# High freq. dielectric constant tensor:
#      x y z
#    x 1.878420 -0.000330 -0.015770 
#    y -0.000330 1.801350 0.024960 
#    z -0.015770 0.024960 1.867820 
# 
# From -- ./inp_files/484495.got.cif
#   From: 2010.06.25/outbox.cif.g09.slc.cpg/sg2_243_cif.got.tgz:484495.got - 2010.06.27 13:26:56.
