data_PCOD8013529
_publ_section_title
;
Structure prediction by ZEFSAII (Michael W. Deem and Ramdas Pophale) SiO2 
 PCOD8013529
Probable space group: P -1
;
_chemical_formula_sum "Si O2"
_cell_formula_units_Z 16
_cell_length_a 18.422699
_cell_length_b 16.362235
_cell_length_c 10.783714
_cell_angle_alpha 128.708620
_cell_angle_beta 140.853634
_cell_angle_gamma 22.515740
_cell_volume 727.953931
_symmetry_space_group_name_H-M "P -1"
_symmetry_group_IT_number 2
_symmetry_cell_setting 'triclinic'
loop_
_space_group_symop_operation_xyz
x,y,z
-x,-y,-z
loop_
_atom_site_type_symbol
_atom_site_label
_atom_site_fract_x
_atom_site_fract_y
_atom_site_fract_z
Si Si1 0.838621 0.454796 0.792932
Si Si2 0.861064 0.376904 0.474020
Si Si3 0.559678 0.798503 0.381791
Si Si4 0.219065 0.703244 0.281415
Si Si5 0.434406 0.953561 0.785938
Si Si6 0.116397 0.040009 0.136621
Si Si7 0.632739 0.899183 0.771519
Si Si8 0.082245 0.873406 0.797697
O O1 0.754463 0.499915 0.582832
O O2 0.880776 0.310826 0.781211
O O3 0.633554 0.695502 0.817164
O O4 0.108603 0.293474 0.993537
O O5 0.749026 0.546844 0.384207
O O6 0.164346 0.128478 0.635576
O O7 0.761176 0.340354 0.274487
O O8 0.698763 0.778806 0.621785
O O9 0.302406 0.981381 0.288774
O O10 0.494043 0.888887 0.240879
O O11 0.500000 0.500000 0.500000
O O12 0.074771 0.931512 0.327533
O O13 0.156840 0.724071 0.073504
O O14 0.437261 0.993988 0.687707
O O15 0.500000 0.000000 0.000000
O O16 0.090582 0.053905 0.264050
O O17 0.240050 0.828796 0.048586
#
# Coordination Sequence:
#
# PCOD8013529 Si02
#       8
#     2   2   2   2   2   2   2   2
#     4  12  24  44  69  95 139 174 217 277 327 387
#     4  12  25  40  68 100 127 183 220 265 333 393
#     4  11  23  40  68  94 131 174 221 269 328 390
#     4  10  21  40  68  98 128 173 217 271 334 382
#     4  12  24  42  66  96 135 170 222 269 329 387
#     4   9  20  43  64  90 133 169 211 276 322 385
#     4  11  22  44  66  95 131 177 219 272 328 385
#     4   9  21  41  64  94 132 167 220 264 332 386
#
# _framework density 21.979413999999998
#
# number of rings (size 3 to 8) (size 9 to 14) (size 15 to 20)
#    0.750    0.500    3.750    2.625    1.750    1.500 
#    2.250    0.000    0.000    0.000    0.000    0.000 
#    0.000    0.000    0.000    0.000    0.000    0.000 
#
# Total GULP energy -198225.111224 kJ/mol
# GULP energy per Si atom -12389.069452 kJ/mol
# Density = 2.192939 g / cm^3
# Si number density = 21.979414 Si / 1000 Ang^3
#
#
#
# Elastic Constant Matrix: (Units=GPa)
#
#
# Indices 1 2 3 4 5 6 
#
# 1 97.0703 23.8136 -2.1295 -6.0332 -5.5995 26.9325
# 2 23.8136 121.7125 27.9051 5.8868 -17.4910 25.9298
# 3 -2.1295 27.9051 64.7009 10.6638 -7.4336 4.4914
# 4 -6.0332 5.8868 10.6638 31.3680 3.1094 -2.6218
# 5 -5.5995 -17.4910 -7.4336 3.1094 24.8832 -5.0450
# 6 26.9325 25.9298 4.4914 -2.6218 -5.0450 39.3797
#
#
#
# Elastic Compliance Matrix: (Units=1/GPa)
#
#
# Indices 1 2 3 4 5 6 
#
# 1 0.012984 -0.001075 0.001288 0.001511 0.000715 -0.008127
# 2 -0.001075 0.011409 -0.003521 -0.002212 0.005831 -0.005776
# 3 0.001288 -0.003521 0.018465 -0.005806 0.003945 -0.000550
# 4 0.001511 -0.002212 -0.005806 0.035454 -0.006859 0.002567
# 5 0.000715 0.005831 0.003945 -0.006859 0.046633 0.000739
# 6 -0.008127 -0.005776 -0.000550 0.002567 0.000739 0.035084
#
#
# Mechanical properties :
#
#
# Convention : Reuss Voigt Hill
#
# Bulk Modulus (GPa) = 27.59122 42.51802 35.05462
# Shear Modulus (GPa) = 27.97621 34.71915 31.34768
#
# Velocity S-wave (km/s) = 3.57155 3.97876 3.78064
# Velocity P-wave (km/s) = 5.43953 6.36347 5.91956
#
# Compressibility (1/GPa) = 0.03624342
#
# Stress axis : x y z
#
# Youngs Moduli (GPa) = 77.01975 87.64997 54.15684
#
# Poissons Ratio (x) = 0.09419 -0.06976
# Poissons Ratio (y) = 0.08277 0.19066
# Poissons Ratio (z) = -0.09920 0.30857
#
# Static dielectric constant tensor:
#      x y z
#    x 4.021610 0.401230 -0.003990 
#    y 0.401230 3.881540 0.123850 
#    z -0.003990 0.123850 4.008210 
# 
# 
# High freq. dielectric constant tensor:
#      x y z
#    x 1.858680 0.031460 0.004670 
#    y 0.031460 1.843090 0.006520 
#    z 0.004670 0.006520 1.873470 
# 
# From -- ./inp_files/472248.got.cif
#   From: 2010.06.25/outbox.cif.g09.slc.cpg/sg2_237_cif.got.tgz:472248.got - 2010.06.27 13:26:56.
