data_PCOD8013287
_publ_section_title
;
Structure prediction by ZEFSAII (Michael W. Deem and Ramdas Pophale) SiO2 
 PCOD8013287
Probable space group: P -1
;
_chemical_formula_sum "Si O2"
_cell_formula_units_Z 16
_cell_length_a 12.099938
_cell_length_b 13.556522
_cell_length_c 12.161019
_cell_angle_alpha 71.386300
_cell_angle_beta 24.001093
_cell_angle_gamma 73.436267
_cell_volume 768.844820
_symmetry_space_group_name_H-M "P -1"
_symmetry_group_IT_number 2
_symmetry_cell_setting 'triclinic'
loop_
_space_group_symop_operation_xyz
x,y,z
-x,-y,-z
loop_
_atom_site_type_symbol
_atom_site_label
_atom_site_fract_x
_atom_site_fract_y
_atom_site_fract_z
Si Si1 0.439806 0.946522 0.888737
Si Si2 0.800867 0.596569 0.773216
Si Si3 0.005360 0.733411 0.712499
Si Si4 0.857451 0.176492 0.965447
Si Si5 0.226936 0.635733 0.190707
Si Si6 0.004914 0.104533 0.524550
Si Si7 0.445873 0.121373 0.525203
Si Si8 0.566994 0.821055 0.229946
O O1 0.280473 0.926832 0.927074
O O2 0.273538 0.886495 0.157627
O O3 0.738393 0.898292 0.624730
O O4 0.465398 0.070291 0.845056
O O5 0.798532 0.472363 0.812748
O O6 0.910997 0.621259 0.788703
O O7 0.989832 0.648975 0.489706
O O8 0.504660 0.642871 0.004800
O O9 0.319561 0.741426 0.457292
O O10 0.944977 0.803045 0.637127
O O11 0.836666 0.765475 0.962075
O O12 0.799411 0.275255 0.907476
O O13 0.174073 0.156757 0.698515
O O14 0.701408 0.187635 0.219796
O O15 0.000000 0.000000 0.500000
O O16 0.416780 0.153034 0.666439
O O17 0.500000 0.000000 0.500000
#
# Coordination Sequence:
#
# PCOD8013287 Si02
#       8
#     2   2   2   2   2   2   2   2
#     4  12  22  35  54  82 115 154 193 236 293 357
#     4  10  21  40  66  96 127 154 195 243 306 378
#     4  12  23  37  58  84 124 161 191 237 303 366
#     4  12  24  40  65  86 119 156 206 265 301 347
#     4  10  21  41  67  96 122 155 198 251 304 362
#     4  12  21  33  51  81 119 154 187 227 285 367
#     4  12  26  42  61  85 118 165 215 257 299 343
#     4  12  24  38  56  81 118 161 203 240 295 353
#
# _framework density 20.810441000000001
#
# number of rings (size 3 to 8) (size 9 to 14) (size 15 to 20)
#    0.000    0.500    3.750    6.000    1.750    0.000 
#    0.000    0.000    0.000    4.500    0.000    0.000 
#    0.000    0.000    0.000    0.000    0.000    0.000 
#
# Total GULP energy -198413.970243 kJ/mol
# GULP energy per Si atom -12400.873140 kJ/mol
# Density = 2.076308 g / cm^3
# Si number density = 20.810441 Si / 1000 Ang^3
#
#
#
# Elastic Constant Matrix: (Units=GPa)
#
#
# Indices 1 2 3 4 5 6 
#
# 1 85.9331 31.7301 26.1224 -0.9070 0.5174 15.7922
# 2 31.7301 63.7625 29.0971 -2.0334 5.7228 11.2411
# 3 26.1224 29.0971 112.9550 -4.7364 -2.2577 -1.5653
# 4 -0.9070 -2.0334 -4.7364 23.9987 2.5760 -2.2163
# 5 0.5174 5.7228 -2.2577 2.5760 40.5590 -0.0311
# 6 15.7922 11.2411 -1.5653 -2.2163 -0.0311 32.0957
#
#
#
# Elastic Compliance Matrix: (Units=1/GPa)
#
#
# Indices 1 2 3 4 5 6 
#
# 1 0.015481 -0.005759 -0.002205 -0.000930 0.000547 -0.005771
# 2 -0.005759 0.021733 -0.004373 0.000656 -0.003282 -0.004949
# 3 -0.002205 -0.004373 0.010634 0.001825 0.001124 0.003262
# 4 -0.000930 0.000656 0.001825 0.042639 -0.002685 0.003258
# 5 0.000547 -0.003282 0.001124 -0.002685 0.025345 0.000774
# 6 -0.005771 -0.004949 0.003262 0.003258 0.000774 0.036115
#
#
# Mechanical properties :
#
#
# Convention : Reuss Voigt Hill
#
# Bulk Modulus (GPa) = 43.15242 48.50556 45.82899
# Shear Modulus (GPa) = 27.12312 31.04408 29.08360
#
# Velocity S-wave (km/s) = 3.61410 3.86651 3.74244
# Velocity P-wave (km/s) = 6.18034 6.57968 6.38313
#
# Compressibility (1/GPa) = 0.02317367
#
# Stress axis : x y z
#
# Youngs Moduli (GPa) = 64.59459 46.01372 94.04073
#
# Poissons Ratio (x) = 0.26499 0.20734
# Poissons Ratio (y) = 0.37200 0.41125
# Poissons Ratio (z) = 0.14241 0.20122
#
# Static dielectric constant tensor:
#      x y z
#    x 3.769100 0.318330 0.082670 
#    y 0.318330 3.502800 0.167250 
#    z 0.082670 0.167250 4.539090 
# 
# 
# High freq. dielectric constant tensor:
#      x y z
#    x 1.807830 0.022440 -0.002570 
#    y 0.022440 1.794360 -0.000070 
#    z -0.002570 -0.000070 1.839510 
# 
# From -- ./inp_files/433915.got.cif
#   From: 2010.06.25/outbox.cif.g09.slc.cpg/sg2_217_cif.got.tgz:433915.got - 2010.06.27 13:26:56.
