data_PCOD8013560
_publ_section_title
;
Structure prediction by ZEFSAII (Michael W. Deem and Ramdas Pophale) SiO2 
 PCOD8013560
Probable space group: P -1
;
_chemical_formula_sum "Si O2"
_cell_formula_units_Z 16
_cell_length_a 8.837732
_cell_length_b 12.123844
_cell_length_c 13.955828
_cell_angle_alpha 52.718368
_cell_angle_beta 80.286995
_cell_angle_gamma 121.785405
_cell_volume 700.587292
_symmetry_space_group_name_H-M "P -1"
_symmetry_group_IT_number 2
_symmetry_cell_setting 'triclinic'
loop_
_space_group_symop_operation_xyz
x,y,z
-x,-y,-z
loop_
_atom_site_type_symbol
_atom_site_label
_atom_site_fract_x
_atom_site_fract_y
_atom_site_fract_z
Si Si1 0.953243 0.595963 0.617098
Si Si2 0.797152 0.190298 0.843160
Si Si3 0.733072 0.627703 0.277712
Si Si4 0.764667 0.426006 0.045485
Si Si5 0.422300 0.275675 0.327194
Si Si6 0.460233 0.680432 0.359184
Si Si7 0.406795 0.950025 0.257303
Si Si8 0.065118 0.226853 0.297635
O O1 0.947841 0.433227 0.736588
O O2 0.765829 0.487750 0.605492
O O3 0.871278 0.629454 0.696040
O O4 0.249107 0.839260 0.431220
O O5 0.806589 0.181164 0.732699
O O6 0.958848 0.176690 0.876309
O O7 0.500000 0.000000 0.000000
O O8 0.568425 0.484024 0.274782
O O9 0.694423 0.756537 0.252713
O O10 0.639486 0.451070 0.460686
O O11 0.629350 0.344574 0.205509
O O12 0.595567 0.217662 0.096475
O O13 0.857709 0.640071 0.878963
O O14 0.000000 0.500000 0.000000
O O15 0.248890 0.228097 0.291144
O O16 0.234277 0.037021 0.533473
O O17 0.551230 0.906120 0.247341
#
# Coordination Sequence:
#
# PCOD8013560 Si02
#       8
#     2   2   2   2   2   2   2   2
#     4  11  19  43  68  97 137 183 232 281 354 423
#     4  11  23  38  64  97 136 181 224 283 353 410
#     4  11  22  40  69 106 136 181 233 291 343 423
#     4  12  29  45  71 107 139 185 244 294 342 421
#     4  11  26  47  73 102 145 189 231 291 358 418
#     4  10  21  40  69 103 135 172 238 285 347 414
#     4  11  22  44  66  99 139 183 229 283 351 416
#     4  11  25  48  73 102 141 194 233 288 359 418
#
# _framework density 22.837983000000001
#
# number of rings (size 3 to 8) (size 9 to 14) (size 15 to 20)
#    0.000    1.000    5.000    1.875    5.250    0.500 
#    0.000    5.000    0.000    0.000    0.000    0.000 
#    0.000    0.000    0.000    0.000    0.000    0.000 
#
# Total GULP energy -198321.816421 kJ/mol
# GULP energy per Si atom -12395.113526 kJ/mol
# Density = 2.278600 g / cm^3
# Si number density = 22.837983 Si / 1000 Ang^3
#
#
#
# Elastic Constant Matrix: (Units=GPa)
#
#
# Indices 1 2 3 4 5 6 
#
# 1 107.0381 4.9722 38.6919 -0.3752 -19.5896 -5.0031
# 2 4.9722 62.1144 10.4325 3.7258 -5.2442 -8.5149
# 3 38.6919 10.4325 109.0622 -4.3129 -13.6541 -5.6346
# 4 -0.3752 3.7258 -4.3129 25.5274 -7.3199 -0.4283
# 5 -19.5896 -5.2442 -13.6541 -7.3199 44.0217 1.8361
# 6 -5.0031 -8.5149 -5.6346 -0.4283 1.8361 29.9957
#
#
#
# Elastic Compliance Matrix: (Units=1/GPa)
#
#
# Indices 1 2 3 4 5 6 
#
# 1 0.011386 0.000112 -0.003454 0.000758 0.004091 0.001042
# 2 0.000112 0.017180 -0.001407 -0.002358 0.001079 0.004532
# 3 -0.003454 -0.001407 0.010945 0.002618 0.002084 0.000990
# 4 0.000758 -0.002358 0.002618 0.042234 0.007888 0.000069
# 5 0.004091 0.001079 0.002084 0.007888 0.026629 -0.000137
# 6 0.001042 0.004532 0.000990 0.000069 -0.000137 0.034994
#
#
# Mechanical properties :
#
#
# Convention : Reuss Voigt Hill
#
# Bulk Modulus (GPa) = 33.32004 42.93420 38.12712
# Shear Modulus (GPa) = 30.69910 34.85018 32.77464
#
# Velocity S-wave (km/s) = 3.67033 3.91061 3.79237
# Velocity P-wave (km/s) = 5.70817 6.26345 5.99224
#
# Compressibility (1/GPa) = 0.03001197
#
# Stress axis : x y z
#
# Youngs Moduli (GPa) = 87.82725 58.20565 91.36886
#
# Poissons Ratio (x) = -0.00649 0.31559
# Poissons Ratio (y) = -0.00979 0.12856
# Poissons Ratio (z) = 0.30336 0.08190
#
# Static dielectric constant tensor:
#      x y z
#    x 4.229770 0.039320 -0.216840 
#    y 0.039320 4.038260 0.158190 
#    z -0.216840 0.158190 3.937410 
# 
# 
# High freq. dielectric constant tensor:
#      x y z
#    x 1.903950 -0.009060 -0.010260 
#    y -0.009060 1.896420 0.007830 
#    z -0.010260 0.007830 1.897840 
# 
# From -- ./inp_files/500153.got.cif
#   From: 2010.06.25/outbox.cif.g09.slc.cpg/sg2_251_cif.got.tgz:500153.got - 2010.06.27 13:26:56.
