data_PCOD8013208
_publ_section_title
;
Structure prediction by ZEFSAII (Michael W. Deem and Ramdas Pophale) SiO2 
 PCOD8013208
Probable space group: P -1
;
_chemical_formula_sum "Si O2"
_cell_formula_units_Z 16
_cell_length_a 9.000094
_cell_length_b 14.451821
_cell_length_c 8.810166
_cell_angle_alpha 68.325100
_cell_angle_beta 132.331486
_cell_angle_gamma 87.298453
_cell_volume 710.494932
_symmetry_space_group_name_H-M "P -1"
_symmetry_group_IT_number 2
_symmetry_cell_setting 'triclinic'
loop_
_space_group_symop_operation_xyz
x,y,z
-x,-y,-z
loop_
_atom_site_type_symbol
_atom_site_label
_atom_site_fract_x
_atom_site_fract_y
_atom_site_fract_z
Si Si1 0.444977 0.861578 0.529033
Si Si2 0.248125 0.716353 0.347633
Si Si3 0.898964 0.219751 0.237578
Si Si4 0.443082 0.271121 0.025392
Si Si5 0.133361 0.098901 0.212502
Si Si6 0.999811 0.310225 0.528558
Si Si7 0.819569 0.413061 0.861214
Si Si8 0.815526 0.529016 0.071516
O O1 0.428011 0.764169 0.476150
O O2 0.466042 0.835008 0.739138
O O3 0.659252 0.875511 0.613775
O O4 0.221888 0.974997 0.283889
O O5 0.341769 0.615959 0.346951
O O6 0.186574 0.670893 0.485284
O O7 0.021250 0.815670 0.070369
O O8 0.633455 0.263851 0.044213
O O9 0.003002 0.107196 0.278500
O O10 0.010632 0.211654 0.484259
O O11 0.953179 0.304861 0.119990
O O12 0.240086 0.274943 0.785114
O O13 0.377637 0.378441 0.021184
O O14 0.924473 0.421876 0.314968
O O15 0.993809 0.432646 0.861883
O O16 0.704885 0.511072 0.847821
#
# Coordination Sequence:
#
# PCOD8013208 Si02
#       8
#     2   2   2   2   2   2   2   2
#     4  11  23  41  72  95 120 170 212 259 328 378
#     4  11  20  41  67  97 124 165 211 265 318 374
#     4  10  23  41  62  92 130 163 209 265 317 373
#     4  12  22  39  64  93 130 172 210 258 317 376
#     4  10  23  45  68  94 128 159 212 269 318 381
#     4  11  22  39  64  93 131 169 209 263 311 372
#     4   9  20  39  61  90 125 162 211 262 299 363
#     4  10  21  40  66  90 129 176 212 258 316 363
#
# _framework density 22.519514000000001
#
# number of rings (size 3 to 8) (size 9 to 14) (size 15 to 20)
#    0.000    1.500    3.750    1.500    0.000    4.500 
#    0.000    1.875    0.000    0.000    0.000    0.000 
#    0.000    0.000    0.000    0.000    0.000    0.000 
#
# Total GULP energy -198323.010607 kJ/mol
# GULP energy per Si atom -12395.188163 kJ/mol
# Density = 2.246826 g / cm^3
# Si number density = 22.519514 Si / 1000 Ang^3
#
#
#
# Elastic Constant Matrix: (Units=GPa)
#
#
# Indices 1 2 3 4 5 6 
#
# 1 98.9362 31.2667 15.8397 8.6992 -1.7314 -7.7714
# 2 31.2667 69.5443 -5.9841 38.1711 0.6440 10.8821
# 3 15.8397 -5.9841 47.5152 28.1758 -11.4670 17.2146
# 4 8.6992 38.1711 28.1758 37.9143 1.2034 -5.0113
# 5 -1.7314 0.6440 -11.4670 1.2034 31.1774 4.0605
# 6 -7.7714 10.8821 17.2146 -5.0113 4.0605 25.6579
#
#
#
# Elastic Compliance Matrix: (Units=1/GPa)
#
#
# Indices 1 2 3 4 5 6 
#
# 1 0.008862 0.002681 0.005898 -0.009880 0.003627 -0.004913
# 2 0.002681 0.000509 -0.018587 0.015311 -0.009577 0.017573
# 3 0.005898 -0.018587 -0.004578 0.023268 -0.004209 0.017952
# 4 -0.009880 0.015311 0.023268 -0.008212 0.011729 -0.028558
# 5 0.003627 -0.009577 -0.004209 0.011729 0.029748 0.005567
# 6 -0.004913 0.017573 0.017952 -0.028558 0.005567 0.011530
#
#
# Mechanical properties :
#
#
# Convention : Reuss Voigt Hill
#
# Bulk Modulus (GPa) = -65.68989 33.13782 -16.27603
# Shear Modulus (GPa) = 94.69320 30.60814 62.65067
#
# Velocity S-wave (km/s) = 6.49159 3.69071 5.28025
# Velocity P-wave (km/s) = 5.19173 5.73663 5.47097
#
# Compressibility (1/GPa) = -0.01522304
#
# Stress axis : x y z
#
# Youngs Moduli (GPa) = 112.83822 1962.87424 -218.42131
#
# Poissons Ratio (x) = -5.26286 1.28815
# Poissons Ratio (y) = -0.30254 -4.05979
# Poissons Ratio (z) = -0.66547 36.48384
#
# Static dielectric constant tensor:
#      x y z
#    x 4.048080 -0.157670 -0.258040 
#    y -0.157670 4.422420 0.184160 
#    z -0.258040 0.184160 4.023930 
# 
# 
# High freq. dielectric constant tensor:
#      x y z
#    x 1.885210 -0.001910 -0.012210 
#    y -0.001910 1.889310 0.013630 
#    z -0.012210 0.013630 1.884300 
# 
# From -- ./inp_files/201087.got.cif
#   From: 2010.06.25/outbox.cif.g09.slc.cpg/sg2_101_cif.got.tgz:201087.got - 2010.06.27 13:26:56.
