data_PCOD8013568
_publ_section_title
;
Structure prediction by ZEFSAII (Michael W. Deem and Ramdas Pophale) SiO2 
 PCOD8013568
Probable space group: P -1
;
_chemical_formula_sum "Si O2"
_cell_formula_units_Z 14
_cell_length_a 10.692073
_cell_length_b 12.389697
_cell_length_c 16.961453
_cell_angle_alpha 150.341554
_cell_angle_beta 145.875516
_cell_angle_gamma 44.959049
_cell_volume 623.171912
_symmetry_space_group_name_H-M "P -1"
_symmetry_group_IT_number 2
_symmetry_cell_setting 'triclinic'
loop_
_space_group_symop_operation_xyz
x,y,z
-x,-y,-z
loop_
_atom_site_type_symbol
_atom_site_label
_atom_site_fract_x
_atom_site_fract_y
_atom_site_fract_z
Si Si1 0.186283 0.218539 0.629672
Si Si2 0.563257 0.306205 0.145776
Si Si3 0.384851 0.278262 0.273229
Si Si4 0.897132 0.356406 0.054878
Si Si5 0.400471 0.890197 0.131057
Si Si6 0.504514 0.261864 0.683745
Si Si7 0.751769 0.061361 0.222462
O O1 0.080787 0.404545 0.744522
O O2 0.350582 0.089100 0.689075
O O3 0.330355 0.319274 0.697109
O O4 0.985558 0.065783 0.392907
O O5 0.553136 0.574239 0.315563
O O6 0.765215 0.205136 0.239403
O O7 0.600710 0.254605 0.040606
O O8 0.332373 0.193429 0.989787
O O9 0.500000 0.500000 0.500000
O O10 0.548587 0.158654 0.225886
O O11 0.143463 0.296879 0.118892
O O12 0.339337 0.136608 0.238159
O O13 0.783017 0.196903 0.958544
O O14 0.751820 0.341447 0.890263
O O15 0.500000 0.000000 0.500000
#
# Coordination Sequence:
#
# PCOD8013568 Si02
#       7
#     2   2   2   2   2   2   2
#     4  11  21  43  69  98 122 169 223 264 325 389
#     4  10  21  43  61  92 135 170 210 266 328 388
#     4  11  23  38  61  98 130 165 212 267 316 385
#     4  11  21  43  67  96 131 162 220 271 319 382
#     4  10  21  40  69  90 125 171 214 266 323 377
#     4  11  24  41  67  97 130 169 221 273 325 377
#     4  10  24  39  65  95 133 173 211 261 331 392
#
# _framework density 22.465710000000001
#
# number of rings (size 3 to 8) (size 9 to 14) (size 15 to 20)
#    0.000    1.429    4.286    1.286    0.000    9.714 
#    2.571    1.429    0.000    0.000    0.000    0.000 
#    0.000    0.000    0.000    0.000    0.000    0.000 
#
# Total GULP energy -173453.155686 kJ/mol
# GULP energy per Si atom -12389.511120 kJ/mol
# Density = 2.241458 g / cm^3
# Si number density = 22.465710 Si / 1000 Ang^3
#
#
#
# Elastic Constant Matrix: (Units=GPa)
#
#
# Indices 1 2 3 4 5 6 
#
# 1 47.9852 16.0389 -2.3004 -12.2550 5.0228 -1.8839
# 2 16.0389 84.6119 31.3307 14.4553 4.2703 -0.6707
# 3 -2.3004 31.3307 92.2362 -6.5909 6.1083 -4.4598
# 4 -12.2550 14.4553 -6.5909 54.5928 -2.9617 14.3342
# 5 5.0228 4.2703 6.1083 -2.9617 24.5383 -11.3003
# 6 -1.8839 -0.6707 -4.4598 14.3342 -11.3003 31.5319
#
#
#
# Elastic Compliance Matrix: (Units=1/GPa)
#
#
# Indices 1 2 3 4 5 6 
#
# 1 0.026548 -0.007930 0.004211 0.009400 -0.005999 -0.004410
# 2 -0.007930 0.017022 -0.006440 -0.007743 0.000574 0.002703
# 3 0.004211 -0.006440 0.013602 0.004407 -0.003089 -0.001072
# 4 0.009400 -0.007743 0.004407 0.026015 -0.004204 -0.012312
# 5 -0.005999 0.000574 -0.003089 -0.004204 0.051094 0.019439
# 6 -0.004410 0.002703 -0.001072 -0.012312 0.019439 0.043920
#
#
# Mechanical properties :
#
#
# Convention : Reuss Voigt Hill
#
# Bulk Modulus (GPa) = 27.13414 34.99688 31.06551
# Shear Modulus (GPa) = 23.71882 34.11685 28.91783
#
# Velocity S-wave (km/s) = 3.25280 3.90117 3.59165
# Velocity P-wave (km/s) = 5.11975 5.99199 5.57296
#
# Compressibility (1/GPa) = 0.03685394
#
# Stress axis : x y z
#
# Youngs Moduli (GPa) = 37.66807 58.74741 73.51812
#
# Poissons Ratio (x) = 0.46586 -0.30962
# Poissons Ratio (y) = 0.29871 0.47349
# Poissons Ratio (z) = -0.15864 0.37836
#
# Static dielectric constant tensor:
#      x y z
#    x 3.904180 0.300720 0.121380 
#    y 0.300720 4.217810 -0.408260 
#    z 0.121380 -0.408260 3.438740 
# 
# 
# High freq. dielectric constant tensor:
#      x y z
#    x 1.869050 0.009840 0.005590 
#    y 0.009840 1.893030 -0.001090 
#    z 0.005590 -0.001090 1.883920 
# 
# From -- ./inp_files/238023.got.cif
#   From: 2010.06.25/outbox.cif.g09.slc.cpg/sg2_120_cif.got.tgz:238023.got - 2010.06.27 13:26:56.
