data_PCOD8013191
_publ_section_title
;
Structure prediction by ZEFSAII (Michael W. Deem and Ramdas Pophale) SiO2 
 PCOD8013191
Probable space group: P -1
;
_chemical_formula_sum "Si O2"
_cell_formula_units_Z 14
_cell_length_a 7.731633
_cell_length_b 27.618324
_cell_length_c 11.643422
_cell_angle_alpha 155.870880
_cell_angle_beta 144.653239
_cell_angle_gamma 39.578146
_cell_volume 584.333614
_symmetry_space_group_name_H-M "P -1"
_symmetry_group_IT_number 2
_symmetry_cell_setting 'triclinic'
loop_
_space_group_symop_operation_xyz
x,y,z
-x,-y,-z
loop_
_atom_site_type_symbol
_atom_site_label
_atom_site_fract_x
_atom_site_fract_y
_atom_site_fract_z
Si Si1 0.453190 0.517927 0.350969
Si Si2 0.870235 0.015164 0.118943
Si Si3 0.854906 0.815461 0.513717
Si Si4 0.019375 0.601772 0.827544
Si Si5 0.875475 0.445252 0.966609
Si Si6 0.760440 0.268555 0.968430
Si Si7 0.183400 0.067080 0.835780
O O1 0.662877 0.623865 0.722192
O O2 0.409175 0.503839 0.156465
O O3 0.135732 0.533648 0.279545
O O4 0.641879 0.395910 0.234915
O O5 0.087987 0.116881 0.428375
O O6 0.876969 0.996058 0.215218
O O7 0.537167 0.061492 0.991251
O O8 0.991922 0.891152 0.853193
O O9 0.016770 0.682071 0.308605
O O10 0.501920 0.817697 0.355659
O O11 0.000000 0.500000 0.500000
O O12 0.210072 0.564600 0.966650
O O13 0.139971 0.714953 0.076436
O O14 0.046389 0.206793 0.060860
O O15 0.000000 0.000000 0.500000
#
# Coordination Sequence:
#
# PCOD8013191 Si02
#       7
#     2   2   2   2   2   2   2
#     4   9  21  43  59  94 124 167 207 255 312 377
#     4  10  24  44  65  90 129 165 216 256 318 373
#     4  10  22  44  62  96 125 168 211 258 312 377
#     4  10  22  39  62  94 124 165 209 254 311 377
#     4  10  21  40  66  88 133 164 205 259 313 372
#     4  10  22  41  62  95 129 158 215 256 314 367
#     4  11  23  43  66  93 122 167 210 269 311 372
#
# _framework density 23.958915999999999
#
# number of rings (size 3 to 8) (size 9 to 14) (size 15 to 20)
#    0.000    2.000    1.429    0.429    4.000    2.857 
#   20.571    0.000    0.000    0.000    0.000    0.000 
#    0.000    0.000    0.000    0.000    0.000    0.000 
#
# Total GULP energy -173485.495074 kJ/mol
# GULP energy per Si atom -12391.821077 kJ/mol
# Density = 2.390438 g / cm^3
# Si number density = 23.958916 Si / 1000 Ang^3
#
#
#
# Elastic Constant Matrix: (Units=GPa)
#
#
# Indices 1 2 3 4 5 6 
#
# 1 100.2584 35.5901 40.3454 -2.3363 22.1954 38.7188
# 2 35.5901 119.9591 40.5736 -14.5267 6.1579 10.9633
# 3 40.3454 40.5736 74.3151 -3.9381 24.1688 15.4723
# 4 -2.3363 -14.5267 -3.9381 29.6558 11.0134 -5.3509
# 5 22.1954 6.1579 24.1688 11.0134 45.1770 13.1173
# 6 38.7188 10.9633 15.4723 -5.3509 13.1173 36.9667
#
#
#
# Elastic Compliance Matrix: (Units=1/GPa)
#
#
# Indices 1 2 3 4 5 6 
#
# 1 0.020496 -0.002864 -0.005812 -0.003850 -0.000211 -0.018668
# 2 -0.002864 0.011217 -0.005031 0.004700 0.000791 0.002179
# 3 -0.005812 -0.005031 0.022390 0.004275 -0.010188 0.002443
# 4 -0.003850 0.004700 0.004275 0.044379 -0.015571 0.012799
# 5 -0.000211 0.000791 -0.010188 -0.015571 0.034335 -0.010187
# 6 -0.018668 0.002179 0.002443 0.012799 -0.010187 0.050403
#
#
# Mechanical properties :
#
#
# Convention : Reuss Voigt Hill
#
# Bulk Modulus (GPa) = 37.47006 58.61676 48.04341
# Shear Modulus (GPa) = 22.77571 34.22813 28.50192
#
# Velocity S-wave (km/s) = 3.08655 3.78381 3.45282
# Velocity P-wave (km/s) = 5.32688 6.60365 5.99933
#
# Compressibility (1/GPa) = 0.02668797
#
# Stress axis : x y z
#
# Youngs Moduli (GPa) = 48.78895 89.15001 44.66295
#
# Poissons Ratio (x) = 0.25536 0.25960
# Poissons Ratio (y) = 0.13975 0.22470
# Poissons Ratio (z) = 0.28358 0.44851
#
# Static dielectric constant tensor:
#      x y z
#    x 4.747060 0.126470 0.659050 
#    y 0.126470 4.481830 0.009910 
#    z 0.659050 0.009910 4.378740 
# 
# 
# High freq. dielectric constant tensor:
#      x y z
#    x 1.965370 0.012520 0.022840 
#    y 0.012520 1.937920 -0.003480 
#    z 0.022840 -0.003480 1.934040 
# 
# From -- ./inp_files/126474.got.cif
#   From: 2010.06.25/outbox.cif.g09.slc.cpg/sg2_64_cif.got.tgz:126474.got - 2010.06.27 13:26:56.
