data_PCOD8013132
_publ_section_title
;
Structure prediction by ZEFSAII (Michael W. Deem and Ramdas Pophale) SiO2 
 PCOD8013132
Probable space group: P -1
;
_chemical_formula_sum "Si O2"
_cell_formula_units_Z 16
_cell_length_a 11.934306
_cell_length_b 7.688634
_cell_length_c 9.671117
_cell_angle_alpha 104.162101
_cell_angle_beta 59.935941
_cell_angle_gamma 100.209669
_cell_volume 743.095919
_symmetry_space_group_name_H-M "P -1"
_symmetry_group_IT_number 2
_symmetry_cell_setting 'triclinic'
loop_
_space_group_symop_operation_xyz
x,y,z
-x,-y,-z
loop_
_atom_site_type_symbol
_atom_site_label
_atom_site_fract_x
_atom_site_fract_y
_atom_site_fract_z
Si Si1 0.031261 0.056283 0.794899
Si Si2 0.567618 0.695485 0.033360
Si Si3 0.103149 0.699279 0.571948
Si Si4 0.573685 0.115650 0.361146
Si Si5 0.905980 0.697726 0.450589
Si Si6 0.794214 0.891018 0.059055
Si Si7 0.381218 0.669208 0.369145
Si Si8 0.385693 0.261604 0.285001
O O1 0.029441 0.179500 0.685162
O O2 0.109937 0.167872 0.889178
O O3 0.109003 0.874847 0.698423
O O4 0.882214 0.999502 0.911662
O O5 0.714899 0.711440 0.010662
O O6 0.478299 0.784280 0.225109
O O7 0.500000 0.500000 0.000000
O O8 0.584399 0.809990 0.902921
O O9 0.088564 0.513555 0.633878
O O10 0.237078 0.688700 0.401182
O O11 0.985377 0.726174 0.547426
O O12 0.623539 0.286559 0.455992
O O13 0.471501 0.161734 0.318538
O O14 0.500000 0.000000 0.500000
O O15 0.692506 0.028075 0.200291
O O16 0.763873 0.764359 0.581465
O O17 0.429412 0.470954 0.295557
#
# Coordination Sequence:
#
# PCOD8013132 Si02
#       8
#     2   2   2   2   2   2   2   2
#     4  11  23  43  66  96 136 177 220 275 335 392
#     4  10  22  42  62  95 129 171 215 274 331 384
#     4  10  21  40  66  94 133 171 227 273 322 404
#     4  12  22  40  65  93 130 168 214 273 328 397
#     4  10  22  40  66  98 130 178 224 269 332 397
#     4  11  24  41  65  97 135 173 223 274 333 402
#     4  10  21  40  65  95 127 173 214 270 337 385
#     4  10  23  39  65  94 130 169 222 265 330 398
#
# _framework density 21.531542000000002
#
# number of rings (size 3 to 8) (size 9 to 14) (size 15 to 20)
#    0.000    1.500    2.500    2.250    0.000    2.500 
#    2.250    5.000    0.000    0.000    0.000    0.000 
#    0.000    0.000    0.000    0.000    0.000    0.000 
#
# Total GULP energy -198220.860768 kJ/mol
# GULP energy per Si atom -12388.803798 kJ/mol
# Density = 2.148254 g / cm^3
# Si number density = 21.531542 Si / 1000 Ang^3
#
#
#
# Elastic Constant Matrix: (Units=GPa)
#
#
# Indices 1 2 3 4 5 6 
#
# 1 132.0519 38.6716 44.5476 -2.3559 -9.0324 9.0314
# 2 38.6716 77.8749 53.9582 -10.9548 -9.0667 -2.4794
# 3 44.5476 53.9582 128.2276 -26.1807 -12.4186 -6.2160
# 4 -2.3559 -10.9548 -26.1807 17.9263 7.8074 -1.3087
# 5 -9.0324 -9.0667 -12.4186 7.8074 35.3151 1.1991
# 6 9.0314 -2.4794 -6.2160 -1.3087 1.1991 35.5257
#
#
#
# Elastic Compliance Matrix: (Units=1/GPa)
#
#
# Indices 1 2 3 4 5 6 
#
# 1 0.010017 -0.003452 -0.003431 -0.007010 0.002145 -0.003718
# 2 -0.003452 0.019472 -0.006521 0.001354 0.001487 0.001095
# 3 -0.003431 -0.006521 0.015770 0.019517 -0.001455 0.003945
# 4 -0.007010 0.001354 0.019517 0.091445 -0.015110 0.009170
# 5 0.002145 0.001487 -0.001455 -0.015110 0.032155 -0.002338
# 6 -0.003718 0.001095 0.003945 0.009170 -0.002338 0.030277
#
#
# Mechanical properties :
#
#
# Convention : Reuss Voigt Hill
#
# Bulk Modulus (GPa) = 54.19757 68.05659 61.12708
# Shear Modulus (GPa) = 21.54297 31.15188 26.34743
#
# Velocity S-wave (km/s) = 3.16655 3.80781 3.50189
# Velocity P-wave (km/s) = 6.21251 7.14206 6.69344
#
# Compressibility (1/GPa) = 0.01845101
#
# Stress axis : x y z
#
# Youngs Moduli (GPa) = 99.82899 51.35600 63.41157
#
# Poissons Ratio (x) = 0.17726 0.21759
# Poissons Ratio (y) = 0.34456 0.41351
# Poissons Ratio (z) = 0.34255 0.33490
#
# Static dielectric constant tensor:
#      x y z
#    x 5.977100 0.551390 3.550530 
#    y 0.551390 3.761430 0.503370 
#    z 3.550530 0.503370 10.674810 
# 
# 
# High freq. dielectric constant tensor:
#      x y z
#    x 1.862170 0.017860 -0.003000 
#    y 0.017860 1.821060 0.000360 
#    z -0.003000 0.000360 1.857490 
# 
# From -- ./inp_files/238891.got.cif
#   From: 2010.06.25/outbox.cif.g09.slc.cpg/sg2_120_cif.got.tgz:238891.got - 2010.06.27 13:26:56.
