data_PCOD8013798
_publ_section_title
;
Structure prediction by ZEFSAII (Michael W. Deem and Ramdas Pophale) SiO2 
 PCOD8013798
Probable space group: P -1
;
_chemical_formula_sum "Si O2"
_cell_formula_units_Z 14
_cell_length_a 6.879828
_cell_length_b 26.369986
_cell_length_c 9.829110
_cell_angle_alpha 142.620483
_cell_angle_beta 135.425546
_cell_angle_gamma 40.749143
_cell_volume 678.697344
_symmetry_space_group_name_H-M "P -1"
_symmetry_group_IT_number 2
_symmetry_cell_setting 'triclinic'
loop_
_space_group_symop_operation_xyz
x,y,z
-x,-y,-z
loop_
_atom_site_type_symbol
_atom_site_label
_atom_site_fract_x
_atom_site_fract_y
_atom_site_fract_z
Si Si1 0.138013 0.325022 0.850551
Si Si2 0.553783 0.136881 0.967751
Si Si3 0.665690 0.117456 0.687014
Si Si4 0.288967 0.703741 0.634977
Si Si5 0.384331 0.023972 0.839686
Si Si6 0.938373 0.669679 0.878714
Si Si7 0.580646 0.402192 0.264152
O O1 0.448903 0.227412 0.804082
O O2 0.911798 0.328931 0.627488
O O3 0.946616 0.347667 0.944377
O O4 0.263515 0.401686 0.052651
O O5 0.787632 0.186681 0.194963
O O6 0.199498 0.218529 0.976818
O O7 0.614322 0.083117 0.738115
O O8 0.596843 0.066241 0.962536
O O9 0.022969 0.096519 0.805284
O O10 0.562988 0.069190 0.413336
O O11 0.657426 0.640605 0.655979
O O12 0.231856 0.682822 0.717614
O O13 0.500000 0.000000 0.000000
O O14 0.213724 0.608298 0.787227
O O15 0.500000 0.500000 0.500000
#
# Coordination Sequence:
#
# PCOD8013798 Si02
#       7
#     2   2   2   2   2   2   2
#     4  10  21  41  62  87 118 160 204 248 295 360
#     4   9  20  41  60  79 120 158 199 243 292 353
#     4  10  22  41  59  86 120 157 205 248 295 352
#     4   9  22  39  61  89 117 158 200 246 298 357
#     4  11  24  38  58  91 121 157 202 250 295 351
#     4   8  20  39  60  85 115 158 198 238 300 355
#     4  11  22  40  64  91 124 155 195 250 301 358
#
# _framework density 20.627751
#
# number of rings (size 3 to 8) (size 9 to 14) (size 15 to 20)
#    0.857    1.429    1.429    1.286    2.000    4.571 
#   12.857    1.429    0.000    0.000    0.000    0.000 
#    0.000    0.000    0.000    0.000    0.000    0.000 
#
# Total GULP energy -173450.650016 kJ/mol
# GULP energy per Si atom -12389.332144 kJ/mol
# Density = 2.058080 g / cm^3
# Si number density = 20.627751 Si / 1000 Ang^3
#
#
#
# Elastic Constant Matrix: (Units=GPa)
#
#
# Indices 1 2 3 4 5 6 
#
# 1 106.7902 25.5186 62.2473 4.4455 -20.7717 -0.4018
# 2 25.5186 26.9994 35.4715 -5.4834 -1.4856 6.2844
# 3 62.2473 35.4715 165.7631 -16.6579 -7.7518 4.6024
# 4 4.4455 -5.4834 -16.6579 38.0578 -0.8146 -5.3822
# 5 -20.7717 -1.4856 -7.7518 -0.8146 35.5119 7.1657
# 6 -0.4018 6.2844 4.6024 -5.3822 7.1657 20.0363
#
#
#
# Elastic Compliance Matrix: (Units=1/GPa)
#
#
# Indices 1 2 3 4 5 6 
#
# 1 0.015839 -0.010621 -0.003807 -0.004817 0.007789 0.000444
# 2 -0.010621 0.063023 -0.008731 0.004179 -0.002140 -0.016087
# 3 -0.003807 -0.008731 0.009612 0.003618 -0.000753 0.001695
# 4 -0.004817 0.004179 0.003618 0.029917 -0.002519 0.006699
# 5 0.007789 -0.002140 -0.000753 -0.002519 0.034854 -0.012141
# 6 0.000444 -0.016087 0.001695 0.006699 -0.012141 0.060716
#
#
# Mechanical properties :
#
#
# Convention : Reuss Voigt Hill
#
# Bulk Modulus (GPa) = 23.72244 60.66972 42.19608
# Shear Modulus (GPa) = 18.22615 30.47555 24.35085
#
# Velocity S-wave (km/s) = 2.97572 3.84787 3.43955
# Velocity P-wave (km/s) = 4.83030 7.01549 6.02283
#
# Compressibility (1/GPa) = 0.04215417
#
# Stress axis : x y z
#
# Youngs Moduli (GPa) = 63.13714 15.86725 104.03722
#
# Poissons Ratio (x) = 0.16853 0.39607
# Poissons Ratio (y) = 0.67060 0.90837
# Poissons Ratio (z) = 0.24036 0.13854
#
# Static dielectric constant tensor:
#      x y z
#    x 3.729810 0.086820 -0.073470 
#    y 0.086820 3.329030 0.017550 
#    z -0.073470 0.017550 3.825650 
# 
# 
# High freq. dielectric constant tensor:
#      x y z
#    x 1.811100 0.006880 -0.007400 
#    y 0.006880 1.773000 0.003450 
#    z -0.007400 0.003450 1.810180 
# 
# From -- ./inp_files/142900.got.cif
#   From: 2010.06.25/outbox.cif.g09.slc.cpg/sg2_72_cif.got.tgz:142900.got - 2010.06.27 13:26:56.
