data_PCOD8013762
_publ_section_title
;
Structure prediction by ZEFSAII (Michael W. Deem and Ramdas Pophale) SiO2 
 PCOD8013762
Probable space group: P -1
;
_chemical_formula_sum "Si O2"
_cell_formula_units_Z 16
_cell_length_a 18.721663
_cell_length_b 11.543907
_cell_length_c 28.028429
_cell_angle_alpha 28.564454
_cell_angle_beta 162.834428
_cell_angle_gamma 144.927945
_cell_volume 845.552720
_symmetry_space_group_name_H-M "P -1"
_symmetry_group_IT_number 2
_symmetry_cell_setting 'triclinic'
loop_
_space_group_symop_operation_xyz
x,y,z
-x,-y,-z
loop_
_atom_site_type_symbol
_atom_site_label
_atom_site_fract_x
_atom_site_fract_y
_atom_site_fract_z
Si Si1 0.082498 0.082130 0.074572
Si Si2 0.828817 0.426723 0.517359
Si Si3 0.821883 0.382886 0.635472
Si Si4 0.626585 0.625511 0.993445
Si Si5 0.554749 0.555255 0.804418
Si Si6 0.634529 0.632011 0.155671
Si Si7 0.618737 0.178598 0.804277
Si Si8 0.421506 0.829063 0.111954
O O1 0.275138 0.272492 0.124206
O O2 0.219422 0.848008 0.275106
O O3 0.848383 0.221175 0.902985
O O4 0.000000 0.000000 0.000000
O O5 0.839848 0.293572 0.623982
O O6 0.657917 0.294036 0.419783
O O7 0.703628 0.707803 0.344124
O O8 0.086564 0.447337 0.651525
O O9 0.604904 0.605448 0.426508
O O10 0.082535 0.459453 0.787916
O O11 0.537627 0.535681 0.919298
O O12 0.543456 0.916949 0.837233
O O13 0.500000 0.500000 0.000000
O O14 0.409654 0.409032 0.802242
O O15 0.707902 0.344088 0.944582
O O16 0.564632 0.911839 0.995758
O O17 0.709980 0.162068 0.923626
#
# Coordination Sequence:
#
# PCOD8013762 Si02
#       8
#     2   2   2   2   2   2   2   2
#     4  11  24  45  62  85 120 155 204 251 298 359
#     4   9  21  37  58  89 118 152 199 241 292 359
#     4  10  21  41  61  89 120 155 202 253 290 350
#     4  11  20  33  64  91 120 162 192 238 300 348
#     4  10  23  39  58  90 119 158 200 242 298 356
#     4  12  19  39  60  86 130 159 185 249 302 345
#     4  10  21  41  61  89 120 155 202 253 290 350
#     4   9  21  37  58  89 118 152 199 241 292 359
#
# _framework density 18.922533999999999
#
# number of rings (size 3 to 8) (size 9 to 14) (size 15 to 20)
#    0.750    1.000    2.500    3.000    0.000    3.000 
#    2.250    0.000    0.000    0.000    0.000    0.000 
#    0.000    0.000    0.000    0.000    0.000    0.000 
#
# Total GULP energy -198259.863496 kJ/mol
# GULP energy per Si atom -12391.241468 kJ/mol
# Density = 1.887947 g / cm^3
# Si number density = 18.922534 Si / 1000 Ang^3
#
#
#
# Elastic Constant Matrix: (Units=GPa)
#
#
# Indices 1 2 3 4 5 6 
#
# 1 142.7226 61.3897 31.1342 -6.8861 10.2320 -11.6270
# 2 61.3897 94.5339 37.1293 17.0581 15.8570 -10.4016
# 3 31.1342 37.1293 124.0861 2.4585 -21.3116 11.7273
# 4 -6.8861 17.0581 2.4585 9.7437 -30.9625 -2.6771
# 5 10.2320 15.8570 -21.3116 -30.9625 61.2065 -10.4017
# 6 -11.6270 -10.4016 11.7273 -2.6771 -10.4017 41.1310
#
#
#
# Elastic Compliance Matrix: (Units=1/GPa)
#
#
# Indices 1 2 3 4 5 6 
#
# 1 0.008460 -0.002008 -0.002413 -0.008302 -0.005839 0.000555
# 2 -0.002008 0.006805 -0.000648 0.022852 0.010854 0.005570
# 3 -0.002413 -0.000648 0.009192 -0.009011 -0.001542 -0.004443
# 4 -0.008302 0.022852 -0.009011 -0.049383 -0.033623 -0.005716
# 5 -0.005839 0.010854 -0.001542 -0.033623 -0.003296 -0.001488
# 6 0.000555 0.005570 -0.004443 -0.005716 -0.001488 0.026396
#
#
# Mechanical properties :
#
#
# Convention : Reuss Voigt Hill
#
# Bulk Modulus (GPa) = 69.82922 68.96100 69.39511
# Shear Modulus (GPa) = 382.18813 37.86220 210.02516
#
# Velocity S-wave (km/s) = 14.22721 4.47800 10.54671
# Velocity P-wave (km/s) = 17.51764 7.95359 13.60381
#
# Compressibility (1/GPa) = 0.01432065
#
# Stress axis : x y z
#
# Youngs Moduli (GPa) = 118.20692 146.95078 108.79402
#
# Poissons Ratio (x) = 0.29501 0.26249
# Poissons Ratio (y) = 0.23731 0.07045
# Poissons Ratio (z) = 0.28520 0.09516
#
# Static dielectric constant tensor:
#      x y z
#    x 3.664730 -0.176730 -0.085960 
#    y -0.176730 3.403120 0.037380 
#    z -0.085960 0.037380 3.496280 
# 
# 
# High freq. dielectric constant tensor:
#      x y z
#    x 1.753810 -0.004840 -0.006640 
#    y -0.004840 1.716900 -0.001640 
#    z -0.006640 -0.001640 1.731810 
# 
# From -- ./inp_files/620320.got.cif
#   From: 2010.06.25/outbox.cif.g09.slc.cpg/sg2_311_cif.got.tgz:620320.got - 2010.06.27 13:26:56.
