data_PCOD8013610
_publ_section_title
;
Structure prediction by ZEFSAII (Michael W. Deem and Ramdas Pophale) SiO2 
 PCOD8013610
Probable space group: P -1
;
_chemical_formula_sum "Si O2"
_cell_formula_units_Z 14
_cell_length_a 9.434595
_cell_length_b 8.414695
_cell_length_c 8.808216
_cell_angle_alpha 109.462473
_cell_angle_beta 68.916343
_cell_angle_gamma 112.398443
_cell_volume 587.445672
_symmetry_space_group_name_H-M "P -1"
_symmetry_group_IT_number 2
_symmetry_cell_setting 'triclinic'
loop_
_space_group_symop_operation_xyz
x,y,z
-x,-y,-z
loop_
_atom_site_type_symbol
_atom_site_label
_atom_site_fract_x
_atom_site_fract_y
_atom_site_fract_z
Si Si1 0.260993 0.387886 0.712818
Si Si2 0.653051 0.968195 0.860214
Si Si3 0.971796 0.200979 0.945298
Si Si4 0.155050 0.434134 0.438878
Si Si5 0.653309 0.966345 0.499010
Si Si6 0.944068 0.139186 0.265261
Si Si7 0.560396 0.572125 0.836173
O O1 0.219894 0.454788 0.589259
O O2 0.319794 0.215715 0.622585
O O3 0.407807 0.539754 0.774839
O O4 0.100545 0.365343 0.867190
O O5 0.648523 0.970673 0.682213
O O6 0.653991 0.780092 0.868466
O O7 0.803538 0.130765 0.903748
O O8 0.500000 0.000000 0.000000
O O9 0.946275 0.253249 0.146283
O O10 0.059365 0.050771 0.853370
O O11 0.310047 0.525128 0.302763
O O12 0.000000 0.500000 0.500000
O O13 0.094727 0.228370 0.343837
O O14 0.500000 0.000000 0.500000
O O15 0.792378 0.128057 0.425645
O O16 0.500000 0.500000 0.000000
#
# Coordination Sequence:
#
# PCOD8013610 Si02
#       7
#     2   2   2   2   2   2   2
#     4  11  25  46  74 101 145 189 236 300 361 427
#     4  12  26  44  71 105 143 187 243 296 360 431
#     4  10  21  43  70  99 137 180 234 290 353 421
#     4  12  26  45  72 101 142 191 244 294 361 429
#     4  11  24  40  71 104 143 181 241 294 359 426
#     4  10  21  40  69  99 133 179 231 291 350 416
#     4  12  28  48  72 105 153 191 239 303 366 428
#
# _framework density 23.831989
#
# number of rings (size 3 to 8) (size 9 to 14) (size 15 to 20)
#    0.000    0.857    2.857    3.000    8.000    4.571 
#    0.000    2.143    0.000    0.000    0.000    0.000 
#    0.000    0.000    0.000    0.000    0.000    0.000 
#
# Total GULP energy -173514.471050 kJ/mol
# GULP energy per Si atom -12393.890789 kJ/mol
# Density = 2.377775 g / cm^3
# Si number density = 23.831989 Si / 1000 Ang^3
#
#
#
# Elastic Constant Matrix: (Units=GPa)
#
#
# Indices 1 2 3 4 5 6 
#
# 1 153.7452 27.7854 52.5237 -17.9808 -16.6985 10.7213
# 2 27.7854 32.1795 27.2467 -15.7960 -13.0878 9.3213
# 3 52.5237 27.2467 165.9782 -42.6796 -16.8156 -3.6737
# 4 -17.9808 -15.7960 -42.6796 39.2712 9.6684 1.1060
# 5 -16.6985 -13.0878 -16.8156 9.6684 52.9612 -5.4180
# 6 10.7213 9.3213 -3.6737 1.1060 -5.4180 42.5161
#
#
#
# Elastic Compliance Matrix: (Units=1/GPa)
#
#
# Indices 1 2 3 4 5 6 
#
# 1 0.008142 -0.005160 -0.001794 -0.000443 0.000704 -0.000976
# 2 -0.005160 0.049665 -0.002618 0.013455 0.006402 -0.009348
# 3 -0.001794 -0.002618 0.009133 0.007903 0.000415 0.001663
# 4 -0.000443 0.013455 0.007903 0.039834 -0.001929 -0.003438
# 5 0.000704 0.006402 0.000415 -0.001929 0.021294 0.001219
# 6 -0.000976 -0.009348 0.001663 -0.003438 0.001219 0.026204
#
#
# Mechanical properties :
#
#
# Convention : Reuss Voigt Hill
#
# Bulk Modulus (GPa) = 20.92230 63.00160 41.96195
# Shear Modulus (GPa) = 26.40630 43.23949 34.82289
#
# Velocity S-wave (km/s) = 3.33230 4.26414 3.82669
# Velocity P-wave (km/s) = 4.85837 7.12299 6.09675
#
# Compressibility (1/GPa) = 0.04779589
#
# Stress axis : x y z
#
# Youngs Moduli (GPa) = 122.81534 20.13500 109.49082
#
# Poissons Ratio (x) = 0.10390 0.19639
# Poissons Ratio (y) = 0.63376 0.28667
# Poissons Ratio (z) = 0.22029 0.05272
#
# Static dielectric constant tensor:
#      x y z
#    x 4.362640 0.303610 -0.212440 
#    y 0.303610 4.318640 -0.083690 
#    z -0.212440 -0.083690 4.830250 
# 
# 
# High freq. dielectric constant tensor:
#      x y z
#    x 1.957820 0.019870 -0.013910 
#    y 0.019870 1.926030 -0.006910 
#    z -0.013910 -0.006910 1.969780 
# 
# From -- ./inp_files/157528.got.cif
#   From: 2010.06.25/outbox.cif.g09.slc.cpg/sg2_79_cif.got.tgz:157528.got - 2010.06.27 13:26:56.
