data_PCOD8013916
_publ_section_title
;
Structure prediction by ZEFSAII (Michael W. Deem and Ramdas Pophale) SiO2 
 PCOD8013916
Probable space group: P -1
;
_chemical_formula_sum "Si O2"
_cell_formula_units_Z 14
_cell_length_a 11.289596
_cell_length_b 13.888503
_cell_length_c 12.203017
_cell_angle_alpha 80.016826
_cell_angle_beta 122.641183
_cell_angle_gamma 148.432751
_cell_volume 641.509553
_symmetry_space_group_name_H-M "P -1"
_symmetry_group_IT_number 2
_symmetry_cell_setting 'triclinic'
loop_
_space_group_symop_operation_xyz
x,y,z
-x,-y,-z
loop_
_atom_site_type_symbol
_atom_site_label
_atom_site_fract_x
_atom_site_fract_y
_atom_site_fract_z
Si Si1 0.786222 0.815100 0.799558
Si Si2 0.523095 0.671800 0.993688
Si Si3 0.437715 0.965457 0.799181
Si Si4 0.688353 0.968866 0.090922
Si Si5 0.173130 0.556408 0.471935
Si Si6 0.235890 0.353714 0.750706
Si Si7 0.517861 0.089007 0.586578
O O1 0.546135 0.752189 0.654680
O O2 0.575759 0.604289 0.807291
O O3 0.930741 0.840479 0.764014
O O4 0.153284 0.094977 0.975984
O O5 0.692264 0.709683 0.161882
O O6 0.402431 0.698761 0.981884
O O7 0.208027 0.415974 0.825349
O O8 0.372322 0.022879 0.823006
O O9 0.644243 0.124677 0.758917
O O10 0.065890 0.683657 0.639384
O O11 0.663868 0.033669 0.968974
O O12 0.000000 0.500000 0.500000
O O13 0.228291 0.663556 0.375532
O O14 0.880672 0.127727 0.549710
O O15 0.500000 0.000000 0.500000
#
# Coordination Sequence:
#
# PCOD8013916 Si02
#       7
#     2   2   2   2   2   2   2
#     4  10  21  41  63  92 130 167 216 262 324 376
#     4   9  22  38  62  91 131 162 219 261 316 384
#     4  11  24  46  65  92 137 170 219 266 319 390
#     4   9  24  46  64  93 131 180 213 261 321 390
#     4  12  24  42  68  97 130 166 215 277 331 376
#     4  11  20  38  63  97 125 165 215 271 321 375
#     4  12  24  38  65  98 126 168 215 269 331 379
#
# _framework density 21.823523999999999
#
# number of rings (size 3 to 8) (size 9 to 14) (size 15 to 20)
#    0.857    0.571    4.286    0.429    4.000    2.857 
#    2.571    2.857    0.000    0.000    0.000    0.000 
#    0.000    0.000    0.000    0.000    0.000    0.000 
#
# Total GULP energy -173437.639233 kJ/mol
# GULP energy per Si atom -12388.402802 kJ/mol
# Density = 2.177385 g / cm^3
# Si number density = 21.823524 Si / 1000 Ang^3
#
#
#
# Elastic Constant Matrix: (Units=GPa)
#
#
# Indices 1 2 3 4 5 6 
#
# 1 133.1838 26.9388 22.4170 -6.6218 -6.7425 -11.1476
# 2 26.9388 132.6093 15.2807 -16.6154 -8.5862 -8.6491
# 3 22.4170 15.2807 57.6569 -1.6115 -1.8296 4.3658
# 4 -6.6218 -16.6154 -1.6115 31.3650 1.9052 -1.2500
# 5 -6.7425 -8.5862 -1.8296 1.9052 28.3183 1.0540
# 6 -11.1476 -8.6491 4.3658 -1.2500 1.0540 32.3465
#
#
#
# Elastic Compliance Matrix: (Units=1/GPa)
#
#
# Indices 1 2 3 4 5 6 
#
# 1 0.008643 -0.000932 -0.003277 0.001206 0.001364 0.003174
# 2 -0.000932 0.008781 -0.001964 0.004332 0.001933 0.002396
# 3 -0.003277 -0.001964 0.019443 -0.000911 0.000103 -0.004317
# 4 0.001206 0.004332 -0.000911 0.034562 -0.000897 0.003062
# 5 0.001364 0.001933 0.000103 -0.000897 0.036300 -0.000244
# 6 0.003174 0.002396 -0.004317 0.003062 -0.000244 0.033359
#
#
# Mechanical properties :
#
#
# Convention : Reuss Voigt Hill
#
# Bulk Modulus (GPa) = 40.77945 50.30256 45.54101
# Shear Modulus (GPa) = 30.93930 35.66019 33.29974
#
# Velocity S-wave (km/s) = 3.76933 4.04669 3.91047
# Velocity P-wave (km/s) = 6.13762 6.70329 6.42668
#
# Compressibility (1/GPa) = 0.02452215
#
# Stress axis : x y z
#
# Youngs Moduli (GPa) = 115.69865 113.88538 51.43184
#
# Poissons Ratio (x) = 0.10611 0.16853
# Poissons Ratio (y) = 0.10780 0.10101
# Poissons Ratio (z) = 0.37913 0.22366
#
# Static dielectric constant tensor:
#      x y z
#    x 3.905050 0.053270 0.067350 
#    y 0.053270 5.050250 -0.031500 
#    z 0.067350 -0.031500 3.813210 
# 
# 
# High freq. dielectric constant tensor:
#      x y z
#    x 1.846070 -0.012940 0.017690 
#    y -0.012940 1.872790 0.000450 
#    z 0.017690 0.000450 1.839040 
# 
# From -- ./inp_files/433951.got.cif
#   From: 2010.06.25/outbox.cif.g09.slc.cpg/sg2_217_cif.got.tgz:433951.got - 2010.06.27 13:26:56.
