data_PCOD8013575
_publ_section_title
;
Structure prediction by ZEFSAII (Michael W. Deem and Ramdas Pophale) SiO2 
 PCOD8013575
Probable space group: P -1
;
_chemical_formula_sum "Si O2"
_cell_formula_units_Z 16
_cell_length_a 9.190424
_cell_length_b 20.906353
_cell_length_c 11.306312
_cell_angle_alpha 136.615149
_cell_angle_beta 107.231654
_cell_angle_gamma 39.323050
_cell_volume 748.532485
_symmetry_space_group_name_H-M "P -1"
_symmetry_group_IT_number 2
_symmetry_cell_setting 'triclinic'
loop_
_space_group_symop_operation_xyz
x,y,z
-x,-y,-z
loop_
_atom_site_type_symbol
_atom_site_label
_atom_site_fract_x
_atom_site_fract_y
_atom_site_fract_z
Si Si1 0.004112 0.269098 0.963606
Si Si2 0.389763 0.050831 0.410872
Si Si3 0.616087 0.557016 0.710380
Si Si4 0.907734 0.152496 0.462726
Si Si5 0.587597 0.589422 0.145973
Si Si6 0.099379 0.397889 0.764136
Si Si7 0.535914 0.569235 0.443195
Si Si8 0.794045 0.187229 0.860616
O O1 0.852434 0.379555 0.951095
O O2 0.826129 0.406625 0.214798
O O3 0.009299 0.154771 0.823288
O O4 0.344172 0.118776 0.839268
O O5 0.268140 0.214712 0.572896
O O6 0.150357 0.096451 0.401891
O O7 0.500000 0.000000 0.500000
O O8 0.636460 0.560015 0.578881
O O9 0.643836 0.433811 0.587014
O O10 0.843946 0.508996 0.759784
O O11 0.298257 0.752814 0.944154
O O12 0.692076 0.308648 0.718342
O O13 0.697021 0.239677 0.417273
O O14 0.044186 0.994567 0.353392
O O15 0.683010 0.639696 0.292334
O O16 0.507185 0.646342 0.064745
O O17 0.000000 0.500000 0.000000
#
# Coordination Sequence:
#
# PCOD8013575 Si02
#       8
#     2   2   2   2   2   2   2   2
#     4  10  23  40  64  93 130 169 215 265 315 377
#     4  12  24  38  62  98 133 165 209 268 322 379
#     4  10  21  40  69  92 125 172 218 262 313 382
#     4  11  23  40  63  96 128 171 214 262 319 381
#     4  11  22  38  62  93 133 166 207 258 324 386
#     4  12  23  39  64 100 131 164 209 264 327 378
#     4   9  21  45  67  90 124 175 221 257 316 377
#     4  11  21  37  65  93 128 167 214 262 320 376
#
# _framework density 21.375157000000002
#
# number of rings (size 3 to 8) (size 9 to 14) (size 15 to 20)
#    0.000    1.250    2.500    3.750    1.750    0.500 
#    0.000    3.125    2.750    0.000    0.000    0.000 
#    0.000    0.000    0.000    0.000    0.000    0.000 
#
# Total GULP energy -198245.027982 kJ/mol
# GULP energy per Si atom -12390.314249 kJ/mol
# Density = 2.132651 g / cm^3
# Si number density = 21.375157 Si / 1000 Ang^3
#
#
#
# Elastic Constant Matrix: (Units=GPa)
#
#
# Indices 1 2 3 4 5 6 
#
# 1 132.8370 42.5467 50.1056 9.0835 -8.2993 -10.3803
# 2 42.5467 116.4858 54.6573 -6.4100 -8.2917 0.6728
# 3 50.1056 54.6573 82.1054 15.0871 -9.5803 -2.9580
# 4 9.0835 -6.4100 15.0871 39.5383 3.6171 6.7673
# 5 -8.2993 -8.2917 -9.5803 3.6171 30.7280 4.0655
# 6 -10.3803 0.6728 -2.9580 6.7673 4.0655 32.0352
#
#
#
# Elastic Compliance Matrix: (Units=1/GPa)
#
#
# Indices 1 2 3 4 5 6 
#
# 1 0.010190 -0.001536 -0.004764 -0.001359 0.000601 0.003105
# 2 -0.001536 0.014200 -0.009924 0.006994 -0.000080 -0.003180
# 3 -0.004764 -0.009924 0.024265 -0.010628 0.004511 0.002578
# 4 -0.001359 0.006994 -0.010628 0.032559 -0.004585 -0.007864
# 5 0.000601 -0.000080 0.004511 -0.004585 0.035009 -0.002861
# 6 0.003105 -0.003180 0.002578 -0.007864 -0.002861 0.034551
#
#
# Mechanical properties :
#
#
# Convention : Reuss Voigt Hill
#
# Bulk Modulus (GPa) = 61.70574 69.56085 65.63329
# Shear Modulus (GPa) = 26.50739 32.73487 29.62113
#
# Velocity S-wave (km/s) = 3.52533 3.91761 3.72664
# Velocity P-wave (km/s) = 6.74546 7.28540 7.02062
#
# Compressibility (1/GPa) = 0.01620595
#
# Stress axis : x y z
#
# Youngs Moduli (GPa) = 98.13250 70.42192 41.21084
#
# Poissons Ratio (x) = 0.10820 0.19634
# Poissons Ratio (y) = 0.15078 0.40899
# Poissons Ratio (z) = 0.46752 0.69889
#
# Static dielectric constant tensor:
#      x y z
#    x 4.342500 -0.055490 -0.159760 
#    y -0.055490 3.950120 0.209040 
#    z -0.159760 0.209040 3.758230 
# 
# 
# High freq. dielectric constant tensor:
#      x y z
#    x 1.851910 0.007720 -0.008070 
#    y 0.007720 1.823280 0.016880 
#    z -0.008070 0.016880 1.825620 
# 
# From -- ./inp_files/399791.got.cif
#   From: 2010.06.25/outbox.cif.g09.slc.cpg/sg2_200_cif.got.tgz:399791.got - 2010.06.27 13:26:56.
