data_PCOD8013315
_publ_section_title
;
Structure prediction by ZEFSAII (Michael W. Deem and Ramdas Pophale) SiO2 
 PCOD8013315
Probable space group: P -1
;
_chemical_formula_sum "Si O2"
_cell_formula_units_Z 16
_cell_length_a 11.276386
_cell_length_b 17.987740
_cell_length_c 9.455512
_cell_angle_alpha 150.689889
_cell_angle_beta 56.098201
_cell_angle_gamma 130.373311
_cell_volume 715.158554
_symmetry_space_group_name_H-M "P -1"
_symmetry_group_IT_number 2
_symmetry_cell_setting 'triclinic'
loop_
_space_group_symop_operation_xyz
x,y,z
-x,-y,-z
loop_
_atom_site_type_symbol
_atom_site_label
_atom_site_fract_x
_atom_site_fract_y
_atom_site_fract_z
Si Si1 0.748806 0.284703 0.092715
Si Si2 0.546110 0.986852 0.288053
Si Si3 0.014227 0.786352 0.372543
Si Si4 0.709593 0.602492 0.109807
Si Si5 0.944790 0.651860 0.486933
Si Si6 0.154472 0.613043 0.508236
Si Si7 0.209209 0.110426 0.921875
Si Si8 0.459968 0.278319 0.798062
O O1 0.575578 0.180102 0.979290
O O2 0.866598 0.214845 0.829377
O O3 0.808562 0.476000 0.323742
O O4 0.742746 0.262397 0.231108
O O5 0.715334 0.976516 0.158993
O O6 0.500000 0.000000 0.500000
O O7 0.544433 0.153349 0.492821
O O8 0.845028 0.731369 0.326355
O O9 0.003774 0.661162 0.301135
O O10 0.072134 0.973596 0.697792
O O11 0.629504 0.710540 0.265685
O O12 0.764154 0.505368 0.794804
O O13 0.588361 0.460029 0.053915
O O14 0.100554 0.698064 0.555596
O O15 0.870182 0.786323 0.772005
O O16 0.000000 0.500000 0.500000
O O17 0.345061 0.223089 0.914789
#
# Coordination Sequence:
#
# PCOD8013315 Si02
#       8
#     2   2   2   2   2   2   2   2
#     4  11  22  42  70 101 128 191 226 265 349 401
#     4  10  22  41  67  94 135 176 225 275 333 401
#     4  12  24  41  72 102 131 176 235 273 340 400
#     4  11  24  42  71 103 131 178 233 278 333 404
#     4  11  25  40  68 103 139 172 228 288 326 403
#     4  10  21  40  66  98 139 165 223 283 332 389
#     4  11  25  44  67  98 143 179 218 281 347 394
#     4  10  23  44  67  93 138 178 220 280 333 399
#
# _framework density 22.37266
#
# number of rings (size 3 to 8) (size 9 to 14) (size 15 to 20)
#    0.000    1.250    5.000    2.250    5.250    2.000 
#    4.500    0.625    0.000    0.000    0.000    0.000 
#    0.000    0.000    0.000    0.000    0.000    0.000 
#
# Total GULP energy -198349.529175 kJ/mol
# GULP energy per Si atom -12396.845573 kJ/mol
# Density = 2.232174 g / cm^3
# Si number density = 22.372660 Si / 1000 Ang^3
#
#
#
# Elastic Constant Matrix: (Units=GPa)
#
#
# Indices 1 2 3 4 5 6 
#
# 1 133.1728 16.7382 53.4960 14.8012 5.7033 -0.2535
# 2 16.7382 49.8193 0.8605 5.6649 0.3298 -3.1409
# 3 53.4960 0.8605 89.9532 14.8314 3.9443 1.9039
# 4 14.8012 5.6649 14.8314 25.1755 -1.8720 1.8153
# 5 5.7033 0.3298 3.9443 -1.8720 52.6007 9.5268
# 6 -0.2535 -3.1409 1.9039 1.8153 9.5268 31.2277
#
#
#
# Elastic Compliance Matrix: (Units=1/GPa)
#
#
# Indices 1 2 3 4 5 6 
#
# 1 0.010532 -0.003157 -0.005855 -0.002132 -0.000851 0.000509
# 2 -0.003157 0.021785 0.002416 -0.004691 -0.000590 0.002471
# 3 -0.005855 0.002416 0.015663 -0.006373 -0.000753 -0.000159
# 4 -0.002132 -0.004691 -0.006373 0.046281 0.003060 -0.003725
# 5 -0.000851 -0.000590 -0.000753 0.003060 0.020438 -0.006433
# 6 0.000509 0.002471 -0.000159 -0.003725 -0.006433 0.034464
#
#
# Mechanical properties :
#
#
# Convention : Reuss Voigt Hill
#
# Bulk Modulus (GPa) = 28.74588 46.12607 37.43597
# Shear Modulus (GPa) = 28.74356 35.25752 32.00054
#
# Velocity S-wave (km/s) = 3.58825 3.97409 3.78609
# Velocity P-wave (km/s) = 5.48123 6.45909 5.99015
#
# Compressibility (1/GPa) = 0.03478760
#
# Stress axis : x y z
#
# Youngs Moduli (GPa) = 94.94496 45.90369 63.84371
#
# Poissons Ratio (x) = 0.14494 0.37383
# Poissons Ratio (y) = 0.29978 -0.15427
# Poissons Ratio (z) = 0.55594 -0.11092
#
# Static dielectric constant tensor:
#      x y z
#    x 4.986090 -0.396060 0.287250 
#    y -0.396060 4.018090 -0.003520 
#    z 0.287250 -0.003520 4.221070 
# 
# 
# High freq. dielectric constant tensor:
#      x y z
#    x 1.890470 0.003150 0.002860 
#    y 0.003150 1.881530 0.005060 
#    z 0.002860 0.005060 1.872610 
# 
# From -- ./inp_files/280240.got.cif
#   From: 2010.06.25/outbox.cif.g09.slc.cpg/sg2_141_cif.got.tgz:280240.got - 2010.06.27 13:26:56.
