data_PCOD8013478
_publ_section_title
;
Structure prediction by ZEFSAII (Michael W. Deem and Ramdas Pophale) SiO2 
 PCOD8013478
Probable space group: P -1
;
_chemical_formula_sum "Si O2"
_cell_formula_units_Z 14
_cell_length_a 13.547922
_cell_length_b 7.174598
_cell_length_c 13.230271
_cell_angle_alpha 43.234060
_cell_angle_beta 130.261702
_cell_angle_gamma 107.374298
_cell_volume 634.657633
_symmetry_space_group_name_H-M "P -1"
_symmetry_group_IT_number 2
_symmetry_cell_setting 'triclinic'
loop_
_space_group_symop_operation_xyz
x,y,z
-x,-y,-z
loop_
_atom_site_type_symbol
_atom_site_label
_atom_site_fract_x
_atom_site_fract_y
_atom_site_fract_z
Si Si1 0.521176 0.805040 0.878024
Si Si2 0.827509 0.316946 0.976886
Si Si3 0.548277 0.725866 0.711206
Si Si4 0.745346 0.294186 0.466670
Si Si5 0.253206 0.178956 0.833307
Si Si6 0.915727 0.691542 0.742113
Si Si7 0.248543 0.238140 0.581968
O O1 0.599771 0.799027 0.825604
O O2 0.376811 0.060725 0.669221
O O3 0.500000 0.500000 0.000000
O O4 0.601391 0.903005 0.981755
O O5 0.668835 0.475074 0.836543
O O6 0.869255 0.424931 0.855590
O O7 0.923888 0.370597 0.108381
O O8 0.844400 0.974757 0.114925
O O9 0.417060 0.628939 0.687502
O O10 0.500000 0.000000 0.500000
O O11 0.802794 0.469322 0.349208
O O12 0.760301 0.430750 0.532219
O O13 0.831584 0.960521 0.651168
O O14 0.263024 0.067092 0.766403
O O15 0.883771 0.747253 0.580002
#
# Coordination Sequence:
#
# PCOD8013478 Si02
#       7
#     2   2   2   2   2   2   2
#     4  12  19  37  66  99 134 167 210 274 330 369
#     4  11  25  42  65  98 128 171 224 268 314 392
#     4  12  22  39  67  96 127 167 214 262 327 385
#     4  10  22  42  68  93 131 165 217 266 323 386
#     4  10  23  39  65 100 129 163 224 266 316 385
#     4  11  23  48  65  88 139 177 209 268 331 379
#     4  10  21  40  68  92 130 174 209 266 326 384
#
# _framework density 22.059138000000001
#
# number of rings (size 3 to 8) (size 9 to 14) (size 15 to 20)
#    0.857    0.286    4.286    2.143    0.000    2.286 
#    2.571    4.286    0.000    0.000    0.000    0.000 
#    0.000    0.000    0.000    0.000    0.000    0.000 
#
# Total GULP energy -173432.916608 kJ/mol
# GULP energy per Si atom -12388.065472 kJ/mol
# Density = 2.200893 g / cm^3
# Si number density = 22.059138 Si / 1000 Ang^3
#
#
#
# Elastic Constant Matrix: (Units=GPa)
#
#
# Indices 1 2 3 4 5 6 
#
# 1 60.9415 37.2948 27.4272 -2.8333 -15.8762 17.4330
# 2 37.2948 105.4217 43.8082 4.8482 -17.7082 13.5270
# 3 27.4272 43.8082 92.7923 17.9752 -18.4682 4.8560
# 4 -2.8333 4.8482 17.9752 34.9478 -2.1142 -12.5645
# 5 -15.8762 -17.7082 -18.4682 -2.1142 35.7084 -3.7635
# 6 17.4330 13.5270 4.8560 -12.5645 -3.7635 38.9452
#
#
#
# Elastic Compliance Matrix: (Units=1/GPa)
#
#
# Indices 1 2 3 4 5 6 
#
# 1 0.025310 -0.005535 -0.003755 0.002375 0.005905 -0.007602
# 2 -0.005535 0.013810 -0.004262 -0.000712 0.001948 -0.001829
# 3 -0.003755 -0.004262 0.016381 -0.008313 0.004074 -0.001170
# 4 0.002375 -0.000712 -0.008313 0.037617 -0.000067 0.012350
# 5 0.005905 0.001948 0.004074 -0.000067 0.033636 -0.000599
# 6 -0.007602 -0.001829 -0.001170 0.012350 -0.000599 0.033787
#
#
# Mechanical properties :
#
#
# Convention : Reuss Voigt Hill
#
# Bulk Modulus (GPa) = 35.21616 52.91288 44.06452
# Shear Modulus (GPa) = 25.36636 31.96196 28.66416
#
# Velocity S-wave (km/s) = 3.39473 3.81060 3.60866
# Velocity P-wave (km/s) = 5.60042 6.58785 6.11410
#
# Compressibility (1/GPa) = 0.02839606
#
# Stress axis : x y z
#
# Youngs Moduli (GPa) = 39.51001 72.41240 61.04605
#
# Poissons Ratio (x) = 0.40084 0.22921
# Poissons Ratio (y) = 0.21871 0.26019
# Poissons Ratio (z) = 0.14835 0.30864
#
# Static dielectric constant tensor:
#      x y z
#    x 3.699590 0.089680 -0.168950 
#    y 0.089680 4.056100 0.087180 
#    z -0.168950 0.087180 3.930850 
# 
# 
# High freq. dielectric constant tensor:
#      x y z
#    x 1.831560 0.007510 -0.014060 
#    y 0.007510 1.868280 0.005990 
#    z -0.014060 0.005990 1.874470 
# 
# From -- ./inp_files/514948.got.cif
#   From: 2010.06.25/outbox.cif.g09.slc.cpg/sg2_258_cif.got.tgz:514948.got - 2010.06.27 13:26:56.
