data_PCOD8013532
_publ_section_title
;
Structure prediction by ZEFSAII (Michael W. Deem and Ramdas Pophale) SiO2 
 PCOD8013532
Probable space group: P -1
;
_chemical_formula_sum "Si O2"
_cell_formula_units_Z 16
_cell_length_a 9.480764
_cell_length_b 15.350658
_cell_length_c 21.881247
_cell_angle_alpha 161.927057
_cell_angle_beta 126.446764
_cell_angle_gamma 51.255527
_cell_volume 770.519555
_symmetry_space_group_name_H-M "P -1"
_symmetry_group_IT_number 2
_symmetry_cell_setting 'triclinic'
loop_
_space_group_symop_operation_xyz
x,y,z
-x,-y,-z
loop_
_atom_site_type_symbol
_atom_site_label
_atom_site_fract_x
_atom_site_fract_y
_atom_site_fract_z
Si Si1 0.400536 0.597792 0.358041
Si Si2 0.677373 0.812338 0.495239
Si Si3 0.581702 0.588596 0.520986
Si Si4 0.380716 0.350229 0.757484
Si Si5 0.601316 0.776235 0.085144
Si Si6 0.967975 0.276308 0.393109
Si Si7 0.801844 0.738480 0.231811
Si Si8 0.160555 0.294911 0.021341
O O1 0.559717 0.607007 0.357074
O O2 0.502278 0.468521 0.360222
O O3 0.301399 0.354603 0.147613
O O4 0.255707 0.912114 0.539645
O O5 0.715918 0.767570 0.402708
O O6 0.866673 0.787496 0.560198
O O7 0.555684 0.132900 0.686340
O O8 0.500000 0.500000 0.500000
O O9 0.791264 0.461839 0.503546
O O10 0.530709 0.929436 0.730164
O O11 0.242710 0.430874 0.832238
O O12 0.454006 0.603209 0.914416
O O13 0.710961 0.642969 0.084652
O O14 0.736981 0.792087 0.075044
O O15 0.000000 0.500000 0.500000
O O16 0.928616 0.968222 0.155859
O O17 0.014481 0.604712 0.184866
#
# Coordination Sequence:
#
# PCOD8013532 Si02
#       8
#     2   2   2   2   2   2   2   2
#     4  10  22  44  68  94 135 169 212 271 330 387
#     4  10  21  42  68  97 132 173 211 273 325 384
#     4  11  24  45  64  93 131 175 216 271 328 378
#     4  10  21  40  68  98 133 168 218 264 335 386
#     4  11  22  41  66  94 134 172 217 265 329 393
#     4  12  26  44  67  93 132 174 224 268 318 388
#     4  10  23  38  66 104 132 165 209 278 328 385
#     4  12  24  42  68 100 126 172 221 267 327 392
#
# _framework density 20.765208999999999
#
# number of rings (size 3 to 8) (size 9 to 14) (size 15 to 20)
#    0.000    1.250    3.750    1.875    1.750    1.500 
#    2.250    0.625    0.000    0.000    0.000    0.000 
#    0.000    0.000    0.000    0.000    0.000    0.000 
#
# Total GULP energy -198239.083191 kJ/mol
# GULP energy per Si atom -12389.942699 kJ/mol
# Density = 2.071795 g / cm^3
# Si number density = 20.765209 Si / 1000 Ang^3
#
#
#
# Elastic Constant Matrix: (Units=GPa)
#
#
# Indices 1 2 3 4 5 6 
#
# 1 83.1281 43.9396 45.9803 -7.6732 -5.0340 -4.6222
# 2 43.9396 126.3992 47.5988 -16.4572 -0.1071 -11.4898
# 3 45.9803 47.5988 94.0250 -17.2676 15.1560 -5.3989
# 4 -7.6732 -16.4572 -17.2676 21.7017 1.3679 1.2026
# 5 -5.0340 -0.1071 15.1560 1.3679 37.1094 2.0033
# 6 -4.6222 -11.4898 -5.3989 1.2026 2.0033 44.2934
#
#
#
# Elastic Compliance Matrix: (Units=1/GPa)
#
#
# Indices 1 2 3 4 5 6 
#
# 1 0.019118 -0.003675 -0.009249 -0.003782 0.006515 -0.000278
# 2 -0.003675 0.011071 -0.002913 0.004640 0.000445 0.001987
# 3 -0.009249 -0.002913 0.020386 0.011325 -0.010056 0.000911
# 4 -0.003782 0.004640 0.011325 0.057680 -0.007303 0.000954
# 5 0.006515 0.000445 -0.010056 -0.007303 0.032300 -0.001693
# 6 -0.000278 0.001987 0.000911 0.000954 -0.001693 0.023225
#
#
# Mechanical properties :
#
#
# Convention : Reuss Voigt Hill
#
# Bulk Modulus (GPa) = 52.90701 64.28776 58.59738
# Shear Modulus (GPa) = 24.78253 31.68982 28.23617
#
# Velocity S-wave (km/s) = 3.45840 3.91077 3.69152
# Velocity P-wave (km/s) = 6.44060 7.17069 6.81543
#
# Compressibility (1/GPa) = 0.01890109
#
# Stress axis : x y z
#
# Youngs Moduli (GPa) = 52.30595 90.32580 49.05251
#
# Poissons Ratio (x) = 0.33195 0.45371
# Poissons Ratio (y) = 0.19223 0.14288
# Poissons Ratio (z) = 0.48380 0.26310
#
# Static dielectric constant tensor:
#      x y z
#    x 3.736810 0.076790 0.002910 
#    y 0.076790 3.803240 0.002090 
#    z 0.002910 0.002090 3.669020 
# 
# 
# High freq. dielectric constant tensor:
#      x y z
#    x 1.817790 0.001470 -0.003830 
#    y 0.001470 1.814980 -0.003230 
#    z -0.003830 -0.003230 1.807700 
# 
# From -- ./inp_files/185700.got.cif
#   From: 2010.06.25/outbox.cif.g09.slc.cpg/sg2_93_cif.got.tgz:185700.got - 2010.06.27 13:26:56.
