data_PCOD8013054
_publ_section_title
;
Structure prediction by ZEFSAII (Michael W. Deem and Ramdas Pophale) SiO2 
 PCOD8013054
Probable space group: P -1
;
_chemical_formula_sum "Si O2"
_cell_formula_units_Z 14
_cell_length_a 10.803701
_cell_length_b 11.743820
_cell_length_c 6.803201
_cell_angle_alpha 125.404389
_cell_angle_beta 99.291384
_cell_angle_gamma 90.491968
_cell_volume 688.704673
_symmetry_space_group_name_H-M "P -1"
_symmetry_group_IT_number 2
_symmetry_cell_setting 'triclinic'
loop_
_space_group_symop_operation_xyz
x,y,z
-x,-y,-z
loop_
_atom_site_type_symbol
_atom_site_label
_atom_site_fract_x
_atom_site_fract_y
_atom_site_fract_z
Si Si1 0.000057 0.361210 0.236988
Si Si2 0.193765 0.266636 0.464326
Si Si3 0.514958 0.169975 0.889913
Si Si4 0.684099 0.975238 0.591001
Si Si5 0.245201 0.722224 0.126985
Si Si6 0.193344 0.438663 0.031677
Si Si7 0.398729 0.366902 0.310554
O O1 0.073699 0.254497 0.275561
O O2 0.066721 0.397653 0.081880
O O3 0.000000 0.500000 0.500000
O O4 0.856915 0.295434 0.093762
O O5 0.210201 0.106504 0.363576
O O6 0.318683 0.340150 0.460634
O O7 0.172058 0.362180 0.740985
O O8 0.392819 0.133949 0.685152
O O9 0.615450 0.293560 0.941538
O O10 0.588499 0.030483 0.786407
O O11 0.468851 0.229298 0.143138
O O12 0.751458 0.115005 0.632492
O O13 0.213398 0.608046 0.175811
O O14 0.313462 0.393076 0.127586
O O15 0.500000 0.500000 0.500000
#
# Coordination Sequence:
#
# PCOD8013054 Si02
#       7
#     2   2   2   2   2   2   2
#     4  11  24  41  65  96 122 161 222 260 307 367
#     4  11  23  41  64  90 131 165 205 263 312 368
#     4   9  20  40  62  94 127 162 211 249 316 380
#     4   9  21  40  65  90 128 171 203 252 321 378
#     4  10  21  40  65  90 124 169 209 254 312 374
#     4  11  23  40  66  89 128 167 204 267 311 363
#     4  11  24  35  65 101 123 163 216 258 313 373
#
# _framework density 20.328016999999999
#
# number of rings (size 3 to 8) (size 9 to 14) (size 15 to 20)
#    0.857    0.857    2.857    1.286    4.000    2.286 
#    0.000    2.143    0.000    0.000    0.000    0.000 
#    0.000    0.000    0.000    0.000    0.000    0.000 
#
# Total GULP energy -173501.978613 kJ/mol
# GULP energy per Si atom -12392.998472 kJ/mol
# Density = 2.028175 g / cm^3
# Si number density = 20.328017 Si / 1000 Ang^3
#
#
#
# Elastic Constant Matrix: (Units=GPa)
#
#
# Indices 1 2 3 4 5 6 
#
# 1 63.2030 30.8368 46.3560 8.4223 4.2805 -0.3381
# 2 30.8368 111.3209 35.3140 3.5160 -2.4471 -14.5793
# 3 46.3560 35.3140 112.4236 4.8051 -13.8137 11.3785
# 4 8.4223 3.5160 4.8051 27.9221 3.1483 -2.3585
# 5 4.2805 -2.4471 -13.8137 3.1483 34.9361 7.1995
# 6 -0.3381 -14.5793 11.3785 -2.3585 7.1995 26.1261
#
#
#
# Elastic Compliance Matrix: (Units=1/GPa)
#
#
# Indices 1 2 3 4 5 6 
#
# 1 0.027151 -0.003098 -0.011735 -0.004273 -0.008999 0.005828
# 2 -0.003098 0.012149 -0.003781 0.001076 -0.002236 0.009099
# 3 -0.011735 -0.003781 0.017654 -0.001366 0.010976 -0.013098
# 4 -0.004273 0.001076 -0.001366 0.038215 -0.004592 0.005855
# 5 -0.008999 -0.002236 0.010976 -0.004592 0.037823 -0.016982
# 6 0.005828 0.009099 -0.013098 0.005855 -0.016982 0.054342
#
#
# Mechanical properties :
#
#
# Convention : Reuss Voigt Hill
#
# Bulk Modulus (GPa) = 50.69308 56.88456 53.78882
# Shear Modulus (GPa) = 21.63238 29.42625 25.52931
#
# Velocity S-wave (km/s) = 3.26569 3.80882 3.54767
# Velocity P-wave (km/s) = 6.26190 6.88382 6.58021
#
# Compressibility (1/GPa) = 0.01972656
#
# Stress axis : x y z
#
# Youngs Moduli (GPa) = 36.83169 82.31085 56.64501
#
# Poissons Ratio (x) = 0.25499 0.66472
# Poissons Ratio (y) = 0.11410 0.21415
# Poissons Ratio (z) = 0.43222 0.31118
#
# Static dielectric constant tensor:
#      x y z
#    x 3.929700 -0.115330 0.099220 
#    y -0.115330 3.634180 0.062370 
#    z 0.099220 0.062370 3.579980 
# 
# 
# High freq. dielectric constant tensor:
#      x y z
#    x 1.803830 -0.012380 0.003620 
#    y -0.012380 1.779330 0.010040 
#    z 0.003620 0.010040 1.784050 
# 
# From -- ./inp_files/72308.got.cif
#   From: 2010.06.25/outbox.cif.g09.slc.cpg/sg2_37_cif.got.tgz:72308.got - 2010.06.27 13:26:56.
