data_PCOD8013337
_publ_section_title
;
Structure prediction by ZEFSAII (Michael W. Deem and Ramdas Pophale) SiO2 
 PCOD8013337
Probable space group: P -1
;
_chemical_formula_sum "Si O2"
_cell_formula_units_Z 16
_cell_length_a 26.529619
_cell_length_b 10.962327
_cell_length_c 5.450730
_cell_angle_alpha 84.748190
_cell_angle_beta 111.259128
_cell_angle_gamma 149.554884
_cell_volume 661.503276
_symmetry_space_group_name_H-M "P -1"
_symmetry_group_IT_number 2
_symmetry_cell_setting 'triclinic'
loop_
_space_group_symop_operation_xyz
x,y,z
-x,-y,-z
loop_
_atom_site_type_symbol
_atom_site_label
_atom_site_fract_x
_atom_site_fract_y
_atom_site_fract_z
Si Si1 0.499202 0.151910 0.280927
Si Si2 0.858381 0.699371 0.292069
Si Si3 0.200006 0.857753 0.277774
Si Si4 0.986550 0.371140 0.701311
Si Si5 0.206189 0.198705 0.586560
Si Si6 0.690466 0.357957 0.645755
Si Si7 0.319113 0.330075 0.258497
Si Si8 0.289982 0.803557 0.668856
O O1 0.619755 0.320804 0.365982
O O2 0.542987 0.345950 0.515292
O O3 0.406607 0.865853 0.273006
O O4 0.428216 0.076775 0.952196
O O5 0.804616 0.674152 0.427899
O O6 0.810208 0.462689 0.282362
O O7 0.807991 0.646582 0.949622
O O8 0.000000 0.000000 0.500000
O O9 0.107225 0.766632 0.241678
O O10 0.259645 0.885387 0.570559
O O11 0.303064 0.149615 0.275554
O O12 0.120463 0.614815 0.995292
O O13 0.000000 0.500000 0.500000
O O14 0.928995 0.128571 0.545177
O O15 0.248066 0.247554 0.378820
O O16 0.284614 0.303514 0.929701
O O17 0.719470 0.288623 0.583901
#
# Coordination Sequence:
#
# PCOD8013337 Si02
#       8
#     2   2   2   2   2   2   2   2
#     4  10  22  41  69  91 133 175 236 277 337 403
#     4  11  26  40  63 101 137 178 221 287 344 411
#     4  10  24  41  62  99 132 177 229 278 345 408
#     4  10  21  40  67  87 130 183 222 274 334 411
#     4  11  24  42  69 100 135 177 236 281 336 410
#     4  10  22  43  65  96 129 179 228 274 347 405
#     4  11  23  44  71 101 129 182 235 285 332 409
#     4  11  25  42  64  97 140 177 222 287 348 401
#
# _framework density 24.187332999999999
#
# number of rings (size 3 to 8) (size 9 to 14) (size 15 to 20)
#    0.000    1.500    2.500    1.125    5.250    2.000 
#    0.000    0.625    0.000    0.000    0.000    0.000 
#    0.000    0.000    0.000    0.000    0.000    0.000 
#
# Total GULP energy -198212.544745 kJ/mol
# GULP energy per Si atom -12388.284047 kJ/mol
# Density = 2.413228 g / cm^3
# Si number density = 24.187333 Si / 1000 Ang^3
#
#
#
# Elastic Constant Matrix: (Units=GPa)
#
#
# Indices 1 2 3 4 5 6 
#
# 1 54.3553 8.0722 30.9116 5.9529 13.6857 -14.2492
# 2 8.0722 75.2576 31.7082 17.2603 19.2926 -25.4100
# 3 30.9116 31.7082 162.7271 26.6897 17.1805 -2.6265
# 4 5.9529 17.2603 26.6897 49.6896 -5.1062 -2.7902
# 5 13.6857 19.2926 17.1805 -5.1062 38.1475 -5.5045
# 6 -14.2492 -25.4100 -2.6265 -2.7902 -5.5045 43.9781
#
#
#
# Elastic Compliance Matrix: (Units=1/GPa)
#
#
# Indices 1 2 3 4 5 6 
#
# 1 0.025067 0.005253 -0.004228 -0.002915 -0.008747 0.009625
# 2 0.005253 0.022882 -0.002821 -0.007505 -0.011335 0.012860
# 3 -0.004228 -0.002821 0.008145 -0.003214 -0.001575 -0.002915
# 4 -0.002915 -0.007505 -0.003214 0.025616 0.009331 -0.002680
# 5 -0.008747 -0.011335 -0.001575 0.009331 0.036419 -0.004327
# 6 0.009625 0.012860 -0.002915 -0.002680 -0.004327 0.032402
#
#
# Mechanical properties :
#
#
# Convention : Reuss Voigt Hill
#
# Bulk Modulus (GPa) = 19.04740 48.19156 33.61948
# Shear Modulus (GPa) = 29.13383 41.13956 35.13670
#
# Velocity S-wave (km/s) = 3.47437 4.12864 3.81555
# Velocity P-wave (km/s) = 4.89765 6.53415 5.77417
#
# Compressibility (1/GPa) = 0.05250062
#
# Stress axis : x y z
#
# Youngs Moduli (GPa) = 39.89363 43.70251 122.78146
#
# Poissons Ratio (x) = -0.22959 0.51917
# Poissons Ratio (y) = -0.20958 0.34641
# Poissons Ratio (z) = 0.16869 0.12330
#
# Static dielectric constant tensor:
#      x y z
#    x 4.096860 -0.425080 -0.072350 
#    y -0.425080 4.885880 0.572810 
#    z -0.072350 0.572810 4.701430 
# 
# 
# High freq. dielectric constant tensor:
#      x y z
#    x 1.926920 -0.016640 -0.010830 
#    y -0.016640 1.982440 0.011580 
#    z -0.010830 0.011580 1.968740 
# 
# From -- ./inp_files/66809.got.cif
#   From: 2010.06.25/outbox.cif.g09.slc.cpg/sg2_34_cif.got.tgz:66809.got - 2010.06.27 13:26:56.
