data_PCOD8013453
_publ_section_title
;
Structure prediction by ZEFSAII (Michael W. Deem and Ramdas Pophale) SiO2 
 PCOD8013453
Probable space group: P -1
;
_chemical_formula_sum "Si O2"
_cell_formula_units_Z 16
_cell_length_a 8.763850
_cell_length_b 10.708699
_cell_length_c 8.919240
_cell_angle_alpha 115.975228
_cell_angle_beta 91.360373
_cell_angle_gamma 97.296136
_cell_volume 743.452919
_symmetry_space_group_name_H-M "P -1"
_symmetry_group_IT_number 2
_symmetry_cell_setting 'triclinic'
loop_
_space_group_symop_operation_xyz
x,y,z
-x,-y,-z
loop_
_atom_site_type_symbol
_atom_site_label
_atom_site_fract_x
_atom_site_fract_y
_atom_site_fract_z
Si Si1 0.931293 0.145723 0.095937
Si Si2 0.244855 0.307764 0.215430
Si Si3 0.285578 0.068261 0.875313
Si Si4 0.444318 0.009361 0.337388
Si Si5 0.400892 0.553104 0.157686
Si Si6 0.911022 0.852513 0.362296
Si Si7 0.184040 0.775597 0.176461
Si Si8 0.635442 0.707038 0.481863
O O1 0.063625 0.263308 0.229120
O O2 0.784730 0.094869 0.172998
O O3 0.876484 0.226481 0.994703
O O4 0.000000 0.000000 0.000000
O O5 0.276261 0.428606 0.154780
O O6 0.324171 0.369641 0.404904
O O7 0.304297 0.168757 0.074888
O O8 0.176658 0.127498 0.783627
O O9 0.455155 0.067658 0.814552
O O10 0.452300 0.172395 0.388272
O O11 0.500000 0.000000 0.500000
O O12 0.269118 0.933839 0.286822
O O13 0.303621 0.668046 0.151982
O O14 0.522403 0.608544 0.318972
O O15 0.500000 0.500000 0.000000
O O16 0.792030 0.774155 0.437230
O O17 0.038787 0.751540 0.274608
O O18 0.000000 0.000000 0.500000
#
# Coordination Sequence:
#
# PCOD8013453 Si02
#       8
#     2   2   2   2   2   2   2   2
#     4  10  21  40  68 103 135 166 222 285 340 399
#     4  11  24  46  67  95 139 182 227 283 337 400
#     4  11  22  41  69 101 138 176 220 281 347 404
#     4  12  21  38  66 105 135 165 223 284 342 402
#     4  12  28  48  70  95 136 188 236 280 332 408
#     4  12  21  38  70 105 135 175 218 280 349 404
#     4  12  23  41  72 103 133 179 229 277 345 405
#     4  12  25  44  70  98 138 179 228 288 343 400
#
# _framework density 21.5212
#
# number of rings (size 3 to 8) (size 9 to 14) (size 15 to 20)
#    0.000    0.500    6.250    4.125    0.000    3.500 
#    0.000    0.625    0.000    0.000    0.000    0.000 
#    0.000    0.000    0.000    0.000    0.000    0.000 
#
# Total GULP energy -198297.527175 kJ/mol
# GULP energy per Si atom -12393.595448 kJ/mol
# Density = 2.147222 g / cm^3
# Si number density = 21.521200 Si / 1000 Ang^3
#
#
#
# Elastic Constant Matrix: (Units=GPa)
#
#
# Indices 1 2 3 4 5 6 
#
# 1 104.9495 27.5200 38.9133 -2.0769 -6.0664 3.4924
# 2 27.5200 87.6528 29.7053 -8.8355 1.8707 12.3866
# 3 38.9133 29.7053 113.4415 -11.8089 9.9157 -9.7804
# 4 -2.0769 -8.8355 -11.8089 34.1767 1.1145 3.3624
# 5 -6.0664 1.8707 9.9157 1.1145 38.4448 -2.0962
# 6 3.4924 12.3866 -9.7804 3.3624 -2.0962 34.8368
#
#
#
# Elastic Compliance Matrix: (Units=1/GPa)
#
#
# Indices 1 2 3 4 5 6 
#
# 1 0.011789 -0.002410 -0.003897 -0.001239 0.002957 -0.001121
# 2 -0.002410 0.014401 -0.003081 0.003134 -0.000709 -0.006089
# 3 -0.003897 -0.003081 0.011918 0.002766 -0.003381 0.004362
# 4 -0.001239 0.003134 0.002766 0.031352 -0.002154 -0.003369
# 5 0.002957 -0.000709 -0.003381 -0.002154 0.027494 0.000869
# 6 -0.001121 -0.006089 0.004362 -0.003369 0.000869 0.032585
#
#
# Mechanical properties :
#
#
# Convention : Reuss Voigt Hill
#
# Bulk Modulus (GPa) = 51.72798 55.36902 53.54850
# Shear Modulus (GPa) = 32.30812 35.48534 33.89673
#
# Velocity S-wave (km/s) = 3.87877 4.06501 3.97298
# Velocity P-wave (km/s) = 6.64438 6.91491 6.78099
#
# Compressibility (1/GPa) = 0.01933190
#
# Stress axis : x y z
#
# Youngs Moduli (GPa) = 84.82416 69.43945 83.90557
#
# Poissons Ratio (x) = 0.16737 0.32698
# Poissons Ratio (y) = 0.20445 0.25851
# Poissons Ratio (z) = 0.33056 0.21394
#
# Static dielectric constant tensor:
#      x y z
#    x 4.140010 0.299290 0.074520 
#    y 0.299290 3.905640 -0.206220 
#    z 0.074520 -0.206220 3.944060 
# 
# 
# High freq. dielectric constant tensor:
#      x y z
#    x 1.859240 0.014470 0.010310 
#    y 0.014470 1.829770 -0.017510 
#    z 0.010310 -0.017510 1.844420 
# 
# From -- ./inp_files/182724.got.cif
#   From: 2010.06.25/outbox.cif.g09.slc.cpg/sg2_92_cif.got.tgz:182724.got - 2010.06.27 13:26:56.
