data_PCOD8013312
_publ_section_title
;
Structure prediction by ZEFSAII (Michael W. Deem and Ramdas Pophale) SiO2 
 PCOD8013312
Probable space group: P -1
;
_chemical_formula_sum "Si O2"
_cell_formula_units_Z 14
_cell_length_a 10.990319
_cell_length_b 5.510949
_cell_length_c 13.861493
_cell_angle_alpha 125.403495
_cell_angle_beta 120.411263
_cell_angle_gamma 65.073682
_cell_volume 580.263105
_symmetry_space_group_name_H-M "P -1"
_symmetry_group_IT_number 2
_symmetry_cell_setting 'triclinic'
loop_
_space_group_symop_operation_xyz
x,y,z
-x,-y,-z
loop_
_atom_site_type_symbol
_atom_site_label
_atom_site_fract_x
_atom_site_fract_y
_atom_site_fract_z
Si Si1 0.148426 0.646806 0.680512
Si Si2 0.788266 0.749411 0.766179
Si Si3 0.720577 0.757025 0.518310
Si Si4 0.584498 0.267015 0.097152
Si Si5 0.704281 0.348558 0.969028
Si Si6 0.432691 0.602145 0.396158
Si Si7 0.922823 0.662716 0.219164
O O1 0.150391 0.423910 0.537318
O O2 0.313048 0.702418 0.764912
O O3 0.101366 0.466105 0.712376
O O4 0.057204 0.983571 0.697407
O O5 0.769464 0.688276 0.631507
O O6 0.649261 0.652038 0.741724
O O7 0.934421 0.543174 0.813589
O O8 0.789266 0.097939 0.872668
O O9 0.566802 0.669672 0.403780
O O10 0.697055 0.114502 0.574274
O O11 0.459181 0.562110 0.112607
O O12 0.694599 0.211927 0.039438
O O13 0.500000 0.000000 0.000000
O O14 0.793917 0.621365 0.083756
O O15 0.500000 0.500000 0.500000
#
# Coordination Sequence:
#
# PCOD8013312 Si02
#       7
#     2   2   2   2   2   2   2
#     4  11  26  44  72  95 143 177 231 285 330 408
#     4  11  25  42  69  94 140 183 223 278 341 412
#     4  10  24  42  66 102 132 176 231 282 346 393
#     4  10  21  40  66  98 129 175 226 283 346 389
#     4  10  23  42  66 100 134 175 230 283 341 401
#     4   9  22  41  61  98 131 172 227 276 342 396
#     4  11  26  48  66 102 136 189 228 273 337 407
#
# _framework density 24.126985999999999
#
# number of rings (size 3 to 8) (size 9 to 14) (size 15 to 20)
#    0.000    1.714    1.429    0.429   14.000    1.143 
#    0.000    2.143    0.000    0.000    0.000    0.000 
#    0.000    0.000    0.000    0.000    0.000    0.000 
#
# Total GULP energy -173441.663328 kJ/mol
# GULP energy per Si atom -12388.690238 kJ/mol
# Density = 2.407207 g / cm^3
# Si number density = 24.126986 Si / 1000 Ang^3
#
#
#
# Elastic Constant Matrix: (Units=GPa)
#
#
# Indices 1 2 3 4 5 6 
#
# 1 32.1114 10.0344 2.0178 1.0102 -5.3478 -8.5873
# 2 10.0344 106.7118 12.0569 14.5453 -15.0061 -2.9208
# 3 2.0178 12.0569 63.8576 18.0910 -16.5493 -7.0549
# 4 1.0102 14.5453 18.0910 33.2689 -8.3734 2.5643
# 5 -5.3478 -15.0061 -16.5493 -8.3734 22.3993 11.5049
# 6 -8.5873 -2.9208 -7.0549 2.5643 11.5049 41.8415
#
#
#
# Elastic Compliance Matrix: (Units=1/GPa)
#
#
# Indices 1 2 3 4 5 6 
#
# 1 0.034152 -0.002590 0.001139 0.000111 0.004307 0.005829
# 2 -0.002590 0.010873 0.000473 -0.003205 0.006473 -0.001276
# 3 0.001139 0.000473 0.021398 -0.008768 0.012640 0.000937
# 4 0.000111 -0.003205 -0.008768 0.039118 0.009453 -0.006676
# 5 0.004307 0.006473 0.012640 0.009453 0.071496 -0.016771
# 6 0.005829 -0.001276 0.000937 -0.006676 -0.016771 0.030186
#
#
# Mechanical properties :
#
#
# Convention : Reuss Voigt Hill
#
# Bulk Modulus (GPa) = 15.51169 27.87768 21.69468
# Shear Modulus (GPa) = 21.67629 31.40673 26.54151
#
# Velocity S-wave (km/s) = 3.00063 3.61186 3.32034
# Velocity P-wave (km/s) = 4.29513 5.38272 4.86939
#
# Compressibility (1/GPa) = 0.06446751
#
# Stress axis : x y z
#
# Youngs Moduli (GPa) = 29.28081 91.96851 46.73412
#
# Poissons Ratio (x) = 0.23819 -0.05322
# Poissons Ratio (y) = 0.07584 -0.02213
# Poissons Ratio (z) = -0.03334 -0.04354
#
# Static dielectric constant tensor:
#      x y z
#    x 7.394090 -2.471250 2.728390 
#    y -2.471250 6.751700 -2.188500 
#    z 2.728390 -2.188500 6.232710 
# 
# 
# High freq. dielectric constant tensor:
#      x y z
#    x 1.954870 -0.010400 0.020740 
#    y -0.010400 1.960770 0.001310 
#    z 0.020740 0.001310 1.950350 
# 
# From -- ./inp_files/66957.got.cif
#   From: 2010.06.25/outbox.cif.g09.slc.cpg/sg2_34_cif.got.tgz:66957.got - 2010.06.27 13:26:56.
