data_PCOD8013071
_publ_section_title
;
Structure prediction by ZEFSAII (Michael W. Deem and Ramdas Pophale) SiO2 
 PCOD8013071
Probable space group: P -1
;
_chemical_formula_sum "Si O2"
_cell_formula_units_Z 14
_cell_length_a 15.593142
_cell_length_b 17.953217
_cell_length_c 12.549685
_cell_angle_alpha 151.436476
_cell_angle_beta 29.237935
_cell_angle_gamma 155.815995
_cell_volume 640.820276
_symmetry_space_group_name_H-M "P -1"
_symmetry_group_IT_number 2
_symmetry_cell_setting 'triclinic'
loop_
_space_group_symop_operation_xyz
x,y,z
-x,-y,-z
loop_
_atom_site_type_symbol
_atom_site_label
_atom_site_fract_x
_atom_site_fract_y
_atom_site_fract_z
Si Si1 0.659140 0.238954 0.861874
Si Si2 0.738775 0.714315 0.028997
Si Si3 0.837869 0.802875 0.269605
Si Si4 0.933600 0.151214 0.342521
Si Si5 0.755547 0.788454 0.727628
Si Si6 0.337019 0.973526 0.229838
Si Si7 0.841953 0.620937 0.250398
O O1 0.815487 0.254066 0.618128
O O2 0.577881 0.042559 0.768614
O O3 0.456006 0.229450 0.021939
O O4 0.790507 0.410589 0.026224
O O5 0.795662 0.702773 0.074572
O O6 0.749574 0.907882 0.236670
O O7 0.500000 0.500000 0.000000
O O8 0.935420 0.752881 0.789745
O O9 0.813527 0.666115 0.217343
O O10 0.652925 0.834463 0.531462
O O11 0.088517 0.011842 0.261369
O O12 0.114840 0.214293 0.317296
O O13 0.676855 0.611649 0.505935
O O14 0.087212 0.780291 0.231540
O O15 0.500000 0.000000 0.000000
#
# Coordination Sequence:
#
# PCOD8013071 Si02
#       7
#     2   2   2   2   2   2   2
#     4  12  22  39  64  99 129 169 209 264 328 380
#     4  10  22  44  72  86 126 180 219 269 333 372
#     4  10  21  42  60  91 129 167 217 265 317 391
#     4  10  23  45  66  97 129 167 224 275 314 389
#     4  10  21  40  65  91 134 170 201 263 333 379
#     4  11  21  37  63  93 132 171 207 257 324 391
#     4  11  22  37  61  98 135 159 211 262 317 403
#
# _framework density 21.846999
#
# number of rings (size 3 to 8) (size 9 to 14) (size 15 to 20)
#    0.000    1.429    4.286    4.286    2.000    1.143 
#    2.571    7.143    0.000    0.000    0.000    0.000 
#    0.000    0.000    0.000    0.000    0.000    0.000 
#
# Total GULP energy -173495.806536 kJ/mol
# GULP energy per Si atom -12392.557610 kJ/mol
# Density = 2.179727 g / cm^3
# Si number density = 21.846999 Si / 1000 Ang^3
#
#
#
# Elastic Constant Matrix: (Units=GPa)
#
#
# Indices 1 2 3 4 5 6 
#
# 1 86.9191 24.1016 51.9967 -10.2976 10.6314 -4.1556
# 2 24.1016 64.4566 39.7169 1.2008 2.8433 8.8889
# 3 51.9967 39.7169 190.3557 -24.0772 4.7696 7.9513
# 4 -10.2976 1.2008 -24.0772 33.6120 3.0306 6.3813
# 5 10.6314 2.8433 4.7696 3.0306 35.9274 -3.2756
# 6 -4.1556 8.8889 7.9513 6.3813 -3.2756 28.9068
#
#
#
# Elastic Compliance Matrix: (Units=1/GPa)
#
#
# Indices 1 2 3 4 5 6 
#
# 1 0.015414 -0.004216 -0.003084 0.002348 -0.003704 0.003422
# 2 -0.004216 0.019824 -0.003188 -0.003306 -0.000085 -0.005105
# 3 -0.003084 -0.003188 0.007537 0.005132 -0.000517 -0.002728
# 4 0.002348 -0.003306 0.005132 0.036355 -0.004969 -0.008646
# 5 -0.003704 -0.000085 -0.000517 -0.004969 0.029799 0.004110
# 6 0.003422 -0.005105 -0.002728 -0.008646 0.004110 0.039780
#
#
# Mechanical properties :
#
#
# Convention : Reuss Voigt Hill
#
# Bulk Modulus (GPa) = 45.87041 63.70687 54.78864
# Shear Modulus (GPa) = 28.25663 34.75032 31.50347
#
# Velocity S-wave (km/s) = 3.60027 3.99259 3.80149
# Velocity P-wave (km/s) = 6.19067 7.10479 6.66343
#
# Compressibility (1/GPa) = 0.02180055
#
# Stress axis : x y z
#
# Youngs Moduli (GPa) = 64.87782 50.44390 132.68115
#
# Poissons Ratio (x) = 0.21265 0.40918
# Poissons Ratio (y) = 0.27349 0.42293
# Poissons Ratio (z) = 0.20008 0.16079
#
# Static dielectric constant tensor:
#      x y z
#    x 3.757970 -0.090900 0.291770 
#    y -0.090900 3.902630 -0.078440 
#    z 0.291770 -0.078440 4.492980 
# 
# 
# High freq. dielectric constant tensor:
#      x y z
#    x 1.848120 -0.003830 0.011440 
#    y -0.003830 1.847130 -0.003720 
#    z 0.011440 -0.003720 1.870700 
# 
# From -- ./inp_files/172381.got.cif
#   From: 2010.06.25/outbox.cif.g09.slc.cpg/sg2_87_cif.got.tgz:172381.got - 2010.06.27 13:26:56.
