data_PCOD8013244
_publ_section_title
;
Structure prediction by ZEFSAII (Michael W. Deem and Ramdas Pophale) SiO2 
 PCOD8013244
Probable space group: P -1
;
_chemical_formula_sum "Si O2"
_cell_formula_units_Z 16
_cell_length_a 12.505313
_cell_length_b 8.705041
_cell_length_c 11.159246
_cell_angle_alpha 114.786775
_cell_angle_beta 36.393359
_cell_angle_gamma 126.199714
_cell_volume 577.614048
_symmetry_space_group_name_H-M "P -1"
_symmetry_group_IT_number 2
_symmetry_cell_setting 'triclinic'
loop_
_space_group_symop_operation_xyz
x,y,z
-x,-y,-z
loop_
_atom_site_type_symbol
_atom_site_label
_atom_site_fract_x
_atom_site_fract_y
_atom_site_fract_z
Si Si1 0.339674 0.355819 0.261173
Si Si2 0.565905 0.845245 0.620864
Si Si3 0.810623 0.192411 0.933679
Si Si4 0.121355 0.883133 0.402385
Si Si5 0.610763 0.637382 0.300764
Si Si6 0.303454 0.973050 0.775903
Si Si7 0.036146 0.398071 0.126389
Si Si8 0.724513 0.414682 0.805676
O O1 0.428557 0.448714 0.341514
O O2 0.292052 0.506202 0.281793
O O3 0.117483 0.168523 0.413868
O O4 0.495016 0.302820 0.031141
O O5 0.553187 0.665247 0.498075
O O6 0.524424 0.982186 0.607856
O O7 0.776406 0.944557 0.537569
O O8 0.389422 0.774957 0.857886
O O9 0.779410 0.064490 0.802562
O O10 0.989998 0.412095 0.819408
O O11 0.831763 0.082758 0.996044
O O12 0.169310 0.718019 0.357018
O O13 0.666468 0.827602 0.234118
O O14 0.818624 0.622361 0.111915
O O15 0.181504 0.792158 0.738004
O O16 0.136798 0.415387 0.172364
#
# Coordination Sequence:
#
# PCOD8013244 Si02
#       8
#     2   2   2   2   2   2   2   2
#     4  10  22  39  65  97 129 172 215 272 325 390
#     4  10  24  39  65  95 133 164 218 273 323 383
#     4   9  23  41  65  90 128 177 220 257 321 394
#     4  11  21  42  68  92 127 178 222 261 328 393
#     4  11  23  40  63 103 128 161 215 281 325 378
#     4  10  22  38  63  93 132 164 212 265 328 385
#     4  10  21  40  66  93 127 174 212 265 329 389
#     4   9  21  38  62  96 129 165 219 270 317 386
#
# _framework density 27.700156
#
# number of rings (size 3 to 8) (size 9 to 14) (size 15 to 20)
#    0.750    1.250    0.000    2.625    5.250    0.500 
#    4.500    2.500    0.000    8.250    0.000    0.000 
#    0.000    0.000    0.000    0.000    0.000    0.000 
#
# Total GULP energy -198305.791507 kJ/mol
# GULP energy per Si atom -12394.111969 kJ/mol
# Density = 2.763711 g / cm^3
# Si number density = 27.700156 Si / 1000 Ang^3
#
#
#
# Elastic Constant Matrix: (Units=GPa)
#
#
# Indices 1 2 3 4 5 6 
#
# 1 129.7412 35.7897 40.4984 3.5864 1.0463 32.3249
# 2 35.7897 123.5244 24.3178 0.4088 -4.2228 35.8392
# 3 40.4984 24.3178 110.6604 9.3052 11.5614 19.2901
# 4 3.5864 0.4088 9.3052 34.6847 1.6166 -7.8333
# 5 1.0463 -4.2228 11.5614 1.6166 34.6860 7.9763
# 6 32.3249 35.8392 19.2901 -7.8333 7.9763 49.9307
#
#
#
# Elastic Compliance Matrix: (Units=1/GPa)
#
#
# Indices 1 2 3 4 5 6 
#
# 1 0.010156 -0.000734 -0.002632 -0.001684 0.001846 -0.005591
# 2 -0.000734 0.010893 -0.000993 -0.001712 0.003552 -0.007796
# 3 -0.002632 -0.000993 0.011121 -0.002965 -0.003188 -0.001835
# 4 -0.001684 -0.001712 -0.002965 0.031960 -0.002708 0.008911
# 5 0.001846 0.003552 -0.003188 -0.002708 0.032256 -0.008090
# 6 -0.005591 -0.007796 -0.001835 0.008911 -0.008090 0.032642
#
#
# Mechanical properties :
#
#
# Convention : Reuss Voigt Hill
#
# Bulk Modulus (GPa) = 42.64259 62.79307 52.71783
# Shear Modulus (GPa) = 34.34928 41.41492 37.88210
#
# Velocity S-wave (km/s) = 3.52524 3.87087 3.70209
# Velocity P-wave (km/s) = 5.65664 6.53423 6.11121
#
# Compressibility (1/GPa) = 0.02345074
#
# Stress axis : x y z
#
# Youngs Moduli (GPa) = 98.46120 91.80496 89.92298
#
# Poissons Ratio (x) = 0.06736 0.23671
# Poissons Ratio (y) = 0.07224 0.08932
# Poissons Ratio (z) = 0.25919 0.09119
#
# Static dielectric constant tensor:
#      x y z
#    x 5.138600 -0.035940 0.057470 
#    y -0.035940 4.881240 0.019980 
#    z 0.057470 0.019980 4.946390 
# 
# 
# High freq. dielectric constant tensor:
#      x y z
#    x 2.131060 -0.014360 0.006880 
#    y -0.014360 2.122270 0.006760 
#    z 0.006880 0.006760 2.111150 
# 
# From -- ./inp_files/448161.got.cif
#   From: 2010.06.25/outbox.cif.g09.slc.cpg/sg2_225_cif.got.tgz:448161.got - 2010.06.27 13:26:56.
