data_PCOD8013493
_publ_section_title
;
Structure prediction by ZEFSAII (Michael W. Deem and Ramdas Pophale) SiO2 
 PCOD8013493
Probable space group: P -1
;
_chemical_formula_sum "Si O2"
_cell_formula_units_Z 16
_cell_length_a 5.263640
_cell_length_b 16.017134
_cell_length_c 15.883969
_cell_angle_alpha 39.500562
_cell_angle_beta 75.552603
_cell_angle_gamma 98.784415
_cell_volume 683.147826
_symmetry_space_group_name_H-M "P -1"
_symmetry_group_IT_number 2
_symmetry_cell_setting 'triclinic'
loop_
_space_group_symop_operation_xyz
x,y,z
-x,-y,-z
loop_
_atom_site_type_symbol
_atom_site_label
_atom_site_fract_x
_atom_site_fract_y
_atom_site_fract_z
Si Si1 0.485338 0.083403 0.060806
Si Si2 0.477491 0.814021 0.193500
Si Si3 0.944378 0.604789 0.809027
Si Si4 0.169782 0.147273 0.615623
Si Si5 0.246857 0.333754 0.610278
Si Si6 0.276772 0.884940 0.813066
Si Si7 0.260198 0.434609 0.952952
Si Si8 0.878230 0.071634 0.520591
O O1 0.699384 0.180867 0.047658
O O2 0.617747 0.993108 0.071533
O O3 0.482292 0.197064 0.902456
O O4 0.146401 0.955111 0.225215
O O5 0.717622 0.783126 0.242912
O O6 0.100727 0.696439 0.336851
O O7 0.632675 0.514454 0.845448
O O8 0.156603 0.534546 0.829790
O O9 0.150655 0.793809 0.626419
O O10 0.818325 0.562993 0.945973
O O11 0.343325 0.316249 0.519231
O O12 0.114096 0.156991 0.513919
O O13 0.351326 0.060669 0.679081
O O14 0.500000 0.500000 0.500000
O O15 0.544936 0.915616 0.700174
O O16 0.928873 0.750362 0.913756
O O17 0.000000 0.000000 0.500000
#
# Coordination Sequence:
#
# PCOD8013493 Si02
#       8
#     2   2   2   2   2   2   2   2
#     4   9  21  38  65  96 128 161 223 282 334 384
#     4  10  21  40  68  95 125 174 217 273 332 409
#     4  10  24  45  63  95 131 171 221 278 346 401
#     4  10  23  41  66  95 139 170 228 291 331 399
#     4  11  23  43  66  97 139 181 217 270 344 408
#     4  11  23  42  69  98 134 181 232 291 336 403
#     4  10  24  42  68  90 133 172 216 285 343 393
#     4  11  26  43  71 100 133 186 238 282 341 417
#
# _framework density 23.420991999999998
#
# number of rings (size 3 to 8) (size 9 to 14) (size 15 to 20)
#    0.000    1.750    1.250    1.125   12.250    2.500 
#    4.500    0.000    0.000    0.000    0.000    0.000 
#    0.000    0.000    0.000    0.000    0.000    0.000 
#
# Total GULP energy -198258.844080 kJ/mol
# GULP energy per Si atom -12391.177755 kJ/mol
# Density = 2.336769 g / cm^3
# Si number density = 23.420992 Si / 1000 Ang^3
#
#
#
# Elastic Constant Matrix: (Units=GPa)
#
#
# Indices 1 2 3 4 5 6 
#
# 1 91.1799 30.1657 17.5170 6.6345 11.3561 16.8479
# 2 30.1657 123.1176 35.5635 -0.8482 -3.3909 6.4822
# 3 17.5170 35.5635 63.6918 5.4575 13.2821 3.4729
# 4 6.6345 -0.8482 5.4575 36.1003 8.2864 -4.7146
# 5 11.3561 -3.3909 13.2821 8.2864 33.3711 -5.6829
# 6 16.8479 6.4822 3.4729 -4.7146 -5.6829 27.7143
#
#
#
# Elastic Compliance Matrix: (Units=1/GPa)
#
#
# Indices 1 2 3 4 5 6 
#
# 1 0.014930 -0.003275 -0.000168 -0.002638 -0.006403 -0.010051
# 2 -0.003275 0.010798 -0.006263 0.000899 0.004714 0.001370
# 3 -0.000168 -0.006263 0.021505 -0.001668 -0.009289 -0.003316
# 4 -0.002638 0.000899 -0.001668 0.030335 -0.004899 0.005758
# 5 -0.006403 0.004714 -0.009289 -0.004899 0.039446 0.011209
# 6 -0.010051 0.001370 -0.003316 0.005758 0.011209 0.045565
#
#
# Mechanical properties :
#
#
# Convention : Reuss Voigt Hill
#
# Bulk Modulus (GPa) = 35.94586 49.38685 42.66636
# Shear Modulus (GPa) = 26.14170 32.42000 29.28085
#
# Velocity S-wave (km/s) = 3.34453 3.72456 3.53965
# Velocity P-wave (km/s) = 5.50414 6.29514 5.91288
#
# Compressibility (1/GPa) = 0.02781961
#
# Stress axis : x y z
#
# Youngs Moduli (GPa) = 66.98126 92.61128 46.50087
#
# Poissons Ratio (x) = 0.30328 0.00782
# Poissons Ratio (y) = 0.21934 0.29125
# Poissons Ratio (z) = 0.01127 0.58006
#
# Static dielectric constant tensor:
#      x y z
#    x 4.535940 0.189820 0.369570 
#    y 0.189820 4.726020 0.135400 
#    z 0.369570 0.135400 4.201720 
# 
# 
# High freq. dielectric constant tensor:
#      x y z
#    x 1.931630 0.009630 0.009750 
#    y 0.009630 1.926530 0.010650 
#    z 0.009750 0.010650 1.902410 
# 
# From -- ./inp_files/141142.got.cif
#   From: 2010.06.25/outbox.cif.g09.slc.cpg/sg2_71_cif.got.tgz:141142.got - 2010.06.27 13:26:56.
