data_PCOD8013421
_publ_section_title
;
Structure prediction by ZEFSAII (Michael W. Deem and Ramdas Pophale) SiO2 
 PCOD8013421
Probable space group: P -1
;
_chemical_formula_sum "Si O2"
_cell_formula_units_Z 16
_cell_length_a 8.836017
_cell_length_b 15.119957
_cell_length_c 5.532751
_cell_angle_alpha 105.557924
_cell_angle_beta 103.917184
_cell_angle_gamma 98.950655
_cell_volume 671.769969
_symmetry_space_group_name_H-M "P -1"
_symmetry_group_IT_number 2
_symmetry_cell_setting 'triclinic'
loop_
_space_group_symop_operation_xyz
x,y,z
-x,-y,-z
loop_
_atom_site_type_symbol
_atom_site_label
_atom_site_fract_x
_atom_site_fract_y
_atom_site_fract_z
Si Si1 0.516609 0.719668 0.444935
Si Si2 0.072321 0.823609 0.690708
Si Si3 0.766206 0.275645 0.974954
Si Si4 0.659127 0.568621 0.206866
Si Si5 0.230046 0.102336 0.210494
Si Si6 0.007177 0.363167 0.758783
Si Si7 0.180169 0.999723 0.605489
Si Si8 0.728884 0.422742 0.450366
O O1 0.383011 0.761918 0.288256
O O2 0.632418 0.674277 0.288350
O O3 0.629148 0.803976 0.697225
O O4 0.428324 0.631627 0.508580
O O5 0.944539 0.874166 0.807178
O O6 0.985626 0.719620 0.490855
O O7 0.173302 0.888304 0.561973
O O8 0.212648 0.812206 0.920260
O O9 0.937646 0.313652 0.941267
O O10 0.729163 0.363888 0.164210
O O11 0.811317 0.575067 0.089329
O O12 0.710207 0.527243 0.450045
O O13 0.500000 0.500000 0.000000
O O14 0.270034 0.045444 0.426333
O O15 0.241424 0.050649 0.922233
O O16 0.893124 0.429770 0.667925
O O17 0.000000 0.000000 0.500000
#
# Coordination Sequence:
#
# PCOD8013421 Si02
#       8
#     2   2   2   2   2   2   2   2
#     4  11  24  44  65  98 137 180 222 290 351 405
#     4  10  21  40  67  97 131 180 224 277 344 414
#     4  10  23  42  66  92 137 182 224 274 341 425
#     4  12  23  42  67  97 131 173 231 289 343 402
#     4  11  24  41  73 105 140 176 232 292 348 406
#     4  10  23  41  66  94 131 179 224 275 344 414
#     4  10  23  41  69 107 140 175 230 291 339 419
#     4  10  23  44  62  90 135 180 224 277 339 416
#
# _framework density 23.817678000000001
#
# number of rings (size 3 to 8) (size 9 to 14) (size 15 to 20)
#    0.000    1.500    2.500    2.250    7.000    1.500 
#    4.500    1.250    0.000    0.000    0.000    0.000 
#    0.000    0.000    0.000    0.000    0.000    0.000 
#
# Total GULP energy -198272.134112 kJ/mol
# GULP energy per Si atom -12392.008382 kJ/mol
# Density = 2.376347 g / cm^3
# Si number density = 23.817678 Si / 1000 Ang^3
#
#
#
# Elastic Constant Matrix: (Units=GPa)
#
#
# Indices 1 2 3 4 5 6 
#
# 1 108.2041 40.5446 22.3603 -3.3565 17.5316 7.9882
# 2 40.5446 112.4965 15.1492 -26.9531 21.6504 -18.6752
# 3 22.3603 15.1492 78.6160 -17.1979 7.3255 -0.9450
# 4 -3.3565 -26.9531 -17.1979 31.9165 8.2900 5.3892
# 5 17.5316 21.6504 7.3255 8.2900 26.0690 0.4604
# 6 7.9882 -18.6752 -0.9450 5.3892 0.4604 22.6670
#
#
#
# Elastic Compliance Matrix: (Units=1/GPa)
#
#
# Indices 1 2 3 4 5 6 
#
# 1 0.013136 -0.006724 -0.003449 -0.004407 -0.000716 -0.009250
# 2 -0.006724 0.025499 0.005968 0.028270 -0.027631 0.017467
# 3 -0.003449 0.005968 0.017513 0.016970 -0.013009 0.003092
# 4 -0.004407 0.028270 0.016970 0.075245 -0.049364 0.008665
# 5 -0.000716 -0.027631 -0.013009 -0.049364 0.081371 -0.012971
# 6 -0.009250 0.017467 0.003092 0.008665 -0.012971 0.060100
#
#
# Mechanical properties :
#
#
# Convention : Reuss Voigt Hill
#
# Bulk Modulus (GPa) = 20.94774 50.60274 35.77524
# Shear Modulus (GPa) = 16.82437 30.88133 23.85285
#
# Velocity S-wave (km/s) = 2.66067 3.60470 3.16804
# Velocity P-wave (km/s) = 4.27235 6.21427 5.33245
#
# Compressibility (1/GPa) = 0.04773785
#
# Stress axis : x y z
#
# Youngs Moduli (GPa) = 76.12586 39.21685 57.10077
#
# Poissons Ratio (x) = 0.26368 0.19695
# Poissons Ratio (y) = 0.51184 -0.34075
# Poissons Ratio (z) = 0.26257 -0.23403
#
# Static dielectric constant tensor:
#      x y z
#    x 4.220010 0.063980 -0.056270 
#    y 0.063980 4.247250 -0.361730 
#    z -0.056270 -0.361730 4.304320 
# 
# 
# High freq. dielectric constant tensor:
#      x y z
#    x 1.937450 -0.003080 0.003840 
#    y -0.003080 1.950520 -0.008250 
#    z 0.003840 -0.008250 1.932340 
# 
# From -- ./inp_files/40025.got.cif
#   From: 2010.06.25/outbox.cif.g09.slc.cpg/sg2_21_cif.got.tgz:40025.got - 2010.06.27 13:26:56.
