data_PCOD8013823
_publ_section_title
;
Structure prediction by ZEFSAII (Michael W. Deem and Ramdas Pophale) SiO2 
 PCOD8013823
Probable space group: P -1
;
_chemical_formula_sum "Si O2"
_cell_formula_units_Z 16
_cell_length_a 9.552213
_cell_length_b 10.108909
_cell_length_c 14.337286
_cell_angle_alpha 75.661787
_cell_angle_beta 102.383777
_cell_angle_gamma 45.845001
_cell_volume 799.427783
_symmetry_space_group_name_H-M "P -1"
_symmetry_group_IT_number 2
_symmetry_cell_setting 'triclinic'
loop_
_space_group_symop_operation_xyz
x,y,z
-x,-y,-z
loop_
_atom_site_type_symbol
_atom_site_label
_atom_site_fract_x
_atom_site_fract_y
_atom_site_fract_z
Si Si1 0.336277 0.263693 0.836687
Si Si2 0.802519 0.702500 0.659626
Si Si3 0.471459 0.817991 0.459233
Si Si4 0.956534 0.134238 0.885405
Si Si5 0.273917 0.769747 0.581720
Si Si6 0.431818 0.886178 0.911548
Si Si7 0.464264 0.695738 0.285389
Si Si8 0.624873 0.632944 0.793439
O O1 0.517720 0.227566 0.818487
O O2 0.078974 0.507183 0.732264
O O3 0.365916 0.087724 0.834253
O O4 0.378923 0.244592 0.956090
O O5 0.721490 0.670050 0.566291
O O6 0.710178 0.706956 0.742427
O O7 0.711014 0.923697 0.593050
O O8 0.383046 0.745552 0.506339
O O9 0.489946 0.780405 0.359135
O O10 0.785476 0.193432 0.774202
O O11 0.835600 0.363737 0.866342
O O12 0.198486 0.983632 0.893876
O O13 0.000000 0.000000 0.000000
O O14 0.323976 0.571447 0.629407
O O15 0.388037 0.758489 0.688920
O O16 0.000000 0.000000 0.500000
O O17 0.560500 0.709050 0.878035
#
# Coordination Sequence:
#
# PCOD8013823 Si02
#       8
#     2   2   2   2   2   2   2   2
#     4  11  23  41  63  94 123 161 215 254 298 378
#     4  10  21  41  62  90 130 156 210 263 296 372
#     4  10  22  38  62  90 121 167 202 254 319 356
#     4  11  23  44  62  91 133 159 206 262 300 376
#     4  10  22  39  57  89 125 157 208 255 301 378
#     4  11  24  42  66  92 125 167 207 253 314 362
#     4  11  23  39  63  93 124 162 207 254 314 367
#     4  10  23  41  64  91 123 168 205 250 315 362
#
# _framework density 20.014316000000001
#
# number of rings (size 3 to 8) (size 9 to 14) (size 15 to 20)
#    0.000    1.500    2.500    1.875    1.750    3.500 
#    0.000    0.000    0.000    0.000    0.000    0.000 
#    0.000    0.000    0.000    0.000    0.000    0.000 
#
# Total GULP energy -198466.110711 kJ/mol
# GULP energy per Si atom -12404.131919 kJ/mol
# Density = 1.996876 g / cm^3
# Si number density = 20.014316 Si / 1000 Ang^3
#
#
#
# Elastic Constant Matrix: (Units=GPa)
#
#
# Indices 1 2 3 4 5 6 
#
# 1 81.8998 20.7538 17.4844 1.0434 -4.5270 8.0075
# 2 20.7538 68.2932 28.2334 19.2009 3.5546 -3.0442
# 3 17.4844 28.2334 84.7497 -0.2776 3.4314 -1.3480
# 4 1.0434 19.2009 -0.2776 35.8390 -2.4294 -2.3384
# 5 -4.5270 3.5546 3.4314 -2.4294 41.5907 -8.3059
# 6 8.0075 -3.0442 -1.3480 -2.3384 -8.3059 21.9935
#
#
#
# Elastic Compliance Matrix: (Units=1/GPa)
#
#
# Indices 1 2 3 4 5 6 
#
# 1 0.014229 -0.004436 -0.001581 0.001679 0.001098 -0.005298
# 2 -0.004436 0.022151 -0.006383 -0.011783 -0.002089 0.002248
# 3 -0.001581 -0.006383 0.014294 0.003598 -0.000439 0.000785
# 4 0.001679 -0.011783 0.003598 0.034627 0.003512 0.002986
# 5 0.001098 -0.002089 -0.000439 0.003512 0.026515 0.009671
# 6 -0.005298 0.002248 0.000785 0.002986 0.009671 0.051726
#
#
# Mechanical properties :
#
#
# Convention : Reuss Voigt Hill
#
# Bulk Modulus (GPa) = 38.64691 40.87623 39.76157
# Shear Modulus (GPa) = 25.38519 31.11604 28.25062
#
# Velocity S-wave (km/s) = 3.56526 3.94723 3.76110
# Velocity P-wave (km/s) = 6.02492 6.42200 6.22662
#
# Compressibility (1/GPa) = 0.02587529
#
# Stress axis : x y z
#
# Youngs Moduli (GPa) = 70.27932 45.14455 69.95976
#
# Poissons Ratio (x) = 0.20025 0.11061
# Poissons Ratio (y) = 0.31174 0.44652
# Poissons Ratio (z) = 0.11111 0.28814
#
# Static dielectric constant tensor:
#      x y z
#    x 3.764310 0.163680 -0.032040 
#    y 0.163680 3.403920 -0.089590 
#    z -0.032040 -0.089590 3.743120 
# 
# 
# High freq. dielectric constant tensor:
#      x y z
#    x 1.792490 0.010930 -0.002430 
#    y 0.010930 1.766630 -0.008700 
#    z -0.002430 -0.008700 1.795930 
# 
# From -- ./inp_files/109707.got.cif
#   From: 2010.06.25/outbox.cif.g09.slc.cpg/sg2_55_cif.got.tgz:109707.got - 2010.06.27 13:26:56.
