data_PCOD8013359
_publ_section_title
;
Structure prediction by ZEFSAII (Michael W. Deem and Ramdas Pophale) SiO2 
 PCOD8013359
Probable space group: P -1
;
_chemical_formula_sum "Si O2"
_cell_formula_units_Z 16
_cell_length_a 18.271381
_cell_length_b 9.220895
_cell_length_c 15.602584
_cell_angle_alpha 139.202176
_cell_angle_beta 142.630730
_cell_angle_gamma 29.876222
_cell_volume 774.456672
_symmetry_space_group_name_H-M "P -1"
_symmetry_group_IT_number 2
_symmetry_cell_setting 'triclinic'
loop_
_space_group_symop_operation_xyz
x,y,z
-x,-y,-z
loop_
_atom_site_type_symbol
_atom_site_label
_atom_site_fract_x
_atom_site_fract_y
_atom_site_fract_z
Si Si1 0.044106 0.535196 0.695299
Si Si2 0.452215 0.474134 0.310859
Si Si3 0.158362 0.947195 0.141771
Si Si4 0.347940 0.032312 0.853562
Si Si5 0.859400 0.436122 0.376333
Si Si6 0.530675 0.103785 0.383017
Si Si7 0.359745 0.859603 0.130441
Si Si8 0.688742 0.201208 0.128529
O O1 0.066332 0.678932 0.701296
O O2 0.999662 0.348213 0.531780
O O3 0.209332 0.342766 0.816612
O O4 0.892722 0.787344 0.726137
O O5 0.288785 0.639558 0.177494
O O6 0.601733 0.234198 0.280078
O O7 0.452054 0.303894 0.313706
O O8 0.469007 0.709403 0.459846
O O9 0.230091 0.956345 0.124918
O O10 0.000000 0.000000 0.000000
O O11 0.270275 0.036784 0.870714
O O12 0.500000 0.000000 0.000000
O O13 0.806342 0.262751 0.282126
O O14 0.711924 0.795021 0.394413
O O15 0.422083 0.032383 0.282438
O O16 0.503094 0.502540 0.105063
O O17 0.278735 0.944276 0.999299
#
# Coordination Sequence:
#
# PCOD8013359 Si02
#       8
#     2   2   2   2   2   2   2   2
#     4  11  24  40  63  92 130 164 199 255 317 365
#     4  11  22  40  64  96 120 166 208 250 310 365
#     4  12  24  40  61  93 127 164 204 256 314 372
#     4  12  24  40  64  94 126 163 211 255 299 372
#     4  10  21  41  64  92 127 164 202 255 312 372
#     4  10  21  40  67  92 124 158 213 259 299 369
#     4  10  22  40  63  93 122 164 208 258 307 363
#     4  10  22  39  65  91 121 165 212 253 306 366
#
# _framework density 20.659645000000001
#
# number of rings (size 3 to 8) (size 9 to 14) (size 15 to 20)
#    0.000    1.250    3.750    2.250    3.500    2.000 
#    0.000    3.750    0.000    0.000    0.000    0.000 
#    0.000    0.000    0.000    0.000    0.000    0.000 
#
# Total GULP energy -198439.024043 kJ/mol
# GULP energy per Si atom -12402.439003 kJ/mol
# Density = 2.061262 g / cm^3
# Si number density = 20.659645 Si / 1000 Ang^3
#
#
#
# Elastic Constant Matrix: (Units=GPa)
#
#
# Indices 1 2 3 4 5 6 
#
# 1 156.3544 28.2911 58.8997 -4.5275 -4.7411 -5.2688
# 2 28.2911 57.3139 16.6939 -8.6895 -2.5457 -0.1038
# 3 58.8997 16.6939 74.1492 -5.9491 1.6904 7.7930
# 4 -4.5275 -8.6895 -5.9491 36.1283 -4.3602 -6.7901
# 5 -4.7411 -2.5457 1.6904 -4.3602 39.3158 3.4693
# 6 -5.2688 -0.1038 7.7930 -6.7901 3.4693 31.4903
#
#
#
# Elastic Compliance Matrix: (Units=1/GPa)
#
#
# Indices 1 2 3 4 5 6 
#
# 1 0.009901 -0.002582 -0.007660 0.000137 0.001066 0.003456
# 2 -0.002582 0.020134 -0.002259 0.004516 0.001502 0.001002
# 3 -0.007660 -0.002259 0.020806 0.000602 -0.001354 -0.006159
# 4 0.000137 0.004516 0.000602 0.030404 0.003117 0.006101
# 5 0.001066 0.001502 -0.001354 0.003117 0.026215 -0.001697
# 6 0.003456 0.001002 -0.006159 0.006101 -0.001697 0.035364
#
#
# Mechanical properties :
#
#
# Convention : Reuss Voigt Hill
#
# Bulk Modulus (GPa) = 38.70183 55.06521 46.88352
# Shear Modulus (GPa) = 28.33827 33.64907 30.99367
#
# Velocity S-wave (km/s) = 3.70763 4.04014 3.87745
# Velocity P-wave (km/s) = 6.09117 6.96240 6.54131
#
# Compressibility (1/GPa) = 0.02583857
#
# Stress axis : x y z
#
# Youngs Moduli (GPa) = 100.99651 49.66834 48.06236
#
# Poissons Ratio (x) = 0.12824 0.36817
# Poissons Ratio (y) = 0.26076 0.10858
# Poissons Ratio (z) = 0.77366 0.11221
#
# Static dielectric constant tensor:
#      x y z
#    x 3.732700 -0.086220 -0.230350 
#    y -0.086220 3.684310 0.022700 
#    z -0.230350 0.022700 3.936790 
# 
# 
# High freq. dielectric constant tensor:
#      x y z
#    x 1.808740 -0.001480 -0.011090 
#    y -0.001480 1.790510 -0.003260 
#    z -0.011090 -0.003260 1.824840 
# 
# From -- ./inp_files/331866.got.cif
#   From: 2010.06.25/outbox.cif.g09.slc.cpg/sg2_166_cif.got.tgz:331866.got - 2010.06.27 13:26:56.
