data_PCOD8013112
_publ_section_title
;
Structure prediction by ZEFSAII (Michael W. Deem and Ramdas Pophale) SiO2 
 PCOD8013112
Probable space group: P -1
;
_chemical_formula_sum "Si O2"
_cell_formula_units_Z 16
_cell_length_a 32.325472
_cell_length_b 5.428955
_cell_length_c 9.720154
_cell_angle_alpha 99.457044
_cell_angle_beta 153.333016
_cell_angle_gamma 71.977343
_cell_volume 702.420026
_symmetry_space_group_name_H-M "P -1"
_symmetry_group_IT_number 2
_symmetry_cell_setting 'triclinic'
loop_
_space_group_symop_operation_xyz
x,y,z
-x,-y,-z
loop_
_atom_site_type_symbol
_atom_site_label
_atom_site_fract_x
_atom_site_fract_y
_atom_site_fract_z
Si Si1 0.957433 0.885980 0.171574
Si Si2 0.317570 0.615072 0.950714
Si Si3 0.703953 0.434606 0.826037
Si Si4 0.887710 0.043186 0.703126
Si Si5 0.584048 0.997794 0.856809
Si Si6 0.481126 0.243301 0.856767
Si Si7 0.119150 0.087791 0.774874
Si Si8 0.865473 0.610929 0.409664
O O1 0.898981 0.802813 0.112681
O O2 0.034982 0.642933 0.294961
O O3 0.017595 0.060442 0.422939
O O4 0.874965 0.050353 0.830892
O O5 0.197158 0.695690 0.588028
O O6 0.351803 0.638736 0.215084
O O7 0.353412 0.826499 0.995357
O O8 0.356609 0.319044 0.974090
O O9 0.633313 0.632265 0.521753
O O10 0.760721 0.579985 0.101771
O O11 0.783674 0.183205 0.962453
O O12 0.862511 0.806391 0.539676
O O13 0.000000 0.000000 0.000000
O O14 0.546034 0.122897 0.904678
O O15 0.500000 0.000000 0.500000
O O16 0.500000 0.500000 0.000000
O O17 0.500000 0.000000 0.000000
O O18 0.133938 0.303533 0.739765
#
# Coordination Sequence:
#
# PCOD8013112 Si02
#       8
#     2   2   2   2   2   2   2   2
#     4  10  22  38  60  98 138 188 235 306 352 438
#     4  12  26  46  79 113 145 201 259 304 377 451
#     4  11  25  45  73 100 143 188 253 300 375 465
#     4  12  23  42  67 105 149 185 248 312 366 427
#     4  12  27  50  82 110 148 197 256 315 374 454
#     4  12  30  50  79 113 153 189 241 320 396 445
#     4  10  21  40  65  93 137 190 243 280 374 440
#     4  11  21  41  69  95 135 201 245 297 368 445
#
# _framework density 22.778393999999999
#
# number of rings (size 3 to 8) (size 9 to 14) (size 15 to 20)
#    0.000    0.750    3.750    3.375    3.500    3.000 
#    0.000    0.000    0.000    0.000    0.000    0.000 
#    0.000    0.000    0.000    0.000    0.000    0.000 
#
# Total GULP energy -198219.945600 kJ/mol
# GULP energy per Si atom -12388.746600 kJ/mol
# Density = 2.272655 g / cm^3
# Si number density = 22.778394 Si / 1000 Ang^3
#
#
#
# Elastic Constant Matrix: (Units=GPa)
#
#
# Indices 1 2 3 4 5 6 
#
# 1 107.5227 14.7084 52.7788 30.2569 -27.7117 3.3330
# 2 14.7084 108.0126 60.7310 33.9016 -5.5869 4.5448
# 3 52.7788 60.7310 123.7872 -41.5167 -12.1892 -7.0646
# 4 30.2569 33.9016 -41.5167 -53.1618 15.5012 -24.9206
# 5 -27.7117 -5.5869 -12.1892 15.5012 39.8856 -0.5871
# 6 3.3330 4.5448 -7.0646 -24.9206 -0.5871 39.8801
#
#
#
# Elastic Compliance Matrix: (Units=1/GPa)
#
#
# Indices 1 2 3 4 5 6 
#
# 1 0.009686 -0.002253 -0.000834 0.004859 0.004306 0.002399
# 2 -0.002253 0.009099 -0.002126 0.004627 -0.002715 0.001626
# 3 -0.000834 -0.002126 0.007761 -0.005889 0.003755 -0.001938
# 4 0.004859 0.004627 -0.005889 -0.004957 0.004077 -0.005014
# 5 0.004306 -0.002715 0.003755 0.004077 0.027299 0.003564
# 6 0.002399 0.001626 -0.001938 -0.005014 0.003564 0.021265
#
#
# Mechanical properties :
#
#
# Convention : Reuss Voigt Hill
#
# Bulk Modulus (GPa) = 62.03469 66.19544 64.11507
# Shear Modulus (GPa) = 58.16996 19.39439 38.78217
#
# Velocity S-wave (km/s) = 5.05893 2.92111 4.13072
# Velocity P-wave (km/s) = 7.83689 6.36403 7.13855
#
# Compressibility (1/GPa) = 0.01612001
#
# Stress axis : x y z
#
# Youngs Moduli (GPa) = 103.23835 109.89719 128.84465
#
# Poissons Ratio (x) = 0.24762 0.10746
# Poissons Ratio (y) = 0.23262 0.27396
# Poissons Ratio (z) = 0.08610 0.23367
#
# Static dielectric constant tensor:
#      x y z
#    x 2.789660 0.568610 -0.950520 
#    y 0.568610 4.062750 -0.054240 
#    z -0.950520 -0.054240 4.261310 
# 
# 
# High freq. dielectric constant tensor:
#      x y z
#    x 1.917180 0.000300 -0.007350 
#    y 0.000300 1.898300 -0.013600 
#    z -0.007350 -0.013600 1.897340 
# 
# From -- ./inp_files/358249.got.cif
#   From: 2010.06.25/outbox.cif.g09.slc.cpg/sg2_180_cif.got.tgz:358249.got - 2010.06.27 13:26:56.
