data_PCOD8013713
_publ_section_title
;
Structure prediction by ZEFSAII (Michael W. Deem and Ramdas Pophale) SiO2 
 PCOD8013713
Probable space group: P -1
;
_chemical_formula_sum "Si O2"
_cell_formula_units_Z 14
_cell_length_a 9.555146
_cell_length_b 8.534160
_cell_length_c 12.105082
_cell_angle_alpha 52.265311
_cell_angle_beta 122.683082
_cell_angle_gamma 88.349576
_cell_volume 553.126982
_symmetry_space_group_name_H-M "P -1"
_symmetry_group_IT_number 2
_symmetry_cell_setting 'triclinic'
loop_
_space_group_symop_operation_xyz
x,y,z
-x,-y,-z
loop_
_atom_site_type_symbol
_atom_site_label
_atom_site_fract_x
_atom_site_fract_y
_atom_site_fract_z
Si Si1 0.323490 0.732209 0.255493
Si Si2 0.244918 0.314185 0.182480
Si Si3 0.593621 0.816027 0.462541
Si Si4 0.197568 0.465434 0.722416
Si Si5 0.397524 0.637314 0.077976
Si Si6 0.790187 0.860121 0.310222
Si Si7 0.960753 0.711454 0.088163
O O1 0.498091 0.660004 0.453723
O O2 0.418853 0.658709 0.208039
O O3 0.177547 0.638190 0.255867
O O4 0.190543 0.013892 0.078600
O O5 0.237321 0.323146 0.310434
O O6 0.304291 0.484656 0.080315
O O7 0.417574 0.053814 0.335408
O O8 0.045202 0.353389 0.018537
O O9 0.683079 0.870033 0.373174
O O10 0.379859 0.491214 0.820133
O O11 0.279548 0.241500 0.772849
O O12 0.109881 0.429025 0.811379
O O13 0.027300 0.701957 0.488737
O O14 0.258607 0.884961 0.852168
#
# Coordination Sequence:
#
# PCOD8013713 Si02
#       7
#     2   2   2   2   2   2   2
#     4  10  21  40  76 100 134 190 247 290 347 420
#     4  10  25  43  71 104 151 186 234 294 369 426
#     4  10  22  47  70 105 143 191 237 297 355 429
#     4  11  24  43  72 108 140 185 245 302 345 433
#     4  12  23  45  72 105 142 191 235 298 359 426
#     4  11  24  43  73 107 142 184 245 300 354 419
#     4  10  22  44  68 105 141 186 238 298 352 431
#
# _framework density 25.310642000000001
#
# number of rings (size 3 to 8) (size 9 to 14) (size 15 to 20)
#    0.000    1.429    2.857    2.143    2.000    5.714 
#    5.143    1.429    0.000    0.000    0.000    0.000 
#    0.000    0.000    0.000    0.000    0.000    0.000 
#
# Total GULP energy -173680.961868 kJ/mol
# GULP energy per Si atom -12405.782991 kJ/mol
# Density = 2.525303 g / cm^3
# Si number density = 25.310642 Si / 1000 Ang^3
#
#
#
# Elastic Constant Matrix: (Units=GPa)
#
#
# Indices 1 2 3 4 5 6 
#
# 1 110.5874 22.7790 58.2840 9.4981 -7.7569 26.8974
# 2 22.7790 108.1420 56.7516 2.5736 0.6025 18.1894
# 3 58.2840 56.7516 152.5285 20.1747 12.6161 20.4799
# 4 9.4981 2.5736 20.1747 23.8790 6.3062 -6.1108
# 5 -7.7569 0.6025 12.6161 6.3062 52.8575 7.9249
# 6 26.8974 18.1894 20.4799 -6.1108 7.9249 41.8959
#
#
#
# Elastic Compliance Matrix: (Units=1/GPa)
#
#
# Indices 1 2 3 4 5 6 
#
# 1 0.014181 0.000856 -0.004121 -0.006000 0.005167 -0.009314
# 2 0.000856 0.012052 -0.004550 0.000847 0.001531 -0.003724
# 3 -0.004121 -0.004550 0.011132 -0.007078 -0.002148 -0.001447
# 4 -0.006000 0.000847 -0.007078 0.056699 -0.008487 0.016819
# 5 0.005167 0.001531 -0.002148 -0.008487 0.022447 -0.008416
# 6 -0.009314 -0.003724 -0.001447 0.016819 -0.008416 0.036218
#
#
# Mechanical properties :
#
#
# Convention : Reuss Voigt Hill
#
# Bulk Modulus (GPa) = 46.00690 71.87634 58.94162
# Shear Modulus (GPa) = 28.47327 39.28937 33.88132
#
# Velocity S-wave (km/s) = 3.35767 3.94418 3.66268
# Velocity P-wave (km/s) = 5.76613 7.01437 6.42066
#
# Compressibility (1/GPa) = 0.02173587
#
# Stress axis : x y z
#
# Youngs Moduli (GPa) = 70.51587 82.97144 89.83191
#
# Poissons Ratio (x) = -0.07102 0.37016
# Poissons Ratio (y) = -0.06036 0.40875
# Poissons Ratio (z) = 0.29057 0.37753
#
# Static dielectric constant tensor:
#      x y z
#    x 4.551210 -0.091430 0.385300 
#    y -0.091430 5.060220 0.139200 
#    z 0.385300 0.139200 5.155730 
# 
# 
# High freq. dielectric constant tensor:
#      x y z
#    x 2.014340 -0.016610 0.024340 
#    y -0.016610 2.033290 -0.012460 
#    z 0.024340 -0.012460 2.043790 
# 
# From -- ./inp_files/381119.got.cif
#   From: 2010.06.25/outbox.cif.g09.slc.cpg/sg2_191_cif.got.tgz:381119.got - 2010.06.27 13:26:56.
