data_PCOD8013362
_publ_section_title
;
Structure prediction by ZEFSAII (Michael W. Deem and Ramdas Pophale) SiO2 
 PCOD8013362
Probable space group: P -1
;
_chemical_formula_sum "Si O2"
_cell_formula_units_Z 16
_cell_length_a 9.383492
_cell_length_b 27.089774
_cell_length_c 20.915245
_cell_angle_alpha 161.245612
_cell_angle_beta 150.156671
_cell_angle_gamma 28.251785
_cell_volume 789.527337
_symmetry_space_group_name_H-M "P -1"
_symmetry_group_IT_number 2
_symmetry_cell_setting 'triclinic'
loop_
_space_group_symop_operation_xyz
x,y,z
-x,-y,-z
loop_
_atom_site_type_symbol
_atom_site_label
_atom_site_fract_x
_atom_site_fract_y
_atom_site_fract_z
Si Si1 0.774589 0.119561 0.398906
Si Si2 0.676211 0.482512 0.359952
Si Si3 0.100972 0.179312 0.212842
Si Si4 0.290610 0.550546 0.169936
Si Si5 0.837940 0.903289 0.275814
Si Si6 0.139032 0.080643 0.242421
Si Si7 0.245995 0.522844 0.980880
Si Si8 0.072851 0.739151 0.485715
O O1 0.415534 0.193437 0.325447
O O2 0.828440 0.251696 0.628882
O O3 0.980885 0.113524 0.407822
O O4 0.853201 0.951786 0.265348
O O5 0.539905 0.463014 0.213976
O O6 0.435081 0.624374 0.483720
O O7 0.000000 0.500000 0.500000
O O8 0.772575 0.309166 0.221358
O O9 0.120949 0.201664 0.324529
O O10 0.102247 0.004186 0.974173
O O11 0.428484 0.501296 0.092535
O O12 0.000000 0.500000 0.000000
O O13 0.985224 0.705656 0.096916
O O14 0.491335 0.954544 0.230017
O O15 0.000000 0.000000 0.500000
O O16 0.030085 0.182369 0.389454
O O17 0.500000 0.500000 0.000000
O O18 0.108563 0.379637 0.747790
#
# Coordination Sequence:
#
# PCOD8013362 Si02
#       8
#     2   2   2   2   2   2   2   2
#     4  10  21  40  67  92 131 172 221 270 322 397
#     4  11  21  39  68  96 127 177 218 270 330 390
#     4  10  21  43  64  92 130 176 221 261 344 397
#     4  11  21  41  66  95 136 176 217 270 334 395
#     4  11  22  41  67  90 130 182 217 260 341 394
#     4  10  24  41  66  94 131 174 215 282 329 401
#     4  12  25  42  66 101 134 172 223 280 327 395
#     4  11  23  42  66  99 135 164 228 281 323 386
#
# _framework density 20.265288999999999
#
# number of rings (size 3 to 8) (size 9 to 14) (size 15 to 20)
#    0.000    1.250    6.250    1.500    1.750    1.000 
#    2.250    3.750    0.000    0.000    0.000    0.000 
#    0.000    0.000    0.000    0.000    0.000    0.000 
#
# Total GULP energy -198246.701901 kJ/mol
# GULP energy per Si atom -12390.418869 kJ/mol
# Density = 2.021916 g / cm^3
# Si number density = 20.265289 Si / 1000 Ang^3
#
#
#
# Elastic Constant Matrix: (Units=GPa)
#
#
# Indices 1 2 3 4 5 6 
#
# 1 161.3743 61.7986 61.0904 -3.5632 -17.0922 5.6900
# 2 61.7986 114.0507 31.3425 -9.7068 -10.2381 5.4135
# 3 61.0904 31.3425 100.0842 -15.8892 -5.1043 -2.1769
# 4 -3.5632 -9.7068 -15.8892 32.7954 -1.7014 4.3203
# 5 -17.0922 -10.2381 -5.1043 -1.7014 38.7269 -8.0240
# 6 5.6900 5.4135 -2.1769 4.3203 -8.0240 28.8478
#
#
#
# Elastic Compliance Matrix: (Units=1/GPa)
#
#
# Indices 1 2 3 4 5 6 
#
# 1 0.009816 -0.003890 -0.005031 -0.002322 0.002422 -0.000564
# 2 -0.003890 0.011494 -0.000751 0.002878 0.001019 -0.001594
# 3 -0.005031 -0.000751 0.014274 0.005974 -0.000003 0.001315
# 4 -0.002322 0.002878 0.005974 0.034638 0.001111 -0.004510
# 5 0.002422 0.001019 -0.000003 0.001111 0.028689 0.007144
# 6 -0.000564 -0.001594 0.001315 -0.004510 0.007144 0.037837
#
#
# Mechanical properties :
#
#
# Convention : Reuss Voigt Hill
#
# Bulk Modulus (GPa) = 61.57118 75.99691 68.78404
# Shear Modulus (GPa) = 30.95873 34.82586 32.89229
#
# Velocity S-wave (km/s) = 3.91279 4.14997 4.03312
# Velocity P-wave (km/s) = 7.13174 7.78110 7.46348
#
# Compressibility (1/GPa) = 0.01624136
#
# Stress axis : x y z
#
# Youngs Moduli (GPa) = 101.87428 87.00037 70.05534
#
# Poissons Ratio (x) = 0.33841 0.35244
# Poissons Ratio (y) = 0.39626 0.05261
# Poissons Ratio (z) = 0.51252 0.06534
#
# Static dielectric constant tensor:
#      x y z
#    x 3.916100 -0.361590 0.145740 
#    y -0.361590 6.385080 0.048250 
#    z 0.145740 0.048250 3.893660 
# 
# 
# High freq. dielectric constant tensor:
#      x y z
#    x 1.797630 0.016990 0.022770 
#    y 0.016990 1.782830 -0.012740 
#    z 0.022770 -0.012740 1.799360 
# 
# From -- ./inp_files/556479.got.cif
#   From: 2010.06.25/outbox.cif.g09.slc.cpg/sg2_279_cif.got.tgz:556479.got - 2010.06.27 13:26:56.
