data_PCOD8013964
_publ_section_title
;
Structure prediction by ZEFSAII (Michael W. Deem and Ramdas Pophale) SiO2 
 PCOD8013964
Probable space group: P -1
;
_chemical_formula_sum "Si O2"
_cell_formula_units_Z 16
_cell_length_a 11.802507
_cell_length_b 8.500250
_cell_length_c 20.398540
_cell_angle_alpha 39.731660
_cell_angle_beta 32.999403
_cell_angle_gamma 50.024241
_cell_volume 712.405740
_symmetry_space_group_name_H-M "P -1"
_symmetry_group_IT_number 2
_symmetry_cell_setting 'triclinic'
loop_
_space_group_symop_operation_xyz
x,y,z
-x,-y,-z
loop_
_atom_site_type_symbol
_atom_site_label
_atom_site_fract_x
_atom_site_fract_y
_atom_site_fract_z
Si Si1 0.237587 0.178584 0.625206
Si Si2 0.591451 0.235170 0.528399
Si Si3 0.658656 0.780418 0.709444
Si Si4 0.310623 0.415298 0.043933
Si Si5 0.758747 0.551443 0.597832
Si Si6 0.008011 0.427755 0.296348
Si Si7 0.509438 0.931427 0.093614
Si Si8 0.074174 0.261534 0.077884
O O1 0.461663 0.119429 0.568103
O O2 0.292373 0.307992 0.489133
O O3 0.096000 0.351056 0.684439
O O4 0.116804 0.922143 0.756213
O O5 0.500000 0.500000 0.500000
O O6 0.839772 0.269535 0.386372
O O7 0.574179 0.061413 0.657689
O O8 0.693732 0.720405 0.635400
O O9 0.874566 0.752869 0.652252
O O10 0.484093 0.610550 0.879263
O O11 0.171520 0.534512 0.130184
O O12 0.169878 0.346376 0.072743
O O13 0.426102 0.171948 0.095263
O O14 0.635835 0.295137 0.743478
O O15 0.000000 0.500000 0.500000
O O16 0.750793 0.869684 0.010569
O O17 0.500000 0.000000 0.000000
O O18 0.000000 0.500000 0.000000
#
# Coordination Sequence:
#
# PCOD8013964 Si02
#       8
#     2   2   2   2   2   2   2   2
#     4  11  25  46  71 100 143 181 229 289 348 405
#     4  10  26  47  64  96 143 183 229 280 343 417
#     4  12  23  44  72 101 135 181 233 282 348 407
#     4  11  24  43  71 105 137 173 232 287 342 414
#     4  12  23  39  73 107 135 174 230 290 345 404
#     4  11  25  46  70 100 136 184 229 285 343 414
#     4  10  21  41  63  99 140 167 224 282 335 404
#     4  11  23  44  70 102 139 184 229 280 343 414
#
# _framework density 22.459109999999999
#
# number of rings (size 3 to 8) (size 9 to 14) (size 15 to 20)
#    0.000    1.000    3.750    3.750    3.500    3.500 
#    0.000    6.875    0.000    0.000    0.000    0.000 
#    0.000    0.000    0.000    0.000    0.000    0.000 
#
# Total GULP energy -198347.284720 kJ/mol
# GULP energy per Si atom -12396.705295 kJ/mol
# Density = 2.240799 g / cm^3
# Si number density = 22.459110 Si / 1000 Ang^3
#
#
#
# Elastic Constant Matrix: (Units=GPa)
#
#
# Indices 1 2 3 4 5 6 
#
# 1 130.9099 45.8876 63.0144 3.9422 -12.0087 -35.3767
# 2 45.8876 98.7850 56.9781 -6.6003 8.4537 -25.1865
# 3 63.0144 56.9781 173.4327 -12.4647 -4.3657 -16.6845
# 4 3.9422 -6.6003 -12.4647 44.2151 2.2897 11.2659
# 5 -12.0087 8.4537 -4.3657 2.2897 37.2585 -0.5773
# 6 -35.3767 -25.1865 -16.6845 11.2659 -0.5773 35.0100
#
#
#
# Elastic Compliance Matrix: (Units=1/GPa)
#
#
# Indices 1 2 3 4 5 6 
#
# 1 0.014403 -0.002063 -0.003579 -0.006310 0.005288 0.013482
# 2 -0.002063 0.015468 -0.003762 -0.000178 -0.004492 0.007234
# 3 -0.003579 -0.003762 0.008200 0.002898 0.000431 -0.003340
# 4 -0.006310 -0.000178 0.002898 0.027751 -0.003578 -0.014112
# 5 0.005288 -0.004492 0.000431 -0.003578 0.029895 0.003961
# 6 0.013482 0.007234 -0.003340 -0.014112 0.003961 0.050405
#
#
# Mechanical properties :
#
#
# Convention : Reuss Voigt Hill
#
# Bulk Modulus (GPa) = 51.91254 81.65421 66.78338
# Shear Modulus (GPa) = 29.17995 39.11322 34.14659
#
# Velocity S-wave (km/s) = 3.60842 4.17769 3.90345
# Velocity P-wave (km/s) = 6.36595 7.72700 7.07926
#
# Compressibility (1/GPa) = 0.01926317
#
# Stress axis : x y z
#
# Youngs Moduli (GPa) = 69.42987 64.64903 121.95106
#
# Poissons Ratio (x) = 0.13337 0.43644
# Poissons Ratio (y) = 0.14323 0.45881
# Poissons Ratio (z) = 0.24848 0.24322
#
# Static dielectric constant tensor:
#      x y z
#    x 4.586270 -0.187760 -0.198740 
#    y -0.187760 4.467980 0.086900 
#    z -0.198740 0.086900 4.292570 
# 
# 
# High freq. dielectric constant tensor:
#      x y z
#    x 1.889110 -0.014030 -0.011000 
#    y -0.014030 1.886940 -0.004670 
#    z -0.011000 -0.004670 1.898570 
# 
# From -- ./inp_files/158737.got.cif
#   From: 2010.06.25/outbox.cif.g09.slc.cpg/sg2_80_cif.got.tgz:158737.got - 2010.06.27 13:26:56.
