data_PCOD8013731
_publ_section_title
;
Structure prediction by ZEFSAII (Michael W. Deem and Ramdas Pophale) SiO2 
 PCOD8013731
Probable space group: P -1
;
_chemical_formula_sum "Si O2"
_cell_formula_units_Z 8
_cell_length_a 6.898171
_cell_length_b 8.405178
_cell_length_c 8.792859
_cell_angle_alpha 118.091915
_cell_angle_beta 74.149831
_cell_angle_gamma 75.129590
_cell_volume 385.506649
_symmetry_space_group_name_H-M "P -1"
_symmetry_group_IT_number 2
_symmetry_cell_setting 'triclinic'
loop_
_space_group_symop_operation_xyz
x,y,z
-x,-y,-z
loop_
_atom_site_type_symbol
_atom_site_label
_atom_site_fract_x
_atom_site_fract_y
_atom_site_fract_z
Si Si1 0.248835 0.585274 0.409922
Si Si2 0.906545 0.491613 0.291607
Si Si3 0.606197 0.791253 0.970782
Si Si4 0.488251 0.200281 0.664396
O O1 0.248167 0.560933 0.581803
O O2 0.430364 0.375029 0.197015
O O3 0.308045 0.765584 0.435272
O O4 0.997143 0.636109 0.424113
O O5 0.752553 0.609536 0.235819
O O6 0.123147 0.286833 0.096691
O O7 0.480767 0.819744 0.170660
O O8 0.500000 0.000000 0.000000
O O9 0.500000 0.000000 0.500000
#
# Coordination Sequence:
#
# PCOD8013731 Si02
#       4
#     2   2   2   2
#     4   9  21  41  63  82 122 151 193 243 291 339
#     4   9  21  41  63  83 119 152 197 239 292 338
#     4  10  21  41  60  86 119 154 195 239 292 343
#     4  12  23  37  62  91 117 153 198 236 289 352
#
# _framework density 20.751912999999998
#
# number of rings (size 3 to 8) (size 9 to 14) (size 15 to 20)
#    1.500    0.500    0.000    3.750    0.000    1.000 
#    0.000    2.500    0.000    0.000    0.000    0.000 
#    0.000    0.000    0.000    0.000    0.000    0.000 
#
# Total GULP energy -99166.508158 kJ/mol
# GULP energy per Si atom -12395.813520 kJ/mol
# Density = 2.070468 g / cm^3
# Si number density = 20.751913 Si / 1000 Ang^3
#
#
#
# Elastic Constant Matrix: (Units=GPa)
#
#
# Indices 1 2 3 4 5 6 
#
# 1 57.1243 53.9628 4.4157 -0.2057 -12.8885 8.3833
# 2 53.9628 156.9014 48.7412 -23.8815 -5.0757 15.9032
# 3 4.4157 48.7412 85.3354 -13.8314 -3.8417 17.8761
# 4 -0.2057 -23.8815 -13.8314 27.6240 -0.9641 1.9579
# 5 -12.8885 -5.0757 -3.8417 -0.9641 25.5519 1.0454
# 6 8.3833 15.9032 17.8761 1.9579 1.0454 48.0382
#
#
#
# Elastic Compliance Matrix: (Units=1/GPa)
#
#
# Indices 1 2 3 4 5 6 
#
# 1 0.034383 -0.014180 0.006507 -0.007944 0.015358 -0.003738
# 2 -0.014180 0.014432 -0.006195 0.009118 -0.004862 -0.000264
# 3 0.006507 -0.006195 0.016934 0.003745 0.004970 -0.005647
# 4 -0.007944 0.009118 0.003745 0.046259 0.000314 -0.004918
# 5 0.015358 -0.004862 0.004970 0.000314 0.046837 -0.003952
# 6 -0.003738 -0.000264 -0.005647 -0.004918 -0.003952 0.023944
#
#
# Mechanical properties :
#
#
# Convention : Reuss Voigt Hill
#
# Bulk Modulus (GPa) = 26.30734 57.06672 41.68703
# Shear Modulus (GPa) = 22.40173 33.05894 27.73033
#
# Velocity S-wave (km/s) = 3.28914 3.99564 3.65948
# Velocity P-wave (km/s) = 5.20857 6.98899 6.16341
#
# Compressibility (1/GPa) = 0.03801221
#
# Stress axis : x y z
#
# Youngs Moduli (GPa) = 29.08422 69.28950 59.05290
#
# Poissons Ratio (x) = 0.98253 -0.38425
# Poissons Ratio (y) = 0.41242 0.36585
# Poissons Ratio (z) = -0.18925 0.42927
#
# Static dielectric constant tensor:
#      x y z
#    x 3.555120 0.000690 -0.023990 
#    y 0.000690 3.596360 -0.133150 
#    z -0.023990 -0.133150 3.531430 
# 
# 
# High freq. dielectric constant tensor:
#      x y z
#    x 1.796890 -0.001650 -0.003080 
#    y -0.001650 1.811460 -0.019290 
#    z -0.003080 -0.019290 1.800450 
# 
# From -- ./inp_files/16119.got.cif
#   From: 2010.06.25/outbox.cif.g09.slc.cpg/sg2_9_cif.got.tgz:16119.got - 2010.06.27 13:26:56.
