data_PCOD8013390
_publ_section_title
;
Structure prediction by ZEFSAII (Michael W. Deem and Ramdas Pophale) SiO2 
 PCOD8013390
Probable space group: P -1
;
_chemical_formula_sum "Si O2"
_cell_formula_units_Z 14
_cell_length_a 13.795663
_cell_length_b 7.199546
_cell_length_c 16.657717
_cell_angle_alpha 43.633861
_cell_angle_beta 147.839641
_cell_angle_gamma 135.568247
_cell_volume 584.099045
_symmetry_space_group_name_H-M "P -1"
_symmetry_group_IT_number 2
_symmetry_cell_setting 'triclinic'
loop_
_space_group_symop_operation_xyz
x,y,z
-x,-y,-z
loop_
_atom_site_type_symbol
_atom_site_label
_atom_site_fract_x
_atom_site_fract_y
_atom_site_fract_z
Si Si1 0.672689 0.038342 0.549045
Si Si2 0.055693 0.239082 0.711189
Si Si3 0.355927 0.047782 0.078504
Si Si4 0.070460 0.196477 0.377901
Si Si5 0.695752 0.916044 0.276945
Si Si6 0.619469 0.404427 0.263047
Si Si7 0.306247 0.514442 0.318884
O O1 0.739553 0.755797 0.686983
O O2 0.500000 0.000000 0.500000
O O3 0.595615 0.116825 0.385406
O O4 0.878052 0.281748 0.628583
O O5 0.192953 0.530397 0.683310
O O6 0.953594 0.067911 0.615521
O O7 0.173030 0.064459 0.896738
O O8 0.515730 0.027265 0.133105
O O9 0.300994 0.778880 0.180996
O O10 0.436758 0.329993 0.099780
O O11 0.232574 0.200786 0.555862
O O12 0.148225 0.477232 0.290707
O O13 0.865969 0.172973 0.281700
O O14 0.625396 0.667386 0.240938
O O15 0.500000 0.500000 0.500000
#
# Coordination Sequence:
#
# PCOD8013390 Si02
#       7
#     2   2   2   2   2   2   2
#     4  11  23  41  67  95 124 169 223 270 314 386
#     4  10  24  43  65  96 132 173 214 267 334 376
#     4  12  23  42  67  94 139 172 207 270 328 391
#     4   9  20  38  61  93 122 163 222 259 309 379
#     4  10  21  40  67  95 124 169 224 266 315 382
#     4  11  23  42  67  95 132 171 220 264 318 388
#     4  11  20  40  65  92 126 172 213 260 329 379
#
# _framework density 23.968537999999999
#
# number of rings (size 3 to 8) (size 9 to 14) (size 15 to 20)
#    0.000    1.429    2.857    2.571    0.000    6.857 
#    0.000    3.571    0.000    0.000    0.000    0.000 
#    0.000    0.000    0.000    0.000    0.000    0.000 
#
# Total GULP energy -173440.891374 kJ/mol
# GULP energy per Si atom -12388.635098 kJ/mol
# Density = 2.391398 g / cm^3
# Si number density = 23.968538 Si / 1000 Ang^3
#
#
#
# Elastic Constant Matrix: (Units=GPa)
#
#
# Indices 1 2 3 4 5 6 
#
# 1 159.5938 53.4565 66.0888 1.7242 2.9332 52.1836
# 2 53.4565 81.2897 23.9489 1.9153 -14.6878 20.4988
# 3 66.0888 23.9489 97.0667 4.0285 0.3033 2.6284
# 4 1.7242 1.9153 4.0285 27.5077 6.0606 -10.1018
# 5 2.9332 -14.6878 0.3033 6.0606 27.9496 5.6648
# 6 52.1836 20.4988 2.6284 -10.1018 5.6648 51.8497
#
#
#
# Elastic Compliance Matrix: (Units=1/GPa)
#
#
# Indices 1 2 3 4 5 6 
#
# 1 0.017100 -0.003921 -0.010009 -0.005485 0.000747 -0.016303
# 2 -0.003921 0.019551 -0.001770 -0.006119 0.013317 -0.006340
# 3 -0.010009 -0.001770 0.017154 0.002822 -0.002860 0.010765
# 4 -0.005485 -0.006119 0.002822 0.047321 -0.016751 0.018846
# 5 0.000747 0.013317 -0.002860 -0.016751 0.049305 -0.014522
# 6 -0.016303 -0.006340 0.010765 0.018846 -0.014522 0.042913
#
#
# Mechanical properties :
#
#
# Convention : Reuss Voigt Hill
#
# Bulk Modulus (GPa) = 44.63259 69.43762 57.03510
# Shear Modulus (GPa) = 21.53204 34.42512 27.97858
#
# Velocity S-wave (km/s) = 3.00049 3.79392 3.42029
# Velocity P-wave (km/s) = 5.53766 6.94442 6.28055
#
# Compressibility (1/GPa) = 0.02240515
#
# Stress axis : x y z
#
# Youngs Moduli (GPa) = 58.47902 51.14878 58.29674
#
# Poissons Ratio (x) = 0.20057 0.58347
# Poissons Ratio (y) = 0.22931 0.10318
# Poissons Ratio (z) = 0.58529 0.09053
#
# Static dielectric constant tensor:
#      x y z
#    x 4.661650 0.457350 -0.121250 
#    y 0.457350 4.918420 0.231470 
#    z -0.121250 0.231470 4.056620 
# 
# 
# High freq. dielectric constant tensor:
#      x y z
#    x 1.954010 0.024090 -0.011770 
#    y 0.024090 1.964230 0.014380 
#    z -0.011770 0.014380 1.926360 
# 
# From -- ./inp_files/572831.got.cif
#   From: 2010.06.25/outbox.cif.g09.slc.cpg/sg2_287_cif.got.tgz:572831.got - 2010.06.27 13:26:56.
