data_PCOD8013319
_publ_section_title
;
Structure prediction by ZEFSAII (Michael W. Deem and Ramdas Pophale) SiO2 
 PCOD8013319
Probable space group: P -1
;
_chemical_formula_sum "Si O2"
_cell_formula_units_Z 16
_cell_length_a 8.879251
_cell_length_b 20.483336
_cell_length_c 8.692418
_cell_angle_alpha 57.097632
_cell_angle_beta 33.669132
_cell_angle_gamma 57.271988
_cell_volume 722.440165
_symmetry_space_group_name_H-M "P -1"
_symmetry_group_IT_number 2
_symmetry_cell_setting 'triclinic'
loop_
_space_group_symop_operation_xyz
x,y,z
-x,-y,-z
loop_
_atom_site_type_symbol
_atom_site_label
_atom_site_fract_x
_atom_site_fract_y
_atom_site_fract_z
Si Si1 0.066340 0.844066 0.471356
Si Si2 0.583370 0.420009 0.124164
Si Si3 0.803528 0.982515 0.328959
Si Si4 0.620942 0.060420 0.706600
Si Si5 0.790960 0.794096 0.245176
Si Si6 0.397008 0.737530 0.878133
Si Si7 0.383183 0.260117 0.977657
Si Si8 0.182192 0.365016 0.761125
O O1 0.130100 0.904084 0.472453
O O2 0.919287 0.890722 0.388620
O O3 0.876443 0.783561 0.763791
O O4 0.365282 0.795309 0.245563
O O5 0.358778 0.417296 0.449393
O O6 0.500000 0.500000 0.000000
O O7 0.609431 0.347536 0.077975
O O8 0.875565 0.416490 0.964107
O O9 0.500000 0.000000 0.500000
O O10 0.776916 0.027152 0.459078
O O11 0.000000 0.000000 0.000000
O O12 0.340722 0.124169 0.829590
O O13 0.500000 0.000000 0.000000
O O14 0.805554 0.721537 0.210025
O O15 0.095598 0.794364 0.054616
O O16 0.596676 0.785721 0.563089
O O17 0.523362 0.720172 0.959712
O O18 0.303714 0.346076 0.852949
#
# Coordination Sequence:
#
# PCOD8013319 Si02
#       8
#     2   2   2   2   2   2   2   2
#     4  12  27  45  66  94 130 186 222 290 348 413
#     4  10  21  42  68 101 139 177 219 264 332 414
#     4  12  29  47  64  97 133 172 232 291 363 416
#     4  12  27  49  72  99 136 184 241 295 365 425
#     4  10  23  41  68  92 127 176 231 276 343 407
#     4  10  24  41  66 101 133 174 221 283 338 396
#     4  12  24  43  67  98 136 168 235 279 339 400
#     4  10  21  40  66  99 129 176 221 272 327 406
#
# _framework density 22.147162999999999
#
# number of rings (size 3 to 8) (size 9 to 14) (size 15 to 20)
#    0.000    1.000    1.250    4.500    8.750    2.000 
#    0.000    1.250    0.000    0.000    0.000    0.000 
#    0.000    0.000    0.000    0.000    0.000    0.000 
#
# Total GULP energy -198325.483357 kJ/mol
# GULP energy per Si atom -12395.342710 kJ/mol
# Density = 2.209676 g / cm^3
# Si number density = 22.147163 Si / 1000 Ang^3
#
#
#
# Elastic Constant Matrix: (Units=GPa)
#
#
# Indices 1 2 3 4 5 6 
#
# 1 137.7323 43.5722 65.6315 -5.2962 -4.3549 -37.5683
# 2 43.5722 116.1768 63.9229 -18.4644 -13.7201 -49.9213
# 3 65.6315 63.9229 171.5433 -5.6145 -22.8751 -19.0962
# 4 -5.2962 -18.4644 -5.6145 37.8197 -9.6188 5.9295
# 5 -4.3549 -13.7201 -22.8751 -9.6188 48.1676 9.7325
# 6 -37.5683 -49.9213 -19.0962 5.9295 9.7325 44.1308
#
#
#
# Elastic Compliance Matrix: (Units=1/GPa)
#
#
# Indices 1 2 3 4 5 6 
#
# 1 0.011673 0.002884 -0.004594 -0.000191 -0.002735 0.011841
# 2 0.002884 0.022717 -0.006637 0.006683 -0.000013 0.024386
# 3 -0.004594 -0.006637 0.009673 -0.000198 0.003877 -0.008061
# 4 -0.000191 0.006683 -0.000198 0.031413 0.007788 0.001373
# 5 -0.002735 -0.000013 0.003877 0.007788 0.025383 -0.007310
# 6 0.011841 0.024386 -0.008061 0.001373 -0.007310 0.058265
#
#
# Mechanical properties :
#
#
# Convention : Reuss Voigt Hill
#
# Bulk Modulus (GPa) = 36.53588 85.74507 61.14047
# Shear Modulus (GPa) = 27.03556 42.84533 34.94045
#
# Velocity S-wave (km/s) = 3.49768 4.40315 3.97627
# Velocity P-wave (km/s) = 5.73100 8.04055 6.98193
#
# Compressibility (1/GPa) = 0.02737035
#
# Stress axis : x y z
#
# Youngs Moduli (GPa) = 85.66861 44.01998 103.37711
#
# Poissons Ratio (x) = -0.12696 0.47488
# Poissons Ratio (y) = -0.24709 0.68611
# Poissons Ratio (z) = 0.39353 0.29216
#
# Static dielectric constant tensor:
#      x y z
#    x 4.271010 -0.285390 0.047130 
#    y -0.285390 3.971390 0.180800 
#    z 0.047130 0.180800 4.222770 
# 
# 
# High freq. dielectric constant tensor:
#      x y z
#    x 1.882290 -0.029050 0.001030 
#    y -0.029050 1.861930 0.008730 
#    z 0.001030 0.008730 1.889050 
# 
# From -- ./inp_files/217579.got.cif
#   From: 2010.06.25/outbox.cif.g09.slc.cpg/sg2_109_cif.got.tgz:217579.got - 2010.06.27 13:26:56.
