data_PCOD8013938
_publ_section_title
;
Structure prediction by ZEFSAII (Michael W. Deem and Ramdas Pophale) SiO2 
 PCOD8013938
Probable space group: P -1
;
_chemical_formula_sum "Si O2"
_cell_formula_units_Z 16
_cell_length_a 9.539171
_cell_length_b 16.062398
_cell_length_c 9.081586
_cell_angle_alpha 131.722774
_cell_angle_beta 137.665434
_cell_angle_gamma 61.679680
_cell_volume 699.011566
_symmetry_space_group_name_H-M "P -1"
_symmetry_group_IT_number 2
_symmetry_cell_setting 'triclinic'
loop_
_space_group_symop_operation_xyz
x,y,z
-x,-y,-z
loop_
_atom_site_type_symbol
_atom_site_label
_atom_site_fract_x
_atom_site_fract_y
_atom_site_fract_z
Si Si1 0.030778 0.952465 0.130098
Si Si2 0.296090 0.511111 0.258913
Si Si3 0.081760 0.177496 0.565760
Si Si4 0.065179 0.317724 0.003353
Si Si5 0.360934 0.188248 0.257692
Si Si6 0.344025 0.747925 0.672879
Si Si7 0.690314 0.249563 0.819381
Si Si8 0.433585 0.336187 0.968939
O O1 0.192620 0.853357 0.138110
O O2 0.805976 0.913101 0.972961
O O3 0.128875 0.047472 0.427323
O O4 0.000000 0.000000 0.000000
O O5 0.500000 0.500000 0.500000
O O6 0.103493 0.438455 0.097929
O O7 0.246202 0.642610 0.373903
O O8 0.349512 0.460905 0.078537
O O9 0.242076 0.251708 0.677875
O O10 0.850764 0.192385 0.336502
O O11 0.080521 0.213521 0.778786
O O12 0.241769 0.299384 0.243769
O O13 0.840995 0.318960 0.908698
O O14 0.531890 0.165390 0.236473
O O15 0.479241 0.208179 0.526250
O O16 0.495832 0.707494 0.868275
O O17 0.618049 0.333565 0.990907
#
# Coordination Sequence:
#
# PCOD8013938 Si02
#       8
#     2   2   2   2   2   2   2   2
#     4  11  26  43  64  93 129 169 209 262 321 375
#     4   9  18  39  70  90 127 168 210 254 315 372
#     4  11  22  40  65  92 122 164 222 254 305 378
#     4  10  21  41  63  95 130 163 212 264 302 379
#     4  11  22  41  64  93 130 162 209 267 307 371
#     4  11  21  41  68  94 124 168 212 260 315 368
#     4  11  24  42  64  92 135 165 207 262 323 365
#     4  10  22  40  64  93 128 165 209 261 306 381
#
# _framework density 22.889464
#
# number of rings (size 3 to 8) (size 9 to 14) (size 15 to 20)
#    0.000    1.500    5.000    1.500    0.000    8.500 
#    0.000    3.125    2.750    0.000    0.000    0.000 
#    0.000    0.000    0.000    0.000    0.000    0.000 
#
# Total GULP energy -198357.240266 kJ/mol
# GULP energy per Si atom -12397.327517 kJ/mol
# Density = 2.283737 g / cm^3
# Si number density = 22.889464 Si / 1000 Ang^3
#
#
#
# Elastic Constant Matrix: (Units=GPa)
#
#
# Indices 1 2 3 4 5 6 
#
# 1 155.8013 29.8200 40.3724 17.2063 -1.1412 1.0903
# 2 29.8200 78.3418 18.1976 -0.6918 -5.2093 2.1119
# 3 40.3724 18.1976 82.2274 6.8131 5.1213 3.2341
# 4 17.2063 -0.6918 6.8131 32.8674 -0.8768 -3.7981
# 5 -1.1412 -5.2093 5.1213 -0.8768 36.6722 0.5554
# 6 1.0903 2.1119 3.2341 -3.7981 0.5554 33.3978
#
#
#
# Elastic Compliance Matrix: (Units=1/GPa)
#
#
# Indices 1 2 3 4 5 6 
#
# 1 0.008095 -0.002355 -0.003159 -0.003652 0.000275 -0.000229
# 2 -0.002355 0.014387 -0.002326 0.002033 0.002350 -0.000416
# 3 -0.003159 -0.002326 0.014568 -0.001632 -0.002482 -0.001305
# 4 -0.003652 0.002033 -0.001632 0.033200 0.001138 0.003905
# 5 0.000275 0.002350 -0.002482 0.001138 0.027989 -0.000253
# 6 -0.000229 -0.000416 -0.001305 0.003905 -0.000253 0.030551
#
#
# Mechanical properties :
#
#
# Convention : Reuss Voigt Hill
#
# Bulk Modulus (GPa) = 46.79480 54.79449 50.79464
# Shear Modulus (GPa) = 32.98341 35.78619 34.38480
#
# Velocity S-wave (km/s) = 3.80015 3.95832 3.88004
# Velocity P-wave (km/s) = 6.30421 6.69939 6.50480
#
# Compressibility (1/GPa) = 0.02136990
#
# Stress axis : x y z
#
# Youngs Moduli (GPa) = 123.53934 69.50822 68.64285
#
# Poissons Ratio (x) = 0.16371 0.21682
# Poissons Ratio (y) = 0.29096 0.15966
# Poissons Ratio (z) = 0.39021 0.16167
#
# Static dielectric constant tensor:
#      x y z
#    x 4.151240 -0.098000 0.202590 
#    y -0.098000 4.157520 0.065770 
#    z 0.202590 0.065770 4.332880 
# 
# 
# High freq. dielectric constant tensor:
#      x y z
#    x 1.907080 -0.006260 0.020620 
#    y -0.006260 1.890310 -0.014620 
#    z 0.020620 -0.014620 1.907020 
# 
# From -- ./inp_files/218777.got.cif
#   From: 2010.06.25/outbox.cif.g09.slc.cpg/sg2_110_cif.got.tgz:218777.got - 2010.06.27 13:26:56.
