data_PCOD8013026
_publ_section_title
;
Structure prediction by ZEFSAII (Michael W. Deem and Ramdas Pophale) SiO2 
 PCOD8013026
Probable space group: P -1
;
_chemical_formula_sum "Si O2"
_cell_formula_units_Z 16
_cell_length_a 15.529216
_cell_length_b 10.841598
_cell_length_c 9.276907
_cell_angle_alpha 104.322450
_cell_angle_beta 121.459060
_cell_angle_gamma 125.065586
_cell_volume 677.257678
_symmetry_space_group_name_H-M "P -1"
_symmetry_group_IT_number 2
_symmetry_cell_setting 'triclinic'
loop_
_space_group_symop_operation_xyz
x,y,z
-x,-y,-z
loop_
_atom_site_type_symbol
_atom_site_label
_atom_site_fract_x
_atom_site_fract_y
_atom_site_fract_z
Si Si1 0.735989 0.052297 0.345556
Si Si2 0.805145 0.029711 0.093655
Si Si3 0.654060 0.252028 0.023398
Si Si4 0.698726 0.490845 0.882063
Si Si5 0.867198 0.454344 0.555292
Si Si6 0.463565 0.798639 0.620866
Si Si7 0.009835 0.997334 0.177677
Si Si8 0.600332 0.672412 0.275365
O O1 0.818467 0.069884 0.285537
O O2 0.875405 0.319890 0.590436
O O3 0.528255 0.893112 0.085517
O O4 0.710307 0.923025 0.411961
O O5 0.923736 0.259490 0.169208
O O6 0.895678 0.989553 0.146396
O O7 0.585429 0.805939 0.782833
O O8 0.737596 0.451797 0.049866
O O9 0.592756 0.064083 0.821893
O O10 0.812327 0.383315 0.317149
O O11 0.592956 0.284838 0.617688
O O12 0.565186 0.471276 0.795008
O O13 0.902115 0.754886 0.070385
O O14 0.725272 0.394145 0.501361
O O15 0.234650 0.241991 0.491230
O O16 0.000000 0.000000 0.000000
O O17 0.500000 0.500000 0.000000
#
# Coordination Sequence:
#
# PCOD8013026 Si02
#       8
#     2   2   2   2   2   2   2   2
#     4  10  21  40  65 103 131 171 222 281 334 402
#     4  12  24  37  71  95 133 181 228 272 339 402
#     4  10  21  42  68 101 139 172 224 282 339 405
#     4  11  26  44  71  96 138 184 222 283 345 401
#     4  11  22  40  69 103 138 173 224 284 335 407
#     4  11  22  43  66 101 137 180 223 273 345 412
#     4  12  29  48  66  99 139 184 234 280 341 412
#     4  11  27  47  71 101 138 179 233 291 337 396
#
# _framework density 23.624687000000002
#
# number of rings (size 3 to 8) (size 9 to 14) (size 15 to 20)
#    0.000    1.000    2.500    3.750    5.250    5.000 
#    0.000    0.000    0.000    7.500    0.000    0.000 
#    0.000    0.000    0.000    0.000    0.000    0.000 
#
# Total GULP energy -198425.143006 kJ/mol
# GULP energy per Si atom -12401.571438 kJ/mol
# Density = 2.357092 g / cm^3
# Si number density = 23.624687 Si / 1000 Ang^3
#
#
#
# Elastic Constant Matrix: (Units=GPa)
#
#
# Indices 1 2 3 4 5 6 
#
# 1 125.4664 17.7565 52.6050 -10.4076 -2.3793 7.9257
# 2 17.7565 86.5022 20.1520 12.9675 0.0634 10.5952
# 3 52.6050 20.1520 90.1033 -6.3842 -0.6359 7.2716
# 4 -10.4076 12.9675 -6.3842 29.8554 -1.9521 -0.5009
# 5 -2.3793 0.0634 -0.6359 -1.9521 32.3109 -1.8107
# 6 7.9257 10.5952 7.2716 -0.5009 -1.8107 33.8393
#
#
#
# Elastic Compliance Matrix: (Units=1/GPa)
#
#
# Indices 1 2 3 4 5 6 
#
# 1 0.010905 -0.001262 -0.005789 0.003153 0.000836 -0.000824
# 2 -0.001262 0.013949 -0.002601 -0.007170 -0.000810 -0.003662
# 3 -0.005789 -0.002601 0.015315 0.002366 -0.000038 -0.001088
# 4 0.003153 -0.007170 0.002366 0.038420 0.002710 0.001712
# 5 0.000836 -0.000810 -0.000038 0.002710 0.031275 0.001780
# 6 -0.000824 -0.003662 -0.001088 0.001712 0.001780 0.031245
#
#
# Mechanical properties :
#
#
# Convention : Reuss Voigt Hill
#
# Bulk Modulus (GPa) = 47.92605 53.67765 50.80185
# Shear Modulus (GPa) = 29.87401 33.30502 31.58952
#
# Velocity S-wave (km/s) = 3.55987 3.75874 3.66066
# Velocity P-wave (km/s) = 6.10143 6.45042 6.27835
#
# Compressibility (1/GPa) = 0.02086548
#
# Stress axis : x y z
#
# Youngs Moduli (GPa) = 91.69732 71.68746 65.29580
#
# Poissons Ratio (x) = 0.09050 0.37799
# Poissons Ratio (y) = 0.11576 0.16983
# Poissons Ratio (z) = 0.53082 0.18646
#
# Static dielectric constant tensor:
#      x y z
#    x 4.557090 0.010780 0.118870 
#    y 0.010780 4.261680 0.263720 
#    z 0.118870 0.263720 4.037400 
# 
# 
# High freq. dielectric constant tensor:
#      x y z
#    x 1.953430 0.003930 0.008800 
#    y 0.003930 1.936440 0.017070 
#    z 0.008800 0.017070 1.914510 
# 
# From -- ./inp_files/308143.got.cif
#   From: 2010.06.25/outbox.cif.g09.slc.cpg/sg2_155_cif.got.tgz:308143.got - 2010.06.27 13:26:56.
