data_PCOD8013673
_publ_section_title
;
Structure prediction by ZEFSAII (Michael W. Deem and Ramdas Pophale) SiO2 
 PCOD8013673
Probable space group: P -1
;
_chemical_formula_sum "Si O2"
_cell_formula_units_Z 16
_cell_length_a 16.907523
_cell_length_b 9.495249
_cell_length_c 13.421889
_cell_angle_alpha 41.304072
_cell_angle_beta 42.045521
_cell_angle_gamma 29.917466
_cell_volume 681.406803
_symmetry_space_group_name_H-M "P -1"
_symmetry_group_IT_number 2
_symmetry_cell_setting 'triclinic'
loop_
_space_group_symop_operation_xyz
x,y,z
-x,-y,-z
loop_
_atom_site_type_symbol
_atom_site_label
_atom_site_fract_x
_atom_site_fract_y
_atom_site_fract_z
Si Si1 0.433585 0.742450 0.846864
Si Si2 0.089379 0.886910 0.327763
Si Si3 0.331179 0.361923 0.890496
Si Si4 0.707744 0.851181 0.785252
Si Si5 0.232134 0.753581 0.470518
Si Si6 0.715344 0.709945 0.626090
Si Si7 0.394010 0.733948 0.659488
Si Si8 0.814693 0.805453 0.016699
O O1 0.555020 0.786797 0.699220
O O2 0.416167 0.663239 0.795180
O O3 0.254201 0.059483 0.879950
O O4 0.500000 0.500000 0.000000
O O5 0.166722 0.723612 0.448187
O O6 0.122830 0.640058 0.357129
O O7 0.890537 0.183370 0.361116
O O8 0.195770 0.957790 0.157991
O O9 0.290188 0.663835 0.748893
O O10 0.297829 0.241778 0.895861
O O11 0.526400 0.130215 0.848418
O O12 0.228219 0.410788 0.058280
O O13 0.710324 0.764043 0.718121
O O14 0.809534 0.940602 0.654355
O O15 0.426837 0.462083 0.459570
O O16 0.718475 0.921066 0.445003
O O17 0.000000 0.500000 0.000000
#
# Coordination Sequence:
#
# PCOD8013673 Si02
#       8
#     2   2   2   2   2   2   2   2
#     4  12  23  44  70 100 134 177 232 271 332 400
#     4  11  24  41  64  99 136 175 216 271 342 400
#     4  10  22  43  67 100 130 176 232 271 331 395
#     4  10  21  40  71  95 132 181 225 275 324 403
#     4  10  22  41  67  93 135 174 217 268 336 397
#     4  12  24  40  67 102 135 173 222 278 337 392
#     4  11  25  42  70 102 131 176 224 284 325 391
#     4  12  26  43  70 101 133 176 225 281 334 394
#
# _framework density 23.480834000000002
#
# number of rings (size 3 to 8) (size 9 to 14) (size 15 to 20)
#    0.000    1.000    5.000    1.125    3.500    4.500 
#    0.000    0.625    0.000    0.000    0.000    0.000 
#    0.000    0.000    0.000    0.000    0.000    0.000 
#
# Total GULP energy -198288.412285 kJ/mol
# GULP energy per Si atom -12393.025768 kJ/mol
# Density = 2.342739 g / cm^3
# Si number density = 23.480834 Si / 1000 Ang^3
#
#
#
# Elastic Constant Matrix: (Units=GPa)
#
#
# Indices 1 2 3 4 5 6 
#
# 1 61.4100 25.1437 23.6113 1.4216 -9.5818 27.6808
# 2 25.1437 109.1238 33.0182 6.7491 1.5884 18.4700
# 3 23.6113 33.0182 99.0067 -6.5493 -18.6787 20.3323
# 4 1.4216 6.7491 -6.5493 43.8182 6.6998 -4.1654
# 5 -9.5818 1.5884 -18.6787 6.6998 34.9621 -0.8240
# 6 27.6808 18.4700 20.3323 -4.1654 -0.8240 34.5428
#
#
#
# Elastic Compliance Matrix: (Units=1/GPa)
#
#
# Indices 1 2 3 4 5 6 
#
# 1 0.028552 -0.002752 -0.000193 -0.003815 0.008070 -0.021562
# 2 -0.002752 0.011333 -0.003312 -0.001945 -0.002718 -0.002204
# 3 -0.000193 -0.003312 0.013898 0.000924 0.007205 -0.005971
# 4 -0.003815 -0.001945 0.000924 0.024767 -0.005058 0.006419
# 5 0.008070 -0.002718 0.007205 -0.005058 0.035543 -0.009016
# 6 -0.021562 -0.002204 -0.005971 0.006419 -0.009016 0.051481
#
#
# Mechanical properties :
#
#
# Convention : Reuss Voigt Hill
#
# Bulk Modulus (GPa) = 24.23189 48.12076 36.17633
# Shear Modulus (GPa) = 26.06288 35.18244 30.62266
#
# Velocity S-wave (km/s) = 3.33523 3.87505 3.61523
# Velocity P-wave (km/s) = 5.01736 6.36863 5.73295
#
# Compressibility (1/GPa) = 0.04126793
#
# Stress axis : x y z
#
# Youngs Moduli (GPa) = 35.02404 88.23686 71.95526
#
# Poissons Ratio (x) = 0.24285 0.01389
# Poissons Ratio (y) = 0.09640 0.23831
# Poissons Ratio (z) = 0.00676 0.29223
#
# Static dielectric constant tensor:
#      x y z
#    x 4.396100 0.266170 -0.694720 
#    y 0.266170 4.316760 0.138160 
#    z -0.694720 0.138160 5.043800 
# 
# 
# High freq. dielectric constant tensor:
#      x y z
#    x 1.910590 0.026500 -0.014160 
#    y 0.026500 1.918220 0.005560 
#    z -0.014160 0.005560 1.942530 
# 
# From -- ./inp_files/389744.got.cif
#   From: 2010.06.25/outbox.cif.g09.slc.cpg/sg2_195_cif.got.tgz:389744.got - 2010.06.27 13:26:56.
