data_PCOD8013009
_publ_section_title
;
Structure prediction by ZEFSAII (Michael W. Deem and Ramdas Pophale) SiO2 
 PCOD8013009
Probable space group: P -1
;
_chemical_formula_sum "Si O2"
_cell_formula_units_Z 16
_cell_length_a 8.796394
_cell_length_b 19.506473
_cell_length_c 10.577315
_cell_angle_alpha 32.610174
_cell_angle_beta 44.529153
_cell_angle_gamma 50.086498
_cell_volume 681.842564
_symmetry_space_group_name_H-M "P -1"
_symmetry_group_IT_number 2
_symmetry_cell_setting 'triclinic'
loop_
_space_group_symop_operation_xyz
x,y,z
-x,-y,-z
loop_
_atom_site_type_symbol
_atom_site_label
_atom_site_fract_x
_atom_site_fract_y
_atom_site_fract_z
Si Si1 0.665314 0.538080 0.094034
Si Si2 0.781782 0.546228 0.485872
Si Si3 0.662750 0.822626 0.199698
Si Si4 0.108322 0.132148 0.741366
Si Si5 0.556938 0.824315 0.745010
Si Si6 0.920913 0.406593 0.371150
Si Si7 0.231899 0.930537 0.357303
Si Si8 0.780665 0.017974 0.435130
O O1 0.435470 0.493791 0.252718
O O2 0.780703 0.435606 0.282709
O O3 0.605551 0.676427 0.980944
O O4 0.831861 0.553458 0.855203
O O5 0.768310 0.698627 0.257075
O O6 0.795345 0.491536 0.421867
O O7 0.000000 0.500000 0.500000
O O8 0.792175 0.851725 0.204202
O O9 0.406476 0.811753 0.398573
O O10 0.662655 0.936857 0.922515
O O11 0.301158 0.133032 0.523754
O O12 0.930081 0.255679 0.630599
O O13 0.000000 0.000000 0.000000
O O14 0.302367 0.866615 0.792400
O O15 0.612854 0.909647 0.699927
O O16 0.183111 0.913463 0.560408
O O17 0.016104 0.940458 0.381138
#
# Coordination Sequence:
#
# PCOD8013009 Si02
#       8
#     2   2   2   2   2   2   2   2
#     4  10  25  46  70 100 142 181 236 293 331 421
#     4  12  26  45  70 102 140 185 235 282 348 420
#     4  11  24  43  62 100 135 176 226 276 346 405
#     4  11  22  42  71  98 140 178 223 286 346 410
#     4  10  22  40  67  98 133 175 231 275 352 396
#     4  10  24  48  71 106 135 189 238 278 353 408
#     4  10  23  41  64  94 137 171 221 281 342 401
#     4  10  21  40  64  99 127 175 220 282 339 411
#
# _framework density 23.465827000000001
#
# number of rings (size 3 to 8) (size 9 to 14) (size 15 to 20)
#    0.000    1.500    2.500    1.125    3.500    7.500 
#    2.250    0.000    0.000    0.000    0.000    0.000 
#    0.000    0.000    0.000    0.000    0.000    0.000 
#
# Total GULP energy -198305.792083 kJ/mol
# GULP energy per Si atom -12394.112005 kJ/mol
# Density = 2.341242 g / cm^3
# Si number density = 23.465827 Si / 1000 Ang^3
#
#
#
# Elastic Constant Matrix: (Units=GPa)
#
#
# Indices 1 2 3 4 5 6 
#
# 1 98.2393 45.8853 32.7653 -0.2268 -9.2203 -33.4364
# 2 45.8853 123.1972 25.8609 -21.1041 -3.1016 -24.1856
# 3 32.7653 25.8609 79.8905 -9.8683 -5.6409 -10.3764
# 4 -0.2268 -21.1041 -9.8683 34.0353 -11.4969 1.3668
# 5 -9.2203 -3.1016 -5.6409 -11.4969 31.9508 2.9885
# 6 -33.4364 -24.1856 -10.3764 1.3668 2.9885 45.7891
#
#
#
# Elastic Compliance Matrix: (Units=1/GPa)
#
#
# Indices 1 2 3 4 5 6 
#
# 1 0.016924 -0.004105 -0.004780 -0.003692 0.001460 0.009122
# 2 -0.004105 0.011681 -0.000632 0.007727 0.002371 0.002644
# 3 -0.004780 -0.000632 0.015459 0.005171 0.003213 -0.000686
# 4 -0.003692 0.007727 0.005171 0.040781 0.015240 0.000345
# 5 0.001460 0.002371 0.003213 0.015240 0.037990 0.000112
# 6 0.009122 0.002644 -0.000686 0.000345 0.000112 0.029724
#
#
# Mechanical properties :
#
#
# Convention : Reuss Voigt Hill
#
# Bulk Modulus (GPa) = 39.95424 56.70555 48.32990
# Shear Modulus (GPa) = 27.78740 35.47606 31.63173
#
# Velocity S-wave (km/s) = 3.44490 3.89243 3.67548
# Velocity P-wave (km/s) = 5.73469 6.66475 6.21714
#
# Compressibility (1/GPa) = 0.02502863
#
# Stress axis : x y z
#
# Youngs Moduli (GPa) = 59.08751 85.60875 64.68713
#
# Poissons Ratio (x) = 0.35141 0.30923
# Poissons Ratio (y) = 0.24255 0.04091
# Poissons Ratio (z) = 0.28246 0.05415
#
# Static dielectric constant tensor:
#      x y z
#    x 5.270020 -3.756690 -2.129250 
#    y -3.756690 15.451030 6.720540 
#    z -2.129250 6.720540 8.064890 
# 
# 
# High freq. dielectric constant tensor:
#      x y z
#    x 1.928310 -0.024370 -0.000230 
#    y -0.024370 1.944610 0.001320 
#    z -0.000230 0.001320 1.907910 
# 
# From -- ./inp_files/405230.got.cif
#   From: 2010.06.25/outbox.cif.g09.slc.cpg/sg2_203_cif.got.tgz:405230.got - 2010.06.27 13:26:56.
