data_PCOD8013617
_publ_section_title
;
Structure prediction by ZEFSAII (Michael W. Deem and Ramdas Pophale) SiO2 
 PCOD8013617
Probable space group: P -1
;
_chemical_formula_sum "Si O2"
_cell_formula_units_Z 16
_cell_length_a 17.880718
_cell_length_b 13.756184
_cell_length_c 8.744805
_cell_angle_alpha 149.468213
_cell_angle_beta 42.026164
_cell_angle_gamma 139.851203
_cell_volume 680.743166
_symmetry_space_group_name_H-M "P -1"
_symmetry_group_IT_number 2
_symmetry_cell_setting 'triclinic'
loop_
_space_group_symop_operation_xyz
x,y,z
-x,-y,-z
loop_
_atom_site_type_symbol
_atom_site_label
_atom_site_fract_x
_atom_site_fract_y
_atom_site_fract_z
Si Si1 0.335926 0.142050 0.584199
Si Si2 0.389246 0.635066 0.532456
Si Si3 0.431510 0.652901 0.831401
Si Si4 0.813673 0.726463 0.786455
Si Si5 0.226300 0.718646 0.327939
Si Si6 0.859343 0.103522 0.028306
Si Si7 0.336744 0.012514 0.061796
Si Si8 0.006137 0.501803 0.810334
O O1 0.469601 0.308088 0.643843
O O2 0.320582 0.935517 0.418718
O O3 0.317190 0.097762 0.372276
O O4 0.232632 0.220871 0.909476
O O5 0.379085 0.683024 0.789642
O O6 0.307518 0.402446 0.298146
O O7 0.324381 0.776657 0.746913
O O8 0.500000 0.500000 0.500000
O O9 0.529473 0.861300 0.029258
O O10 0.312625 0.582412 0.025713
O O11 0.898786 0.600829 0.522373
O O12 0.890181 0.938241 0.863700
O O13 0.179072 0.742680 0.598367
O O14 0.121259 0.631939 0.247042
O O15 0.963220 0.265066 0.984825
O O16 0.757911 0.959578 0.874266
O O17 0.000000 0.500000 0.000000
#
# Coordination Sequence:
#
# PCOD8013617 Si02
#       8
#     2   2   2   2   2   2   2   2
#     4  10  21  40  70 100 140 182 227 282 339 413
#     4  11  19  41  69 100 143 183 228 268 347 416
#     4  11  22  38  66 104 139 179 228 280 342 415
#     4  11  25  44  70 106 134 179 238 281 344 407
#     4  11  23  44  67 100 142 180 228 291 346 395
#     4  11  26  44  69 105 137 176 235 290 338 412
#     4  11  20  41  69  97 140 188 221 272 351 409
#     4  12  26  48  76  93 136 189 228 290 352 404
#
# _framework density 23.503722
#
# number of rings (size 3 to 8) (size 9 to 14) (size 15 to 20)
#    0.000    1.000    3.750    3.750    0.000    5.000 
#    2.250    3.750    0.000    0.000    0.000    0.000 
#    0.000    0.000    0.000    0.000    0.000    0.000 
#
# Total GULP energy -198268.684240 kJ/mol
# GULP energy per Si atom -12391.792765 kJ/mol
# Density = 2.345023 g / cm^3
# Si number density = 23.503722 Si / 1000 Ang^3
#
#
#
# Elastic Constant Matrix: (Units=GPa)
#
#
# Indices 1 2 3 4 5 6 
#
# 1 56.8179 28.0438 23.0022 1.3840 -0.1041 9.7207
# 2 28.0438 122.0368 30.6823 6.0813 2.1487 3.2349
# 3 23.0022 30.6823 100.1128 -4.2331 -8.0550 13.7164
# 4 1.3840 6.0813 -4.2331 30.0150 0.3601 -2.6316
# 5 -0.1041 2.1487 -8.0550 0.3601 34.7120 0.0591
# 6 9.7207 3.2349 13.7164 -2.6316 0.0591 32.9661
#
#
#
# Elastic Compliance Matrix: (Units=1/GPa)
#
#
# Indices 1 2 3 4 5 6 
#
# 1 0.021704 -0.004001 -0.003185 -0.001052 -0.000407 -0.004765
# 2 -0.004001 0.009814 -0.002413 -0.002037 -0.001160 0.001060
# 3 -0.003185 -0.002413 0.012304 0.002003 0.002981 -0.003789
# 4 -0.001052 -0.002037 0.002003 0.034269 0.000228 0.002412
# 5 -0.000407 -0.001160 0.002981 0.000228 0.029570 -0.001041
# 6 -0.004765 0.001060 -0.003789 0.002412 -0.001041 0.033406
#
#
# Mechanical properties :
#
#
# Convention : Reuss Voigt Hill
#
# Bulk Modulus (GPa) = 40.61105 49.15826 44.88466
# Shear Modulus (GPa) = 29.67806 32.68791 31.18299
#
# Velocity S-wave (km/s) = 3.55730 3.73333 3.64638
# Velocity P-wave (km/s) = 5.84710 6.28841 6.07177
#
# Compressibility (1/GPa) = 0.02462384
#
# Stress axis : x y z
#
# Youngs Moduli (GPa) = 46.07350 101.89247 81.27581
#
# Poissons Ratio (x) = 0.40766 0.25887
# Poissons Ratio (y) = 0.18434 0.19615
# Poissons Ratio (z) = 0.14675 0.24590
#
# Static dielectric constant tensor:
#      x y z
#    x 3.923830 -0.120580 0.035290 
#    y -0.120580 4.575870 -0.005320 
#    z 0.035290 -0.005320 4.291780 
# 
# 
# High freq. dielectric constant tensor:
#      x y z
#    x 1.919210 0.002690 0.003650 
#    y 0.002690 1.936000 0.003330 
#    z 0.003650 0.003330 1.933550 
# 
# From -- ./inp_files/335835.got.cif
#   From: 2010.06.25/outbox.cif.g09.slc.cpg/sg2_168_cif.got.tgz:335835.got - 2010.06.27 13:26:56.
