data_PCOD8013768
_publ_section_title
;
Structure prediction by ZEFSAII (Michael W. Deem and Ramdas Pophale) SiO2 
 PCOD8013768
Probable space group: P -1
;
_chemical_formula_sum "Si O2"
_cell_formula_units_Z 16
_cell_length_a 7.240967
_cell_length_b 8.956978
_cell_length_c 20.009159
_cell_angle_alpha 83.422861
_cell_angle_beta 85.300139
_cell_angle_gamma 35.545987
_cell_volume 749.340013
_symmetry_space_group_name_H-M "P -1"
_symmetry_group_IT_number 2
_symmetry_cell_setting 'triclinic'
loop_
_space_group_symop_operation_xyz
x,y,z
-x,-y,-z
loop_
_atom_site_type_symbol
_atom_site_label
_atom_site_fract_x
_atom_site_fract_y
_atom_site_fract_z
Si Si1 0.601020 0.017790 0.561898
Si Si2 0.659970 0.485119 0.436375
Si Si3 0.652744 0.529605 0.038211
Si Si4 0.410086 0.914763 0.684966
Si Si5 0.441508 0.364843 0.815037
Si Si6 0.332216 0.583405 0.309767
Si Si7 0.696296 0.802583 0.947351
Si Si8 0.691607 0.880432 0.804191
O O1 0.391301 0.305761 0.558890
O O2 0.500000 0.000000 0.500000
O O3 0.525780 0.964312 0.629023
O O4 0.974223 0.805599 0.559857
O O5 0.500000 0.500000 0.500000
O O6 0.522752 0.540242 0.364783
O O7 0.461126 0.686332 0.105455
O O8 0.009834 0.272309 0.066955
O O9 0.500000 0.500000 0.000000
O O10 0.734065 0.606322 0.978228
O O11 0.596976 0.639468 0.676914
O O12 0.500411 0.913314 0.754572
O O13 0.034516 0.138470 0.680370
O O14 0.563944 0.427066 0.766291
O O15 0.064973 0.596705 0.803071
O O16 0.620490 0.104452 0.790884
O O17 0.532499 0.916929 0.874391
O O18 0.500000 0.000000 0.000000
#
# Coordination Sequence:
#
# PCOD8013768 Si02
#       8
#     2   2   2   2   2   2   2   2
#     4  12  24  43  68  96 130 170 214 254 315 376
#     4  12  24  43  68  96 132 169 206 266 312 367
#     4  10  23  39  63  90 126 164 216 265 329 389
#     4  12  25  42  65  96 126 169 211 261 310 383
#     4  11  23  43  62  91 124 168 208 263 319 381
#     4  12  25  42  64  96 130 162 217 258 316 376
#     4  10  21  41  61  90 124 167 210 270 324 393
#     4  11  23  42  65  87 127 166 211 258 325 375
#
# _framework density 21.352125000000001
#
# number of rings (size 3 to 8) (size 9 to 14) (size 15 to 20)
#    0.000    0.750    1.250    6.750    1.750    1.500 
#    0.000    0.000    0.000    0.000    0.000    0.000 
#    0.000    0.000    0.000    0.000    0.000    0.000 
#
# Total GULP energy -198299.098272 kJ/mol
# GULP energy per Si atom -12393.693642 kJ/mol
# Density = 2.130353 g / cm^3
# Si number density = 21.352125 Si / 1000 Ang^3
#
#
#
# Elastic Constant Matrix: (Units=GPa)
#
#
# Indices 1 2 3 4 5 6 
#
# 1 100.2680 14.7616 42.0056 -1.0948 9.2753 4.7621
# 2 14.7616 78.5923 16.0632 -1.1907 5.1985 5.8164
# 3 42.0056 16.0632 128.8384 0.1867 3.4276 -5.5865
# 4 -1.0948 -1.1907 0.1867 29.9917 0.4893 0.7178
# 5 9.2753 5.1985 3.4276 0.4893 57.2433 4.0713
# 6 4.7621 5.8164 -5.5865 0.7178 4.0713 45.4141
#
#
#
# Elastic Compliance Matrix: (Units=1/GPa)
#
#
# Indices 1 2 3 4 5 6 
#
# 1 0.011946 -0.001264 -0.003760 0.000468 -0.001498 -0.001426
# 2 -0.001264 0.013417 -0.001313 0.000548 -0.000820 -0.001682
# 3 -0.003760 -0.001313 0.009224 -0.000288 0.000058 0.001696
# 4 0.000468 0.000548 -0.000288 0.033404 -0.000348 -0.000652
# 5 -0.001498 -0.000820 0.000058 -0.000348 0.017881 -0.001328
# 6 -0.001426 -0.001682 0.001696 -0.000652 -0.001328 0.022723
#
#
# Mechanical properties :
#
#
# Convention : Reuss Voigt Hill
#
# Bulk Modulus (GPa) = 45.63328 50.37327 48.00328
# Shear Modulus (GPa) = 38.88914 42.18771 40.53843
#
# Velocity S-wave (km/s) = 4.27233 4.44983 4.36198
# Velocity P-wave (km/s) = 6.76426 7.07419 6.92096
#
# Compressibility (1/GPa) = 0.02191383
#
# Stress axis : x y z
#
# Youngs Moduli (GPa) = 83.71076 74.53465 108.41744
#
# Poissons Ratio (x) = 0.09418 0.40764
# Poissons Ratio (y) = 0.10577 0.14232
# Poissons Ratio (z) = 0.31474 0.09784
#
# Static dielectric constant tensor:
#      x y z
#    x 3.722120 -0.052550 0.059220 
#    y -0.052550 4.113350 -0.005170 
#    z 0.059220 -0.005170 4.103320 
# 
# 
# High freq. dielectric constant tensor:
#      x y z
#    x 1.835880 0.002750 -0.005090 
#    y 0.002750 1.846030 -0.000430 
#    z -0.005090 -0.000430 1.866600 
# 
# From -- ./inp_files/10755.got.cif
#   From: 2010.06.25/outbox.cif.g09.slc.cpg/sg2_6_cif.got.tgz:10755.got - 2010.06.27 13:26:56.
