data_PCOD8013566
_publ_section_title
;
Structure prediction by ZEFSAII (Michael W. Deem and Ramdas Pophale) SiO2 
 PCOD8013566
Probable space group: P -1
;
_chemical_formula_sum "Si O2"
_cell_formula_units_Z 16
_cell_length_a 8.864502
_cell_length_b 21.103518
_cell_length_c 8.856162
_cell_angle_alpha 58.792342
_cell_angle_beta 84.253486
_cell_angle_gamma 131.962305
_cell_volume 750.202115
_symmetry_space_group_name_H-M "P -1"
_symmetry_group_IT_number 2
_symmetry_cell_setting 'triclinic'
loop_
_space_group_symop_operation_xyz
x,y,z
-x,-y,-z
loop_
_atom_site_type_symbol
_atom_site_label
_atom_site_fract_x
_atom_site_fract_y
_atom_site_fract_z
Si Si1 0.246447 0.031015 0.780888
Si Si2 0.876468 0.297630 0.376109
Si Si3 0.233414 0.691027 0.952610
Si Si4 0.666209 0.993187 0.521065
Si Si5 0.763470 0.450836 0.498580
Si Si6 0.754261 0.805035 0.327797
Si Si7 0.357380 0.575895 0.142075
Si Si8 0.160804 0.261268 0.326315
O O1 0.569199 0.145987 0.660240
O O2 0.197888 0.099270 0.704507
O O3 0.193826 0.979542 0.680740
O O4 0.024756 0.899598 0.077011
O O5 0.825239 0.325231 0.198341
O O6 0.039133 0.416953 0.330043
O O7 0.059234 0.301686 0.315080
O O8 0.448036 0.843614 0.798511
O O9 0.382184 0.673619 0.986509
O O10 0.936048 0.577048 0.214367
O O11 0.911242 0.106187 0.479092
O O12 0.500000 0.000000 0.500000
O O13 0.535247 0.309392 0.599814
O O14 0.594907 0.422615 0.686268
O O15 0.000000 0.500000 0.500000
O O16 0.723371 0.725243 0.546943
O O17 0.588117 0.627539 0.958082
#
# Coordination Sequence:
#
# PCOD8013566 Si02
#       8
#     2   2   2   2   2   2   2   2
#     4  10  22  42  68  92 134 176 217 272 314 387
#     4  11  22  42  63  94 133 177 208 265 331 392
#     4  10  21  40  69  90 124 174 219 266 320 389
#     4  11  22  43  64  94 129 173 217 257 323 393
#     4  10  22  42  65  95 128 165 216 275 324 379
#     4  11  24  41  66 102 130 165 227 270 323 379
#     4  11  23  39  66  97 125 170 225 273 319 378
#     4  12  24  40  64  96 137 172 212 272 323 388
#
# _framework density 21.327586
#
# number of rings (size 3 to 8) (size 9 to 14) (size 15 to 20)
#    0.000    1.250    2.500    5.250    0.000    7.500 
#    2.250    1.250    0.000    0.000    0.000    0.000 
#    0.000    0.000    0.000    0.000    0.000    0.000 
#
# Total GULP energy -198421.536613 kJ/mol
# GULP energy per Si atom -12401.346038 kJ/mol
# Density = 2.127904 g / cm^3
# Si number density = 21.327586 Si / 1000 Ang^3
#
#
#
# Elastic Constant Matrix: (Units=GPa)
#
#
# Indices 1 2 3 4 5 6 
#
# 1 74.2379 14.2738 23.1299 1.8836 -18.5912 -7.6773
# 2 14.2738 109.8537 28.4832 -9.2250 4.1966 7.2252
# 3 23.1299 28.4832 118.8974 4.6631 -25.3394 -7.3047
# 4 1.8836 -9.2250 4.6631 38.8652 -4.0503 -4.0800
# 5 -18.5912 4.1966 -25.3394 -4.0503 21.1644 -4.6834
# 6 -7.6773 7.2252 -7.3047 -4.0800 -4.6834 29.7076
#
#
#
# Elastic Compliance Matrix: (Units=1/GPa)
#
#
# Indices 1 2 3 4 5 6 
#
# 1 0.021442 -0.005464 0.003645 0.001352 0.027252 0.012249
# 2 -0.005464 0.012622 -0.005922 0.001443 -0.015943 -0.008253
# 3 0.003645 -0.005922 0.014948 0.000224 0.024519 0.009954
# 4 0.001352 0.001443 0.000224 0.027284 0.007494 0.004982
# 5 0.027252 -0.015943 0.024519 0.007494 0.113063 0.035803
# 6 0.012249 -0.008253 0.009954 0.004982 0.035803 0.047611
#
#
# Mechanical properties :
#
#
# Convention : Reuss Voigt Hill
#
# Bulk Modulus (GPa) = 29.82409 48.30698 39.06553
# Shear Modulus (GPa) = 18.96607 33.75425 26.36016
#
# Velocity S-wave (km/s) = 2.98531 3.98258 3.51944
# Velocity P-wave (km/s) = 5.08890 6.62171 5.90525
#
# Compressibility (1/GPa) = 0.03352994
#
# Stress axis : x y z
#
# Youngs Moduli (GPa) = 46.63691 79.22916 66.89637
#
# Poissons Ratio (x) = 0.43294 -0.24386
# Poissons Ratio (y) = 0.25484 0.39617
# Poissons Ratio (z) = -0.17000 0.46920
#
# Static dielectric constant tensor:
#      x y z
#    x 3.597910 -0.059950 -0.276620 
#    y -0.059950 4.102110 0.132910 
#    z -0.276620 0.132910 4.346200 
# 
# 
# High freq. dielectric constant tensor:
#      x y z
#    x 1.817270 -0.004510 -0.016090 
#    y -0.004510 1.846580 -0.002720 
#    z -0.016090 -0.002720 1.849420 
# 
# From -- ./inp_files/223426.got.cif
#   From: 2010.06.25/outbox.cif.g09.slc.cpg/sg2_112_cif.got.tgz:223426.got - 2010.06.27 13:26:56.
