data_PCOD8013729
_publ_section_title
;
Structure prediction by ZEFSAII (Michael W. Deem and Ramdas Pophale) SiO2 
 PCOD8013729
Probable space group: P -1
;
_chemical_formula_sum "Si O2"
_cell_formula_units_Z 16
_cell_length_a 5.297010
_cell_length_b 11.464523
_cell_length_c 14.375730
_cell_angle_alpha 117.645934
_cell_angle_beta 101.423185
_cell_angle_gamma 79.974340
_cell_volume 754.612985
_symmetry_space_group_name_H-M "P -1"
_symmetry_group_IT_number 2
_symmetry_cell_setting 'triclinic'
loop_
_space_group_symop_operation_xyz
x,y,z
-x,-y,-z
loop_
_atom_site_type_symbol
_atom_site_label
_atom_site_fract_x
_atom_site_fract_y
_atom_site_fract_z
Si Si1 0.366697 0.693555 0.816324
Si Si2 0.400187 0.469308 0.380897
Si Si3 0.341979 0.974095 0.275850
Si Si4 0.120978 0.644340 0.283960
Si Si5 0.221062 0.531136 0.907903
Si Si6 0.805530 0.781754 0.775435
Si Si7 0.360594 0.690392 0.130628
Si Si8 0.905875 0.931753 0.376480
O O1 0.366966 0.585642 0.692045
O O2 0.400566 0.615823 0.887536
O O3 0.611488 0.779967 0.850181
O O4 0.099955 0.789811 0.832728
O O5 0.500000 0.500000 0.500000
O O6 0.260121 0.604600 0.376569
O O7 0.204985 0.354799 0.334018
O O8 0.373367 0.843971 0.163765
O O9 0.608704 0.985399 0.355590
O O10 0.093516 0.970161 0.322179
O O11 0.293511 0.097522 0.251361
O O12 0.320550 0.685060 0.236339
O O13 0.014439 0.509344 0.187022
O O14 0.915591 0.772072 0.332399
O O15 0.370204 0.394395 0.904994
O O16 0.142999 0.623962 0.027215
O O17 0.000000 0.000000 0.500000
#
# Coordination Sequence:
#
# PCOD8013729 Si02
#       8
#     2   2   2   2   2   2   2   2
#     4  10  21  41  59  90 121 164 205 263 301 370
#     4  10  23  38  61  90 122 166 209 254 313 361
#     4  11  23  44  60  93 127 165 216 254 313 381
#     4  11  21  41  63  93 130 158 215 262 311 384
#     4  11  19  40  64  91 125 158 212 264 328 363
#     4  10  22  40  62  80 130 161 203 254 304 361
#     4  10  22  37  65  93 120 168 200 271 321 372
#     4  11  25  41  63  93 125 171 207 264 313 372
#
# _framework density 21.202921
#
# number of rings (size 3 to 8) (size 9 to 14) (size 15 to 20)
#    0.750    0.750    3.750    1.500    1.750    0.500 
#    2.250    1.250    0.000    0.000    0.000    0.000 
#    0.000    0.000    0.000    0.000    0.000    0.000 
#
# Total GULP energy -198269.278747 kJ/mol
# GULP energy per Si atom -12391.829922 kJ/mol
# Density = 2.115466 g / cm^3
# Si number density = 21.202921 Si / 1000 Ang^3
#
#
#
# Elastic Constant Matrix: (Units=GPa)
#
#
# Indices 1 2 3 4 5 6 
#
# 1 87.8238 23.6137 -6.7871 -2.5696 6.1406 -7.6092
# 2 23.6137 139.5274 20.0900 -8.8009 -4.4827 -1.3882
# 3 -6.7871 20.0900 76.8724 0.0230 4.0657 -1.4781
# 4 -2.5696 -8.8009 0.0230 28.0670 0.1445 4.7258
# 5 6.1406 -4.4827 4.0657 0.1445 24.0655 -2.5198
# 6 -7.6092 -1.3882 -1.4781 4.7258 -2.5198 29.5455
#
#
#
# Elastic Compliance Matrix: (Units=1/GPa)
#
#
# Indices 1 2 3 4 5 6 
#
# 1 0.012747 -0.002551 0.002048 -0.000114 -0.003763 0.002963
# 2 -0.002551 0.008188 -0.002510 0.002419 0.002526 -0.000569
# 3 0.002048 -0.002510 0.014036 -0.000755 -0.003257 0.000955
# 4 -0.000114 0.002419 -0.000755 0.037381 -0.000240 -0.005953
# 5 -0.003763 0.002526 -0.003257 -0.000240 0.043825 0.002763
# 6 0.002963 -0.000569 0.000955 -0.005953 0.002763 0.035818
#
#
# Mechanical properties :
#
#
# Convention : Reuss Voigt Hill
#
# Bulk Modulus (GPa) = 34.54791 42.00631 38.27711
# Shear Modulus (GPa) = 29.82038 34.15607 31.98823
#
# Velocity S-wave (km/s) = 3.75431 4.01797 3.88837
# Velocity P-wave (km/s) = 5.92641 6.43273 6.18476
#
# Compressibility (1/GPa) = 0.02894531
#
# Stress axis : x y z
#
# Youngs Moduli (GPa) = 78.44967 122.12560 71.24379
#
# Poissons Ratio (x) = 0.31152 -0.14591
# Poissons Ratio (y) = 0.20011 0.17885
# Poissons Ratio (z) = -0.16067 0.30659
#
# Static dielectric constant tensor:
#      x y z
#    x 3.758050 0.009290 -0.010270 
#    y 0.009290 3.912320 0.117770 
#    z -0.010270 0.117770 3.756460 
# 
# 
# High freq. dielectric constant tensor:
#      x y z
#    x 1.824100 -0.000370 -0.000520 
#    y -0.000370 1.836980 -0.005010 
#    z -0.000520 -0.005010 1.810200 
# 
# From -- ./inp_files/371592.got.cif
#   From: 2010.06.25/outbox.cif.g09.slc.cpg/sg2_186_cif.got.tgz:371592.got - 2010.06.27 13:26:56.
