data_PCOD8013130
_publ_section_title
;
Structure prediction by ZEFSAII (Michael W. Deem and Ramdas Pophale) SiO2 
 PCOD8013130
Probable space group: P -1
;
_chemical_formula_sum "Si O2"
_cell_formula_units_Z 16
_cell_length_a 9.078286
_cell_length_b 13.301168
_cell_length_c 9.597030
_cell_angle_alpha 122.596794
_cell_angle_beta 130.971469
_cell_angle_gamma 85.713697
_cell_volume 662.753424
_symmetry_space_group_name_H-M "P -1"
_symmetry_group_IT_number 2
_symmetry_cell_setting 'triclinic'
loop_
_space_group_symop_operation_xyz
x,y,z
-x,-y,-z
loop_
_atom_site_type_symbol
_atom_site_label
_atom_site_fract_x
_atom_site_fract_y
_atom_site_fract_z
Si Si1 0.753314 0.662798 0.272569
Si Si2 0.772323 0.247588 0.391809
Si Si3 0.216996 0.843093 0.133603
Si Si4 0.721488 0.443761 0.691629
Si Si5 0.756900 0.712669 0.818780
Si Si6 0.620045 0.802156 0.063266
Si Si7 0.617614 0.039837 0.380604
Si Si8 0.662963 0.384318 0.914072
O O1 0.602142 0.676008 0.312033
O O2 0.007669 0.763778 0.523060
O O3 0.650549 0.689749 0.086569
O O4 0.735636 0.514771 0.151517
O O5 0.838011 0.391345 0.610708
O O6 0.631999 0.234024 0.156042
O O7 0.631908 0.136485 0.334991
O O8 0.365527 0.965015 0.217641
O O9 0.284632 0.724594 0.056462
O O10 0.244126 0.880475 0.342346
O O11 0.962173 0.795716 0.907562
O O12 0.804294 0.599426 0.838883
O O13 0.461545 0.359391 0.457898
O O14 0.785465 0.419556 0.868372
O O15 0.739411 0.812576 0.997802
O O16 0.714007 0.939501 0.310465
#
# Coordination Sequence:
#
# PCOD8013130 Si02
#       8
#     2   2   2   2   2   2   2   2
#     4  11  24  41  67  96 124 165 205 262 328 371
#     4  11  24  42  67  92 125 170 210 258 317 369
#     4  11  23  41  65  89 128 170 208 261 310 368
#     4  10  21  40  65  95 127 155 210 264 311 388
#     4  10  22  39  65  96 122 163 206 262 325 366
#     4  11  23  43  62  95 127 163 213 263 299 379
#     4  11  24  42  62  89 129 169 217 256 298 376
#     4  11  22  42  62  95 129 158 209 262 316 384
#
# _framework density 24.141708999999999
#
# number of rings (size 3 to 8) (size 9 to 14) (size 15 to 20)
#    0.000    1.250    3.750    1.875    0.000    4.000 
#    0.000    3.750    0.000    0.000    0.000    0.000 
#    0.000    0.000    0.000    0.000    0.000    0.000 
#
# Total GULP energy -198363.833838 kJ/mol
# GULP energy per Si atom -12397.739615 kJ/mol
# Density = 2.408676 g / cm^3
# Si number density = 24.141709 Si / 1000 Ang^3
#
#
#
# Elastic Constant Matrix: (Units=GPa)
#
#
# Indices 1 2 3 4 5 6 
#
# 1 87.5032 7.0444 16.2263 8.7724 19.1548 -15.3954
# 2 7.0444 68.1372 15.0508 3.5727 -1.6693 -4.6598
# 3 16.2263 15.0508 48.0089 6.1415 11.2479 -12.0307
# 4 8.7724 3.5727 6.1415 28.4308 -8.7766 -0.3741
# 5 19.1548 -1.6693 11.2479 -8.7766 53.6544 3.6848
# 6 -15.3954 -4.6598 -12.0307 -0.3741 3.6848 33.2830
#
#
#
# Elastic Compliance Matrix: (Units=1/GPa)
#
#
# Indices 1 2 3 4 5 6 
#
# 1 0.015020 -0.000753 -0.000591 -0.006419 -0.006814 0.007311
# 2 -0.000753 0.015943 -0.005224 -0.000070 0.001863 -0.000211
# 3 -0.000591 -0.005224 0.027885 -0.007429 -0.007688 0.009843
# 4 -0.006419 -0.000070 -0.007429 0.042134 0.011180 -0.006429
# 5 -0.006814 0.001863 -0.007688 0.011180 0.025141 -0.008328
# 6 0.007311 -0.000211 0.009843 -0.006429 -0.008328 0.037805
#
#
# Mechanical properties :
#
#
# Convention : Reuss Voigt Hill
#
# Bulk Modulus (GPa) = 21.87599 31.14358 26.50978
# Shear Modulus (GPa) = 26.00099 34.09550 30.04825
#
# Velocity S-wave (km/s) = 3.28535 3.76214 3.53180
# Velocity P-wave (km/s) = 4.84485 5.63915 5.25702
#
# Compressibility (1/GPa) = 0.04571222
#
# Stress axis : x y z
#
# Youngs Moduli (GPa) = 66.57925 62.72383 35.86156
#
# Poissons Ratio (x) = 0.04721 0.02119
# Poissons Ratio (y) = 0.05011 0.18735
# Poissons Ratio (z) = 0.03934 0.32768
#
# Static dielectric constant tensor:
#      x y z
#    x 4.557170 -0.185990 0.120900 
#    y -0.185990 4.129270 0.153450 
#    z 0.120900 0.153450 4.143290 
# 
# 
# High freq. dielectric constant tensor:
#      x y z
#    x 1.972440 -0.011690 0.009270 
#    y -0.011690 1.942260 0.009740 
#    z 0.009270 0.009740 1.942130 
# 
# From -- ./inp_files/399681.got.cif
#   From: 2010.06.25/outbox.cif.g09.slc.cpg/sg2_200_cif.got.tgz:399681.got - 2010.06.27 13:26:56.
