data_PCOD8013705
_publ_section_title
;
Structure prediction by ZEFSAII (Michael W. Deem and Ramdas Pophale) SiO2 
 PCOD8013705
Probable space group: P -1
;
_chemical_formula_sum "Si O2"
_cell_formula_units_Z 16
_cell_length_a 9.241400
_cell_length_b 5.558583
_cell_length_c 20.329304
_cell_angle_alpha 118.519873
_cell_angle_beta 133.901353
_cell_angle_gamma 74.314421
_cell_volume 658.095651
_symmetry_space_group_name_H-M "P -1"
_symmetry_group_IT_number 2
_symmetry_cell_setting 'triclinic'
loop_
_space_group_symop_operation_xyz
x,y,z
-x,-y,-z
loop_
_atom_site_type_symbol
_atom_site_label
_atom_site_fract_x
_atom_site_fract_y
_atom_site_fract_z
Si Si1 0.057848 0.885807 0.402223
Si Si2 0.166740 0.402118 0.297187
Si Si3 0.786316 0.486223 0.104832
Si Si4 0.767990 0.014805 0.941312
Si Si5 0.499814 0.820550 0.712734
Si Si6 0.519787 0.246021 0.089123
Si Si7 0.115239 0.934711 0.754211
Si Si8 0.737393 0.731188 0.381017
O O1 0.195826 0.709717 0.376685
O O2 0.937983 0.698006 0.396188
O O3 0.196567 0.135806 0.510675
O O4 0.887649 0.995323 0.314960
O O5 0.371653 0.332365 0.319928
O O6 0.976044 0.358547 0.181861
O O7 0.105375 0.203774 0.313452
O O8 0.591916 0.496080 0.095062
O O9 0.846216 0.803492 0.149786
O O10 0.732739 0.313625 0.999283
O O11 0.647033 0.990077 0.832176
O O12 0.685559 0.768019 0.934277
O O13 0.000000 0.000000 0.000000
O O14 0.366924 0.572853 0.676166
O O15 0.388702 0.051585 0.669299
O O16 0.699385 0.246069 0.199550
O O17 0.500000 0.000000 0.000000
#
# Coordination Sequence:
#
# PCOD8013705 Si02
#       8
#     2   2   2   2   2   2   2   2
#     4  10  25  47  77 102 137 189 238 299 363 428
#     4  10  23  42  72 103 143 183 239 289 357 433
#     4   9  20  41  63  98 131 183 234 287 343 423
#     4  11  22  41  64  95 142 189 231 285 357 415
#     4  12  28  48  70 109 150 188 236 300 361 426
#     4   9  20  37  62  92 130 173 232 287 334 420
#     4  10  21  40  73  98 134 183 236 291 348 426
#     4  11  29  49  75 108 145 181 243 304 362 425
#
# _framework density 24.312574000000001
#
# number of rings (size 3 to 8) (size 9 to 14) (size 15 to 20)
#    0.000    1.750    1.250    0.750   12.250    4.000 
#    6.750    1.250    0.000    0.000    0.000    0.000 
#    0.000    0.000    0.000    0.000    0.000    0.000 
#
# Total GULP energy -198224.810671 kJ/mol
# GULP energy per Si atom -12389.050667 kJ/mol
# Density = 2.425724 g / cm^3
# Si number density = 24.312574 Si / 1000 Ang^3
#
#
#
# Elastic Constant Matrix: (Units=GPa)
#
#
# Indices 1 2 3 4 5 6 
#
# 1 108.5635 18.8954 21.6778 -8.0219 -1.3176 -1.6278
# 2 18.8954 91.6806 30.0318 -3.4527 -0.4187 9.6353
# 3 21.6778 30.0318 138.7016 4.2015 -23.4985 -0.6582
# 4 -8.0219 -3.4527 4.2015 23.4715 2.5487 2.7162
# 5 -1.3176 -0.4187 -23.4985 2.5487 42.0833 5.9101
# 6 -1.6278 9.6353 -0.6582 2.7162 5.9101 30.1451
#
#
#
# Elastic Compliance Matrix: (Units=1/GPa)
#
#
# Indices 1 2 3 4 5 6 
#
# 1 0.010034 -0.001548 -0.001479 0.003460 -0.000858 0.000861
# 2 -0.001548 0.012662 -0.002766 0.002427 -0.001023 -0.004209
# 3 -0.001479 -0.002766 0.008999 -0.003110 0.005100 0.000281
# 4 0.003460 0.002427 -0.003110 0.045579 -0.003800 -0.004019
# 5 -0.000858 -0.001023 0.005100 -0.003800 0.027456 -0.004648
# 6 0.000861 -0.004209 0.000281 -0.004019 -0.004648 0.035844
#
#
# Mechanical properties :
#
#
# Convention : Reuss Voigt Hill
#
# Bulk Modulus (GPa) = 49.72930 53.35063 51.53997
# Shear Modulus (GPa) = 31.47352 37.02938 34.25145
#
# Velocity S-wave (km/s) = 3.60187 3.90687 3.75746
# Velocity P-wave (km/s) = 6.14789 6.50713 6.33006
#
# Compressibility (1/GPa) = 0.02010887
#
# Stress axis : x y z
#
# Youngs Moduli (GPa) = 99.66053 78.97836 111.11732
#
# Poissons Ratio (x) = 0.12222 0.16436
# Poissons Ratio (y) = 0.15423 0.30740
# Poissons Ratio (z) = 0.14742 0.21849
#
# Static dielectric constant tensor:
#      x y z
#    x 4.624840 0.418430 -0.013210 
#    y 0.418430 4.465720 0.137710 
#    z -0.013210 0.137710 4.635570 
# 
# 
# High freq. dielectric constant tensor:
#      x y z
#    x 1.963190 0.011890 -0.012450 
#    y 0.011890 1.952720 0.005010 
#    z -0.012450 0.005010 1.979830 
# 
# From -- ./inp_files/585894.got.cif
#   From: 2010.06.25/outbox.cif.g09.slc.cpg/sg2_293_cif.got.tgz:585894.got - 2010.06.27 13:26:56.
