data_PCOD8013126
_publ_section_title
;
Structure prediction by ZEFSAII (Michael W. Deem and Ramdas Pophale) SiO2 
 PCOD8013126
Probable space group: P -1
;
_chemical_formula_sum "Si O2"
_cell_formula_units_Z 16
_cell_length_a 15.060653
_cell_length_b 11.464795
_cell_length_c 9.909237
_cell_angle_alpha 110.981425
_cell_angle_beta 106.562867
_cell_angle_gamma 132.801684
_cell_volume 746.096519
_symmetry_space_group_name_H-M "P -1"
_symmetry_group_IT_number 2
_symmetry_cell_setting 'triclinic'
loop_
_space_group_symop_operation_xyz
x,y,z
-x,-y,-z
loop_
_atom_site_type_symbol
_atom_site_label
_atom_site_fract_x
_atom_site_fract_y
_atom_site_fract_z
Si Si1 0.224291 0.969527 0.063155
Si Si2 0.015914 0.534191 0.361778
Si Si3 0.883041 0.608144 0.941936
Si Si4 0.506644 0.292367 0.545103
Si Si5 0.265164 0.298311 0.750209
Si Si6 0.980184 0.770687 0.347616
Si Si7 0.307653 0.843356 0.398007
Si Si8 0.375635 0.340108 0.088076
O O1 0.432534 0.202952 0.321014
O O2 0.236668 0.075690 0.984867
O O3 0.146643 0.743690 0.889938
O O4 0.079850 0.868666 0.060469
O O5 0.227498 0.749584 0.480766
O O6 0.000000 0.500000 0.500000
O O7 0.967710 0.620552 0.344718
O O8 0.709046 0.461100 0.717886
O O9 0.854977 0.424021 0.864126
O O10 0.889106 0.667552 0.117992
O O11 0.527601 0.458352 0.673609
O O12 0.335638 0.020466 0.441242
O O13 0.143432 0.274318 0.638581
O O14 0.472901 0.562930 0.889746
O O15 0.263243 0.291656 0.910613
O O16 0.190971 0.077776 0.567698
O O17 0.500000 0.000000 0.500000
#
# Coordination Sequence:
#
# PCOD8013126 Si02
#       8
#     2   2   2   2   2   2   2   2
#     4  11  24  40  62  97 129 166 205 269 326 381
#     4  11  23  42  67  96 131 171 208 268 334 379
#     4  10  21  40  65  95 124 165 216 265 319 379
#     4  11  21  39  65  95 123 170 215 263 319 380
#     4  10  23  40  64  89 124 170 214 263 312 384
#     4  11  21  42  65  93 122 168 219 259 317 385
#     4   9  20  39  65  93 124 163 214 261 309 386
#     4  11  22  42  60  90 130 167 212 260 322 378
#
# _framework density 21.444946000000002
#
# number of rings (size 3 to 8) (size 9 to 14) (size 15 to 20)
#    0.000    1.500    1.250    4.125    0.000    3.500 
#   11.250    0.625    0.000    0.000    0.000    0.000 
#    0.000    0.000    0.000    0.000    0.000    0.000 
#
# Total GULP energy -198240.650705 kJ/mol
# GULP energy per Si atom -12390.040669 kJ/mol
# Density = 2.139614 g / cm^3
# Si number density = 21.444946 Si / 1000 Ang^3
#
#
#
# Elastic Constant Matrix: (Units=GPa)
#
#
# Indices 1 2 3 4 5 6 
#
# 1 105.6408 65.9724 39.7200 -1.7120 -6.0225 -11.4224
# 2 65.9724 128.7166 29.7142 6.3687 -2.6373 -5.0868
# 3 39.7200 29.7142 104.6056 -3.1103 -4.3887 -0.7343
# 4 -1.7120 6.3687 -3.1103 28.8607 -4.3547 -7.8074
# 5 -6.0225 -2.6373 -4.3887 -4.3547 34.3980 6.1524
# 6 -11.4224 -5.0868 -0.7343 -7.8074 6.1524 25.5869
#
#
#
# Elastic Compliance Matrix: (Units=1/GPa)
#
#
# Indices 1 2 3 4 5 6 
#
# 1 0.016450 -0.007446 -0.003911 0.004197 0.001133 0.006759
# 2 -0.007446 0.011839 -0.000687 -0.003758 -0.000603 -0.001992
# 3 -0.003911 -0.000687 0.011301 0.000883 0.001094 -0.001552
# 4 0.004197 -0.003758 0.000883 0.039699 0.003357 0.012458
# 5 0.001133 -0.000603 0.001094 0.003357 0.030857 -0.005978
# 6 0.006759 -0.001992 -0.001552 0.012458 -0.005978 0.046898
#
#
# Mechanical properties :
#
#
# Convention : Reuss Voigt Hill
#
# Bulk Modulus (GPa) = 64.50705 67.75289 66.12997
# Shear Modulus (GPa) = 26.83853 31.33956 29.08905
#
# Velocity S-wave (km/s) = 3.54150 3.82697 3.68700
# Velocity P-wave (km/s) = 6.84607 7.15472 7.00209
#
# Compressibility (1/GPa) = 0.01550218
#
# Stress axis : x y z
#
# Youngs Moduli (GPa) = 60.79068 84.46979 88.48582
#
# Poissons Ratio (x) = 0.62893 0.34611
# Poissons Ratio (y) = 0.45262 0.06076
# Poissons Ratio (z) = 0.23778 0.05800
#
# Static dielectric constant tensor:
#      x y z
#    x 3.850550 -0.057100 -0.151960 
#    y -0.057100 3.933050 0.201260 
#    z -0.151960 0.201260 3.918740 
# 
# 
# High freq. dielectric constant tensor:
#      x y z
#    x 1.845970 -0.003950 -0.012120 
#    y -0.003950 1.832780 0.016080 
#    z -0.012120 0.016080 1.842000 
# 
# From -- ./inp_files/332193.got.cif
#   From: 2010.06.25/outbox.cif.g09.slc.cpg/sg2_167_cif.got.tgz:332193.got - 2010.06.27 13:26:56.
