data_PCOD8013474
_publ_section_title
;
Structure prediction by ZEFSAII (Michael W. Deem and Ramdas Pophale) SiO2 
 PCOD8013474
Probable space group: P -1
;
_chemical_formula_sum "Si O2"
_cell_formula_units_Z 16
_cell_length_a 8.182579
_cell_length_b 12.641758
_cell_length_c 14.995785
_cell_angle_alpha 150.628886
_cell_angle_beta 111.280478
_cell_angle_gamma 70.559421
_cell_volume 708.466437
_symmetry_space_group_name_H-M "P -1"
_symmetry_group_IT_number 2
_symmetry_cell_setting 'triclinic'
loop_
_space_group_symop_operation_xyz
x,y,z
-x,-y,-z
loop_
_atom_site_type_symbol
_atom_site_label
_atom_site_fract_x
_atom_site_fract_y
_atom_site_fract_z
Si Si1 0.001226 0.301227 0.757397
Si Si2 0.941019 0.908988 0.567458
Si Si3 0.332744 0.454564 0.149342
Si Si4 0.569047 0.833611 0.517245
Si Si5 0.742923 0.654746 0.594030
Si Si6 0.333630 0.153997 0.089898
Si Si7 0.596821 0.703611 0.133830
Si Si8 0.107173 0.804157 0.709391
O O1 0.873854 0.513812 0.894419
O O2 0.963298 0.207791 0.582892
O O3 0.204864 0.343364 0.831226
O O4 0.937134 0.158819 0.723162
O O5 0.745140 0.831123 0.490682
O O6 0.066478 0.865612 0.644551
O O7 0.430058 0.681968 0.331453
O O8 0.353127 0.356645 0.178557
O O9 0.417764 0.290700 0.972648
O O10 0.611767 0.744217 0.558185
O O11 0.483899 0.074042 0.680064
O O12 0.676863 0.751658 0.744625
O O13 0.746641 0.392829 0.403865
O O14 0.937288 0.733105 0.675529
O O15 0.500000 0.000000 0.000000
O O16 0.167491 0.015410 0.928229
O O17 0.500000 0.500000 0.000000
#
# Coordination Sequence:
#
# PCOD8013474 Si02
#       8
#     2   2   2   2   2   2   2   2
#     4  11  23  40  64  94 125 164 211 256 312 374
#     4  10  21  40  68  92 124 168 207 259 314 369
#     4  12  26  42  65  94 128 169 210 260 316 373
#     4  11  24  44  65  93 129 165 211 261 315 376
#     4  10  23  42  67  92 124 169 210 259 317 372
#     4  12  25  40  64  96 128 163 208 262 316 373
#     4  12  26  43  66  94 128 168 210 259 315 375
#     4  10  22  43  65  91 126 166 213 258 310 377
#
# _framework density 22.583993
#
# number of rings (size 3 to 8) (size 9 to 14) (size 15 to 20)
#    0.000    1.000    0.000    6.750    0.000    7.500 
#    0.000    7.500    0.000    0.000    0.000    0.000 
#    0.000    0.000    0.000    0.000    0.000    0.000 
#
# Total GULP energy -198434.413041 kJ/mol
# GULP energy per Si atom -12402.150815 kJ/mol
# Density = 2.253259 g / cm^3
# Si number density = 22.583993 Si / 1000 Ang^3
#
#
#
# Elastic Constant Matrix: (Units=GPa)
#
#
# Indices 1 2 3 4 5 6 
#
# 1 62.8672 27.1234 4.6317 9.2971 2.7694 -3.0581
# 2 27.1234 105.3240 -5.5040 15.5109 -5.5473 8.5540
# 3 4.6317 -5.5040 68.2932 13.0289 -3.3636 2.4875
# 4 9.2971 15.5109 13.0289 33.6725 1.2490 -6.8263
# 5 2.7694 -5.5473 -3.3636 1.2490 40.7938 -4.2658
# 6 -3.0581 8.5540 2.4875 -6.8263 -4.2658 40.6296
#
#
#
# Elastic Compliance Matrix: (Units=1/GPa)
#
#
# Indices 1 2 3 4 5 6 
#
# 1 0.018550 -0.004835 -0.001453 -0.001860 -0.001770 0.002005
# 2 -0.004835 0.012226 0.002744 -0.006232 0.001996 -0.003944
# 3 -0.001453 0.002744 0.016673 -0.007960 0.001792 -0.002857
# 4 -0.001860 -0.006232 -0.007960 0.037814 -0.001716 0.007832
# 5 -0.001770 0.001996 0.001792 -0.001716 0.025283 0.001703
# 6 0.002005 -0.003944 -0.002857 0.007832 0.001703 0.027263
#
#
# Mechanical properties :
#
#
# Convention : Reuss Voigt Hill
#
# Bulk Modulus (GPa) = 24.77591 32.10961 28.44276
# Shear Modulus (GPa) = 31.57511 37.03473 34.30492
#
# Velocity S-wave (km/s) = 3.74320 4.05392 3.90165
# Velocity P-wave (km/s) = 5.44761 6.01341 5.73749
#
# Compressibility (1/GPa) = 0.04036179
#
# Stress axis : x y z
#
# Youngs Moduli (GPa) = 53.90762 81.79107 59.97589
#
# Poissons Ratio (x) = 0.39547 0.08715
# Poissons Ratio (y) = 0.26065 -0.16459
# Poissons Ratio (z) = 0.07833 -0.22445
#
# Static dielectric constant tensor:
#      x y z
#    x 4.106410 0.053980 -0.020350 
#    y 0.053980 4.178400 -0.036790 
#    z -0.020350 -0.036790 4.262700 
# 
# 
# High freq. dielectric constant tensor:
#      x y z
#    x 1.900020 0.004890 0.001100 
#    y 0.004890 1.903860 -0.005780 
#    z 0.001100 -0.005780 1.896970 
# 
# From -- ./inp_files/501260.got.cif
#   From: 2010.06.25/outbox.cif.g09.slc.cpg/sg2_251_cif.got.tgz:501260.got - 2010.06.27 13:26:56.
