data_PCOD8013534
_publ_section_title
;
Structure prediction by ZEFSAII (Michael W. Deem and Ramdas Pophale) SiO2 
 PCOD8013534
Probable space group: P -1
;
_chemical_formula_sum "Si O2"
_cell_formula_units_Z 16
_cell_length_a 15.046796
_cell_length_b 15.155823
_cell_length_c 9.301099
_cell_angle_alpha 105.928914
_cell_angle_beta 86.563563
_cell_angle_gamma 28.787453
_cell_volume 747.374643
_symmetry_space_group_name_H-M "P -1"
_symmetry_group_IT_number 2
_symmetry_cell_setting 'triclinic'
loop_
_space_group_symop_operation_xyz
x,y,z
-x,-y,-z
loop_
_atom_site_type_symbol
_atom_site_label
_atom_site_fract_x
_atom_site_fract_y
_atom_site_fract_z
Si Si1 0.432921 0.982455 0.104627
Si Si2 0.556435 0.676109 0.327831
Si Si3 0.344668 0.073513 0.467064
Si Si4 0.385721 0.756085 0.659407
Si Si5 0.900798 0.821009 0.971413
Si Si6 0.190549 0.767807 0.548954
Si Si7 0.347062 0.709381 0.213994
Si Si8 0.956506 0.444604 0.903651
O O1 0.304755 0.141898 0.335153
O O2 0.245825 0.096586 0.093414
O O3 0.500000 0.000000 0.000000
O O4 0.676490 0.696648 0.003588
O O5 0.387874 0.816139 0.543389
O O6 0.506775 0.646322 0.199670
O O7 0.490444 0.838657 0.346942
O O8 0.839715 0.401692 0.220046
O O9 0.089583 0.309972 0.677388
O O10 0.500000 0.000000 0.500000
O O11 0.242803 0.797593 0.672773
O O12 0.664157 0.465069 0.538652
O O13 0.254168 0.938567 0.878954
O O14 0.942841 0.728870 0.076821
O O15 0.280532 0.714323 0.361536
O O16 0.908823 0.012688 0.702624
O O17 0.500000 0.500000 0.000000
O O18 0.000000 0.500000 0.000000
#
# Coordination Sequence:
#
# PCOD8013534 Si02
#       8
#     2   2   2   2   2   2   2   2
#     4  12  27  43  68 102 129 181 234 277 342 410
#     4  11  24  40  67  98 132 181 225 278 341 406
#     4  12  24  45  72  94 138 184 222 284 347 398
#     4  10  22  42  66  96 135 177 222 284 340 399
#     4  12  24  44  67  99 138 173 234 283 337 406
#     4   9  21  41  65  96 134 175 223 275 340 411
#     4  10  21  40  68  98 135 176 224 274 344 405
#     4  12  23  47  69  91 137 179 223 288 343 401
#
# _framework density 21.408270999999999
#
# number of rings (size 3 to 8) (size 9 to 14) (size 15 to 20)
#    0.000    1.000    5.000    0.750    0.000    5.500 
#    2.250    3.750    0.000    0.000    0.000    0.000 
#    0.000    0.000    0.000    0.000    0.000    0.000 
#
# Total GULP energy -198420.962526 kJ/mol
# GULP energy per Si atom -12401.310158 kJ/mol
# Density = 2.135955 g / cm^3
# Si number density = 21.408271 Si / 1000 Ang^3
#
#
#
# Elastic Constant Matrix: (Units=GPa)
#
#
# Indices 1 2 3 4 5 6 
#
# 1 113.6255 42.2389 44.2800 10.1295 14.7141 -21.5831
# 2 42.2389 111.5120 41.1551 6.9181 7.1190 -20.6181
# 3 44.2800 41.1551 134.2009 1.7037 13.4397 -15.5932
# 4 10.1295 6.9181 1.7037 35.6959 -0.4010 -5.1205
# 5 14.7141 7.1190 13.4397 -0.4010 34.6341 3.3196
# 6 -21.5831 -20.6181 -15.5932 -5.1205 3.3196 46.2254
#
#
#
# Elastic Compliance Matrix: (Units=1/GPa)
#
#
# Indices 1 2 3 4 5 6 
#
# 1 0.012136 -0.002643 -0.002319 -0.002330 -0.004098 0.003742
# 2 -0.002643 0.011452 -0.002202 -0.000931 -0.000682 0.003077
# 3 -0.002319 -0.002202 0.009262 0.000805 -0.002273 0.001312
# 4 -0.002330 -0.000931 0.000805 0.029104 0.001022 0.001919
# 5 -0.004098 -0.000682 -0.002273 0.001022 0.032145 -0.005180
# 6 0.003742 0.003077 0.001312 0.001919 -0.005180 0.025779
#
#
# Mechanical properties :
#
#
# Convention : Reuss Voigt Hill
#
# Bulk Modulus (GPa) = 53.99241 68.29848 61.14544
# Shear Modulus (GPa) = 35.61737 38.75537 37.18637
#
# Velocity S-wave (km/s) = 4.08330 4.25938 4.17227
# Velocity P-wave (km/s) = 6.89247 7.49412 7.19958
#
# Compressibility (1/GPa) = 0.01852112
#
# Stress axis : x y z
#
# Youngs Moduli (GPa) = 82.39732 87.32309 107.97044
#
# Poissons Ratio (x) = 0.23081 0.25039
# Poissons Ratio (y) = 0.21779 0.23777
# Poissons Ratio (z) = 0.19109 0.19230
#
# Static dielectric constant tensor:
#      x y z
#    x 3.829430 -0.088410 -0.000350 
#    y -0.088410 4.055840 -0.008110 
#    z -0.000350 -0.008110 4.113640 
# 
# 
# High freq. dielectric constant tensor:
#      x y z
#    x 1.839390 -0.001510 -0.003370 
#    y -0.001510 1.841690 0.003420 
#    z -0.003370 0.003420 1.849780 
# 
# From -- ./inp_files/315604.got.cif
#   From: 2010.06.25/outbox.cif.g09.slc.cpg/sg2_158_cif.got.tgz:315604.got - 2010.06.27 13:26:56.
