data_PCOD8013824
_publ_section_title
;
Structure prediction by ZEFSAII (Michael W. Deem and Ramdas Pophale) SiO2 
 PCOD8013824
Probable space group: P -1
;
_chemical_formula_sum "Si O2"
_cell_formula_units_Z 14
_cell_length_a 16.199158
_cell_length_b 12.522376
_cell_length_c 14.163672
_cell_angle_alpha 29.780019
_cell_angle_beta 29.485207
_cell_angle_gamma 48.171449
_cell_volume 654.590253
_symmetry_space_group_name_H-M "P -1"
_symmetry_group_IT_number 2
_symmetry_cell_setting 'triclinic'
loop_
_space_group_symop_operation_xyz
x,y,z
-x,-y,-z
loop_
_atom_site_type_symbol
_atom_site_label
_atom_site_fract_x
_atom_site_fract_y
_atom_site_fract_z
Si Si1 0.712800 0.329820 0.078696
Si Si2 0.222883 0.928223 0.371501
Si Si3 0.288993 0.121444 0.651449
Si Si4 0.950844 0.751063 0.620299
Si Si5 0.312629 0.512643 0.208799
Si Si6 0.488001 0.240786 0.714379
Si Si7 0.255996 0.934882 0.024278
O O1 0.499811 0.261639 0.351883
O O2 0.750525 0.093108 0.216173
O O3 0.812409 0.488023 0.946312
O O4 0.792637 0.480841 0.788114
O O5 0.316693 0.775666 0.450357
O O6 0.058229 0.754847 0.607392
O O7 0.152444 0.069493 0.408608
O O8 0.359001 0.114387 0.024703
O O9 0.206052 0.293873 0.550049
O O10 0.201299 0.041679 0.902458
O O11 0.079609 0.823550 0.346912
O O12 0.500000 0.500000 0.000000
O O13 0.343157 0.745920 0.056815
O O14 0.500000 0.500000 0.500000
O O15 0.411904 0.130501 0.774623
#
# Coordination Sequence:
#
# PCOD8013824 Si02
#       7
#     2   2   2   2   2   2   2
#     4   9  19  36  59  85 123 158 203 251 300 365
#     4   9  22  43  62  87 127 163 207 252 312 371
#     4   9  19  36  59  89 118 156 211 249 288 372
#     4  10  21  41  62  90 130 167 195 258 325 359
#     4   9  19  36  58  88 120 160 207 247 296 367
#     4  10  22  40  66  93 116 161 216 258 294 373
#     4  10  22  37  60  91 125 156 208 255 306 363
#
# _framework density 21.387426999999999
#
# number of rings (size 3 to 8) (size 9 to 14) (size 15 to 20)
#    0.000    2.571    0.000    0.857    6.000    4.571 
#    0.000   13.571    0.000    0.000    0.000    0.000 
#    0.000    0.000    0.000    0.000    0.000    0.000 
#
# Total GULP energy -173558.844428 kJ/mol
# GULP energy per Si atom -12397.060316 kJ/mol
# Density = 2.133875 g / cm^3
# Si number density = 21.387427 Si / 1000 Ang^3
#
#
#
# Elastic Constant Matrix: (Units=GPa)
#
#
# Indices 1 2 3 4 5 6 
#
# 1 68.8697 48.2477 39.6880 -25.6717 -8.8588 -4.1713
# 2 48.2477 137.1248 45.4624 -20.4665 -11.1023 6.8929
# 3 39.6880 45.4624 72.4759 -30.6644 -12.4104 4.0533
# 4 -25.6717 -20.4665 -30.6644 40.9831 5.3601 2.3102
# 5 -8.8588 -11.1023 -12.4104 5.3601 44.9977 -8.3213
# 6 -4.1713 6.8929 4.0533 2.3102 -8.3213 35.9813
#
#
#
# Elastic Compliance Matrix: (Units=1/GPa)
#
#
# Indices 1 2 3 4 5 6 
#
# 1 0.026149 -0.005684 -0.007640 0.007330 0.001671 0.004897
# 2 -0.005684 0.010509 -0.003769 -0.001033 0.000161 -0.002144
# 3 -0.007640 -0.003769 0.026492 0.012990 0.002705 -0.003357
# 4 0.007330 -0.001033 0.012990 0.038408 -0.000352 -0.002963
# 5 0.001671 0.000161 0.002705 -0.000352 0.024401 0.005524
# 6 0.004897 -0.002144 -0.003357 -0.002963 0.005524 0.030617
#
#
# Mechanical properties :
#
#
# Convention : Reuss Voigt Hill
#
# Bulk Modulus (GPa) = 34.52579 60.58517 47.55548
# Shear Modulus (GPa) = 24.94796 34.06392 29.50594
#
# Velocity S-wave (km/s) = 3.41908 3.99520 3.71832
# Velocity P-wave (km/s) = 5.63603 7.04778 6.38107
#
# Compressibility (1/GPa) = 0.02896386
#
# Stress axis : x y z
#
# Youngs Moduli (GPa) = 38.24217 95.15803 37.74713
#
# Poissons Ratio (x) = 0.54093 0.28839
# Poissons Ratio (y) = 0.21739 0.14225
# Poissons Ratio (z) = 0.29217 0.35861
#
# Static dielectric constant tensor:
#      x y z
#    x 4.105560 0.052580 0.231250 
#    y 0.052580 3.904790 -0.095870 
#    z 0.231250 -0.095870 3.902920 
# 
# 
# High freq. dielectric constant tensor:
#      x y z
#    x 1.831930 0.008460 0.002570 
#    y 0.008460 1.843710 -0.005700 
#    z 0.002570 -0.005700 1.832360 
# 
# From -- ./inp_files/214861.got.cif
#   From: 2010.06.25/outbox.cif.g09.slc.cpg/sg2_108_cif.got.tgz:214861.got - 2010.06.27 13:26:56.
