data_PCOD8013066
_publ_section_title
;
Structure prediction by ZEFSAII (Michael W. Deem and Ramdas Pophale) SiO2 
 PCOD8013066
Probable space group: P -1
;
_chemical_formula_sum "Si O2"
_cell_formula_units_Z 16
_cell_length_a 13.937697
_cell_length_b 13.922186
_cell_length_c 5.450887
_cell_angle_alpha 79.195206
_cell_angle_beta 95.011541
_cell_angle_gamma 42.798272
_cell_volume 664.594581
_symmetry_space_group_name_H-M "P -1"
_symmetry_group_IT_number 2
_symmetry_cell_setting 'triclinic'
loop_
_space_group_symop_operation_xyz
x,y,z
-x,-y,-z
loop_
_atom_site_type_symbol
_atom_site_label
_atom_site_fract_x
_atom_site_fract_y
_atom_site_fract_z
Si Si1 0.339674 0.188369 0.184034
Si Si2 0.174337 0.630060 0.979691
Si Si3 0.944011 0.138865 0.792938
Si Si4 0.089339 0.174691 0.497988
Si Si5 0.398631 0.932232 0.439459
Si Si6 0.653871 0.381733 0.335997
Si Si7 0.449394 0.379150 0.439700
Si Si8 0.841754 0.676481 0.403413
O O1 0.488002 0.140074 0.269266
O O2 0.236374 0.278608 0.366975
O O3 0.400483 0.029895 0.232842
O O4 0.256575 0.285005 0.868509
O O5 0.269743 0.646996 0.886124
O O6 0.064873 0.663097 0.743348
O O7 0.056780 0.767732 0.074096
O O8 0.293191 0.467583 0.225979
O O9 0.778428 0.243259 0.614111
O O10 0.055909 0.091890 0.631780
O O11 0.000000 0.000000 0.000000
O O12 0.132300 0.226987 0.673057
O O13 0.227844 0.044693 0.415848
O O14 0.459400 0.788599 0.381275
O O15 0.538028 0.382811 0.269046
O O16 0.579465 0.537492 0.359577
O O17 0.000000 0.500000 0.500000
#
# Coordination Sequence:
#
# PCOD8013066 Si02
#       8
#     2   2   2   2   2   2   2   2
#     4  10  25  48  68 110 142 180 238 291 349 429
#     4  10  22  40  60  90 135 167 228 281 326 419
#     4  10  23  38  63  93 133 177 221 287 345 409
#     4  10  25  41  63 102 129 177 232 281 343 426
#     4  10  24  44  69  98 138 183 224 294 349 417
#     4   9  21  40  58  94 126 169 231 275 333 411
#     4  10  21  40  65  91 128 179 223 276 344 408
#     4  11  25  46  77 103 145 185 230 294 356 418
#
# _framework density 24.074828
#
# number of rings (size 3 to 8) (size 9 to 14) (size 15 to 20)
#    0.000    2.000    0.000    0.750    8.750    8.500 
#    4.500    0.000    0.000    0.000    0.000    0.000 
#    0.000    0.000    0.000    0.000    0.000    0.000 
#
# Total GULP energy -198237.856021 kJ/mol
# GULP energy per Si atom -12389.866001 kJ/mol
# Density = 2.402003 g / cm^3
# Si number density = 24.074828 Si / 1000 Ang^3
#
#
#
# Elastic Constant Matrix: (Units=GPa)
#
#
# Indices 1 2 3 4 5 6 
#
# 1 83.0436 20.3079 9.5697 -9.3822 13.4088 -12.0193
# 2 20.3079 94.0244 22.4800 -29.0321 -9.4375 2.9601
# 3 9.5697 22.4800 90.2932 -1.5063 14.3392 -4.2222
# 4 -9.3822 -29.0321 -1.5063 28.1603 1.0976 -4.8270
# 5 13.4088 -9.4375 14.3392 1.0976 28.1300 -7.0905
# 6 -12.0193 2.9601 -4.2222 -4.8270 -7.0905 28.4402
#
#
#
# Elastic Compliance Matrix: (Units=1/GPa)
#
#
# Indices 1 2 3 4 5 6 
#
# 1 0.015127 -0.003570 0.000781 0.002628 -0.007536 0.005448
# 2 -0.003570 0.019558 -0.005844 0.018484 0.010884 0.001439
# 3 0.000781 -0.005844 0.013829 -0.004683 -0.009226 -0.000103
# 4 0.002628 0.018484 -0.004683 0.056610 0.007649 0.010007
# 5 -0.007536 0.010884 -0.009226 0.007649 0.049182 0.007873
# 6 0.005448 0.001439 -0.000103 0.010007 0.007873 0.040960
#
#
# Mechanical properties :
#
#
# Convention : Reuss Voigt Hill
#
# Bulk Modulus (GPa) = 32.00130 41.34183 36.67156
# Shear Modulus (GPa) = 22.42664 31.27965 26.85315
#
# Velocity S-wave (km/s) = 3.05542 3.60845 3.34339
# Velocity P-wave (km/s) = 5.07629 5.87968 5.49270
#
# Compressibility (1/GPa) = 0.03124873
#
# Stress axis : x y z
#
# Youngs Moduli (GPa) = 66.10580 51.12883 72.31013
#
# Poissons Ratio (x) = 0.18255 -0.05648
# Poissons Ratio (y) = 0.23602 0.42257
# Poissons Ratio (z) = -0.05163 0.29879
#
# Static dielectric constant tensor:
#      x y z
#    x 4.272360 -0.240680 0.289010 
#    y -0.240680 4.380500 -0.148760 
#    z 0.289010 -0.148760 4.195910 
# 
# 
# High freq. dielectric constant tensor:
#      x y z
#    x 1.955000 -0.014750 0.016440 
#    y -0.014750 1.953100 -0.013990 
#    z 0.016440 -0.013990 1.944420 
# 
# From -- ./inp_files/97984.got.cif
#   From: 2010.06.25/outbox.cif.g09.slc.cpg/sg2_49_cif.got.tgz:97984.got - 2010.06.27 13:26:56.
