data_PCOD8013507
_publ_section_title
;
Structure prediction by ZEFSAII (Michael W. Deem and Ramdas Pophale) SiO2 
 PCOD8013507
Probable space group: P -1
;
_chemical_formula_sum "Si O2"
_cell_formula_units_Z 16
_cell_length_a 11.059648
_cell_length_b 17.463810
_cell_length_c 22.980744
_cell_angle_alpha 20.387067
_cell_angle_beta 31.385446
_cell_angle_gamma 43.178458
_cell_volume 741.069922
_symmetry_space_group_name_H-M "P -1"
_symmetry_group_IT_number 2
_symmetry_cell_setting 'triclinic'
loop_
_space_group_symop_operation_xyz
x,y,z
-x,-y,-z
loop_
_atom_site_type_symbol
_atom_site_label
_atom_site_fract_x
_atom_site_fract_y
_atom_site_fract_z
Si Si1 0.725670 0.974310 0.389914
Si Si2 0.104597 0.212747 0.975880
Si Si3 0.751823 0.354798 0.947728
Si Si4 0.399296 0.924367 0.460422
Si Si5 0.053165 0.749658 0.271145
Si Si6 0.958396 0.899899 0.457641
Si Si7 0.459106 0.917357 0.888256
Si Si8 0.536031 0.684313 0.473288
O O1 0.571150 0.829603 0.499541
O O2 0.500000 0.000000 0.500000
O O3 0.868472 0.857798 0.456726
O O4 0.944753 0.209904 0.102900
O O5 0.390658 0.402114 0.727528
O O6 0.985486 0.278078 0.920212
O O7 0.113024 0.952353 0.151513
O O8 0.847897 0.637359 0.718327
O O9 0.538324 0.208397 0.186505
O O10 0.646287 0.276475 0.982027
O O11 0.141475 0.911976 0.604717
O O12 0.365878 0.772931 0.523491
O O13 0.816231 0.740959 0.337536
O O14 0.000000 0.500000 0.500000
O O15 0.294604 0.810211 0.088410
O O16 0.255667 0.033976 0.246248
O O17 0.444983 0.170319 0.697570
#
# Coordination Sequence:
#
# PCOD8013507 Si02
#       8
#     2   2   2   2   2   2   2   2
#     4   9  20  41  65  93 136 174 213 261 322 387
#     4  11  23  45  68  95 128 177 219 265 335 377
#     4  10  21  40  68  96 134 169 214 271 320 389
#     4   9  20  43  66  97 136 176 208 267 329 382
#     4  12  28  46  67  92 133 172 222 279 324 390
#     4  11  22  40  66 102 135 169 222 262 320 400
#     4  11  25  43  65 102 128 173 221 269 331 380
#     4  11  23  45  71  93 134 171 220 270 327 393
#
# _framework density 21.590405000000001
#
# number of rings (size 3 to 8) (size 9 to 14) (size 15 to 20)
#    0.000    1.500    5.000    0.750    3.500    4.000 
#    6.750    1.250    0.000    0.000    0.000    0.000 
#    0.000    0.000    0.000    0.000    0.000    0.000 
#
# Total GULP energy -198222.116646 kJ/mol
# GULP energy per Si atom -12388.882290 kJ/mol
# Density = 2.154126 g / cm^3
# Si number density = 21.590405 Si / 1000 Ang^3
#
#
#
# Elastic Constant Matrix: (Units=GPa)
#
#
# Indices 1 2 3 4 5 6 
#
# 1 92.1663 39.3460 47.0149 6.6358 9.7565 -7.7036
# 2 39.3460 79.2319 47.7860 6.9520 -4.4699 -10.6641
# 3 47.0149 47.7860 120.5336 4.6590 -7.6575 -4.5903
# 4 6.6358 6.9520 4.6590 38.1165 -2.4039 1.7961
# 5 9.7565 -4.4699 -7.6575 -2.4039 35.9992 2.9215
# 6 -7.7036 -10.6641 -4.5903 1.7961 2.9215 26.0844
#
#
#
# Elastic Compliance Matrix: (Units=1/GPa)
#
#
# Indices 1 2 3 4 5 6 
#
# 1 0.016473 -0.005245 -0.004577 -0.001888 -0.006440 0.002766
# 2 -0.005245 0.019406 -0.005226 -0.002105 0.002143 0.005370
# 3 -0.004577 -0.005226 0.012281 0.000544 0.003382 -0.001743
# 4 -0.001888 -0.002105 0.000544 0.027201 0.002464 -0.003472
# 5 -0.006440 0.002143 0.003382 0.002464 0.031004 -0.004073
# 6 0.002766 0.005370 -0.001743 -0.003472 -0.004073 0.041738
#
#
# Mechanical properties :
#
#
# Convention : Reuss Voigt Hill
#
# Bulk Modulus (GPa) = 55.35725 62.24728 58.80226
# Shear Modulus (GPa) = 27.14172 30.55899 28.85035
#
# Velocity S-wave (km/s) = 3.54943 3.76626 3.65945
# Velocity P-wave (km/s) = 6.51870 6.91422 6.71937
#
# Compressibility (1/GPa) = 0.01806448
#
# Stress axis : x y z
#
# Youngs Moduli (GPa) = 60.70701 51.53052 81.42888
#
# Poissons Ratio (x) = 0.27029 0.37266
# Poissons Ratio (y) = 0.31843 0.42551
# Poissons Ratio (z) = 0.27783 0.26928
#
# Static dielectric constant tensor:
#      x y z
#    x 4.171740 0.012490 0.147170 
#    y 0.012490 3.743720 0.162510 
#    z 0.147170 0.162510 3.927930 
# 
# 
# High freq. dielectric constant tensor:
#      x y z
#    x 1.855430 -0.005920 0.004040 
#    y -0.005920 1.827650 0.018320 
#    z 0.004040 0.018320 1.846200 
# 
# From -- ./inp_files/610750.got.cif
#   From: 2010.06.25/outbox.cif.g09.slc.cpg/sg2_306_cif.got.tgz:610750.got - 2010.06.27 13:26:56.
