data_PCOD8013900
_publ_section_title
;
Structure prediction by ZEFSAII (Michael W. Deem and Ramdas Pophale) SiO2 
 PCOD8013900
Probable space group: P -1
;
_chemical_formula_sum "Si O2"
_cell_formula_units_Z 14
_cell_length_a 6.372400
_cell_length_b 14.001721
_cell_length_c 9.915448
_cell_angle_alpha 74.258225
_cell_angle_beta 48.703698
_cell_angle_gamma 71.661609
_cell_volume 628.407333
_symmetry_space_group_name_H-M "P -1"
_symmetry_group_IT_number 2
_symmetry_cell_setting 'triclinic'
loop_
_space_group_symop_operation_xyz
x,y,z
-x,-y,-z
loop_
_atom_site_type_symbol
_atom_site_label
_atom_site_fract_x
_atom_site_fract_y
_atom_site_fract_z
Si Si1 0.512702 0.624208 0.334786
Si Si2 0.377486 0.246185 0.996793
Si Si3 0.555308 0.880470 0.522042
Si Si4 0.299368 0.435422 0.436159
Si Si5 0.972409 0.913140 0.852489
Si Si6 0.953851 0.129889 0.855111
Si Si7 0.145852 0.284613 0.364957
O O1 0.681905 0.683059 0.136213
O O2 0.523610 0.511603 0.311352
O O3 0.692760 0.615266 0.399737
O O4 0.187625 0.680131 0.477222
O O5 0.714720 0.226777 0.885853
O O6 0.295593 0.136665 0.049172
O O7 0.202328 0.299959 0.177361
O O8 0.737622 0.842808 0.324193
O O9 0.744038 0.831723 0.589899
O O10 0.235952 0.856740 0.668396
O O11 0.500000 0.000000 0.500000
O O12 0.352157 0.346290 0.337644
O O13 0.000000 0.500000 0.500000
O O14 0.075271 0.892712 0.968921
O O15 0.903969 0.034585 0.819443
#
# Coordination Sequence:
#
# PCOD8013900 Si02
#       7
#     2   2   2   2   2   2   2
#     4  10  23  44  67  95 124 165 212 261 327 383
#     4  12  24  37  65 100 127 165 215 266 319 376
#     4  10  21  41  63  89 130 178 214 255 312 369
#     4   9  22  46  69  90 125 164 209 264 320 393
#     4  10  23  38  59  91 132 170 219 261 306 373
#     4  10  21  42  59  86 131 179 212 259 312 367
#     4  11  23  40  65  96 133 165 212 266 315 377
#
# _framework density 22.278542999999999
#
# number of rings (size 3 to 8) (size 9 to 14) (size 15 to 20)
#    0.000    1.714    2.857    0.429    4.000    0.571 
#    0.000    7.857    0.000    0.000    0.000    0.000 
#    0.000    0.000    0.000    0.000    0.000    0.000 
#
# Total GULP energy -173493.916671 kJ/mol
# GULP energy per Si atom -12392.422619 kJ/mol
# Density = 2.222784 g / cm^3
# Si number density = 22.278543 Si / 1000 Ang^3
#
#
#
# Elastic Constant Matrix: (Units=GPa)
#
#
# Indices 1 2 3 4 5 6 
#
# 1 74.9725 31.8849 29.3105 4.7956 8.4808 -3.7130
# 2 31.8849 74.4740 47.5019 0.2509 12.1403 -8.0541
# 3 29.3105 47.5019 141.1589 -3.8745 -1.7066 0.3129
# 4 4.7956 0.2509 -3.8745 21.1090 -5.4304 11.0927
# 5 8.4808 12.1403 -1.7066 -5.4304 33.6924 1.0913
# 6 -3.7130 -8.0541 0.3129 11.0927 1.0913 38.9271
#
#
#
# Elastic Compliance Matrix: (Units=1/GPa)
#
#
# Indices 1 2 3 4 5 6 
#
# 1 0.017328 -0.005175 -0.002088 -0.006577 -0.003746 0.002578
# 2 -0.005175 0.021714 -0.006488 -0.005353 -0.007901 0.005798
# 3 -0.002088 -0.006488 0.009902 0.005164 0.004301 -0.003213
# 4 -0.006577 -0.005353 0.005164 0.064532 0.014913 -0.020583
# 5 -0.003746 -0.007901 0.004301 0.014913 0.036328 -0.007295
# 6 0.002578 0.005798 -0.003213 -0.020583 -0.007295 0.033230
#
#
# Mechanical properties :
#
#
# Convention : Reuss Voigt Hill
#
# Bulk Modulus (GPa) = 46.63782 56.44444 51.54113
# Shear Modulus (GPa) = 22.96920 30.87291 26.92105
#
# Velocity S-wave (km/s) = 3.21440 3.72663 3.47995
# Velocity P-wave (km/s) = 5.89542 6.62630 6.27151
#
# Compressibility (1/GPa) = 0.02144182
#
# Stress axis : x y z
#
# Youngs Moduli (GPa) = 57.71167 46.05245 100.99088
#
# Poissons Ratio (x) = 0.23833 0.21086
# Poissons Ratio (y) = 0.29867 0.65522
# Poissons Ratio (z) = 0.12050 0.29878
#
# Static dielectric constant tensor:
#      x y z
#    x 3.940340 0.053670 -0.079960 
#    y 0.053670 4.353140 -0.025380 
#    z -0.079960 -0.025380 4.244410 
# 
# 
# High freq. dielectric constant tensor:
#      x y z
#    x 1.861650 -0.010380 0.000240 
#    y -0.010380 1.879080 -0.007490 
#    z 0.000240 -0.007490 1.875070 
# 
# From -- ./inp_files/91144.got.cif
#   From: 2010.06.25/outbox.cif.g09.slc.cpg/sg2_46_cif.got.tgz:91144.got - 2010.06.27 13:26:56.
