data_PCOD8013579
_publ_section_title
;
Structure prediction by ZEFSAII (Michael W. Deem and Ramdas Pophale) SiO2 
 PCOD8013579
Probable space group: P -1
;
_chemical_formula_sum "Si O2"
_cell_formula_units_Z 14
_cell_length_a 12.129394
_cell_length_b 8.881927
_cell_length_c 11.947649
_cell_angle_alpha 57.475993
_cell_angle_beta 112.861590
_cell_angle_gamma 143.215004
_cell_volume 647.618526
_symmetry_space_group_name_H-M "P -1"
_symmetry_group_IT_number 2
_symmetry_cell_setting 'triclinic'
loop_
_space_group_symop_operation_xyz
x,y,z
-x,-y,-z
loop_
_atom_site_type_symbol
_atom_site_label
_atom_site_fract_x
_atom_site_fract_y
_atom_site_fract_z
Si Si1 0.140394 0.531263 0.599480
Si Si2 0.129925 0.948847 0.160671
Si Si3 0.786227 0.586792 0.540279
Si Si4 0.474924 0.637153 0.851757
Si Si5 0.413992 0.963805 0.696251
Si Si6 0.872202 0.948348 0.121959
Si Si7 0.142219 0.945127 0.678459
O O1 0.171828 0.405405 0.576374
O O2 0.332521 0.842362 0.586836
O O3 0.000000 0.500000 0.500000
O O4 0.037474 0.363978 0.741049
O O5 0.069656 0.080478 0.119865
O O6 0.326023 0.125557 0.228645
O O7 0.161058 0.959717 0.034594
O O8 0.946193 0.693558 0.641502
O O9 0.765848 0.778283 0.457291
O O10 0.604392 0.284725 0.633628
O O11 0.440576 0.795541 0.828780
O O12 0.299238 0.390806 0.801915
O O13 0.500000 0.500000 0.000000
O O14 0.272890 0.922236 0.728468
O O15 0.888435 0.072112 0.193965
#
# Coordination Sequence:
#
# PCOD8013579 Si02
#       7
#     2   2   2   2   2   2   2
#     4  12  22  41  69  98 128 169 226 276 322 391
#     4  10  21  40  69  93 126 169 227 271 320 384
#     4  11  24  42  64 100 137 179 219 266 337 400
#     4  10  22  41  70  95 126 171 230 275 323 388
#     4  12  24  41  67  98 137 171 222 280 329 391
#     4  10  21  43  69  93 127 179 220 272 332 387
#     4  11  24  43  63  98 141 176 219 264 341 408
#
# _framework density 21.617664000000001
#
# number of rings (size 3 to 8) (size 9 to 14) (size 15 to 20)
#    0.000    1.143    4.286    1.714    0.000    2.286 
#    0.000    3.571    0.000    0.000    0.000    0.000 
#    0.000    0.000    0.000    0.000    0.000    0.000 
#
# Total GULP energy -173453.269417 kJ/mol
# GULP energy per Si atom -12389.519244 kJ/mol
# Density = 2.156846 g / cm^3
# Si number density = 21.617664 Si / 1000 Ang^3
#
#
#
# Elastic Constant Matrix: (Units=GPa)
#
#
# Indices 1 2 3 4 5 6 
#
# 1 155.6120 63.0782 53.8600 10.0586 11.7701 4.4474
# 2 63.0782 137.5137 47.7303 12.1670 -11.9375 11.2018
# 3 53.8600 47.7303 98.4301 7.3212 -3.8962 -2.0764
# 4 10.0586 12.1670 7.3212 22.6731 -7.6568 -0.1826
# 5 11.7701 -11.9375 -3.8962 -7.6568 41.0508 3.2670
# 6 4.4474 11.2018 -2.0764 -0.1826 3.2670 35.4504
#
#
#
# Elastic Compliance Matrix: (Units=1/GPa)
#
#
# Indices 1 2 3 4 5 6 
#
# 1 0.009522 -0.003266 -0.003594 -0.002849 -0.004555 0.000032
# 2 -0.003266 0.010644 -0.003152 -0.002048 0.003628 -0.003483
# 3 -0.003594 -0.003152 0.013802 -0.000779 0.001108 0.002149
# 4 -0.002849 -0.002048 -0.000779 0.049907 0.009428 0.000347
# 5 -0.004555 0.003628 0.001108 0.009428 0.028833 -0.003119
# 6 0.000032 -0.003483 0.002149 0.000347 -0.003119 0.029720
#
#
# Mechanical properties :
#
#
# Convention : Reuss Voigt Hill
#
# Bulk Modulus (GPa) = 71.71874 80.09920 75.90897
# Shear Modulus (GPa) = 29.92226 34.96066 32.44146
#
# Velocity S-wave (km/s) = 3.72446 4.02584 3.87808
# Velocity P-wave (km/s) = 7.19330 7.66439 7.43258
#
# Compressibility (1/GPa) = 0.01394336
#
# Stress axis : x y z
#
# Youngs Moduli (GPa) = 105.01969 93.94912 72.45472
#
# Poissons Ratio (x) = 0.30686 0.26042
# Poissons Ratio (y) = 0.34302 0.22836
# Poissons Ratio (z) = 0.37747 0.29611
#
# Static dielectric constant tensor:
#      x y z
#    x 4.709100 -0.432570 -1.017650 
#    y -0.432570 5.312020 1.555320 
#    z -1.017650 1.555320 5.791570 
# 
# 
# High freq. dielectric constant tensor:
#      x y z
#    x 1.853710 0.020620 0.021120 
#    y 0.020620 1.853990 -0.001880 
#    z 0.021120 -0.001880 1.837080 
# 
# From -- ./inp_files/416632.got.cif
#   From: 2010.06.25/outbox.cif.g09.slc.cpg/sg2_209_cif.got.tgz:416632.got - 2010.06.27 13:26:56.
