data_PCOD8013124
_publ_section_title
;
Structure prediction by ZEFSAII (Michael W. Deem and Ramdas Pophale) SiO2 
 PCOD8013124
Probable space group: P -1
;
_chemical_formula_sum "Si O2"
_cell_formula_units_Z 16
_cell_length_a 13.523709
_cell_length_b 6.224012
_cell_length_c 9.269992
_cell_angle_alpha 84.255783
_cell_angle_beta 108.924900
_cell_angle_gamma 80.356415
_cell_volume 717.618466
_symmetry_space_group_name_H-M "P -1"
_symmetry_group_IT_number 2
_symmetry_cell_setting 'triclinic'
loop_
_space_group_symop_operation_xyz
x,y,z
-x,-y,-z
loop_
_atom_site_type_symbol
_atom_site_label
_atom_site_fract_x
_atom_site_fract_y
_atom_site_fract_z
Si Si1 0.397809 0.893142 0.964095
Si Si2 0.969676 0.694925 0.086119
Si Si3 0.380748 0.715387 0.277797
Si Si4 0.781655 0.915351 0.498621
Si Si5 0.791855 0.707131 0.222320
Si Si6 0.405355 0.315424 0.505771
Si Si7 0.672789 0.363924 0.295312
Si Si8 0.859035 0.051076 0.795400
O O1 0.398833 0.741256 0.114964
O O2 0.289283 0.081018 0.896141
O O3 0.500000 0.000000 0.000000
O O4 0.405967 0.738329 0.837617
O O5 0.897945 0.630062 0.183559
O O6 0.076688 0.751956 0.201550
O O7 0.000000 0.500000 0.000000
O O8 0.900179 0.911186 0.964259
O O9 0.387663 0.457058 0.339802
O O10 0.470133 0.810653 0.407108
O O11 0.266240 0.851836 0.260324
O O12 0.828189 0.760124 0.397260
O O13 0.674215 0.849298 0.512676
O O14 0.756924 0.170758 0.425388
O O15 0.871573 0.894731 0.668548
O O16 0.736770 0.498968 0.213175
O O17 0.393196 0.480843 0.626187
#
# Coordination Sequence:
#
# PCOD8013124 Si02
#       8
#     2   2   2   2   2   2   2   2
#     4  11  23  41  64  99 136 175 218 267 333 400
#     4  11  27  46  68  99 129 172 234 283 323 395
#     4  11  22  42  66  97 138 177 215 270 333 393
#     4  10  22  43  69  96 136 171 215 278 331 398
#     4  10  23  42  67  96 132 177 218 274 339 390
#     4  10  23  41  64 105 134 173 225 261 330 410
#     4  10  21  40  65  94 138 170 218 270 317 409
#     4  11  25  45  68  96 134 172 225 281 332 386
#
# _framework density 22.295973
#
# number of rings (size 3 to 8) (size 9 to 14) (size 15 to 20)
#    0.000    1.500    2.500    2.250    3.500    4.000 
#    4.500    1.250    0.000    0.000    0.000    0.000 
#    0.000    0.000    0.000    0.000    0.000    0.000 
#
# Total GULP energy -198404.702611 kJ/mol
# GULP energy per Si atom -12400.293913 kJ/mol
# Density = 2.224523 g / cm^3
# Si number density = 22.295973 Si / 1000 Ang^3
#
#
#
# Elastic Constant Matrix: (Units=GPa)
#
#
# Indices 1 2 3 4 5 6 
#
# 1 137.3801 47.0232 50.7053 15.7225 -8.0645 10.9062
# 2 47.0232 80.2495 33.1523 7.5250 4.0133 21.1614
# 3 50.7053 33.1523 119.4015 10.8290 -4.0461 17.3651
# 4 15.7225 7.5250 10.8290 44.4040 13.6516 1.2519
# 5 -8.0645 4.0133 -4.0461 13.6516 33.1105 -1.4186
# 6 10.9062 21.1614 17.3651 1.2519 -1.4186 30.9663
#
#
#
# Elastic Compliance Matrix: (Units=1/GPa)
#
#
# Indices 1 2 3 4 5 6 
#
# 1 0.010737 -0.005519 -0.002827 -0.003619 0.004514 0.001928
# 2 -0.005519 0.019350 -0.001729 0.000839 -0.004699 -0.010559
# 3 -0.002827 -0.001729 0.010797 -0.001652 0.001361 -0.003748
# 4 -0.003619 0.000839 -0.001652 0.027977 -0.012724 -0.000086
# 5 0.004514 -0.004699 0.001361 -0.012724 0.037415 0.003087
# 6 0.001928 -0.010559 -0.003748 -0.000086 0.003087 0.041077
#
#
# Mechanical properties :
#
#
# Convention : Reuss Voigt Hill
#
# Bulk Modulus (GPa) = 48.22579 66.53252 57.37916
# Shear Modulus (GPa) = 28.66759 35.43951 32.05355
#
# Velocity S-wave (km/s) = 3.58966 3.99118 3.79573
# Velocity P-wave (km/s) = 6.23359 7.15156 6.70829
#
# Compressibility (1/GPa) = 0.02073579
#
# Stress axis : x y z
#
# Youngs Moduli (GPa) = 93.13186 51.68023 92.62233
#
# Poissons Ratio (x) = 0.28521 0.26181
# Poissons Ratio (y) = 0.51397 0.16011
# Poissons Ratio (z) = 0.26325 0.08933
#
# Static dielectric constant tensor:
#      x y z
#    x 3.982730 0.197130 -0.048310 
#    y 0.197130 3.931310 -0.075420 
#    z -0.048310 -0.075420 4.374220 
# 
# 
# High freq. dielectric constant tensor:
#      x y z
#    x 1.873470 0.013260 -0.004790 
#    y 0.013260 1.873020 -0.003250 
#    z -0.004790 -0.003250 1.889530 
# 
# From -- ./inp_files/288901.got.cif
#   From: 2010.06.25/outbox.cif.g09.slc.cpg/sg2_145_cif.got.tgz:288901.got - 2010.06.27 13:26:56.
