data_PCOD8013227
_publ_section_title
;
Structure prediction by ZEFSAII (Michael W. Deem and Ramdas Pophale) SiO2 
 PCOD8013227
Probable space group: P -1
;
_chemical_formula_sum "Si O2"
_cell_formula_units_Z 16
_cell_length_a 9.025533
_cell_length_b 15.125862
_cell_length_c 15.376640
_cell_angle_alpha 39.607070
_cell_angle_beta 138.230638
_cell_angle_gamma 142.174220
_cell_volume 768.458748
_symmetry_space_group_name_H-M "P -1"
_symmetry_group_IT_number 2
_symmetry_cell_setting 'triclinic'
loop_
_space_group_symop_operation_xyz
x,y,z
-x,-y,-z
loop_
_atom_site_type_symbol
_atom_site_label
_atom_site_fract_x
_atom_site_fract_y
_atom_site_fract_z
Si Si1 0.254697 0.558261 0.119733
Si Si2 0.535285 0.274551 0.185181
Si Si3 0.889849 0.616750 0.635744
Si Si4 0.476336 0.687949 0.386275
Si Si5 0.938763 0.038186 0.847833
Si Si6 0.532061 0.498088 0.146124
Si Si7 0.581266 0.872376 0.113320
Si Si8 0.947788 0.353427 0.652228
O O1 0.166641 0.499380 0.221506
O O2 0.416651 0.483173 0.203687
O O3 0.424111 0.752161 0.055362
O O4 0.000000 0.500000 0.000000
O O5 0.433841 0.325696 0.187642
O O6 0.802863 0.280422 0.321039
O O7 0.345362 0.095438 0.205627
O O8 0.562710 0.398072 0.028025
O O9 0.755907 0.723077 0.515804
O O10 0.735992 0.503680 0.571598
O O11 0.538617 0.780928 0.253507
O O12 0.338980 0.738936 0.360609
O O13 0.967208 0.212913 0.717842
O O14 0.124579 0.030383 0.863035
O O15 0.000000 0.000000 0.000000
O O16 0.842054 0.582810 0.225810
O O17 0.500000 0.000000 0.000000
O O18 0.000000 0.500000 0.500000
#
# Coordination Sequence:
#
# PCOD8013227 Si02
#       8
#     2   2   2   2   2   2   2   2
#     4  11  21  37  63  95 127 164 218 271 320 393
#     4  11  23  39  67  95 132 170 220 278 331 386
#     4  10  21  40  66  92 126 171 215 273 328 384
#     4  10  23  42  67  92 130 170 223 268 327 401
#     4  12  25  44  67 100 139 172 224 277 336 401
#     4  11  22  39  64  99 128 173 225 270 328 399
#     4  11  25  40  65  98 131 175 217 273 340 389
#     4  12  24  43  70  98 134 181 225 270 334 404
#
# _framework density 20.820896000000001
#
# number of rings (size 3 to 8) (size 9 to 14) (size 15 to 20)
#    0.000    1.000    5.000    1.500    5.250    0.000 
#    0.000    3.125    0.000    0.000    0.000    0.000 
#    0.000    0.000    0.000    0.000    0.000    0.000 
#
# Total GULP energy -198310.766700 kJ/mol
# GULP energy per Si atom -12394.422919 kJ/mol
# Density = 2.077351 g / cm^3
# Si number density = 20.820896 Si / 1000 Ang^3
#
#
#
# Elastic Constant Matrix: (Units=GPa)
#
#
# Indices 1 2 3 4 5 6 
#
# 1 129.5115 33.3740 34.6117 -1.0105 17.5541 4.5901
# 2 33.3740 114.3881 43.8463 7.5432 12.4516 -3.7387
# 3 34.6117 43.8463 101.0901 5.9187 25.0806 6.8168
# 4 -1.0105 7.5432 5.9187 31.0024 5.3210 5.7553
# 5 17.5541 12.4516 25.0806 5.3210 35.1153 1.6212
# 6 4.5901 -3.7387 6.8168 5.7553 1.6212 33.0821
#
#
#
# Elastic Compliance Matrix: (Units=1/GPa)
#
#
# Indices 1 2 3 4 5 6 
#
# 1 0.009092 -0.001889 -0.001575 0.001810 -0.002963 -0.001320
# 2 -0.001889 0.011176 -0.004324 -0.002538 0.000323 0.002842
# 3 -0.001575 -0.004324 0.014451 0.000131 -0.007887 -0.002884
# 4 0.001810 -0.002538 0.000131 0.034971 -0.005102 -0.006399
# 5 -0.002963 0.000323 -0.007887 -0.005102 0.036196 0.001187
# 6 -0.001320 0.002842 -0.002884 -0.006399 0.001187 0.032381
#
#
# Mechanical properties :
#
#
# Convention : Reuss Voigt Hill
#
# Bulk Modulus (GPa) = 52.24083 63.18375 57.71229
# Shear Modulus (GPa) = 31.20661 35.38379 33.29520
#
# Velocity S-wave (km/s) = 3.87565 4.12689 4.00324
# Velocity P-wave (km/s) = 6.72106 7.28838 7.01046
#
# Compressibility (1/GPa) = 0.01914211
#
# Stress axis : x y z
#
# Youngs Moduli (GPa) = 109.99165 89.48016 69.20161
#
# Poissons Ratio (x) = 0.16900 0.10902
# Poissons Ratio (y) = 0.20774 0.29921
# Poissons Ratio (z) = 0.17328 0.38689
#
# Static dielectric constant tensor:
#      x y z
#    x 3.648540 0.497330 0.397400 
#    y 0.497330 2.907720 -0.016360 
#    z 0.397400 -0.016360 3.701400 
# 
# 
# High freq. dielectric constant tensor:
#      x y z
#    x 1.832680 -0.002780 0.012590 
#    y -0.002780 1.796110 0.013900 
#    z 0.012590 0.013900 1.806920 
# 
# From -- ./inp_files/271164.got.cif
#   From: 2010.06.25/outbox.cif.g09.slc.cpg/sg2_136_cif.got.tgz:271164.got - 2010.06.27 13:26:56.
