data_PCOD8013851
_publ_section_title
;
Structure prediction by ZEFSAII (Michael W. Deem and Ramdas Pophale) SiO2 
 PCOD8013851
Probable space group: P -1
;
_chemical_formula_sum "Si O2"
_cell_formula_units_Z 14
_cell_length_a 16.400458
_cell_length_b 12.246673
_cell_length_c 17.186232
_cell_angle_alpha 32.664915
_cell_angle_beta 157.126561
_cell_angle_gamma 135.044287
_cell_volume 685.080226
_symmetry_space_group_name_H-M "P -1"
_symmetry_group_IT_number 2
_symmetry_cell_setting 'triclinic'
loop_
_space_group_symop_operation_xyz
x,y,z
-x,-y,-z
loop_
_atom_site_type_symbol
_atom_site_label
_atom_site_fract_x
_atom_site_fract_y
_atom_site_fract_z
Si Si1 0.268522 0.783727 0.672049
Si Si2 0.683963 0.447333 0.303179
Si Si3 0.576173 0.773384 0.243938
Si Si4 0.764693 0.757429 0.582801
Si Si5 0.017124 0.462909 0.362151
Si Si6 0.738481 0.501707 0.854924
Si Si7 0.381451 0.250020 0.246982
O O1 0.226381 0.730421 0.577985
O O2 0.101467 0.716053 0.622423
O O3 0.218714 0.035116 0.482942
O O4 0.523543 0.663968 0.992699
O O5 0.888817 0.492190 0.499121
O O6 0.555597 0.364436 0.305748
O O7 0.603635 0.820049 0.330260
O O8 0.797509 0.619552 0.491112
O O9 0.387258 0.664969 0.136263
O O10 0.500000 0.000000 0.000000
O O11 0.668027 0.619114 0.639726
O O12 0.002648 0.621817 0.841647
O O13 0.833497 0.681151 0.039988
O O14 0.690693 0.683539 0.768751
O O15 0.500000 0.000000 0.500000
#
# Coordination Sequence:
#
# PCOD8013851 Si02
#       7
#     2   2   2   2   2   2   2
#     4  10  22  39  65  94 128 171 210 266 327 380
#     4  10  21  41  62  94 131 162 219 271 314 386
#     4  12  24  40  69  98 131 170 213 265 325 385
#     4  11  24  42  65  93 132 173 213 264 325 379
#     4  11  22  39  64  96 127 165 222 268 317 386
#     4  11  24  44  62  94 135 168 219 265 316 390
#     4  11  23  41  65  90 127 175 215 267 325 378
#
# _framework density 20.435562000000001
#
# number of rings (size 3 to 8) (size 9 to 14) (size 15 to 20)
#    0.000    1.143    2.857    3.429    2.000    1.714 
#    0.000    2.857    0.000    0.000    0.000    0.000 
#    0.000    0.000    0.000    0.000    0.000    0.000 
#
# Total GULP energy -173667.830639 kJ/mol
# GULP energy per Si atom -12404.845046 kJ/mol
# Density = 2.038905 g / cm^3
# Si number density = 20.435562 Si / 1000 Ang^3
#
#
#
# Elastic Constant Matrix: (Units=GPa)
#
#
# Indices 1 2 3 4 5 6 
#
# 1 106.1754 40.5141 40.7095 -4.1510 -2.2009 -7.7808
# 2 40.5141 107.1370 52.6846 -7.5927 -6.2066 -8.6235
# 3 40.7095 52.6846 103.9989 -9.2426 -15.5517 -0.2914
# 4 -4.1510 -7.5927 -9.2426 39.9738 -7.5241 -1.1062
# 5 -2.2009 -6.2066 -15.5517 -7.5241 34.6222 1.3019
# 6 -7.7808 -8.6235 -0.2914 -1.1062 1.3019 38.7749
#
#
#
# Elastic Compliance Matrix: (Units=1/GPa)
#
#
# Indices 1 2 3 4 5 6 
#
# 1 0.011897 -0.002734 -0.003512 -0.000319 -0.001448 0.001792
# 2 -0.002734 0.013401 -0.005652 0.000987 -0.000187 0.002424
# 3 -0.003512 -0.005652 0.015072 0.003178 0.006298 -0.001969
# 4 -0.000319 0.000987 0.003178 0.027336 0.007498 0.000707
# 5 -0.001448 -0.000187 0.006298 0.007498 0.033261 -0.001188
# 6 0.001792 0.002424 -0.001969 0.000707 -0.001188 0.026734
#
#
# Mechanical properties :
#
#
# Convention : Reuss Voigt Hill
#
# Bulk Modulus (GPa) = 60.33415 65.01420 62.67418
# Shear Modulus (GPa) = 31.84251 34.90105 33.37178
#
# Velocity S-wave (km/s) = 3.95168 4.13711 4.04545
# Velocity P-wave (km/s) = 7.09994 7.39623 7.24960
#
# Compressibility (1/GPa) = 0.01657436
#
# Stress axis : x y z
#
# Youngs Moduli (GPa) = 84.05471 74.61889 66.34738
#
# Poissons Ratio (x) = 0.20402 0.23299
# Poissons Ratio (y) = 0.22982 0.37501
# Poissons Ratio (z) = 0.29518 0.42176
#
# Static dielectric constant tensor:
#      x y z
#    x 3.949750 -0.001190 -0.010080 
#    y -0.001190 3.580650 0.039640 
#    z -0.010080 0.039640 3.711660 
# 
# 
# High freq. dielectric constant tensor:
#      x y z
#    x 1.819540 -0.003520 -0.000760 
#    y -0.003520 1.794720 0.001940 
#    z -0.000760 0.001940 1.797730 
# 
# From -- ./inp_files/27082.got.cif
#   From: 2010.06.25/outbox.cif.g09.slc.cpg/sg2_14_cif.got.tgz:27082.got - 2010.06.27 13:26:56.
