data_PCOD8013808
_publ_section_title
;
Structure prediction by ZEFSAII (Michael W. Deem and Ramdas Pophale) SiO2 
 PCOD8013808
Probable space group: P -1
;
_chemical_formula_sum "Si O2"
_cell_formula_units_Z 16
_cell_length_a 8.380231
_cell_length_b 16.983892
_cell_length_c 16.930004
_cell_angle_alpha 157.308315
_cell_angle_beta 74.199811
_cell_angle_gamma 91.624635
_cell_volume 715.307965
_symmetry_space_group_name_H-M "P -1"
_symmetry_group_IT_number 2
_symmetry_cell_setting 'triclinic'
loop_
_space_group_symop_operation_xyz
x,y,z
-x,-y,-z
loop_
_atom_site_type_symbol
_atom_site_label
_atom_site_fract_x
_atom_site_fract_y
_atom_site_fract_z
Si Si1 0.552475 0.515857 0.825633
Si Si2 0.257498 0.991292 0.407185
Si Si3 0.188697 0.481331 0.807856
Si Si4 0.138863 0.530553 0.682331
Si Si5 0.120149 0.980039 0.581969
Si Si6 0.211810 0.466214 0.330473
Si Si7 0.103225 0.994891 0.062121
Si Si8 0.541149 0.705237 0.702287
O O1 0.375165 0.502051 0.803374
O O2 0.737119 0.240413 0.578585
O O3 0.629553 0.595963 0.817282
O O4 0.464477 0.735842 0.107212
O O5 0.261368 0.943450 0.455501
O O6 0.252500 0.238303 0.625536
O O7 0.054155 0.049906 0.448556
O O8 0.149681 0.436400 0.682103
O O9 0.980629 0.741261 0.109614
O O10 0.331530 0.292937 0.386596
O O11 0.917769 0.638889 0.772989
O O12 0.160748 0.758334 0.889239
O O13 0.329856 0.345648 0.283963
O O14 0.046223 0.767669 0.642713
O O15 0.312138 0.971812 0.991266
O O16 0.000000 0.000000 0.000000
O O17 0.500000 0.500000 0.500000
#
# Coordination Sequence:
#
# PCOD8013808 Si02
#       8
#     2   2   2   2   2   2   2   2
#     4  11  24  40  66  97 133 170 216 270 326 386
#     4  10  23  43  67  97 131 171 215 267 327 394
#     4  11  24  41  65  98 132 171 217 270 325 387
#     4  11  24  42  62  92 128 165 219 264 320 383
#     4  10  22  44  68  95 132 170 215 269 327 390
#     4  12  24  42  63  91 129 167 216 266 322 380
#     4  11  23  41  65  87 122 169 210 267 324 374
#     4  10  21  41  62  89 122 162 211 261 312 380
#
# _framework density 22.367989999999999
#
# number of rings (size 3 to 8) (size 9 to 14) (size 15 to 20)
#    0.000    1.250    2.500    4.125    0.000    7.000 
#    0.000    0.000    0.000    0.000    0.000    0.000 
#    0.000    0.000    0.000    0.000    0.000    0.000 
#
# Total GULP energy -198435.611204 kJ/mol
# GULP energy per Si atom -12402.225700 kJ/mol
# Density = 2.231708 g / cm^3
# Si number density = 22.367990 Si / 1000 Ang^3
#
#
#
# Elastic Constant Matrix: (Units=GPa)
#
#
# Indices 1 2 3 4 5 6 
#
# 1 81.3373 18.8975 32.2186 -15.0349 -6.9323 -1.1555
# 2 18.8975 85.3212 30.0634 -25.0891 4.3333 3.6929
# 3 32.2186 30.0634 124.9560 -14.6828 -5.3572 13.4382
# 4 -15.0349 -25.0891 -14.6828 44.0938 4.4395 -5.0463
# 5 -6.9323 4.3333 -5.3572 4.4395 30.5824 -0.7113
# 6 -1.1555 3.6929 13.4382 -5.0463 -0.7113 38.1994
#
#
#
# Elastic Compliance Matrix: (Units=1/GPa)
#
#
# Indices 1 2 3 4 5 6 
#
# 1 0.014727 -0.001438 -0.003207 0.003125 0.002577 0.002174
# 2 -0.001438 0.015486 -0.002642 0.007897 -0.004121 0.000355
# 3 -0.003207 -0.002642 0.009895 0.000195 0.001276 -0.003273
# 4 0.003125 0.007897 0.000195 0.029105 -0.004531 0.003023
# 5 0.002577 -0.004121 0.001276 -0.004531 0.034750 0.000076
# 6 0.002174 0.000355 -0.003273 0.003023 0.000076 0.027762
#
#
# Mechanical properties :
#
#
# Convention : Reuss Voigt Hill
#
# Bulk Modulus (GPa) = 39.16415 50.44150 44.80283
# Shear Modulus (GPa) = 32.29758 36.60412 34.45085
#
# Velocity S-wave (km/s) = 3.80402 4.04970 3.92878
# Velocity P-wave (km/s) = 6.06969 6.66831 6.37603
#
# Compressibility (1/GPa) = 0.02553356
#
# Stress axis : x y z
#
# Youngs Moduli (GPa) = 67.90176 64.57501 101.06033
#
# Poissons Ratio (x) = 0.09285 0.32414
# Poissons Ratio (y) = 0.09763 0.26700
# Poissons Ratio (z) = 0.21779 0.17061
#
# Static dielectric constant tensor:
#      x y z
#    x 4.211100 0.228560 -0.163410 
#    y 0.228560 3.934120 -0.181460 
#    z -0.163410 -0.181460 4.374900 
# 
# 
# High freq. dielectric constant tensor:
#      x y z
#    x 1.889920 0.004970 -0.003620 
#    y 0.004970 1.880780 -0.009300 
#    z -0.003620 -0.009300 1.892270 
# 
# From -- ./inp_files/505750.got.cif
#   From: 2010.06.25/outbox.cif.g09.slc.cpg/sg2_253_cif.got.tgz:505750.got - 2010.06.27 13:26:56.
