data_PCOD8013115
_publ_section_title
;
Structure prediction by ZEFSAII (Michael W. Deem and Ramdas Pophale) SiO2 
 PCOD8013115
Probable space group: P -1
;
_chemical_formula_sum "Si O2"
_cell_formula_units_Z 16
_cell_length_a 10.358737
_cell_length_b 10.137275
_cell_length_c 11.829819
_cell_angle_alpha 53.660613
_cell_angle_beta 68.412811
_cell_angle_gamma 50.810767
_cell_volume 775.526336
_symmetry_space_group_name_H-M "P -1"
_symmetry_group_IT_number 2
_symmetry_cell_setting 'triclinic'
loop_
_space_group_symop_operation_xyz
x,y,z
-x,-y,-z
loop_
_atom_site_type_symbol
_atom_site_label
_atom_site_fract_x
_atom_site_fract_y
_atom_site_fract_z
Si Si1 0.627974 0.823767 0.470222
Si Si2 0.597203 0.298367 0.506515
Si Si3 0.791639 0.301968 0.227601
Si Si4 0.651930 0.133418 0.196553
Si Si5 0.178477 0.395844 0.049936
Si Si6 0.821710 0.130539 0.932683
Si Si7 0.825110 0.960950 0.775656
Si Si8 0.728507 0.560039 0.766618
O O1 0.535062 0.751203 0.461608
O O2 0.761593 0.650822 0.598786
O O3 0.500000 0.000000 0.500000
O O4 0.709171 0.910083 0.321284
O O5 0.500000 0.500000 0.500000
O O6 0.683821 0.324192 0.358394
O O7 0.735189 0.131891 0.627105
O O8 0.773232 0.177972 0.199817
O O9 0.986270 0.184320 0.255290
O O10 0.724915 0.520765 0.089373
O O11 0.462450 0.299479 0.203037
O O12 0.681824 0.135416 0.052767
O O13 0.264169 0.160945 0.130264
O O14 0.156690 0.456619 0.158394
O O15 0.000000 0.500000 0.000000
O O16 0.771856 0.350583 0.819920
O O17 0.818639 0.043973 0.858191
O O18 0.000000 0.000000 0.000000
#
# Coordination Sequence:
#
# PCOD8013115 Si02
#       8
#     2   2   2   2   2   2   2   2
#     4  10  21  40  65  94 124 162 214 260 303 374
#     4  12  25  43  64  95 132 162 210 263 315 374
#     4  11  22  43  66  91 127 167 211 257 314 380
#     4  11  22  40  69  96 121 165 221 257 306 374
#     4  10  22  40  61  97 126 166 208 259 316 374
#     4  12  23  41  63  96 128 162 214 261 306 377
#     4  11  24  41  65  93 128 170 203 261 324 365
#     4  11  21  40  68  90 124 170 211 257 314 369
#
# _framework density 20.631150000000002
#
# number of rings (size 3 to 8) (size 9 to 14) (size 15 to 20)
#    0.000    1.000    5.000    3.750    0.000    1.000 
#    0.000    2.500    0.000    0.000    0.000    0.000 
#    0.000    0.000    0.000    0.000    0.000    0.000 
#
# Total GULP energy -198376.076970 kJ/mol
# GULP energy per Si atom -12398.504811 kJ/mol
# Density = 2.058419 g / cm^3
# Si number density = 20.631150 Si / 1000 Ang^3
#
#
#
# Elastic Constant Matrix: (Units=GPa)
#
#
# Indices 1 2 3 4 5 6 
#
# 1 80.5164 20.1127 36.8056 -6.2975 -4.4628 27.3324
# 2 20.1127 85.9814 35.4340 -6.7324 -16.8414 25.8219
# 3 36.8056 35.4340 125.1149 -15.0306 -12.0742 18.8361
# 4 -6.2975 -6.7324 -15.0306 35.8735 9.8493 3.1111
# 5 -4.4628 -16.8414 -12.0742 9.8493 35.8648 -5.1590
# 6 27.3324 25.8219 18.8361 3.1111 -5.1590 41.2325
#
#
#
# Elastic Compliance Matrix: (Units=1/GPa)
#
#
# Indices 1 2 3 4 5 6 
#
# 1 0.017742 0.000582 -0.003487 0.003005 -0.001086 -0.010895
# 2 0.000582 0.016439 -0.002834 0.001339 0.005199 -0.008836
# 3 -0.003487 -0.002834 0.010383 0.003062 0.000776 -0.000791
# 4 0.003005 0.001339 0.003062 0.032829 -0.008092 -0.007719
# 5 -0.001086 0.005199 0.000776 -0.008092 0.032937 0.001841
# 6 -0.010895 -0.008836 -0.000791 -0.007719 0.001841 0.038182
#
#
# Mechanical properties :
#
#
# Convention : Reuss Voigt Hill
#
# Bulk Modulus (GPa) = 30.22579 52.92415 41.57497
# Shear Modulus (GPa) = 29.23633 35.87820 32.55726
#
# Velocity S-wave (km/s) = 3.76852 4.17469 3.97679
# Velocity P-wave (km/s) = 5.79810 6.99612 6.42509
#
# Compressibility (1/GPa) = 0.03308433
#
# Stress axis : x y z
#
# Youngs Moduli (GPa) = 56.36364 60.83005 96.31191
#
# Poissons Ratio (x) = -0.03538 0.33589
# Poissons Ratio (y) = -0.03278 0.27294
# Poissons Ratio (z) = 0.19657 0.17239
#
# Static dielectric constant tensor:
#      x y z
#    x 3.311520 0.114280 0.155290 
#    y 0.114280 3.747600 -0.239450 
#    z 0.155290 -0.239450 4.466560 
# 
# 
# High freq. dielectric constant tensor:
#      x y z
#    x 1.804110 0.022730 0.005540 
#    y 0.022730 1.796840 -0.014980 
#    z 0.005540 -0.014980 1.832240 
# 
# From -- ./inp_files/381347.got.cif
#   From: 2010.06.25/outbox.cif.g09.slc.cpg/sg2_191_cif.got.tgz:381347.got - 2010.06.27 13:26:56.
