data_PCOD8013591
_publ_section_title
;
Structure prediction by ZEFSAII (Michael W. Deem and Ramdas Pophale) SiO2 
 PCOD8013591
Probable space group: P -1
;
_chemical_formula_sum "Si O2"
_cell_formula_units_Z 14
_cell_length_a 15.323272
_cell_length_b 9.002279
_cell_length_c 9.344324
_cell_angle_alpha 61.792039
_cell_angle_beta 77.919319
_cell_angle_gamma 34.227482
_cell_volume 594.543311
_symmetry_space_group_name_H-M "P -1"
_symmetry_group_IT_number 2
_symmetry_cell_setting 'triclinic'
loop_
_space_group_symop_operation_xyz
x,y,z
-x,-y,-z
loop_
_atom_site_type_symbol
_atom_site_label
_atom_site_fract_x
_atom_site_fract_y
_atom_site_fract_z
Si Si1 0.299986 0.180500 0.881316
Si Si2 0.050925 0.757950 0.508117
Si Si3 0.645582 0.744337 0.883433
Si Si4 0.131533 0.270005 0.435346
Si Si5 0.058601 0.287942 0.949867
Si Si6 0.807561 0.288456 0.777544
Si Si7 0.522392 0.142761 0.501865
O O1 0.220136 0.413623 0.673182
O O2 0.232686 0.096375 0.927974
O O3 0.499293 0.856845 0.943015
O O4 0.249678 0.348553 0.975644
O O5 0.086136 0.744057 0.335225
O O6 0.893440 0.884817 0.530200
O O7 0.000000 0.000000 0.500000
O O8 0.760049 0.449592 0.872186
O O9 0.557512 0.047204 0.699915
O O10 0.000000 0.500000 0.500000
O O11 0.085438 0.472319 0.230802
O O12 0.318944 0.006087 0.545333
O O13 0.000000 0.500000 0.000000
O O14 0.083523 0.052163 0.082455
O O15 0.646458 0.487463 0.646628
O O16 0.500000 0.000000 0.500000
#
# Coordination Sequence:
#
# PCOD8013591 Si02
#       7
#     2   2   2   2   2   2   2
#     4  10  22  42  64  95 138 173 218 284 336 399
#     4  11  24  44  66  98 136 180 225 282 338 405
#     4  10  21  40  69  96 130 176 224 276 341 394
#     4  11  24  43  70  97 135 178 222 278 342 402
#     4  11  25  45  65  97 140 177 223 284 344 400
#     4  11  23  43  74  98 133 182 231 277 338 411
#     4  10  21  41  69 101 134 171 228 283 333 401
#
# _framework density 23.547485000000002
#
# number of rings (size 3 to 8) (size 9 to 14) (size 15 to 20)
#    0.000    1.429    1.429    4.286    6.000    1.714 
#    5.143   11.429    0.000    0.000    0.000    0.000 
#    0.000    0.000    0.000    0.000    0.000    0.000 
#
# Total GULP energy -173551.800931 kJ/mol
# GULP energy per Si atom -12396.557209 kJ/mol
# Density = 2.349389 g / cm^3
# Si number density = 23.547485 Si / 1000 Ang^3
#
#
#
# Elastic Constant Matrix: (Units=GPa)
#
#
# Indices 1 2 3 4 5 6 
#
# 1 128.8130 24.2563 40.0369 -17.7743 6.8240 -12.4879
# 2 24.2563 82.7035 33.5459 7.8404 -4.6827 9.7281
# 3 40.0369 33.5459 117.1901 3.1856 -18.0803 9.3341
# 4 -17.7743 7.8404 3.1856 37.4565 3.2692 5.4638
# 5 6.8240 -4.6827 -18.0803 3.2692 32.3729 -4.5625
# 6 -12.4879 9.7281 9.3341 5.4638 -4.5625 40.8384
#
#
#
# Elastic Compliance Matrix: (Units=1/GPa)
#
#
# Indices 1 2 3 4 5 6 
#
# 1 0.011092 -0.002839 -0.004239 0.006145 -0.005225 0.003631
# 2 -0.002839 0.014837 -0.002744 -0.003865 0.001162 -0.003129
# 3 -0.004239 -0.002744 0.012137 -0.002775 0.007241 -0.002237
# 4 0.006145 -0.003865 -0.002775 0.031476 -0.006800 -0.001537
# 5 -0.005225 0.001162 0.007241 -0.006800 0.037105 0.001526
# 6 0.003631 -0.003129 -0.002237 -0.001537 0.001526 0.027230
#
#
# Mechanical properties :
#
#
# Convention : Reuss Voigt Hill
#
# Bulk Modulus (GPa) = 54.28145 58.26500 56.27322
# Shear Modulus (GPa) = 31.31595 37.52472 34.42033
#
# Velocity S-wave (km/s) = 3.65074 3.99629 3.82742
# Velocity P-wave (km/s) = 6.39316 6.78905 6.59408
#
# Compressibility (1/GPa) = 0.01842250
#
# Stress axis : x y z
#
# Youngs Moduli (GPa) = 90.15346 67.39826 82.38934
#
# Poissons Ratio (x) = 0.19136 0.34927
# Poissons Ratio (y) = 0.25597 0.22605
# Poissons Ratio (z) = 0.38218 0.18492
#
# Static dielectric constant tensor:
#      x y z
#    x 4.511050 0.104540 0.260160 
#    y 0.104540 3.943680 0.009020 
#    z 0.260160 0.009020 4.850970 
# 
# 
# High freq. dielectric constant tensor:
#      x y z
#    x 1.950290 -0.021010 0.008010 
#    y -0.021010 1.914430 0.020420 
#    z 0.008010 0.020420 1.934060 
# 
# From -- ./inp_files/297621.got.cif
#   From: 2010.06.25/outbox.cif.g09.slc.cpg/sg2_149_cif.got.tgz:297621.got - 2010.06.27 13:26:56.
