data_PCOD8013346
_publ_section_title
;
Structure prediction by ZEFSAII (Michael W. Deem and Ramdas Pophale) SiO2 
 PCOD8013346
Probable space group: P -1
;
_chemical_formula_sum "Si O2"
_cell_formula_units_Z 16
_cell_length_a 8.499856
_cell_length_b 14.717140
_cell_length_c 8.324066
_cell_angle_alpha 90.737168
_cell_angle_beta 46.761561
_cell_angle_gamma 77.142887
_cell_volume 719.259219
_symmetry_space_group_name_H-M "P -1"
_symmetry_group_IT_number 2
_symmetry_cell_setting 'triclinic'
loop_
_space_group_symop_operation_xyz
x,y,z
-x,-y,-z
loop_
_atom_site_type_symbol
_atom_site_label
_atom_site_fract_x
_atom_site_fract_y
_atom_site_fract_z
Si Si1 0.404833 0.224882 0.649667
Si Si2 0.230181 0.557171 0.199291
Si Si3 0.074713 0.741608 0.107005
Si Si4 0.682451 0.060817 0.659104
Si Si5 0.458790 0.937808 0.678691
Si Si6 0.162992 0.518082 0.599113
Si Si7 0.392347 0.641852 0.627256
Si Si8 0.914272 0.055605 0.821792
O O1 0.479841 0.153614 0.745419
O O2 0.461378 0.171776 0.434302
O O3 0.531583 0.305353 0.574833
O O4 0.136040 0.277133 0.838357
O O5 0.169677 0.665751 0.181803
O O6 0.146376 0.568894 0.440464
O O7 0.076453 0.503672 0.204822
O O8 0.500000 0.500000 0.000000
O O9 0.998142 0.852729 0.217143
O O10 0.274334 0.723812 0.838368
O O11 0.739607 0.085225 0.796785
O O12 0.605529 0.965013 0.719197
O O13 0.883869 0.038890 0.381018
O O14 0.500000 0.000000 0.500000
O O15 0.201447 0.966624 0.933111
O O16 0.214643 0.586981 0.700042
O O17 0.381285 0.423579 0.444289
#
# Coordination Sequence:
#
# PCOD8013346 Si02
#       8
#     2   2   2   2   2   2   2   2
#     4  11  23  41  62  96 134 171 223 274 332 399
#     4  11  23  43  68  97 130 173 216 272 343 400
#     4  12  24  40  66  96 130 176 222 275 333 401
#     4  10  24  42  64  96 132 176 220 279 336 397
#     4  10  21  40  67  90 127 174 221 270 328 398
#     4  10  24  43  68  94 132 172 220 274 337 404
#     4  11  23  43  64  98 131 173 219 281 328 404
#     4  11  23  42  67  96 132 175 225 278 336 395
#
# _framework density 22.245107999999998
#
# number of rings (size 3 to 8) (size 9 to 14) (size 15 to 20)
#    0.000    1.250    5.000    0.375    1.750    5.500 
#    0.000    0.000    0.000    0.000    0.000    0.000 
#    0.000    0.000    0.000    0.000    0.000    0.000 
#
# Total GULP energy -198241.890538 kJ/mol
# GULP energy per Si atom -12390.118159 kJ/mol
# Density = 2.219448 g / cm^3
# Si number density = 22.245108 Si / 1000 Ang^3
#
#
#
# Elastic Constant Matrix: (Units=GPa)
#
#
# Indices 1 2 3 4 5 6 
#
# 1 98.9232 24.9120 19.4529 -3.0848 -29.4954 0.8603
# 2 24.9120 81.3947 24.0142 -11.4185 -10.1358 -7.0428
# 3 19.4529 24.0142 87.2320 -11.8503 -11.2270 -2.9407
# 4 -3.0848 -11.4185 -11.8503 33.1531 0.6523 -7.2690
# 5 -29.4954 -10.1358 -11.2270 0.6523 29.0957 -2.3776
# 6 0.8603 -7.0428 -2.9407 -7.2690 -2.3776 38.2466
#
#
#
# Elastic Compliance Matrix: (Units=1/GPa)
#
#
# Indices 1 2 3 4 5 6 
#
# 1 0.015144 -0.002644 -0.000847 -0.000089 0.014103 -0.000033
# 2 -0.002644 0.015058 -0.002553 0.004795 0.001771 0.003657
# 3 -0.000847 -0.002553 0.013413 0.004114 0.003464 0.001578
# 4 -0.000089 0.004795 0.004114 0.034979 0.003040 0.008038
# 5 0.014103 0.001771 0.003464 0.003040 0.050880 0.004016
# 6 -0.000033 0.003657 0.001578 0.008038 0.004016 0.028719
#
#
# Mechanical properties :
#
#
# Convention : Reuss Voigt Hill
#
# Bulk Modulus (GPa) = 31.71960 44.92313 38.32136
# Shear Modulus (GPa) = 27.65616 33.37713 30.51664
#
# Velocity S-wave (km/s) = 3.52980 3.87773 3.70785
# Velocity P-wave (km/s) = 5.55902 6.34725 5.96617
#
# Compressibility (1/GPa) = 0.03152625
#
# Stress axis : x y z
#
# Youngs Moduli (GPa) = 66.03298 66.40984 74.55252
#
# Poissons Ratio (x) = 0.17560 0.06317
# Poissons Ratio (y) = 0.17460 0.19034
# Poissons Ratio (z) = 0.05595 0.16955
#
# Static dielectric constant tensor:
#      x y z
#    x 4.266780 0.236270 -0.212000 
#    y 0.236270 3.905210 -0.118900 
#    z -0.212000 -0.118900 3.912600 
# 
# 
# High freq. dielectric constant tensor:
#      x y z
#    x 1.880980 0.005800 -0.017280 
#    y 0.005800 1.868420 -0.008470 
#    z -0.017280 -0.008470 1.871860 
# 
# From -- ./inp_files/207256.got.cif
#   From: 2010.06.25/outbox.cif.g09.slc.cpg/sg2_104_cif.got.tgz:207256.got - 2010.06.27 13:26:56.
