data_PCOD8013786
_publ_section_title
;
Structure prediction by ZEFSAII (Michael W. Deem and Ramdas Pophale) SiO2 
 PCOD8013786
Probable space group: P -1
;
_chemical_formula_sum "Si O2"
_cell_formula_units_Z 16
_cell_length_a 10.709860
_cell_length_b 15.889829
_cell_length_c 16.690101
_cell_angle_alpha 149.337095
_cell_angle_beta 145.851508
_cell_angle_gamma 33.119823
_cell_volume 730.590911
_symmetry_space_group_name_H-M "P -1"
_symmetry_group_IT_number 2
_symmetry_cell_setting 'triclinic'
loop_
_space_group_symop_operation_xyz
x,y,z
-x,-y,-z
loop_
_atom_site_type_symbol
_atom_site_label
_atom_site_fract_x
_atom_site_fract_y
_atom_site_fract_z
Si Si1 0.492216 0.185997 0.019941
Si Si2 0.359301 0.210978 0.621083
Si Si3 0.317077 0.209536 0.774863
Si Si4 0.254156 0.736730 0.217749
Si Si5 0.262800 0.865906 0.494598
Si Si6 0.100474 0.433379 0.137758
Si Si7 0.909850 0.146634 0.319192
Si Si8 0.487728 0.797392 0.718659
O O1 0.270525 0.353159 0.084576
O O2 0.757611 0.169400 0.174725
O O3 0.474073 0.223664 0.946113
O O4 0.461953 0.003895 0.878386
O O5 0.405304 0.253611 0.772648
O O6 0.464718 0.326548 0.717049
O O7 0.067413 0.265720 0.496137
O O8 0.500000 0.000000 0.500000
O O9 0.021626 0.343973 0.743323
O O10 0.362978 0.000259 0.617226
O O11 0.250253 0.734214 0.310640
O O12 0.084392 0.934139 0.252165
O O13 0.147323 0.597703 0.019182
O O14 0.449483 0.745480 0.565139
O O15 0.000000 0.000000 0.500000
O O16 0.246833 0.347808 0.227414
O O17 0.719639 0.220867 0.352233
#
# Coordination Sequence:
#
# PCOD8013786 Si02
#       8
#     2   2   2   2   2   2   2   2
#     4  10  19  34  58  87 116 145 183 229 284 339
#     4  10  21  37  56  79 109 157 195 225 267 337
#     4  11  22  36  56  89 114 144 189 238 277 328
#     4  11  19  36  60  78 111 157 186 227 275 338
#     4  11  19  35  59  84 110 146 196 225 271 340
#     4  11  21  36  58  88 120 142 178 238 296 324
#     4  10  16  34  57  81 107 147 193 224 266 329
#     4  10  18  33  59  86 114 148 183 228 280 343
#
# _framework density 21.900081
#
# number of rings (size 3 to 8) (size 9 to 14) (size 15 to 20)
#    0.000    1.500    6.250    1.875    0.000    0.500 
#    0.000   10.625    0.000    1.500    0.000    0.000 
#    0.000    0.000    0.000    0.000    0.000    0.000 
#
# Total GULP energy -198335.349654 kJ/mol
# GULP energy per Si atom -12395.959353 kJ/mol
# Density = 2.185024 g / cm^3
# Si number density = 21.900081 Si / 1000 Ang^3
#
#
#
# Elastic Constant Matrix: (Units=GPa)
#
#
# Indices 1 2 3 4 5 6 
#
# 1 103.1762 19.0171 53.6855 -31.7270 -12.6509 -5.2352
# 2 19.0171 71.7608 39.6774 -23.3574 -16.0440 6.7635
# 3 53.6855 39.6774 101.3017 -46.4496 -6.6059 1.9752
# 4 -31.7270 -23.3574 -46.4496 28.3574 0.8565 -3.2074
# 5 -12.6509 -16.0440 -6.6059 0.8565 43.3334 -9.4462
# 6 -5.2352 6.7635 1.9752 -3.2074 -9.4462 17.5874
#
#
#
# Elastic Compliance Matrix: (Units=1/GPa)
#
#
# Indices 1 2 3 4 5 6 
#
# 1 0.018779 0.004262 0.002429 0.029836 0.009999 0.014490
# 2 0.004262 0.022224 0.000725 0.024220 0.009585 0.002206
# 3 0.002429 0.000725 0.043201 0.075416 0.009185 0.014279
# 4 0.029836 0.024220 0.075416 0.216682 0.035751 0.049815
# 5 0.009999 0.009585 0.009185 0.035751 0.035428 0.023807
# 6 0.014490 0.002206 0.014279 0.049815 0.023807 0.080591
#
#
# Mechanical properties :
#
#
# Convention : Reuss Voigt Hill
#
# Bulk Modulus (GPa) = 10.09746 55.66650 32.88198
# Shear Modulus (GPa) = 11.49198 28.77955 20.13577
#
# Velocity S-wave (km/s) = 2.29322 3.62903 3.03551
# Velocity P-wave (km/s) = 3.41065 6.55998 5.22809
#
# Compressibility (1/GPa) = 0.09903481
#
# Stress axis : x y z
#
# Youngs Moduli (GPa) = 53.25177 44.99715 23.14745
#
# Poissons Ratio (x) = -0.19177 -0.05623
# Poissons Ratio (y) = -0.22695 -0.01678
# Poissons Ratio (z) = -0.12935 -0.03261
#
# Static dielectric constant tensor:
#      x y z
#    x 4.112840 0.073970 0.177460 
#    y 0.073970 3.956290 -0.297280 
#    z 0.177460 -0.297280 4.381610 
# 
# 
# High freq. dielectric constant tensor:
#      x y z
#    x 1.843140 0.008270 -0.010240 
#    y 0.008270 1.835090 -0.013100 
#    z -0.010240 -0.013100 1.870260 
# 
# From -- ./inp_files/447076.got.cif
#   From: 2010.06.25/outbox.cif.g09.slc.cpg/sg2_224_cif.got.tgz:447076.got - 2010.06.27 13:26:56.
