data_PCOD8013063
_publ_section_title
;
Structure prediction by ZEFSAII (Michael W. Deem and Ramdas Pophale) SiO2 
 PCOD8013063
Probable space group: P -1
;
_chemical_formula_sum "Si O2"
_cell_formula_units_Z 12
_cell_length_a 23.380109
_cell_length_b 5.108071
_cell_length_c 7.378594
_cell_angle_alpha 69.978450
_cell_angle_beta 43.636008
_cell_angle_gamma 57.760857
_cell_volume 512.902176
_symmetry_space_group_name_H-M "P -1"
_symmetry_group_IT_number 2
_symmetry_cell_setting 'triclinic'
loop_
_space_group_symop_operation_xyz
x,y,z
-x,-y,-z
loop_
_atom_site_type_symbol
_atom_site_label
_atom_site_fract_x
_atom_site_fract_y
_atom_site_fract_z
Si Si1 0.124113 0.745654 0.945852
Si Si2 0.103610 0.344530 0.364523
Si Si3 0.564083 0.662210 0.359459
Si Si4 0.684164 0.323579 0.500387
Si Si5 0.077623 0.780701 0.639101
Si Si6 0.393730 0.158233 0.150841
O O1 0.205162 0.855012 0.732508
O O2 0.099128 0.668116 0.822901
O O3 0.160182 0.430544 0.060809
O O4 0.033049 0.017546 0.180854
O O5 0.113406 0.476511 0.506269
O O6 0.000000 0.500000 0.500000
O O7 0.133913 0.978422 0.406758
O O8 0.500000 0.500000 0.500000
O O9 0.639501 0.460562 0.378891
O O10 0.500000 0.000000 0.500000
O O11 0.619287 0.676407 0.051790
O O12 0.664692 0.596739 0.622943
O O13 0.644282 0.096582 0.722685
O O14 0.500000 0.000000 0.000000
#
# Coordination Sequence:
#
# PCOD8013063 Si02
#       6
#     2   2   2   2   2   2
#     4  10  24  41  64  95 132 167 217 259 317 369
#     4  10  21  40  65  91 125 173 216 256 313 373
#     4  12  23  42  68  90 119 164 208 255 322 378
#     4  12  26  41  65 100 126 166 213 269 308 384
#     4  10  23  41  65  92 130 177 209 259 314 375
#     4  12  24  44  68  92 129 165 212 262 325 382
#
# _framework density 23.396273000000001
#
# number of rings (size 3 to 8) (size 9 to 14) (size 15 to 20)
#    0.000    1.000    3.333    3.500    0.000   15.333 
#    0.000    0.000    0.000    0.000    0.000    0.000 
#    0.000    0.000    0.000    0.000    0.000    0.000 
#
# Total GULP energy -148843.919610 kJ/mol
# GULP energy per Si atom -12403.659968 kJ/mol
# Density = 2.334302 g / cm^3
# Si number density = 23.396273 Si / 1000 Ang^3
#
#
#
# Elastic Constant Matrix: (Units=GPa)
#
#
# Indices 1 2 3 4 5 6 
#
# 1 106.2026 35.6509 39.4585 -0.7518 10.6264 3.7715
# 2 35.6509 69.0044 30.2099 -12.5751 -4.0806 9.7930
# 3 39.4585 30.2099 118.6020 -21.7089 -8.4861 -14.9444
# 4 -0.7518 -12.5751 -21.7089 26.4168 -6.8704 2.5994
# 5 10.6264 -4.0806 -8.4861 -6.8704 50.9268 -11.3340
# 6 3.7715 9.7930 -14.9444 2.5994 -11.3340 37.3553
#
#
#
# Elastic Compliance Matrix: (Units=1/GPa)
#
#
# Indices 1 2 3 4 5 6 
#
# 1 0.014331 -0.006429 -0.005563 -0.008543 -0.006322 -0.003311
# 2 -0.006429 0.021432 -0.002080 0.009580 0.002751 -0.005633
# 3 -0.005563 -0.002080 0.014467 0.011707 0.006796 0.008142
# 4 -0.008543 0.009580 0.011707 0.054762 0.012564 0.003036
# 5 -0.006322 0.002751 0.006796 0.012564 0.026162 0.009700
# 6 -0.003311 -0.005633 0.008142 0.003036 0.009700 0.034570
#
#
# Mechanical properties :
#
#
# Convention : Reuss Voigt Hill
#
# Bulk Modulus (GPa) = 45.27813 56.04974 50.66393
# Shear Modulus (GPa) = 24.84725 35.50575 30.17650
#
# Velocity S-wave (km/s) = 3.26240 3.89984 3.59527
# Velocity P-wave (km/s) = 5.79532 6.65485 6.23990
#
# Compressibility (1/GPa) = 0.02208572
#
# Stress axis : x y z
#
# Youngs Moduli (GPa) = 69.77971 46.65958 69.12141
#
# Poissons Ratio (x) = 0.29998 0.38455
# Poissons Ratio (y) = 0.44862 0.14374
# Poissons Ratio (z) = 0.38821 0.09703
#
# Static dielectric constant tensor:
#      x y z
#    x 4.263070 -0.137940 -0.072900 
#    y -0.137940 4.317500 -0.656550 
#    z -0.072900 -0.656550 4.212830 
# 
# 
# High freq. dielectric constant tensor:
#      x y z
#    x 1.941320 0.002720 0.008540 
#    y 0.002720 1.912020 -0.026360 
#    z 0.008540 -0.026360 1.930240 
# 
# From -- ./inp_files/350345.got.cif
#   From: 2010.06.25/outbox.cif.g09.slc.cpg/sg2_176_cif.got.tgz:350345.got - 2010.06.27 13:26:56.
