data_PCOD8013088
_publ_section_title
;
Structure prediction by ZEFSAII (Michael W. Deem and Ramdas Pophale) SiO2 
 PCOD8013088
Probable space group: P -1
;
_chemical_formula_sum "Si O2"
_cell_formula_units_Z 16
_cell_length_a 8.471915
_cell_length_b 9.377536
_cell_length_c 13.429995
_cell_angle_alpha 61.284206
_cell_angle_beta 117.322890
_cell_angle_gamma 91.411028
_cell_volume 804.630521
_symmetry_space_group_name_H-M "P -1"
_symmetry_group_IT_number 2
_symmetry_cell_setting 'triclinic'
loop_
_space_group_symop_operation_xyz
x,y,z
-x,-y,-z
loop_
_atom_site_type_symbol
_atom_site_label
_atom_site_fract_x
_atom_site_fract_y
_atom_site_fract_z
Si Si1 0.368344 0.204595 0.564789
Si Si2 0.711647 0.352501 0.868390
Si Si3 0.745071 0.695159 0.716758
Si Si4 0.164555 0.935599 0.646021
Si Si5 0.609398 0.356471 0.302933
Si Si6 0.762134 0.200995 0.722985
Si Si7 0.016640 0.878972 0.830243
Si Si8 0.182518 0.537317 0.497824
O O1 0.249067 0.252545 0.413813
O O2 0.586897 0.169318 0.622281
O O3 0.322641 0.360384 0.575317
O O4 0.313183 0.045191 0.648567
O O5 0.817270 0.493003 0.818022
O O6 0.507629 0.451073 0.817753
O O7 0.701848 0.240200 0.806596
O O8 0.812409 0.239586 0.024631
O O9 0.533034 0.754960 0.671687
O O10 0.870371 0.776620 0.794070
O O11 0.266482 0.739308 0.719538
O O12 0.086914 0.953767 0.727904
O O13 0.000000 0.000000 0.500000
O O14 0.741517 0.357686 0.433222
O O15 0.839493 0.349332 0.646340
O O16 0.923315 0.031358 0.824407
O O17 0.000000 0.500000 0.500000
#
# Coordination Sequence:
#
# PCOD8013088 Si02
#       8
#     2   2   2   2   2   2   2   2
#     4  12  21  40  66  92 126 160 206 262 316 372
#     4  10  23  44  65  88 123 172 219 240 304 371
#     4  10  21  40  65  93 119 164 211 252 310 367
#     4  12  25  39  60  98 129 158 202 263 324 355
#     4  10  22  41  62  92 124 166 203 249 315 375
#     4  12  22  42  66  94 121 166 213 256 310 366
#     4  12  25  40  64  93 130 163 209 262 299 372
#     4  12  22  37  64  98 126 159 203 264 319 363
#
# _framework density 19.884902
#
# number of rings (size 3 to 8) (size 9 to 14) (size 15 to 20)
#    0.750    0.000    5.000    4.125    0.000    1.500 
#    0.000    0.625    2.750    0.000    0.000    0.000 
#    0.000    0.000    0.000    0.000    0.000    0.000 
#
# Total GULP energy -198353.096512 kJ/mol
# GULP energy per Si atom -12397.068532 kJ/mol
# Density = 1.983964 g / cm^3
# Si number density = 19.884902 Si / 1000 Ang^3
#
#
#
# Elastic Constant Matrix: (Units=GPa)
#
#
# Indices 1 2 3 4 5 6 
#
# 1 79.5024 17.6355 34.3540 -4.2249 9.6542 1.9583
# 2 17.6355 91.1443 30.5852 -8.9079 8.1480 -15.3561
# 3 34.3540 30.5852 106.8197 -3.5229 1.8421 -0.8087
# 4 -4.2249 -8.9079 -3.5229 28.9948 -4.6680 8.8001
# 5 9.6542 8.1480 1.8421 -4.6680 21.4986 -5.2726
# 6 1.9583 -15.3561 -0.8087 8.8001 -5.2726 37.3592
#
#
#
# Elastic Compliance Matrix: (Units=1/GPa)
#
#
# Indices 1 2 3 4 5 6 
#
# 1 0.015762 -0.001259 -0.004579 0.001087 -0.006618 -0.002633
# 2 -0.001259 0.013550 -0.003336 0.001681 -0.002747 0.004780
# 3 -0.004579 -0.003336 0.011756 0.000285 0.002220 -0.000630
# 4 0.001087 0.001681 0.000285 0.038375 0.005306 -0.007650
# 5 -0.006618 -0.002747 0.002220 0.005306 0.052832 0.005472
# 6 -0.002633 0.004780 -0.000630 -0.007650 0.005472 0.031430
#
#
# Mechanical properties :
#
#
# Convention : Reuss Voigt Hill
#
# Bulk Modulus (GPa) = 44.01281 49.17952 46.59616
# Shear Modulus (GPa) = 26.36781 30.56330 28.46555
#
# Velocity S-wave (km/s) = 3.64541 3.92473 3.78764
# Velocity P-wave (km/s) = 6.31668 6.73229 6.52780
#
# Compressibility (1/GPa) = 0.02272066
#
# Stress axis : x y z
#
# Youngs Moduli (GPa) = 63.44214 73.80219 85.06615
#
# Poissons Ratio (x) = 0.09292 0.38950
# Poissons Ratio (y) = 0.07988 0.28376
# Poissons Ratio (z) = 0.29048 0.24618
#
# Static dielectric constant tensor:
#      x y z
#    x 3.622530 -0.012970 0.149300 
#    y -0.012970 3.678420 -0.092380 
#    z 0.149300 -0.092380 3.362400 
# 
# 
# High freq. dielectric constant tensor:
#      x y z
#    x 1.769430 -0.004140 0.009610 
#    y -0.004140 1.788490 -0.004730 
#    z 0.009610 -0.004730 1.753630 
# 
# From -- ./inp_files/492267.got.cif
#   From: 2010.06.25/outbox.cif.g09.slc.cpg/sg2_247_cif.got.tgz:492267.got - 2010.06.27 13:26:56.
