data_PCOD8013127
_publ_section_title
;
Structure prediction by ZEFSAII (Michael W. Deem and Ramdas Pophale) SiO2 
 PCOD8013127
Probable space group: P -1
;
_chemical_formula_sum "Si O2"
_cell_formula_units_Z 16
_cell_length_a 22.708871
_cell_length_b 17.920859
_cell_length_c 11.062804
_cell_angle_alpha 41.491353
_cell_angle_beta 147.548119
_cell_angle_gamma 161.615254
_cell_volume 725.490665
_symmetry_space_group_name_H-M "P -1"
_symmetry_group_IT_number 2
_symmetry_cell_setting 'triclinic'
loop_
_space_group_symop_operation_xyz
x,y,z
-x,-y,-z
loop_
_atom_site_type_symbol
_atom_site_label
_atom_site_fract_x
_atom_site_fract_y
_atom_site_fract_z
Si Si1 0.482525 0.056010 0.085218
Si Si2 0.367638 0.274612 0.276704
Si Si3 0.955736 0.625725 0.613205
Si Si4 0.276963 0.334254 0.394187
Si Si5 0.614812 0.280664 0.650503
Si Si6 0.144442 0.459144 0.010493
Si Si7 0.026551 0.103013 0.738477
Si Si8 0.852397 0.375730 0.518695
O O1 0.580140 0.160614 0.266790
O O2 0.508569 0.946156 0.238767
O O3 0.641182 0.270561 0.004917
O O4 0.207806 0.844250 0.855387
O O5 0.620197 0.558846 0.420755
O O6 0.413232 0.193622 0.396295
O O7 0.265909 0.262736 0.011737
O O8 0.181896 0.086761 0.292167
O O9 0.744222 0.377480 0.628746
O O10 0.896840 0.702618 0.401635
O O11 0.960867 0.568509 0.562435
O O12 0.500000 0.500000 0.500000
O O13 0.165482 0.350439 0.131439
O O14 0.066734 0.048556 0.359402
O O15 0.820386 0.508007 0.824807
O O16 0.883963 0.279501 0.749525
O O17 0.000000 0.500000 0.500000
#
# Coordination Sequence:
#
# PCOD8013127 Si02
#       8
#     2   2   2   2   2   2   2   2
#     4  11  23  40  67  88 125 170 205 259 318 365
#     4   9  21  38  61  93 117 162 216 258 305 367
#     4  12  25  43  59  96 133 165 211 257 317 384
#     4   9  18  36  59  91 120 150 204 262 302 363
#     4  11  23  40  65  90 134 170 203 259 321 379
#     4  10  21  40  65  95 125 159 216 263 310 378
#     4  10  22  38  68  86 123 167 208 260 311 365
#     4  10  25  38  64  96 119 161 216 262 308 378
#
# _framework density 22.054041000000002
#
# number of rings (size 3 to 8) (size 9 to 14) (size 15 to 20)
#    0.000    1.750    1.250    3.000    7.000    7.000 
#    0.000    2.500    0.000    0.000    0.000    0.000 
#    0.000    0.000    0.000    0.000    0.000    0.000 
#
# Total GULP energy -198287.639846 kJ/mol
# GULP energy per Si atom -12392.977490 kJ/mol
# Density = 2.200384 g / cm^3
# Si number density = 22.054041 Si / 1000 Ang^3
#
#
#
# Elastic Constant Matrix: (Units=GPa)
#
#
# Indices 1 2 3 4 5 6 
#
# 1 69.0124 27.9425 27.7536 -7.1796 3.6415 -13.1854
# 2 27.9425 55.1148 31.5517 -8.9124 2.8278 -19.0409
# 3 27.7536 31.5517 166.9668 0.3250 6.3780 -21.0885
# 4 -7.1796 -8.9124 0.3250 36.6850 -14.2908 4.5634
# 5 3.6415 2.8278 6.3780 -14.2908 22.7790 -3.0693
# 6 -13.1854 -19.0409 -21.0885 4.5634 -3.0693 27.2698
#
#
#
# Elastic Compliance Matrix: (Units=1/GPa)
#
#
# Indices 1 2 3 4 5 6 
#
# 1 0.018761 -0.007673 -0.001349 0.001320 -0.000518 0.002391
# 2 -0.007673 0.029038 -0.002574 0.005183 0.003494 0.014101
# 3 -0.001349 -0.002574 0.007209 -0.002334 -0.002512 0.003233
# 4 0.001320 0.005183 -0.002334 0.038130 0.023548 -0.001278
# 5 -0.000518 0.003494 -0.002512 0.023548 0.059429 0.002995
# 6 0.002391 0.014101 0.003233 -0.001278 0.002995 0.050723
#
#
# Mechanical properties :
#
#
# Convention : Reuss Voigt Hill
#
# Bulk Modulus (GPa) = 31.43247 51.73218 41.58233
# Shear Modulus (GPa) = 21.08915 30.93651 26.01283
#
# Velocity S-wave (km/s) = 3.09568 3.74941 3.43812
# Velocity P-wave (km/s) = 5.20203 6.50015 5.88698
#
# Compressibility (1/GPa) = 0.03181424
#
# Stress axis : x y z
#
# Youngs Moduli (GPa) = 53.30189 34.43736 138.71962
#
# Poissons Ratio (x) = 0.26424 0.18718
# Poissons Ratio (y) = 0.40899 0.35713
# Poissons Ratio (z) = 0.07192 0.08866
#
# Static dielectric constant tensor:
#      x y z
#    x 3.882080 -0.417800 -0.110060 
#    y -0.417800 3.887410 0.226940 
#    z -0.110060 0.226940 4.716510 
# 
# 
# High freq. dielectric constant tensor:
#      x y z
#    x 1.851820 -0.025520 0.001790 
#    y -0.025520 1.840900 0.001210 
#    z 0.001790 0.001210 1.891770 
# 
# From -- ./inp_files/448342.got.cif
#   From: 2010.06.25/outbox.cif.g09.slc.cpg/sg2_225_cif.got.tgz:448342.got - 2010.06.27 13:26:56.
