data_PCOD8013353
_publ_section_title
;
Structure prediction by ZEFSAII (Michael W. Deem and Ramdas Pophale) SiO2 
 PCOD8013353
Probable space group: P -1
;
_chemical_formula_sum "Si O2"
_cell_formula_units_Z 16
_cell_length_a 19.458543
_cell_length_b 8.386253
_cell_length_c 16.920359
_cell_angle_alpha 129.478313
_cell_angle_beta 22.289557
_cell_angle_gamma 118.303288
_cell_volume 744.379287
_symmetry_space_group_name_H-M "P -1"
_symmetry_group_IT_number 2
_symmetry_cell_setting 'triclinic'
loop_
_space_group_symop_operation_xyz
x,y,z
-x,-y,-z
loop_
_atom_site_type_symbol
_atom_site_label
_atom_site_fract_x
_atom_site_fract_y
_atom_site_fract_z
Si Si1 0.591358 0.261067 0.553262
Si Si2 0.839208 0.909799 0.480983
Si Si3 0.860985 0.532051 0.893737
Si Si4 0.509687 0.264575 0.382916
Si Si5 0.816845 0.206232 0.732938
Si Si6 0.164306 0.001302 0.929996
Si Si7 0.514664 0.733421 0.770049
Si Si8 0.197957 0.067728 0.652881
O O1 0.724227 0.064540 0.292258
O O2 0.656483 0.470261 0.542026
O O3 0.633067 0.162493 0.566852
O O4 0.362755 0.347177 0.798158
O O5 0.637917 0.880918 0.701601
O O6 0.863169 0.954879 0.378458
O O7 0.020309 0.683807 0.245825
O O8 0.800148 0.148197 0.640794
O O9 0.850932 0.436406 0.785284
O O10 0.948167 0.725655 0.860330
O O11 0.500000 0.500000 0.500000
O O12 0.674314 0.069351 0.194786
O O13 0.578222 0.223343 0.205775
O O14 0.290742 0.257182 0.622535
O O15 0.642144 0.206606 0.974772
O O16 0.000000 0.000000 0.500000
O O17 0.005017 0.885911 0.068717
#
# Coordination Sequence:
#
# PCOD8013353 Si02
#       8
#     2   2   2   2   2   2   2   2
#     4  11  22  43  60  95 129 171 209 257 316 385
#     4  10  22  43  64  95 124 165 217 269 313 371
#     4  10  22  41  68  90 126 173 214 256 321 382
#     4  11  24  43  62  98 129 170 210 263 314 375
#     4   9  20  38  68  93 120 165 215 260 321 376
#     4  12  24  41  66  90 135 172 209 260 319 378
#     4  10  21  40  67  91 129 164 214 258 319 382
#     4  11  26  40  64  94 131 163 220 261 312 376
#
# _framework density 21.494420000000002
#
# number of rings (size 3 to 8) (size 9 to 14) (size 15 to 20)
#    0.000    1.500    2.500    1.875    5.250    0.500 
#    0.000    3.125    2.750    0.000    0.000    0.000 
#    0.000    0.000    0.000    0.000    0.000    0.000 
#
# Total GULP energy -198225.496921 kJ/mol
# GULP energy per Si atom -12389.093558 kJ/mol
# Density = 2.144550 g / cm^3
# Si number density = 21.494420 Si / 1000 Ang^3
#
#
#
# Elastic Constant Matrix: (Units=GPa)
#
#
# Indices 1 2 3 4 5 6 
#
# 1 136.3795 43.1357 44.0779 13.6597 -1.5634 -6.5988
# 2 43.1357 97.9470 29.8954 10.5304 12.0390 8.4556
# 3 44.0779 29.8954 93.5153 4.6223 1.9194 5.9450
# 4 13.6597 10.5304 4.6223 30.0810 6.8430 -2.7752
# 5 -1.5634 12.0390 1.9194 6.8430 24.6159 4.8357
# 6 -6.5988 8.4556 5.9450 -2.7752 4.8357 38.0669
#
#
#
# Elastic Compliance Matrix: (Units=1/GPa)
#
#
# Indices 1 2 3 4 5 6 
#
# 1 0.010144 -0.003586 -0.003697 -0.003258 0.003101 0.002501
# 2 -0.003586 0.013605 -0.002285 -0.001736 -0.005692 -0.002690
# 3 -0.003697 -0.002285 0.013294 0.000177 0.000234 -0.002226
# 4 -0.003258 -0.001736 0.000177 0.038110 -0.010739 0.003936
# 5 0.003101 -0.005692 0.000234 -0.010739 0.047566 -0.005060
# 6 0.002501 -0.002690 -0.002226 0.003936 -0.005060 0.028578
#
#
# Mechanical properties :
#
#
# Convention : Reuss Voigt Hill
#
# Bulk Modulus (GPa) = 55.84229 62.45109 59.14669
# Shear Modulus (GPa) = 28.34428 32.60164 30.47296
#
# Velocity S-wave (km/s) = 3.63530 3.89877 3.76934
# Velocity P-wave (km/s) = 6.60734 7.02744 6.82062
#
# Compressibility (1/GPa) = 0.01790758
#
# Stress axis : x y z
#
# Youngs Moduli (GPa) = 98.57734 73.50240 75.21962
#
# Poissons Ratio (x) = 0.26358 0.27806
# Poissons Ratio (y) = 0.35350 0.17191
# Poissons Ratio (z) = 0.36441 0.16798
#
# Static dielectric constant tensor:
#      x y z
#    x 6.336360 1.468880 1.620520 
#    y 1.468880 4.949230 1.115050 
#    z 1.620520 1.115050 5.189030 
# 
# 
# High freq. dielectric constant tensor:
#      x y z
#    x 1.850720 0.011400 -0.012600 
#    y 0.011400 1.842760 -0.005700 
#    z -0.012600 -0.005700 1.833480 
# 
# From -- ./inp_files/577399.got.cif
#   From: 2010.06.25/outbox.cif.g09.slc.cpg/sg2_289_cif.got.tgz:577399.got - 2010.06.27 13:26:56.
