data_PCOD8013763
_publ_section_title
;
Structure prediction by ZEFSAII (Michael W. Deem and Ramdas Pophale) SiO2 
 PCOD8013763
Probable space group: P -1
;
_chemical_formula_sum "Si O2"
_cell_formula_units_Z 14
_cell_length_a 8.419239
_cell_length_b 11.429495
_cell_length_c 9.082128
_cell_angle_alpha 61.093410
_cell_angle_beta 129.344049
_cell_angle_gamma 120.993877
_cell_volume 562.908926
_symmetry_space_group_name_H-M "P -1"
_symmetry_group_IT_number 2
_symmetry_cell_setting 'triclinic'
loop_
_space_group_symop_operation_xyz
x,y,z
-x,-y,-z
loop_
_atom_site_type_symbol
_atom_site_label
_atom_site_fract_x
_atom_site_fract_y
_atom_site_fract_z
Si Si1 0.354053 0.462889 0.577832
Si Si2 0.912599 0.370095 0.784556
Si Si3 0.676451 0.885317 0.946481
Si Si4 0.316113 0.314298 0.177418
Si Si5 0.789860 0.944408 0.508138
Si Si6 0.139084 0.880862 0.292503
Si Si7 0.499589 0.209814 0.811369
O O1 0.500000 0.500000 0.500000
O O2 0.124413 0.486048 0.385650
O O3 0.470519 0.569940 0.709724
O O4 0.335245 0.301999 0.699486
O O5 0.889490 0.277546 0.677688
O O6 0.738366 0.303091 0.850743
O O7 0.142187 0.393799 0.982517
O O8 0.611171 0.747913 0.888794
O O9 0.684847 0.023320 0.775278
O O10 0.503999 0.871496 0.986789
O O11 0.915494 0.916531 0.135731
O O12 0.209751 0.188420 0.306853
O O13 0.588340 0.894754 0.311041
O O14 0.767427 0.075294 0.514426
O O15 0.000000 0.000000 0.500000
#
# Coordination Sequence:
#
# PCOD8013763 Si02
#       7
#     2   2   2   2   2   2   2
#     4  10  21  41  61  89 125 159 205 250 297 360
#     4  10  22  39  65  92 119 161 207 249 298 362
#     4   9  19  37  61  88 124 161 195 251 311 355
#     4  10  21  42  63  87 121 167 196 245 318 353
#     4  11  20  37  65  90 124 162 198 251 310 355
#     4   9  19  37  60  88 124 162 197 245 311 364
#     4  11  22  38  61  94 123 158 207 255 291 360
#
# _framework density 24.870809000000001
#
# number of rings (size 3 to 8) (size 9 to 14) (size 15 to 20)
#    0.000    2.000    4.286    0.857    0.000    4.000 
#    0.000    2.857    0.000    0.000    0.000    0.000 
#    0.000    0.000    0.000    0.000    0.000    0.000 
#
# Total GULP energy -173494.507047 kJ/mol
# GULP energy per Si atom -12392.464789 kJ/mol
# Density = 2.481420 g / cm^3
# Si number density = 24.870809 Si / 1000 Ang^3
#
#
#
# Elastic Constant Matrix: (Units=GPa)
#
#
# Indices 1 2 3 4 5 6 
#
# 1 68.3787 -1.7079 26.8840 0.2454 -17.5891 -9.0854
# 2 -1.7079 41.3177 15.6635 11.2529 -12.7096 -11.7997
# 3 26.8840 15.6635 86.0696 16.3952 -12.9904 -12.2181
# 4 0.2454 11.2529 16.3952 32.6757 -12.5267 -0.1363
# 5 -17.5891 -12.7096 -12.9904 -12.5267 41.6251 0.7640
# 6 -9.0854 -11.7997 -12.2181 -0.1363 0.7640 31.3775
#
#
#
# Elastic Compliance Matrix: (Units=1/GPa)
#
#
# Indices 1 2 3 4 5 6 
#
# 1 0.020565 0.006730 -0.006153 0.004501 0.010071 0.005864
# 2 0.006730 0.034442 -0.003825 -0.006066 0.010100 0.013139
# 3 -0.006153 -0.003825 0.015829 -0.006938 -0.000970 0.002937
# 4 0.004501 -0.006066 -0.006938 0.039949 0.009976 -0.003749
# 5 0.010071 0.010100 -0.000970 0.009976 0.033961 0.005553
# 6 0.005864 0.013139 0.002937 -0.003749 0.005553 0.039501
#
#
# Mechanical properties :
#
#
# Convention : Reuss Voigt Hill
#
# Bulk Modulus (GPa) = 15.54272 30.82727 23.18499
# Shear Modulus (GPa) = 23.56370 31.46406 27.51388
#
# Velocity S-wave (km/s) = 3.08140 3.56068 3.32968
# Velocity P-wave (km/s) = 4.35005 5.41539 4.91169
#
# Compressibility (1/GPa) = 0.06433882
#
# Stress axis : x y z
#
# Youngs Moduli (GPa) = 48.62538 29.03431 63.17621
#
# Poissons Ratio (x) = -0.19539 0.38874
# Poissons Ratio (y) = -0.32723 0.24165
# Poissons Ratio (z) = 0.29920 0.11106
#
# Static dielectric constant tensor:
#      x y z
#    x 4.328260 -0.300140 -0.128290 
#    y -0.300140 4.516000 -0.220370 
#    z -0.128290 -0.220370 4.709470 
# 
# 
# High freq. dielectric constant tensor:
#      x y z
#    x 1.987930 -0.020480 -0.012750 
#    y -0.020480 1.978560 0.004520 
#    z -0.012750 0.004520 1.985550 
# 
# From -- ./inp_files/177016.got.cif
#   From: 2010.06.25/outbox.cif.g09.slc.cpg/sg2_89_cif.got.tgz:177016.got - 2010.06.27 13:26:56.
