data_PCOD8013076
_publ_section_title
;
Structure prediction by ZEFSAII (Michael W. Deem and Ramdas Pophale) SiO2 
 PCOD8013076
Probable space group: P -1
;
_chemical_formula_sum "Si O2"
_cell_formula_units_Z 16
_cell_length_a 18.086756
_cell_length_b 8.936737
_cell_length_c 21.311103
_cell_angle_alpha 40.365781
_cell_angle_beta 19.201883
_cell_angle_gamma 43.146205
_cell_volume 732.943498
_symmetry_space_group_name_H-M "P -1"
_symmetry_group_IT_number 2
_symmetry_cell_setting 'triclinic'
loop_
_space_group_symop_operation_xyz
x,y,z
-x,-y,-z
loop_
_atom_site_type_symbol
_atom_site_label
_atom_site_fract_x
_atom_site_fract_y
_atom_site_fract_z
Si Si1 0.088862 0.196834 0.717251
Si Si2 0.320072 0.426043 0.719511
Si Si3 0.496567 0.320153 0.278188
Si Si4 0.317059 0.078691 0.263449
Si Si5 0.038517 0.298108 0.309853
Si Si6 0.578714 0.809046 0.046389
Si Si7 0.388690 0.918301 0.865303
Si Si8 0.167874 0.722421 0.862786
O O1 0.278723 0.184243 0.515451
O O2 0.087028 0.450814 0.668885
O O3 0.147199 0.001337 0.785049
O O4 0.851933 0.140519 0.893242
O O5 0.500000 0.500000 0.500000
O O6 0.289294 0.622428 0.734574
O O7 0.416542 0.192069 0.750048
O O8 0.076773 0.382524 0.897397
O O9 0.424071 0.586628 0.235021
O O10 0.607968 0.197091 0.168523
O O11 0.680680 0.336174 0.180094
O O12 0.218396 0.272485 0.231959
O O13 0.411847 0.191470 0.215045
O O14 0.536023 0.927678 0.110144
O O15 0.126642 0.906769 0.488523
O O16 0.164463 0.271957 0.149920
O O17 0.500000 0.000000 0.000000
#
# Coordination Sequence:
#
# PCOD8013076 Si02
#       8
#     2   2   2   2   2   2   2   2
#     4  11  23  41  63  96 129 164 212 264 313 379
#     4  10  22  42  65  93 129 166 214 264 317 373
#     4  12  23  41  65  93 131 172 212 259 317 376
#     4  10  22  42  67  91 126 168 211 263 316 381
#     4  10  21  41  68  93 122 166 216 258 323 379
#     4  10  21  40  65  92 122 163 214 258 311 381
#     4  11  25  41  62  97 128 164 213 262 320 375
#     4  10  24  41  65  95 129 169 214 262 312 379
#
# _framework density 21.829785999999999
#
# number of rings (size 3 to 8) (size 9 to 14) (size 15 to 20)
#    0.000    1.500    2.500    1.875    0.000    5.500 
#    0.000    0.625    0.000    0.000    0.000    0.000 
#    0.000    0.000    0.000    0.000    0.000    0.000 
#
# Total GULP energy -198348.334290 kJ/mol
# GULP energy per Si atom -12396.770893 kJ/mol
# Density = 2.178010 g / cm^3
# Si number density = 21.829786 Si / 1000 Ang^3
#
#
#
# Elastic Constant Matrix: (Units=GPa)
#
#
# Indices 1 2 3 4 5 6 
#
# 1 104.9257 21.3612 61.6684 8.2968 -8.9782 2.9748
# 2 21.3612 98.3715 21.9575 -5.4126 0.2151 2.1874
# 3 61.6684 21.9575 136.1302 -1.6825 9.5534 -5.0483
# 4 8.2968 -5.4126 -1.6825 33.8510 0.9202 6.5526
# 5 -8.9782 0.2151 9.5534 0.9202 23.4169 5.2207
# 6 2.9748 2.1874 -5.0483 6.5526 5.2207 22.5553
#
#
#
# Elastic Compliance Matrix: (Units=1/GPa)
#
#
# Indices 1 2 3 4 5 6 
#
# 1 0.015889 -0.001817 -0.007882 -0.003896 0.010593 -0.005004
# 2 -0.001817 0.010952 -0.000969 0.002488 -0.000113 -0.001736
# 3 -0.007882 -0.000969 0.011938 0.001560 -0.009165 0.005474
# 4 -0.003896 0.002488 0.001560 0.032661 -0.001539 -0.008510
# 5 0.010593 -0.000113 -0.009165 -0.001539 0.054021 -0.015494
# 6 -0.005004 -0.001736 0.005474 -0.008510 -0.015494 0.052448
#
#
# Mechanical properties :
#
#
# Convention : Reuss Voigt Hill
#
# Bulk Modulus (GPa) = 57.32895 61.04461 59.18678
# Shear Modulus (GPa) = 24.38308 31.59399 27.98853
#
# Velocity S-wave (km/s) = 3.34573 3.80845 3.58456
# Velocity P-wave (km/s) = 6.42215 6.88213 6.65611
#
# Compressibility (1/GPa) = 0.01744320
#
# Stress axis : x y z
#
# Youngs Moduli (GPa) = 62.93475 91.30600 83.76353
#
# Poissons Ratio (x) = 0.16593 0.66023
# Poissons Ratio (y) = 0.11437 0.08117
# Poissons Ratio (z) = 0.49606 0.08848
#
# Static dielectric constant tensor:
#      x y z
#    x 3.707050 0.000760 0.271870 
#    y 0.000760 4.263600 0.208170 
#    z 0.271870 0.208170 4.422180 
# 
# 
# High freq. dielectric constant tensor:
#      x y z
#    x 1.830680 -0.004200 0.012470 
#    y -0.004200 1.868990 -0.002510 
#    z 0.012470 -0.002510 1.874040 
# 
# From -- ./inp_files/343321.got.cif
#   From: 2010.06.25/outbox.cif.g09.slc.cpg/sg2_172_cif.got.tgz:343321.got - 2010.06.27 13:26:56.
