data_PCOD8013676
_publ_section_title
;
Structure prediction by ZEFSAII (Michael W. Deem and Ramdas Pophale) SiO2 
 PCOD8013676
Probable space group: P -1
;
_chemical_formula_sum "Si O2"
_cell_formula_units_Z 14
_cell_length_a 15.610386
_cell_length_b 8.563354
_cell_length_c 13.310147
_cell_angle_alpha 135.634872
_cell_angle_beta 41.376240
_cell_angle_gamma 147.164373
_cell_volume 619.780493
_symmetry_space_group_name_H-M "P -1"
_symmetry_group_IT_number 2
_symmetry_cell_setting 'triclinic'
loop_
_space_group_symop_operation_xyz
x,y,z
-x,-y,-z
loop_
_atom_site_type_symbol
_atom_site_label
_atom_site_fract_x
_atom_site_fract_y
_atom_site_fract_z
Si Si1 0.618768 0.549657 0.252779
Si Si2 0.276564 0.918236 0.290771
Si Si3 0.873649 0.913588 0.359574
Si Si4 0.829092 0.372188 0.954559
Si Si5 0.194800 0.670584 0.815822
Si Si6 0.250373 0.401353 0.170271
Si Si7 0.448994 0.279669 0.802833
O O1 0.720777 0.800247 0.364003
O O2 0.541164 0.637583 0.283390
O O3 0.464930 0.230916 0.290121
O O4 0.752561 0.530701 0.073898
O O5 0.243660 0.878090 0.181047
O O6 0.262229 0.656767 0.227936
O O7 0.132237 0.911241 0.465971
O O8 0.837141 0.628144 0.305493
O O9 0.055038 0.121549 0.239649
O O10 0.035121 0.621464 0.884191
O O11 0.777156 0.226206 0.044374
O O12 0.363822 0.937099 0.728945
O O13 0.358618 0.513083 0.229231
O O14 0.324941 0.306786 0.984245
#
# Coordination Sequence:
#
# PCOD8013676 Si02
#       7
#     2   2   2   2   2   2   2
#     4  11  24  42  70  99 127 176 221 267 323 384
#     4  12  25  43  68  96 136 173 218 265 328 395
#     4  11  26  46  66  94 138 177 214 262 332 395
#     4  10  21  40  71  96 126 170 224 269 321 376
#     4  10  23  43  67  97 135 168 217 275 323 383
#     4  11  24  42  69  99 131 168 219 279 322 379
#     4  11  24  41  71 100 130 164 225 277 321 375
#
# _framework density 22.588640999999999
#
# number of rings (size 3 to 8) (size 9 to 14) (size 15 to 20)
#    0.000    1.143    1.429    5.571    8.000    1.714 
#    0.000    1.429    0.000    0.000    0.000    0.000 
#    0.000    0.000    0.000    0.000    0.000    0.000 
#
# Total GULP energy -173641.174541 kJ/mol
# GULP energy per Si atom -12402.941039 kJ/mol
# Density = 2.253723 g / cm^3
# Si number density = 22.588641 Si / 1000 Ang^3
#
#
#
# Elastic Constant Matrix: (Units=GPa)
#
#
# Indices 1 2 3 4 5 6 
#
# 1 106.0085 47.1921 24.2428 6.3556 -7.0055 3.3330
# 2 47.1921 125.8943 12.0572 11.7608 -9.4845 -5.3924
# 3 24.2428 12.0572 80.0945 4.8926 5.6045 0.4877
# 4 6.3556 11.7608 4.8926 16.2380 3.1830 -9.3075
# 5 -7.0055 -9.4845 5.6045 3.1830 20.9055 6.7348
# 6 3.3330 -5.3924 0.4877 -9.3075 6.7348 38.6788
#
#
#
# Elastic Compliance Matrix: (Units=1/GPa)
#
#
# Indices 1 2 3 4 5 6 
#
# 1 0.012569 -0.003762 -0.003321 -0.004194 0.005152 -0.003472
# 2 -0.003762 0.010417 -0.000316 -0.007454 0.004968 -0.000878
# 3 -0.003321 -0.000316 0.013966 -0.001351 -0.004991 0.000610
# 4 -0.004194 -0.007454 -0.001351 0.088567 -0.026023 0.025183
# 5 0.005152 0.004968 -0.004991 -0.026023 0.062540 -0.016840
# 6 -0.003472 -0.000878 0.000610 0.025183 -0.016840 0.035015
#
#
# Mechanical properties :
#
#
# Convention : Reuss Voigt Hill
#
# Bulk Modulus (GPa) = 45.14181 53.22018 49.18099
# Shear Modulus (GPa) = 20.38682 30.39814 25.39248
#
# Velocity S-wave (km/s) = 3.00746 3.67239 3.35644
# Velocity P-wave (km/s) = 5.66458 6.44932 6.06965
#
# Compressibility (1/GPa) = 0.02215241
#
# Stress axis : x y z
#
# Youngs Moduli (GPa) = 79.56346 95.99969 71.60155
#
# Poissons Ratio (x) = 0.36116 0.23780
# Poissons Ratio (y) = 0.29932 0.02265
# Poissons Ratio (z) = 0.26424 0.03037
#
# Static dielectric constant tensor:
#      x y z
#    x 4.167180 0.179430 -0.070600 
#    y 0.179430 4.007500 0.067420 
#    z -0.070600 0.067420 3.886740 
# 
# 
# High freq. dielectric constant tensor:
#      x y z
#    x 1.897570 0.009170 -0.008000 
#    y 0.009170 1.894930 0.004940 
#    z -0.008000 0.004940 1.872070 
# 
# From -- ./inp_files/180034.got.cif
#   From: 2010.06.25/outbox.cif.g09.slc.cpg/sg2_91_cif.got.tgz:180034.got - 2010.06.27 13:26:56.
