data_PCOD8013592
_publ_section_title
;
Structure prediction by ZEFSAII (Michael W. Deem and Ramdas Pophale) SiO2 
 PCOD8013592
Probable space group: P -1
;
_chemical_formula_sum "Si O2"
_cell_formula_units_Z 16
_cell_length_a 14.909249
_cell_length_b 8.920287
_cell_length_c 9.180640
_cell_angle_alpha 69.647814
_cell_angle_beta 65.466785
_cell_angle_gamma 40.206127
_cell_volume 716.052906
_symmetry_space_group_name_H-M "P -1"
_symmetry_group_IT_number 2
_symmetry_cell_setting 'triclinic'
loop_
_space_group_symop_operation_xyz
x,y,z
-x,-y,-z
loop_
_atom_site_type_symbol
_atom_site_label
_atom_site_fract_x
_atom_site_fract_y
_atom_site_fract_z
Si Si1 0.400959 0.871230 0.954338
Si Si2 0.657814 0.422326 0.594710
Si Si3 0.858631 0.617694 0.969504
Si Si4 0.418740 0.161566 0.361202
Si Si5 0.115622 0.477840 0.353981
Si Si6 0.926224 0.105574 0.667775
Si Si7 0.187731 0.660630 0.776769
Si Si8 0.596522 0.424468 0.159146
O O1 0.468764 0.951296 0.808428
O O2 0.365819 0.771105 0.898984
O O3 0.519780 0.664212 0.053752
O O4 0.254623 0.103037 0.050086
O O5 0.631674 0.604968 0.647657
O O6 0.772146 0.203214 0.703824
O O7 0.719969 0.400428 0.406081
O O8 0.510603 0.495432 0.660829
O O9 0.897039 0.525670 0.809789
O O10 0.790784 0.548276 0.126029
O O11 0.000000 0.500000 0.000000
O O12 0.275032 0.234547 0.384078
O O13 0.500000 0.000000 0.500000
O O14 0.081948 0.700019 0.344161
O O15 0.000000 0.500000 0.500000
O O16 0.000000 0.000000 0.500000
O O17 0.018720 0.898131 0.793217
O O18 0.249258 0.699600 0.849197
#
# Coordination Sequence:
#
# PCOD8013592 Si02
#       8
#     2   2   2   2   2   2   2   2
#     4  10  24  45  66  96 145 174 233 283 362 409
#     4   9  20  38  65  98 132 171 219 281 353 399
#     4  12  30  44  69 101 145 192 232 296 352 412
#     4  10  21  40  69  96 135 185 222 288 346 417
#     4  11  27  45  68 106 141 186 243 283 355 418
#     4   9  22  42  67  93 139 180 221 285 341 416
#     4  11  23  41  67  99 134 175 239 279 346 415
#     4  10  22  41  72 100 128 181 227 293 340 422
#
# _framework density 22.344718
#
# number of rings (size 3 to 8) (size 9 to 14) (size 15 to 20)
#    0.000    1.750    0.000    1.875   10.500    6.500 
#    0.000    0.000    0.000    0.000    0.000    0.000 
#    0.000    0.000    0.000    0.000    0.000    0.000 
#
# Total GULP energy -198225.845785 kJ/mol
# GULP energy per Si atom -12389.115362 kJ/mol
# Density = 2.229386 g / cm^3
# Si number density = 22.344718 Si / 1000 Ang^3
#
#
#
# Elastic Constant Matrix: (Units=GPa)
#
#
# Indices 1 2 3 4 5 6 
#
# 1 119.4193 36.1702 39.8484 -4.0552 12.3188 -16.8910
# 2 36.1702 111.3614 37.7729 3.9829 10.6890 -4.5977
# 3 39.8484 37.7729 116.9179 -6.1880 8.7320 2.9269
# 4 -4.0552 3.9829 -6.1880 28.4252 4.1473 9.2717
# 5 12.3188 10.6890 8.7320 4.1473 30.1444 -8.6045
# 6 -16.8910 -4.5977 2.9269 9.2717 -8.6045 30.2803
#
#
#
# Elastic Compliance Matrix: (Units=1/GPa)
#
#
# Indices 1 2 3 4 5 6 
#
# 1 0.011016 -0.002131 -0.003175 -0.000642 -0.001015 0.006036
# 2 -0.002131 0.010924 -0.002857 -0.002602 -0.001498 0.001117
# 3 -0.003175 -0.002857 0.011184 0.004679 -0.003178 -0.005622
# 4 -0.000642 -0.002602 0.004679 0.043956 -0.011322 -0.017882
# 5 -0.001015 -0.001498 -0.003178 -0.011322 0.040754 0.014561
# 6 0.006036 0.001117 -0.005622 -0.017882 0.014561 0.046718
#
#
# Mechanical properties :
#
#
# Convention : Reuss Voigt Hill
#
# Bulk Modulus (GPa) = 59.53369 63.92021 61.72695
# Shear Modulus (GPa) = 26.81294 33.36377 30.08835
#
# Velocity S-wave (km/s) = 3.46781 3.86831 3.67352
# Velocity P-wave (km/s) = 6.53723 6.97282 6.75854
#
# Compressibility (1/GPa) = 0.01679721
#
# Stress axis : x y z
#
# Youngs Moduli (GPa) = 90.78093 91.54182 89.41548
#
# Poissons Ratio (x) = 0.19510 0.28390
# Poissons Ratio (y) = 0.19348 0.25543
# Poissons Ratio (z) = 0.28824 0.26150
#
# Static dielectric constant tensor:
#      x y z
#    x 4.216570 -0.349450 0.014750 
#    y -0.349450 4.250980 0.112300 
#    z 0.014750 0.112300 3.858490 
# 
# 
# High freq. dielectric constant tensor:
#      x y z
#    x 1.885370 -0.014760 0.003140 
#    y -0.014760 1.886600 0.001670 
#    z 0.003140 0.001670 1.882130 
# 
# From -- ./inp_files/297828.got.cif
#   From: 2010.06.25/outbox.cif.g09.slc.cpg/sg2_149_cif.got.tgz:297828.got - 2010.06.27 13:26:56.
