data_PCOD8013646
_publ_section_title
;
Structure prediction by ZEFSAII (Michael W. Deem and Ramdas Pophale) SiO2 
 PCOD8013646
Probable space group: P -1
;
_chemical_formula_sum "Si O2"
_cell_formula_units_Z 14
_cell_length_a 17.776854
_cell_length_b 10.641743
_cell_length_c 7.645044
_cell_angle_alpha 118.314585
_cell_angle_beta 28.736026
_cell_angle_gamma 130.215718
_cell_volume 514.084457
_symmetry_space_group_name_H-M "P -1"
_symmetry_group_IT_number 2
_symmetry_cell_setting 'triclinic'
loop_
_space_group_symop_operation_xyz
x,y,z
-x,-y,-z
loop_
_atom_site_type_symbol
_atom_site_label
_atom_site_fract_x
_atom_site_fract_y
_atom_site_fract_z
Si Si1 0.502687 0.631779 0.216084
Si Si2 0.837415 0.178963 0.338223
Si Si3 0.833082 0.776675 0.875831
Si Si4 0.307572 0.826355 0.718580
Si Si5 0.751499 0.715804 0.380682
Si Si6 0.057896 0.471221 0.549795
Si Si7 0.256034 0.007532 0.234188
O O1 0.431163 0.748360 0.370370
O O2 0.362984 0.488583 0.547646
O O3 0.500000 0.500000 0.000000
O O4 0.703722 0.774508 0.984609
O O5 0.721961 0.088254 0.337480
O O6 0.743595 0.075341 0.637766
O O7 0.836296 0.350684 0.449274
O O8 0.043816 0.219741 0.925117
O O9 0.801734 0.590315 0.808449
O O10 0.051902 0.920729 0.504911
O O11 0.766110 0.801376 0.219107
O O12 0.113013 0.668994 0.080158
O O13 0.383295 0.972541 0.817580
O O14 0.669884 0.792922 0.740994
O O15 0.000000 0.500000 0.500000
#
# Coordination Sequence:
#
# PCOD8013646 Si02
#       7
#     2   2   2   2   2   2   2
#     4  12  26  43  65 101 139 173 222 271 336 398
#     4  11  20  37  71 100 128 167 233 275 325 385
#     4  10  21  40  70  95 132 174 216 274 335 391
#     4  11  23  41  68  96 134 179 220 276 326 395
#     4  11  23  43  68 101 132 174 221 279 332 393
#     4  11  17  35  66 101 124 166 227 276 315 385
#     4  10  24  45  72  99 130 172 231 274 331 395
#
# _framework density 27.232880000000002
#
# number of rings (size 3 to 8) (size 9 to 14) (size 15 to 20)
#    0.000    1.143    5.714    3.429    4.000    0.571 
#    5.143    1.429    3.143    0.000    0.000    0.000 
#    0.000    0.000    0.000    0.000    0.000    0.000 
#
# Total GULP energy -173556.554770 kJ/mol
# GULP energy per Si atom -12396.896769 kJ/mol
# Density = 2.717090 g / cm^3
# Si number density = 27.232880 Si / 1000 Ang^3
#
#
#
# Elastic Constant Matrix: (Units=GPa)
#
#
# Indices 1 2 3 4 5 6 
#
# 1 175.1883 37.3125 70.7922 -6.4812 -7.0024 11.4708
# 2 37.3125 170.3266 30.6769 7.7134 13.3927 4.8887
# 3 70.7922 30.6769 145.0409 16.6167 21.5012 7.4765
# 4 -6.4812 7.7134 16.6167 29.4418 9.0712 11.3617
# 5 -7.0024 13.3927 21.5012 9.0712 41.3770 5.3712
# 6 11.4708 4.8887 7.4765 11.3617 5.3712 30.6749
#
#
#
# Elastic Compliance Matrix: (Units=1/GPa)
#
#
# Indices 1 2 3 4 5 6 
#
# 1 0.008654 -0.001439 -0.004897 0.005628 0.003835 -0.004569
# 2 -0.001439 0.006433 -0.000227 -0.001445 -0.001949 0.000445
# 3 -0.004897 -0.000227 0.010716 -0.006438 -0.005245 0.002559
# 4 0.005628 -0.001445 -0.006438 0.046815 -0.003282 -0.017070
# 5 0.003835 -0.001949 -0.005245 -0.003282 0.029382 -0.003774
# 6 -0.004569 0.000445 0.002559 -0.017070 -0.003774 0.040598
#
#
# Mechanical properties :
#
#
# Convention : Reuss Voigt Hill
#
# Bulk Modulus (GPa) = 78.88136 85.34657 82.11396
# Shear Modulus (GPa) = 31.25964 43.75036 37.50500
#
# Velocity S-wave (km/s) = 3.39169 4.01250 3.71508
# Velocity P-wave (km/s) = 6.66081 7.27148 6.97284
#
# Compressibility (1/GPa) = 0.01267727
#
# Stress axis : x y z
#
# Youngs Moduli (GPa) = 115.54986 155.44681 93.31806
#
# Poissons Ratio (x) = 0.22369 0.45701
# Poissons Ratio (y) = 0.16628 0.02115
# Poissons Ratio (z) = 0.56589 0.03524
#
# Static dielectric constant tensor:
#      x y z
#    x 4.905010 -0.092460 0.364500 
#    y -0.092460 6.641550 0.278560 
#    z 0.364500 0.278560 5.556970 
# 
# 
# High freq. dielectric constant tensor:
#      x y z
#    x 2.095550 -0.007840 0.024810 
#    y -0.007840 2.130270 0.002240 
#    z 0.024810 0.002240 2.113020 
# 
# From -- ./inp_files/331217.got.cif
#   From: 2010.06.25/outbox.cif.g09.slc.cpg/sg2_166_cif.got.tgz:331217.got - 2010.06.27 13:26:56.
