data_PCOD8013389
_publ_section_title
;
Structure prediction by ZEFSAII (Michael W. Deem and Ramdas Pophale) SiO2 
 PCOD8013389
Probable space group: P -1
;
_chemical_formula_sum "Si O2"
_cell_formula_units_Z 16
_cell_length_a 9.781732
_cell_length_b 14.791044
_cell_length_c 12.785478
_cell_angle_alpha 101.431536
_cell_angle_beta 135.129472
_cell_angle_gamma 113.426382
_cell_volume 803.576486
_symmetry_space_group_name_H-M "P -1"
_symmetry_group_IT_number 2
_symmetry_cell_setting 'triclinic'
loop_
_space_group_symop_operation_xyz
x,y,z
-x,-y,-z
loop_
_atom_site_type_symbol
_atom_site_label
_atom_site_fract_x
_atom_site_fract_y
_atom_site_fract_z
Si Si1 0.735417 0.753960 0.338720
Si Si2 0.861277 0.545494 0.974946
Si Si3 0.556995 0.176670 0.883535
Si Si4 0.227831 0.970311 0.829139
Si Si5 0.729755 0.052000 0.482735
Si Si6 0.545495 0.157279 0.529887
Si Si7 0.209697 0.366265 0.244306
Si Si8 0.890667 0.882095 0.831942
O O1 0.444576 0.577369 0.147378
O O2 0.571685 0.792879 0.255837
O O3 0.924063 0.808871 0.345333
O O4 0.941756 0.823115 0.572019
O O5 0.748941 0.572063 0.830350
O O6 0.000000 0.500000 0.000000
O O7 0.121476 0.696834 0.211477
O O8 0.369309 0.109996 0.875116
O O9 0.487019 0.055920 0.756438
O O10 0.921360 0.310100 0.132394
O O11 0.142179 0.970173 0.897651
O O12 0.500000 0.000000 0.000000
O O13 0.591307 0.096681 0.454087
O O14 0.699705 0.967166 0.542657
O O15 0.422773 0.201584 0.413838
O O16 0.500000 0.500000 0.500000
O O17 0.170201 0.241153 0.179897
O O18 0.000000 0.000000 0.000000
#
# Coordination Sequence:
#
# PCOD8013389 Si02
#       8
#     2   2   2   2   2   2   2   2
#     4  11  23  39  68  93 129 165 223 271 325 387
#     4  12  23  41  66  94 125 171 220 269 328 399
#     4  11  20  40  65  94 122 166 221 270 319 384
#     4  11  22  38  65  96 126 167 220 274 325 387
#     4  10  21  40  67  95 123 168 218 277 318 385
#     4  11  23  40  68  92 130 167 223 265 331 395
#     4  12  24  40  64  96 135 173 219 270 334 395
#     4  12  26  42  65 100 135 176 216 274 338 393
#
# _framework density 19.910986000000001
#
# number of rings (size 3 to 8) (size 9 to 14) (size 15 to 20)
#    0.000    0.750    3.750    6.000    3.500    0.500 
#    0.000    0.000    0.000    1.500    0.000    0.000 
#    0.000    0.000    0.000    0.000    0.000    0.000 
#
# Total GULP energy -198304.879548 kJ/mol
# GULP energy per Si atom -12394.054972 kJ/mol
# Density = 1.986567 g / cm^3
# Si number density = 19.910986 Si / 1000 Ang^3
#
#
#
# Elastic Constant Matrix: (Units=GPa)
#
#
# Indices 1 2 3 4 5 6 
#
# 1 119.6239 56.0361 48.9610 8.3100 2.6098 19.1422
# 2 56.0361 137.4348 55.1206 -3.0660 7.2347 8.6895
# 3 48.9610 55.1206 121.9543 -7.2427 16.1316 7.3267
# 4 8.3100 -3.0660 -7.2427 36.9729 2.4215 12.9203
# 5 2.6098 7.2347 16.1316 2.4215 33.7399 3.4813
# 6 19.1422 8.6895 7.3267 12.9203 3.4813 37.3629
#
#
#
# Elastic Compliance Matrix: (Units=1/GPa)
#
#
# Indices 1 2 3 4 5 6 
#
# 1 0.012199 -0.003474 -0.003498 -0.002413 0.002071 -0.004115
# 2 -0.003474 0.009947 -0.002945 0.001171 -0.000508 -0.000314
# 3 -0.003498 -0.002945 0.011821 0.003372 -0.004935 -0.000547
# 4 -0.002413 0.001171 0.003372 0.032232 -0.002899 -0.010573
# 5 0.002071 -0.000508 -0.004935 -0.002899 0.032360 -0.001988
# 6 -0.004115 -0.000314 -0.000547 -0.010573 -0.001988 0.032895
#
#
# Mechanical properties :
#
#
# Convention : Reuss Voigt Hill
#
# Bulk Modulus (GPa) = 70.75502 77.69426 74.22464
# Shear Modulus (GPa) = 32.05172 36.20817 34.12995
#
# Velocity S-wave (km/s) = 4.01652 4.26902 4.14469
# Velocity P-wave (km/s) = 7.55796 7.96272 7.76298
#
# Compressibility (1/GPa) = 0.01413327
#
# Stress axis : x y z
#
# Youngs Moduli (GPa) = 81.97232 100.53706 84.59393
#
# Poissons Ratio (x) = 0.34926 0.29587
# Poissons Ratio (y) = 0.28476 0.24916
# Poissons Ratio (z) = 0.28670 0.29612
#
# Static dielectric constant tensor:
#      x y z
#    x 3.879750 0.090260 0.254610 
#    y 0.090260 4.223140 -0.147830 
#    z 0.254610 -0.147830 3.784590 
# 
# 
# High freq. dielectric constant tensor:
#      x y z
#    x 1.770150 0.009070 0.018680 
#    y 0.009070 1.786950 -0.013080 
#    z 0.018680 -0.013080 1.777190 
# 
# From -- ./inp_files/316133.got.cif
#   From: 2010.06.25/outbox.cif.g09.slc.cpg/sg2_159_cif.got.tgz:316133.got - 2010.06.27 13:26:56.
