data_PCOD8013021
_publ_section_title
;
Structure prediction by ZEFSAII (Michael W. Deem and Ramdas Pophale) SiO2 
 PCOD8013021
Probable space group: P -1
;
_chemical_formula_sum "Si O2"
_cell_formula_units_Z 16
_cell_length_a 21.615762
_cell_length_b 18.361255
_cell_length_c 9.032841
_cell_angle_alpha 39.066741
_cell_angle_beta 31.516249
_cell_angle_gamma 24.879629
_cell_volume 788.366432
_symmetry_space_group_name_H-M "P -1"
_symmetry_group_IT_number 2
_symmetry_cell_setting 'triclinic'
loop_
_space_group_symop_operation_xyz
x,y,z
-x,-y,-z
loop_
_atom_site_type_symbol
_atom_site_label
_atom_site_fract_x
_atom_site_fract_y
_atom_site_fract_z
Si Si1 0.829345 0.442135 0.224015
Si Si2 0.048333 0.706104 0.230988
Si Si3 0.169762 0.185683 0.752658
Si Si4 0.085152 0.173285 0.376232
Si Si5 0.311602 0.310718 0.370355
Si Si6 0.692526 0.113089 0.849055
Si Si7 0.313896 0.627197 0.596044
Si Si8 0.206946 0.330051 0.871180
O O1 0.688044 0.465517 0.386920
O O2 0.731122 0.631062 0.181924
O O3 0.917003 0.315487 0.386707
O O4 0.985508 0.363933 0.917472
O O5 0.143000 0.514328 0.365309
O O6 0.863576 0.816466 0.347953
O O7 0.998348 0.803704 0.333326
O O8 0.166544 0.707878 0.892384
O O9 0.305208 0.192742 0.484193
O O10 0.233005 0.022535 0.959804
O O11 0.213568 0.982632 0.348056
O O12 0.217836 0.186281 0.109669
O O13 0.325777 0.274352 0.573829
O O14 0.481247 0.252666 0.051303
O O15 0.732823 0.217861 0.633305
O O16 0.500000 0.500000 0.500000
O O17 0.000000 0.500000 0.000000
#
# Coordination Sequence:
#
# PCOD8013021 Si02
#       8
#     2   2   2   2   2   2   2   2
#     4   9  18  36  64  87 120 165 205 246 298 374
#     4  11  22  38  66  90 125 162 214 254 292 371
#     4  10  21  36  62  97 120 160 209 252 315 364
#     4  10  20  39  63  96 122 162 202 257 315 367
#     4  12  19  37  66  94 125 162 204 261 305 368
#     4  11  24  41  62  86 134 168 198 255 316 365
#     4  11  24  43  60  90 126 166 213 252 301 368
#     4  10  16  33  62  96 122 151 209 250 307 374
#
# _framework density 20.295131999999999
#
# number of rings (size 3 to 8) (size 9 to 14) (size 15 to 20)
#    0.000    1.500    7.500    0.750    0.000    6.000 
#    0.000    4.375    0.000    0.000    0.000    0.000 
#    0.000    0.000    0.000    0.000    0.000    0.000 
#
# Total GULP energy -198331.719862 kJ/mol
# GULP energy per Si atom -12395.732491 kJ/mol
# Density = 2.024894 g / cm^3
# Si number density = 20.295132 Si / 1000 Ang^3
#
#
#
# Elastic Constant Matrix: (Units=GPa)
#
#
# Indices 1 2 3 4 5 6 
#
# 1 146.3060 29.7334 43.9555 5.5308 -8.7057 11.7123
# 2 29.7334 53.5842 13.3348 -6.6889 -6.7162 4.9353
# 3 43.9555 13.3348 94.2888 -7.5335 -6.3658 2.4741
# 4 5.5308 -6.6889 -7.5335 29.9872 9.6244 0.4490
# 5 -8.7057 -6.7162 -6.3658 9.6244 35.0518 -5.7977
# 6 11.7123 4.9353 2.4741 0.4490 -5.7977 14.5035
#
#
#
# Elastic Compliance Matrix: (Units=1/GPa)
#
#
# Indices 1 2 3 4 5 6 
#
# 1 0.009482 -0.004176 -0.003940 -0.003947 0.001095 -0.005004
# 2 -0.004176 0.022278 -0.000609 0.005316 0.001023 -0.003861
# 3 -0.003940 -0.000609 0.012817 0.003651 0.000439 0.001265
# 4 -0.003947 0.005316 0.003651 0.039793 -0.011033 -0.004887
# 5 0.001095 0.001023 0.000439 -0.011033 0.034209 0.012709
# 6 -0.005004 -0.003861 0.001265 -0.004887 0.012709 0.079320
#
#
# Mechanical properties :
#
#
# Convention : Reuss Voigt Hill
#
# Bulk Modulus (GPa) = 36.86231 52.02515 44.44373
# Shear Modulus (GPa) = 22.28263 29.71884 26.00073
#
# Velocity S-wave (km/s) = 3.31710 3.83081 3.58317
# Velocity P-wave (km/s) = 5.73353 6.72732 6.25021
#
# Compressibility (1/GPa) = 0.02712798
#
# Stress axis : x y z
#
# Youngs Moduli (GPa) = 105.45963 44.88702 78.02295
#
# Poissons Ratio (x) = 0.18743 0.30741
# Poissons Ratio (y) = 0.44036 0.04752
# Poissons Ratio (z) = 0.41551 0.02734
#
# Static dielectric constant tensor:
#      x y z
#    x 4.029190 0.295190 -0.049480 
#    y 0.295190 3.598450 -0.109610 
#    z -0.049480 -0.109610 3.687160 
# 
# 
# High freq. dielectric constant tensor:
#      x y z
#    x 1.788020 0.013750 0.002370 
#    y 0.013750 1.769820 -0.007550 
#    z 0.002370 -0.007550 1.787570 
# 
# From -- ./inp_files/189791.got.cif
#   From: 2010.06.25/outbox.cif.g09.slc.cpg/sg2_95_cif.got.tgz:189791.got - 2010.06.27 13:26:56.
