data_PCOD8013205
_publ_section_title
;
Structure prediction by ZEFSAII (Michael W. Deem and Ramdas Pophale) SiO2 
 PCOD8013205
Probable space group: P -1
;
_chemical_formula_sum "Si O2"
_cell_formula_units_Z 12
_cell_length_a 14.176824
_cell_length_b 9.314253
_cell_length_c 8.637318
_cell_angle_alpha 72.301337
_cell_angle_beta 32.061355
_cell_angle_gamma 74.491928
_cell_volume 576.660742
_symmetry_space_group_name_H-M "P -1"
_symmetry_group_IT_number 2
_symmetry_cell_setting 'triclinic'
loop_
_space_group_symop_operation_xyz
x,y,z
-x,-y,-z
loop_
_atom_site_type_symbol
_atom_site_label
_atom_site_fract_x
_atom_site_fract_y
_atom_site_fract_z
Si Si1 0.271539 0.781880 0.730195
Si Si2 0.486337 0.279448 0.312455
Si Si3 0.947239 0.734244 0.408419
Si Si4 0.195968 0.591839 0.341492
Si Si5 0.638650 0.948330 0.695680
Si Si6 0.205688 0.528379 0.680749
O O1 0.433961 0.798071 0.618809
O O2 0.287260 0.618021 0.681670
O O3 0.276883 0.909696 0.551894
O O4 0.083587 0.797146 0.072617
O O5 0.453550 0.152990 0.272230
O O6 0.305699 0.367282 0.579295
O O7 0.626015 0.398505 0.011153
O O8 0.866099 0.579396 0.513520
O O9 0.792068 0.857709 0.604896
O O10 0.044891 0.705301 0.446393
O O11 0.231866 0.631863 0.457122
O O12 0.500000 0.000000 0.000000
O O13 0.000000 0.500000 0.000000
#
# Coordination Sequence:
#
# PCOD8013205 Si02
#       6
#     2   2   2   2   2   2
#     4  11  24  42  64  94 130 165 212 254 324 374
#     4  11  24  42  65  92 130 169 208 264 309 375
#     4  10  22  42  64  91 126 169 204 268 306 372
#     4  10  21  40  66  90 126 159 218 255 317 352
#     4  12  25  42  64  94 129 171 210 254 321 379
#     4  12  22  39  65 100 123 165 212 262 313 371
#
# _framework density 20.809463000000001
#
# number of rings (size 3 to 8) (size 9 to 14) (size 15 to 20)
#    0.000    1.000    3.333    3.000    2.333    1.333 
#    0.000    9.167    0.000    0.000    0.000    0.000 
#    0.000    0.000    0.000    0.000    0.000    0.000 
#
# Total GULP energy -148848.255041 kJ/mol
# GULP energy per Si atom -12404.021253 kJ/mol
# Density = 2.076210 g / cm^3
# Si number density = 20.809463 Si / 1000 Ang^3
#
#
#
# Elastic Constant Matrix: (Units=GPa)
#
#
# Indices 1 2 3 4 5 6 
#
# 1 73.6417 50.6095 28.5401 25.4497 -1.3027 5.4277
# 2 50.6095 115.1943 60.9116 17.6174 -3.1730 -9.5602
# 3 28.5401 60.9116 116.8697 16.8379 -6.2101 -18.1981
# 4 25.4497 17.6174 16.8379 42.3033 -1.6981 2.0483
# 5 -1.3027 -3.1730 -6.2101 -1.6981 31.6884 -2.1070
# 6 5.4277 -9.5602 -18.1981 2.0483 -2.1070 37.7942
#
#
#
# Elastic Compliance Matrix: (Units=1/GPa)
#
#
# Indices 1 2 3 4 5 6 
#
# 1 0.024013 -0.009209 -0.000508 -0.010180 -0.000947 -0.005524
# 2 -0.009209 0.015809 -0.005747 0.001135 0.000306 0.002510
# 3 -0.000508 -0.005747 0.012966 -0.002624 0.002145 0.005124
# 4 -0.010180 0.001135 -0.002624 0.030418 0.000736 -0.001122
# 5 -0.000947 0.000306 0.002145 0.000736 0.032208 0.003002
# 6 -0.005524 0.002510 0.005124 -0.001122 0.003002 0.030583
#
#
# Mechanical properties :
#
#
# Convention : Reuss Voigt Hill
#
# Bulk Modulus (GPa) = 45.74705 65.09203 55.41954
# Shear Modulus (GPa) = 27.14252 33.40014 30.27133
#
# Velocity S-wave (km/s) = 3.61548 4.01065 3.81818
# Velocity P-wave (km/s) = 6.28175 7.26602 6.79174
#
# Compressibility (1/GPa) = 0.02185933
#
# Stress axis : x y z
#
# Youngs Moduli (GPa) = 41.64351 63.25551 77.12559
#
# Poissons Ratio (x) = 0.58251 0.03921
# Poissons Ratio (y) = 0.38349 0.44324
# Poissons Ratio (z) = 0.02117 0.36353
#
# Static dielectric constant tensor:
#      x y z
#    x 4.084310 -0.049800 0.025300 
#    y -0.049800 3.601950 -0.047720 
#    z 0.025300 -0.047720 3.818660 
# 
# 
# High freq. dielectric constant tensor:
#      x y z
#    x 1.831040 -0.007000 -0.000760 
#    y -0.007000 1.800940 -0.004300 
#    z -0.000760 -0.004300 1.823030 
# 
# From -- ./inp_files/144406.got.cif
#   From: 2010.06.25/outbox.cif.g09.slc.cpg/sg2_73_cif.got.tgz:144406.got - 2010.06.27 13:26:56.
