data_PCOD8013459
_publ_section_title
;
Structure prediction by ZEFSAII (Michael W. Deem and Ramdas Pophale) SiO2 
 PCOD8013459
Probable space group: P -1
;
_chemical_formula_sum "Si O2"
_cell_formula_units_Z 14
_cell_length_a 8.617329
_cell_length_b 9.910315
_cell_length_c 16.536965
_cell_angle_alpha 145.250825
_cell_angle_beta 113.789106
_cell_angle_gamma 51.378554
_cell_volume 609.609138
_symmetry_space_group_name_H-M "P -1"
_symmetry_group_IT_number 2
_symmetry_cell_setting 'triclinic'
loop_
_space_group_symop_operation_xyz
x,y,z
-x,-y,-z
loop_
_atom_site_type_symbol
_atom_site_label
_atom_site_fract_x
_atom_site_fract_y
_atom_site_fract_z
Si Si1 0.429935 0.687476 0.909138
Si Si2 0.224624 0.379584 0.459901
Si Si3 0.444210 0.131807 0.642100
Si Si4 0.153663 0.810920 0.774744
Si Si5 0.152350 0.259776 0.222940
Si Si6 0.913285 0.326387 0.863653
Si Si7 0.948009 0.802219 0.346272
O O1 0.373277 0.456995 0.794674
O O2 0.323405 0.834594 0.871676
O O3 0.673092 0.532124 0.891519
O O4 0.322664 0.932744 0.074756
O O5 0.286648 0.570674 0.614892
O O6 0.240749 0.378981 0.365837
O O7 0.000000 0.500000 0.500000
O O8 0.353857 0.050551 0.351670
O O9 0.281849 0.082248 0.622447
O O10 0.500000 0.000000 0.500000
O O11 0.045574 0.716458 0.769112
O O12 0.970099 0.098662 0.834790
O O13 0.091650 0.466663 0.235292
O O14 0.033669 0.160798 0.726594
O O15 0.000000 0.500000 0.000000
O O16 0.000000 0.000000 0.500000
#
# Coordination Sequence:
#
# PCOD8013459 Si02
#       7
#     2   2   2   2   2   2   2
#     4  12  25  46  79 105 146 199 252 299 368 442
#     4  10  21  40  68 106 136 177 244 306 352 419
#     4  12  23  45  78 108 140 192 251 301 360 440
#     4  11  23  47  76 102 146 195 253 305 356 447
#     4  11  24  44  76 109 141 191 259 306 356 438
#     4  12  30  48  69 109 160 191 237 312 384 432
#     4  12  27  49  73 109 151 190 239 310 375 434
#
# _framework density 22.965534000000002
#
# number of rings (size 3 to 8) (size 9 to 14) (size 15 to 20)
#    0.000    0.571    2.857    5.571    4.000    3.429 
#    0.000    1.429    0.000    0.000    0.000    0.000 
#    0.000    0.000    0.000    0.000    0.000    0.000 
#
# Total GULP energy -173510.463850 kJ/mol
# GULP energy per Si atom -12393.604561 kJ/mol
# Density = 2.291326 g / cm^3
# Si number density = 22.965534 Si / 1000 Ang^3
#
#
#
# Elastic Constant Matrix: (Units=GPa)
#
#
# Indices 1 2 3 4 5 6 
#
# 1 112.1389 45.5434 46.5748 -5.7724 0.8022 -18.9804
# 2 45.5434 137.6978 31.9893 -2.0319 -2.1103 -23.2698
# 3 46.5748 31.9893 157.6146 -10.7388 -0.4189 -14.8371
# 4 -5.7724 -2.0319 -10.7388 47.6493 -2.8773 4.8686
# 5 0.8022 -2.1103 -0.4189 -2.8773 32.0296 3.4327
# 6 -18.9804 -23.2698 -14.8371 4.8686 3.4327 37.3825
#
#
#
# Elastic Compliance Matrix: (Units=1/GPa)
#
#
# Indices 1 2 3 4 5 6 
#
# 1 0.011660 -0.002720 -0.002568 0.000337 -0.000822 0.003239
# 2 -0.002720 0.008990 -0.000678 -0.000496 0.000179 0.003994
# 3 -0.002568 -0.000678 0.007424 0.001233 0.000115 0.001050
# 4 0.000337 -0.000496 0.001233 0.021691 0.002210 -0.002676
# 5 -0.000822 0.000179 0.000115 0.002210 0.031826 -0.003471
# 6 0.003239 0.003994 0.001050 -0.002676 -0.003471 0.031965
#
#
# Mechanical properties :
#
#
# Convention : Reuss Voigt Hill
#
# Bulk Modulus (GPa) = 61.95018 72.85181 67.40099
# Shear Modulus (GPa) = 38.20609 42.30187 40.25398
#
# Velocity S-wave (km/s) = 4.08318 4.29648 4.19119
# Velocity P-wave (km/s) = 7.01881 7.51026 7.26869
#
# Compressibility (1/GPa) = 0.01614200
#
# Stress axis : x y z
#
# Youngs Moduli (GPa) = 85.76095 111.23594 134.69640
#
# Poissons Ratio (x) = 0.30259 0.34587
# Poissons Ratio (y) = 0.23329 0.09134
# Poissons Ratio (z) = 0.22021 0.07543
#
# Static dielectric constant tensor:
#      x y z
#    x 3.950680 -0.269890 0.238620 
#    y -0.269890 4.650360 -0.165730 
#    z 0.238620 -0.165730 4.869270 
# 
# 
# High freq. dielectric constant tensor:
#      x y z
#    x 1.882320 -0.017570 0.004170 
#    y -0.017570 1.927340 -0.001930 
#    z 0.004170 -0.001930 1.924000 
# 
# From -- ./inp_files/495863.got.cif
#   From: 2010.06.25/outbox.cif.g09.slc.cpg/sg2_248_cif.got.tgz:495863.got - 2010.06.27 13:26:56.
