data_PCOD8013111
_publ_section_title
;
Structure prediction by ZEFSAII (Michael W. Deem and Ramdas Pophale) SiO2 
 PCOD8013111
Probable space group: P -1
;
_chemical_formula_sum "Si O2"
_cell_formula_units_Z 14
_cell_length_a 16.303495
_cell_length_b 8.703426
_cell_length_c 7.302322
_cell_angle_alpha 48.620837
_cell_angle_beta 78.741201
_cell_angle_gamma 52.456727
_cell_volume 577.733273
_symmetry_space_group_name_H-M "P -1"
_symmetry_group_IT_number 2
_symmetry_cell_setting 'triclinic'
loop_
_space_group_symop_operation_xyz
x,y,z
-x,-y,-z
loop_
_atom_site_type_symbol
_atom_site_label
_atom_site_fract_x
_atom_site_fract_y
_atom_site_fract_z
Si Si1 0.725907 0.016086 0.099339
Si Si2 0.823655 0.294400 0.308466
Si Si3 0.809293 0.319879 0.873260
Si Si4 0.904353 0.735953 0.724022
Si Si5 0.385926 0.094325 0.042735
Si Si6 0.308483 0.119682 0.423659
Si Si7 0.076866 0.605006 0.517815
O O1 0.667570 0.093659 0.266906
O O2 0.836717 0.710835 0.301780
O O3 0.646621 0.048741 0.954205
O O4 0.759100 0.195541 0.902888
O O5 0.909729 0.307309 0.358427
O O6 0.840341 0.040358 0.587083
O O7 0.851757 0.224736 0.136308
O O8 0.701314 0.578203 0.179087
O O9 0.704656 0.642324 0.653791
O O10 0.911510 0.245216 0.766282
O O11 0.809902 0.715883 0.760046
O O12 0.956243 0.694444 0.528575
O O13 0.000000 0.500000 0.000000
O O14 0.400718 0.985024 0.330961
O O15 0.500000 0.000000 0.000000
#
# Coordination Sequence:
#
# PCOD8013111 Si02
#       7
#     2   2   2   2   2   2   2
#     4  10  21  42  66  99 134 169 213 276 329 393
#     4  10  22  44  63  93 140 170 216 280 325 376
#     4  10  21  40  65  93 135 175 214 269 327 383
#     4  12  23  40  67  96 136 188 221 261 326 390
#     4  10  23  46  73  96 124 171 224 277 341 400
#     4  10  23  43  63  95 140 169 218 282 323 386
#     4  10  24  38  64  97 131 179 226 258 318 399
#
# _framework density 24.232634999999998
#
# number of rings (size 3 to 8) (size 9 to 14) (size 15 to 20)
#    0.000    1.714    1.429    3.000    4.000    3.429 
#    0.000    3.571    0.000    0.000    0.000    0.000 
#    0.000    0.000    0.000    0.000    0.000    0.000 
#
# Total GULP energy -173511.936277 kJ/mol
# GULP energy per Si atom -12393.709734 kJ/mol
# Density = 2.417748 g / cm^3
# Si number density = 24.232635 Si / 1000 Ang^3
#
#
#
# Elastic Constant Matrix: (Units=GPa)
#
#
# Indices 1 2 3 4 5 6 
#
# 1 97.9677 54.9516 33.4190 8.4615 -32.2111 3.1505
# 2 54.9516 104.9778 41.9625 33.1324 -18.2550 -9.2367
# 3 33.4190 41.9625 75.0069 7.3006 -24.1071 -1.1397
# 4 8.4615 33.1324 7.3006 40.1156 1.3104 -10.5128
# 5 -32.2111 -18.2550 -24.1071 1.3104 35.7299 6.0965
# 6 3.1505 -9.2367 -1.1397 -10.5128 6.0965 38.6532
#
#
#
# Elastic Compliance Matrix: (Units=1/GPa)
#
#
# Indices 1 2 3 4 5 6 
#
# 1 0.020007 -0.009038 0.000721 0.001105 0.014857 -0.005812
# 2 -0.009038 0.021309 -0.007150 -0.013756 -0.001953 0.002185
# 3 0.000721 -0.007150 0.020491 0.000955 0.011244 -0.002677
# 4 0.001105 -0.013756 0.000955 0.038346 -0.008223 0.008377
# 5 0.014857 -0.001953 0.011244 -0.008223 0.050235 -0.011506
# 6 -0.005812 0.002185 -0.002677 0.008377 -0.011506 0.030881
#
#
# Mechanical properties :
#
#
# Convention : Reuss Voigt Hill
#
# Bulk Modulus (GPa) = 32.38990 59.84650 46.11820
# Shear Modulus (GPa) = 22.47252 32.74103 27.60677
#
# Velocity S-wave (km/s) = 3.04857 3.67974 3.37892
# Velocity P-wave (km/s) = 5.07809 6.54249 5.85624
#
# Compressibility (1/GPa) = 0.03087382
#
# Stress axis : x y z
#
# Youngs Moduli (GPa) = 49.98191 46.92887 48.80168
#
# Poissons Ratio (x) = 0.42413 -0.03520
# Poissons Ratio (y) = 0.45172 0.34894
# Poissons Ratio (z) = -0.03605 0.33555
#
# Static dielectric constant tensor:
#      x y z
#    x 4.172610 0.288940 -0.389950 
#    y 0.288940 4.588910 0.295110 
#    z -0.389950 0.295110 4.594630 
# 
# 
# High freq. dielectric constant tensor:
#      x y z
#    x 1.942380 0.023920 -0.029680 
#    y 0.023920 1.964290 0.020250 
#    z -0.029680 0.020250 1.958830 
# 
# From -- ./inp_files/291563.got.cif
#   From: 2010.06.25/outbox.cif.g09.slc.cpg/sg2_146_cif.got.tgz:291563.got - 2010.06.27 13:26:56.
