data_PCOD8013735
_publ_section_title
;
Structure prediction by ZEFSAII (Michael W. Deem and Ramdas Pophale) SiO2 
 PCOD8013735
Probable space group: P -1
;
_chemical_formula_sum "Si O2"
_cell_formula_units_Z 16
_cell_length_a 24.155832
_cell_length_b 8.972730
_cell_length_c 18.196731
_cell_angle_alpha 42.468065
_cell_angle_beta 160.068717
_cell_angle_gamma 125.692920
_cell_volume 797.327690
_symmetry_space_group_name_H-M "P -1"
_symmetry_group_IT_number 2
_symmetry_cell_setting 'triclinic'
loop_
_space_group_symop_operation_xyz
x,y,z
-x,-y,-z
loop_
_atom_site_type_symbol
_atom_site_label
_atom_site_fract_x
_atom_site_fract_y
_atom_site_fract_z
Si Si1 0.301652 0.657041 0.730115
Si Si2 0.606001 0.542354 0.512121
Si Si3 0.123027 0.742202 0.622443
Si Si4 0.268834 0.850300 0.075293
Si Si5 0.997239 0.563980 0.311236
Si Si6 0.358548 0.098810 0.676429
Si Si7 0.649056 0.046489 0.708905
Si Si8 0.245576 0.117011 0.690645
O O1 0.276869 0.587403 0.808441
O O2 0.161389 0.616571 0.519965
O O3 0.265840 0.942156 0.583317
O O4 0.500000 0.500000 0.000000
O O5 0.401585 0.757377 0.203756
O O6 0.723992 0.396513 0.785409
O O7 0.703704 0.669906 0.541309
O O8 0.600225 0.334007 0.525740
O O9 0.080566 0.542410 0.682776
O O10 0.206116 0.879084 0.728956
O O11 0.937838 0.957708 0.275268
O O12 0.340838 0.982364 0.178210
O O13 0.064327 0.361040 0.403989
O O14 0.840333 0.834651 0.989901
O O15 0.280471 0.191567 0.626356
O O16 0.582246 0.943963 0.018375
O O17 0.500000 0.000000 0.500000
#
# Coordination Sequence:
#
# PCOD8013735 Si02
#       8
#     2   2   2   2   2   2   2   2
#     4  11  22  38  59  93 129 158 201 256 308 371
#     4   9  20  39  62  82 121 168 206 241 304 373
#     4  11  23  38  64  95 124 161 208 259 309 362
#     4   9  20  38  61  91 120 155 215 249 296 377
#     4  12  23  40  64  94 128 160 208 264 309 349
#     4  10  21  41  60  88 127 169 203 242 315 376
#     4  10  23  38  58  92 127 155 204 262 301 363
#     4  10  23  37  61  93 123 161 208 255 303 376
#
# _framework density 20.067032000000001
#
# number of rings (size 3 to 8) (size 9 to 14) (size 15 to 20)
#    0.750    1.000    2.500    1.500    3.500    0.000 
#    0.000    7.500    0.000    1.500    0.000    0.000 
#    0.000    0.000    0.000    0.000    0.000    0.000 
#
# Total GULP energy -198248.462763 kJ/mol
# GULP energy per Si atom -12390.528923 kJ/mol
# Density = 2.002136 g / cm^3
# Si number density = 20.067032 Si / 1000 Ang^3
#
#
#
# Elastic Constant Matrix: (Units=GPa)
#
#
# Indices 1 2 3 4 5 6 
#
# 1 96.9030 43.0051 37.3344 -10.4436 16.3025 12.9990
# 2 43.0051 90.7493 38.6719 9.1282 8.5555 3.6166
# 3 37.3344 38.6719 70.8025 2.9911 26.5886 -7.4424
# 4 -10.4436 9.1282 2.9911 33.9871 -6.6935 7.1263
# 5 16.3025 8.5555 26.5886 -6.6935 27.6420 -6.9449
# 6 12.9990 3.6166 -7.4424 7.1263 -6.9449 37.9294
#
#
#
# Elastic Compliance Matrix: (Units=1/GPa)
#
#
# Indices 1 2 3 4 5 6 
#
# 1 0.018286 -0.006137 -0.006717 0.009298 -0.002484 -0.009201
# 2 -0.006137 0.017209 -0.007566 -0.005111 0.004526 0.000767
# 3 -0.006717 -0.007566 0.032462 -0.009274 -0.025544 0.006458
# 4 0.009298 -0.005111 -0.009274 0.038851 0.012009 -0.009620
# 5 -0.002484 0.004526 -0.025544 0.012009 0.064988 0.005050
# 6 -0.009201 0.000767 0.006458 -0.009620 0.005050 0.033444
#
#
# Mechanical properties :
#
#
# Convention : Reuss Voigt Hill
#
# Bulk Modulus (GPa) = 36.88060 55.16417 46.02238
# Shear Modulus (GPa) = 19.59857 29.20793 24.40325
#
# Velocity S-wave (km/s) = 3.12854 3.81926 3.49103
# Velocity P-wave (km/s) = 5.60972 6.85556 6.26369
#
# Compressibility (1/GPa) = 0.02711453
#
# Stress axis : x y z
#
# Youngs Moduli (GPa) = 54.68788 58.10917 30.80540
#
# Poissons Ratio (x) = 0.35664 0.20693
# Poissons Ratio (y) = 0.33564 0.23309
# Poissons Ratio (z) = 0.36735 0.43968
#
# Static dielectric constant tensor:
#      x y z
#    x 3.631150 -0.120460 0.162900 
#    y -0.120460 3.840070 0.004260 
#    z 0.162900 0.004260 3.242170 
# 
# 
# High freq. dielectric constant tensor:
#      x y z
#    x 1.773000 -0.011450 0.016690 
#    y -0.011450 1.792560 -0.003090 
#    z 0.016690 -0.003090 1.768580 
# 
# From -- ./inp_files/578902.got.cif
#   From: 2010.06.25/outbox.cif.g09.slc.cpg/sg2_290_cif.got.tgz:578902.got - 2010.06.27 13:26:56.
