data_PCOD8013869
_publ_section_title
;
Structure prediction by ZEFSAII (Michael W. Deem and Ramdas Pophale) SiO2 
 PCOD8013869
Probable space group: P -1
;
_chemical_formula_sum "Si O2"
_cell_formula_units_Z 12
_cell_length_a 7.204284
_cell_length_b 12.390040
_cell_length_c 11.888761
_cell_angle_alpha 33.128542
_cell_angle_beta 101.569943
_cell_angle_gamma 102.100446
_cell_volume 566.462446
_symmetry_space_group_name_H-M "P -1"
_symmetry_group_IT_number 2
_symmetry_cell_setting 'triclinic'
loop_
_space_group_symop_operation_xyz
x,y,z
-x,-y,-z
loop_
_atom_site_type_symbol
_atom_site_label
_atom_site_fract_x
_atom_site_fract_y
_atom_site_fract_z
Si Si1 0.500671 0.228252 0.327497
Si Si2 0.354708 0.729076 0.211435
Si Si3 0.814620 0.537708 0.014206
Si Si4 0.958846 0.581012 0.237519
Si Si5 0.282072 0.107130 0.984677
Si Si6 0.329332 0.749727 0.436550
O O1 0.675819 0.338302 0.184246
O O2 0.523060 0.270352 0.427001
O O3 0.500000 0.000000 0.500000
O O4 0.298332 0.299124 0.205374
O O5 0.410788 0.664850 0.402335
O O6 0.186673 0.581041 0.269348
O O7 0.279348 0.953043 0.013996
O O8 0.532325 0.735229 0.142822
O O9 0.882061 0.623274 0.067854
O O10 0.000000 0.500000 0.000000
O O11 0.872453 0.369610 0.456931
O O12 0.897518 0.761295 0.151804
O O13 0.292795 0.981649 0.211739
#
# Coordination Sequence:
#
# PCOD8013869 Si02
#       6
#     2   2   2   2   2   2
#     4  10  21  41  63  82 118 159 196 246 288 343
#     4   9  20  38  55  88 117 142 190 238 285 349
#     4  10  24  41  58  90 117 154 203 241 292 346
#     4  11  20  36  62  79 116 156 182 240 293 338
#     4   9  20  38  54  86 117 147 188 230 293 344
#     4   9  20  36  56  87 112 146 194 232 285 346
#
# _framework density 21.184104999999999
#
# number of rings (size 3 to 8) (size 9 to 14) (size 15 to 20)
#    1.000    1.333    0.000    2.000    0.000    6.667 
#    0.000    6.667    0.000    0.000    0.000    0.000 
#    0.000    0.000    0.000    0.000    0.000    0.000 
#
# Total GULP energy -148734.763839 kJ/mol
# GULP energy per Si atom -12394.563653 kJ/mol
# Density = 2.113589 g / cm^3
# Si number density = 21.184105 Si / 1000 Ang^3
#
#
#
# Elastic Constant Matrix: (Units=GPa)
#
#
# Indices 1 2 3 4 5 6 
#
# 1 119.8878 25.9317 47.9112 11.5635 -12.9399 8.2610
# 2 25.9317 64.5904 34.7066 10.3044 -2.9704 17.9403
# 3 47.9112 34.7066 115.7734 17.8336 -11.2151 9.0608
# 4 11.5635 10.3044 17.8336 22.1233 0.4916 7.9198
# 5 -12.9399 -2.9704 -11.2151 0.4916 24.9353 -2.5015
# 6 8.2610 17.9403 9.0608 7.9198 -2.5015 27.7368
#
#
#
# Elastic Compliance Matrix: (Units=1/GPa)
#
#
# Indices 1 2 3 4 5 6 
#
# 1 0.010658 -0.002159 -0.003045 -0.002280 0.003972 0.000226
# 2 -0.002159 0.022433 -0.004911 -0.000970 -0.001857 -0.012153
# 3 -0.003045 -0.004911 0.012686 -0.007284 0.003922 0.002373
# 4 -0.002280 -0.000970 -0.007284 0.057677 -0.007058 -0.013420
# 5 0.003972 -0.001857 0.003922 -0.007058 0.044323 0.004750
# 6 0.000226 -0.012153 0.002373 -0.013420 0.004750 0.047332
#
#
# Mechanical properties :
#
#
# Convention : Reuss Voigt Hill
#
# Bulk Modulus (GPa) = 39.14421 57.48339 48.31380
# Shear Modulus (GPa) = 22.33594 27.73920 25.03757
#
# Velocity S-wave (km/s) = 3.25063 3.62254 3.44161
# Velocity P-wave (km/s) = 5.71026 6.68514 6.21684
#
# Compressibility (1/GPa) = 0.02554656
#
# Stress axis : x y z
#
# Youngs Moduli (GPa) = 93.82527 44.57813 78.82588
#
# Poissons Ratio (x) = 0.09625 0.24004
# Poissons Ratio (y) = 0.20259 0.38709
# Poissons Ratio (z) = 0.28572 0.21891
#
# Static dielectric constant tensor:
#      x y z
#    x 3.692130 0.233880 -0.175820 
#    y 0.233880 3.975430 0.334020 
#    z -0.175820 0.334020 4.097200 
# 
# 
# High freq. dielectric constant tensor:
#      x y z
#    x 1.819700 0.010540 -0.015370 
#    y 0.010540 1.814990 0.000310 
#    z -0.015370 0.000310 1.835800 
# 
# From -- ./inp_files/133431.got.cif
#   From: 2010.06.25/outbox.cif.g09.slc.cpg/sg2_67_cif.got.tgz:133431.got - 2010.06.27 13:26:56.
