data_PCOD8013048
_publ_section_title
;
Structure prediction by ZEFSAII (Michael W. Deem and Ramdas Pophale) SiO2 
 PCOD8013048
Probable space group: P -1
;
_chemical_formula_sum "Si O2"
_cell_formula_units_Z 16
_cell_length_a 19.154954
_cell_length_b 16.478154
_cell_length_c 6.598581
_cell_angle_alpha 75.460243
_cell_angle_beta 101.349730
_cell_angle_gamma 158.439133
_cell_volume 736.930283
_symmetry_space_group_name_H-M "P -1"
_symmetry_group_IT_number 2
_symmetry_cell_setting 'triclinic'
loop_
_space_group_symop_operation_xyz
x,y,z
-x,-y,-z
loop_
_atom_site_type_symbol
_atom_site_label
_atom_site_fract_x
_atom_site_fract_y
_atom_site_fract_z
Si Si1 0.920852 0.080765 0.808800
Si Si2 0.807836 0.535248 0.591093
Si Si3 0.038825 0.006239 0.782562
Si Si4 0.215965 0.763119 0.993472
Si Si5 0.271088 0.372251 0.446888
Si Si6 0.450758 0.903249 0.326241
Si Si7 0.861092 0.133377 0.124157
Si Si8 0.689933 0.810122 0.463296
O O1 0.083715 0.308872 0.639020
O O2 0.741394 0.867099 0.695120
O O3 0.873259 0.089477 0.960686
O O4 0.960542 0.029964 0.964072
O O5 0.697108 0.493986 0.646751
O O6 0.657576 0.302795 0.574926
O O7 0.939243 0.640702 0.779119
O O8 0.132484 0.201228 0.672545
O O9 0.165498 0.088158 0.648197
O O10 0.822856 0.767126 0.724984
O O11 0.215310 0.859950 0.992135
O O12 0.346102 0.889960 0.792440
O O13 0.308221 0.811488 0.194993
O O14 0.000000 0.500000 0.000000
O O15 0.470880 0.542592 0.482000
O O16 0.500000 0.000000 0.500000
O O17 0.709312 0.926370 0.320099
#
# Coordination Sequence:
#
# PCOD8013048 Si02
#       8
#     2   2   2   2   2   2   2   2
#     4  10  21  40  65  89 129 167 212 261 314 382
#     4  11  22  42  63  92 130 165 209 268 313 380
#     4  10  22  42  59  94 126 168 213 257 319 378
#     4  11  24  44  69  92 129 173 204 265 326 381
#     4  11  21  40  66  86 129 169 206 267 317 367
#     4  11  27  44  67 104 129 160 222 267 317 389
#     4  10  21  42  65  89 127 169 213 254 320 381
#     4  10  21  41  60  92 126 163 212 267 308 373
#
# _framework density 21.711689
#
# number of rings (size 3 to 8) (size 9 to 14) (size 15 to 20)
#    0.000    1.500    5.000    1.125    1.750    4.500 
#    6.750    0.000    0.000    0.000    0.000    0.000 
#    0.000    0.000    0.000    0.000    0.000    0.000 
#
# Total GULP energy -198317.239146 kJ/mol
# GULP energy per Si atom -12394.827447 kJ/mol
# Density = 2.166227 g / cm^3
# Si number density = 21.711689 Si / 1000 Ang^3
#
#
#
# Elastic Constant Matrix: (Units=GPa)
#
#
# Indices 1 2 3 4 5 6 
#
# 1 92.3926 37.9250 32.0926 -3.8765 30.0676 -15.0097
# 2 37.9250 155.9724 59.0715 14.9508 8.1211 7.6229
# 3 32.0926 59.0715 126.3519 4.1052 7.2142 3.2487
# 4 -3.8765 14.9508 4.1052 20.1273 -11.8469 3.6542
# 5 30.0676 8.1211 7.2142 -11.8469 29.1770 -6.5695
# 6 -15.0097 7.6229 3.2487 3.6542 -6.5695 32.6140
#
#
#
# Elastic Compliance Matrix: (Units=1/GPa)
#
#
# Indices 1 2 3 4 5 6 
#
# 1 0.020504 -0.002451 -0.002786 -0.007395 -0.021221 0.006841
# 2 -0.002451 0.009296 -0.003210 -0.008093 -0.003164 -0.002712
# 3 -0.002786 -0.003210 0.010057 0.000809 0.001300 -0.001363
# 4 -0.007395 -0.008093 0.000809 0.078716 0.041157 -0.002122
# 5 -0.021221 -0.003164 0.001300 0.041157 0.073654 0.001068
# 6 0.006841 -0.002712 -0.001363 -0.002122 0.001068 0.035032
#
#
# Mechanical properties :
#
#
# Convention : Reuss Voigt Hill
#
# Bulk Modulus (GPa) = 43.54757 70.32167 56.93462
# Shear Modulus (GPa) = 19.85627 32.75886 26.30756
#
# Velocity S-wave (km/s) = 3.02742 3.88856 3.48469
# Velocity P-wave (km/s) = 5.68517 7.25399 6.51696
#
# Compressibility (1/GPa) = 0.02296339
#
# Stress axis : x y z
#
# Youngs Moduli (GPa) = 48.76987 107.57040 99.42896
#
# Poissons Ratio (x) = 0.26366 0.27701
# Poissons Ratio (y) = 0.11954 0.31919
# Poissons Ratio (z) = 0.13588 0.34533
#
# Static dielectric constant tensor:
#      x y z
#    x 4.249730 -0.102240 0.339490 
#    y -0.102240 3.999230 -0.129780 
#    z 0.339490 -0.129780 4.070340 
# 
# 
# High freq. dielectric constant tensor:
#      x y z
#    x 1.875930 -0.009150 0.011990 
#    y -0.009150 1.850260 -0.003840 
#    z 0.011990 -0.003840 1.858920 
# 
# From -- ./inp_files/120025.got.cif
#   From: 2010.06.25/outbox.cif.g09.slc.cpg/sg2_61_cif.got.tgz:120025.got - 2010.06.27 13:26:56.
