data_PCOD8013564
_publ_section_title
;
Structure prediction by ZEFSAII (Michael W. Deem and Ramdas Pophale) SiO2 
 PCOD8013564
Probable space group: P -1
;
_chemical_formula_sum "Si O2"
_cell_formula_units_Z 16
_cell_length_a 8.396115
_cell_length_b 18.416212
_cell_length_c 12.037084
_cell_angle_alpha 143.200374
_cell_angle_beta 51.096574
_cell_angle_gamma 102.029826
_cell_volume 672.634773
_symmetry_space_group_name_H-M "P -1"
_symmetry_group_IT_number 2
_symmetry_cell_setting 'triclinic'
loop_
_space_group_symop_operation_xyz
x,y,z
-x,-y,-z
loop_
_atom_site_type_symbol
_atom_site_label
_atom_site_fract_x
_atom_site_fract_y
_atom_site_fract_z
Si Si1 0.766502 0.429852 0.736529
Si Si2 0.981465 0.230293 0.782833
Si Si3 0.529004 0.094670 0.861765
Si Si4 0.378162 0.384394 0.190707
Si Si5 0.876138 0.645235 0.309933
Si Si6 0.330031 0.838237 0.890105
Si Si7 0.792672 0.377328 0.264741
Si Si8 0.899866 0.919054 0.884767
O O1 0.707380 0.549591 0.814388
O O2 0.981862 0.403067 0.692770
O O3 0.872034 0.265718 0.437354
O O4 0.500000 0.500000 0.000000
O O5 0.094263 0.242602 0.634396
O O6 0.683857 0.299630 0.977684
O O7 0.983604 0.317469 0.998672
O O8 0.187959 0.043550 0.486862
O O9 0.356671 0.246308 0.041733
O O10 0.566717 0.163968 0.038015
O O11 0.363768 0.035181 0.886377
O O12 0.174408 0.529900 0.542870
O O13 0.572920 0.725985 0.561986
O O14 0.000000 0.500000 0.000000
O O15 0.166995 0.773144 0.885931
O O16 0.159388 0.015029 0.134662
O O17 0.500000 0.500000 0.500000
O O18 0.000000 0.000000 0.000000
#
# Coordination Sequence:
#
# PCOD8013564 Si02
#       8
#     2   2   2   2   2   2   2   2
#     4  12  27  45  71 107 146 192 238 301 370 429
#     4  11  22  41  73 111 141 185 245 294 355 431
#     4  12  24  44  74 109 140 193 246 298 358 439
#     4  11  24  44  72 106 151 188 237 300 373 427
#     4  12  25  43  75 110 142 186 248 300 352 436
#     4  12  23  45  75 103 144 192 248 295 360 431
#     4  10  21  40  69 109 143 185 233 295 359 427
#     4  12  28  47  68 104 148 193 241 301 369 426
#
# _framework density 23.787054000000001
#
# number of rings (size 3 to 8) (size 9 to 14) (size 15 to 20)
#    0.000    0.500    6.250    3.750    1.750    0.500 
#    0.000    1.250    0.000    4.500    0.000    0.000 
#    0.000    0.000    0.000    0.000    0.000    0.000 
#
# Total GULP energy -198372.295349 kJ/mol
# GULP energy per Si atom -12398.268459 kJ/mol
# Density = 2.373291 g / cm^3
# Si number density = 23.787054 Si / 1000 Ang^3
#
#
#
# Elastic Constant Matrix: (Units=GPa)
#
#
# Indices 1 2 3 4 5 6 
#
# 1 65.8601 37.5450 25.3255 5.8174 14.9708 -2.4206
# 2 37.5450 153.2755 36.2243 23.0716 3.9079 -26.4972
# 3 25.3255 36.2243 139.3236 3.0904 10.5498 -10.9293
# 4 5.8174 23.0716 3.0904 42.2137 -2.0431 3.6448
# 5 14.9708 3.9079 10.5498 -2.0431 35.4011 -0.1849
# 6 -2.4206 -26.4972 -10.9293 3.6448 -0.1849 36.3773
#
#
#
# Elastic Compliance Matrix: (Units=1/GPa)
#
#
# Indices 1 2 3 4 5 6 
#
# 1 0.020303 -0.004733 -0.002107 -0.000180 -0.007460 -0.002750
# 2 -0.004733 0.009950 -0.001124 -0.005272 0.000971 0.007128
# 3 -0.002107 -0.001124 0.008068 0.000123 -0.001375 0.001446
# 4 -0.000180 -0.005272 0.000123 0.027255 0.002161 -0.006535
# 5 -0.007460 0.000971 -0.001375 0.002161 0.031828 -0.000257
# 6 -0.002750 0.007128 0.001446 -0.006535 -0.000257 0.033587
#
#
# Mechanical properties :
#
#
# Convention : Reuss Voigt Hill
#
# Bulk Modulus (GPa) = 44.65761 61.84986 53.25374
# Shear Modulus (GPa) = 32.38687 40.08937 36.23812
#
# Velocity S-wave (km/s) = 3.69390 4.10975 3.90736
# Velocity P-wave (km/s) = 6.08341 6.96979 6.54163
#
# Compressibility (1/GPa) = 0.02239260
#
# Stress axis : x y z
#
# Youngs Moduli (GPa) = 49.25432 100.49799 123.95402
#
# Poissons Ratio (x) = 0.47569 0.26113
# Poissons Ratio (y) = 0.23313 0.13934
# Poissons Ratio (z) = 0.10376 0.11297
#
# Static dielectric constant tensor:
#      x y z
#    x 4.206960 -0.303940 0.022920 
#    y -0.303940 5.374070 -0.027390 
#    z 0.022920 -0.027390 4.304110 
# 
# 
# High freq. dielectric constant tensor:
#      x y z
#    x 1.918270 -0.005130 0.002570 
#    y -0.005130 1.963550 0.006620 
#    z 0.002570 0.006620 1.953170 
# 
# From -- ./inp_files/403329.got.cif
#   From: 2010.06.25/outbox.cif.g09.slc.cpg/sg2_202_cif.got.tgz:403329.got - 2010.06.27 13:26:56.
