data_PCOD8013923
_publ_section_title
;
Structure prediction by ZEFSAII (Michael W. Deem and Ramdas Pophale) SiO2 
 PCOD8013923
Probable space group: P -1
;
_chemical_formula_sum "Si O2"
_cell_formula_units_Z 14
_cell_length_a 9.039619
_cell_length_b 9.146099
_cell_length_c 14.103067
_cell_angle_alpha 115.345790
_cell_angle_beta 48.592748
_cell_angle_gamma 132.741643
_cell_volume 641.817972
_symmetry_space_group_name_H-M "P -1"
_symmetry_group_IT_number 2
_symmetry_cell_setting 'triclinic'
loop_
_space_group_symop_operation_xyz
x,y,z
-x,-y,-z
loop_
_atom_site_type_symbol
_atom_site_label
_atom_site_fract_x
_atom_site_fract_y
_atom_site_fract_z
Si Si1 0.900797 0.549440 0.264417
Si Si2 0.009268 0.747991 0.927439
Si Si3 0.381190 0.317636 0.666425
Si Si4 0.457297 0.568928 0.876711
Si Si5 0.747526 0.199124 0.975296
Si Si6 0.004540 0.888109 0.778089
Si Si7 0.133974 0.602835 0.568535
O O1 0.846434 0.342687 0.193220
O O2 0.673389 0.562420 0.350606
O O3 0.968993 0.564972 0.351361
O O4 0.117028 0.731459 0.163120
O O5 0.105234 0.835015 0.017369
O O6 0.067289 0.915255 0.872134
O O7 0.715339 0.582192 0.007451
O O8 0.496496 0.449585 0.749071
O O9 0.577646 0.290294 0.531946
O O10 0.133665 0.101864 0.734226
O O11 0.713428 0.760041 0.856610
O O12 0.297929 0.641115 0.920549
O O13 0.500000 0.000000 0.000000
O O14 0.098209 0.771915 0.655361
O O15 0.000000 0.500000 0.500000
#
# Coordination Sequence:
#
# PCOD8013923 Si02
#       7
#     2   2   2   2   2   2   2
#     4  10  21  42  64  87 123 172 201 253 316 367
#     4  10  21  41  63  93 131 165 199 257 316 376
#     4  12  22  42  66  89 126 166 213 259 303 370
#     4  11  21  40  65  92 129 164 207 253 317 371
#     4  11  21  39  66  98 129 162 209 253 311 383
#     4  11  25  41  64  94 128 165 210 258 314 366
#     4  11  24  43  65  88 124 167 213 260 312 361
#
# _framework density 21.813039
#
# number of rings (size 3 to 8) (size 9 to 14) (size 15 to 20)
#    0.000    1.143    4.286    3.000    0.000    1.714 
#    2.571    0.714    0.000    0.000    0.000    0.000 
#    0.000    0.000    0.000    0.000    0.000    0.000 
#
# Total GULP energy -173547.442943 kJ/mol
# GULP energy per Si atom -12396.245925 kJ/mol
# Density = 2.176339 g / cm^3
# Si number density = 21.813039 Si / 1000 Ang^3
#
#
#
# Elastic Constant Matrix: (Units=GPa)
#
#
# Indices 1 2 3 4 5 6 
#
# 1 120.6024 30.3339 49.3888 -14.0719 16.7260 -3.7544
# 2 30.3339 52.5190 12.6692 -17.3889 12.8057 5.5996
# 3 49.3888 12.6692 96.0446 -5.6429 5.6764 -1.0857
# 4 -14.0719 -17.3889 -5.6429 26.6559 -2.1877 -4.2501
# 5 16.7260 12.8057 5.6764 -2.1877 50.0286 -1.3464
# 6 -3.7544 5.5996 -1.0857 -4.2501 -1.3464 36.4943
#
#
#
# Elastic Compliance Matrix: (Units=1/GPa)
#
#
# Indices 1 2 3 4 5 6 
#
# 1 0.012347 -0.004704 -0.005435 0.002448 -0.002145 0.002036
# 2 -0.004704 0.028376 -0.000176 0.015049 -0.005101 -0.003279
# 3 -0.005435 -0.000176 0.013197 -0.000185 0.000353 -0.000148
# 4 0.002448 0.015049 -0.000185 0.048953 -0.002413 0.003549
# 5 -0.002145 -0.005101 0.000353 -0.002413 0.021896 0.001099
# 6 0.002036 -0.003279 -0.000148 0.003549 0.001099 0.028564
#
#
# Mechanical properties :
#
#
# Convention : Reuss Voigt Hill
#
# Bulk Modulus (GPa) = 30.03867 50.43886 40.23876
# Shear Modulus (GPa) = 27.01851 34.42069 30.71960
#
# Velocity S-wave (km/s) = 3.52325 3.97670 3.75682
# Velocity P-wave (km/s) = 5.50926 6.65274 6.10782
#
# Compressibility (1/GPa) = 0.03329042
#
# Stress axis : x y z
#
# Youngs Moduli (GPa) = 80.99042 35.24095 75.77760
#
# Poissons Ratio (x) = 0.16577 0.41186
# Poissons Ratio (y) = 0.38097 0.01331
# Poissons Ratio (z) = 0.44019 0.00619
#
# Static dielectric constant tensor:
#      x y z
#    x 4.063920 -0.325580 -0.100530 
#    y -0.325580 3.777440 0.114760 
#    z -0.100530 0.114760 4.149880 
# 
# 
# High freq. dielectric constant tensor:
#      x y z
#    x 1.862330 -0.019640 -0.010610 
#    y -0.019640 1.840940 0.006690 
#    z -0.010610 0.006690 1.867570 
# 
# From -- ./inp_files/493326.got.cif
#   From: 2010.06.25/outbox.cif.g09.slc.cpg/sg2_247_cif.got.tgz:493326.got - 2010.06.27 13:26:56.
