data_PCOD8013714
_publ_section_title
;
Structure prediction by ZEFSAII (Michael W. Deem and Ramdas Pophale) SiO2 
 PCOD8013714
Probable space group: P -1
;
_chemical_formula_sum "Si O2"
_cell_formula_units_Z 12
_cell_length_a 8.135756
_cell_length_b 14.920033
_cell_length_c 9.735472
_cell_angle_alpha 30.736144
_cell_angle_beta 75.352237
_cell_angle_gamma 63.730042
_cell_volume 520.195577
_symmetry_space_group_name_H-M "P -1"
_symmetry_group_IT_number 2
_symmetry_cell_setting 'triclinic'
loop_
_space_group_symop_operation_xyz
x,y,z
-x,-y,-z
loop_
_atom_site_type_symbol
_atom_site_label
_atom_site_fract_x
_atom_site_fract_y
_atom_site_fract_z
Si Si1 0.418270 0.820512 0.108321
Si Si2 0.862278 0.441200 0.191313
Si Si3 0.197862 0.876329 0.546533
Si Si4 0.082365 0.764547 0.281836
Si Si5 0.524967 0.181117 0.205061
Si Si6 0.235614 0.142507 0.953452
O O1 0.316272 0.678753 0.344869
O O2 0.648978 0.729493 0.206042
O O3 0.365759 0.881178 0.880914
O O4 0.326719 0.013646 0.968015
O O5 0.803497 0.299342 0.306752
O O6 0.971867 0.329704 0.452818
O O7 0.676464 0.633721 0.019932
O O8 0.000000 0.500000 0.000000
O O9 0.354244 0.772501 0.767882
O O10 0.000000 0.000000 0.500000
O O11 0.250593 0.013341 0.254912
O O12 0.986895 0.719974 0.224135
O O13 0.000000 0.000000 0.000000
O O14 0.500000 0.000000 0.500000
#
# Coordination Sequence:
#
# PCOD8013714 Si02
#       6
#     2   2   2   2   2   2
#     4  10  21  41  70 103 136 193 238 292 364 434
#     4  12  28  46  70 111 148 191 245 302 366 438
#     4  12  24  46  75 108 144 193 243 299 372 439
#     4  10  21  43  71  98 141 190 236 296 360 425
#     4  12  26  44  74 104 151 190 243 301 368 429
#     4  10  21  40  76 100 138 192 239 290 373 425
#
# _framework density 23.068248000000001
#
# number of rings (size 3 to 8) (size 9 to 14) (size 15 to 20)
#    0.000    1.000    5.000    2.500    7.000    0.667 
#    3.000    0.833    0.000    0.000    0.000    0.000 
#    0.000    0.000    0.000    0.000    0.000    0.000 
#
# Total GULP energy -148706.853106 kJ/mol
# GULP energy per Si atom -12392.237759 kJ/mol
# Density = 2.301574 g / cm^3
# Si number density = 23.068248 Si / 1000 Ang^3
#
#
#
# Elastic Constant Matrix: (Units=GPa)
#
#
# Indices 1 2 3 4 5 6 
#
# 1 194.7508 13.7979 47.9306 23.2091 -2.4399 12.2260
# 2 13.7979 87.5951 33.1104 27.1141 6.8556 -1.5609
# 3 47.9306 33.1104 122.0829 32.4115 2.0637 -4.6134
# 4 23.2091 27.1141 32.4115 45.5225 1.0868 4.9878
# 5 -2.4399 6.8556 2.0637 1.0868 41.3068 9.2472
# 6 12.2260 -1.5609 -4.6134 4.9878 9.2472 36.9318
#
#
#
# Elastic Compliance Matrix: (Units=1/GPa)
#
#
# Indices 1 2 3 4 5 6 
#
# 1 0.005968 0.000182 -0.002120 -0.001415 0.000977 -0.002286
# 2 0.000182 0.014718 -0.001911 -0.007656 -0.002584 0.002004
# 3 -0.002120 -0.001911 0.011306 -0.006148 -0.000903 0.003090
# 4 -0.001415 -0.007656 -0.006148 0.032177 0.001865 -0.005436
# 5 0.000977 -0.002584 -0.000903 0.001865 0.026347 -0.007394
# 6 -0.002286 0.002004 0.003090 -0.005436 -0.007394 0.030890
#
#
# Mechanical properties :
#
#
# Convention : Reuss Voigt Hill
#
# Bulk Modulus (GPa) = 41.16314 66.01185 53.58749
# Shear Modulus (GPa) = 36.44298 45.39155 40.91726
#
# Velocity S-wave (km/s) = 3.97897 4.44070 4.21616
# Velocity P-wave (km/s) = 6.24439 7.41425 6.85432
#
# Compressibility (1/GPa) = 0.02429358
#
# Stress axis : x y z
#
# Youngs Moduli (GPa) = 167.56218 67.94563 88.45029
#
# Poissons Ratio (x) = -0.01235 0.18749
# Poissons Ratio (y) = -0.03046 0.16903
# Poissons Ratio (z) = 0.35519 0.12984
#
# Static dielectric constant tensor:
#      x y z
#    x 6.003580 0.308020 0.217050 
#    y 0.308020 4.508630 0.493220 
#    z 0.217050 0.493220 4.426600 
# 
# 
# High freq. dielectric constant tensor:
#      x y z
#    x 1.941500 0.006940 -0.002690 
#    y 0.006940 1.908990 0.026150 
#    z -0.002690 0.026150 1.896440 
# 
# From -- ./inp_files/155137.got.cif
#   From: 2010.06.25/outbox.cif.g09.slc.cpg/sg2_78_cif.got.tgz:155137.got - 2010.06.27 13:26:56.
