data_PCOD8013654
_publ_section_title
;
Structure prediction by ZEFSAII (Michael W. Deem and Ramdas Pophale) SiO2 
 PCOD8013654
Probable space group: P -1
;
_chemical_formula_sum "Si O2"
_cell_formula_units_Z 14
_cell_length_a 8.578586
_cell_length_b 17.948001
_cell_length_c 5.406154
_cell_angle_alpha 89.473711
_cell_angle_beta 124.349352
_cell_angle_gamma 115.629227
_cell_volume 587.955087
_symmetry_space_group_name_H-M "P -1"
_symmetry_group_IT_number 2
_symmetry_cell_setting 'triclinic'
loop_
_space_group_symop_operation_xyz
x,y,z
-x,-y,-z
loop_
_atom_site_type_symbol
_atom_site_label
_atom_site_fract_x
_atom_site_fract_y
_atom_site_fract_z
Si Si1 0.508424 0.271039 0.243146
Si Si2 0.933801 0.764705 0.702607
Si Si3 0.611852 0.992925 0.350726
Si Si4 0.741502 0.458104 0.281957
Si Si5 0.984110 0.176501 0.728264
Si Si6 0.436022 0.191444 0.679024
Si Si7 0.593248 0.571974 0.378634
O O1 0.630209 0.376577 0.375603
O O2 0.573594 0.237967 0.548990
O O3 0.244584 0.224494 0.010091
O O4 0.577599 0.243909 0.049514
O O5 0.060563 0.778436 0.552023
O O6 0.795875 0.812091 0.527186
O O7 0.777567 0.664761 0.641924
O O8 0.104380 0.808423 0.085309
O O9 0.620493 0.906421 0.356844
O O10 0.500000 0.000000 0.500000
O O11 0.864785 0.073695 0.576719
O O12 0.500000 0.000000 0.000000
O O13 0.708114 0.539223 0.291215
O O14 0.000000 0.500000 0.500000
O O15 0.605007 0.417098 0.907002
O O16 0.500000 0.500000 0.500000
#
# Coordination Sequence:
#
# PCOD8013654 Si02
#       7
#     2   2   2   2   2   2   2
#     4  10  21  43  69  96 130 176 237 279 351 422
#     4  10  21  40  70  97 125 179 240 280 347 419
#     4  12  26  44  61 100 143 175 226 290 365 418
#     4  11  25  45  68 107 147 188 243 306 362 426
#     4  10  21  41  66  92 130 175 228 282 340 426
#     4  10  21  41  67  92 128 173 225 286 335 424
#     4  11  23  44  71 101 147 190 246 303 357 439
#
# _framework density 23.811342
#
# number of rings (size 3 to 8) (size 9 to 14) (size 15 to 20)
#    0.000    1.429    2.857    3.429    2.000    5.143 
#    7.714    0.000    0.000    0.000    0.000    0.000 
#    0.000    0.000    0.000    0.000    0.000    0.000 
#
# Total GULP energy -173437.825954 kJ/mol
# GULP energy per Si atom -12388.416140 kJ/mol
# Density = 2.375715 g / cm^3
# Si number density = 23.811342 Si / 1000 Ang^3
#
#
#
# Elastic Constant Matrix: (Units=GPa)
#
#
# Indices 1 2 3 4 5 6 
#
# 1 54.3175 29.2984 58.5260 -7.5191 -18.4630 5.0767
# 2 29.2984 185.9698 57.8246 1.7155 -3.6799 -0.1107
# 3 58.5260 57.8246 116.0174 -5.3324 -33.7118 7.8526
# 4 -7.5191 1.7155 -5.3324 41.2553 15.3910 -13.8564
# 5 -18.4630 -3.6799 -33.7118 15.3910 64.4100 -5.7144
# 6 5.0767 -0.1107 7.8526 -13.8564 -5.7144 35.4583
#
#
#
# Elastic Compliance Matrix: (Units=1/GPa)
#
#
# Indices 1 2 3 4 5 6 
#
# 1 0.041297 -0.000150 -0.020601 0.005129 -0.000122 0.000634
# 2 -0.000150 0.006507 -0.003653 0.000004 -0.001530 0.000606
# 3 -0.020601 -0.003653 0.022711 -0.003959 0.006489 -0.002593
# 4 0.005129 0.000004 -0.003959 0.031023 -0.007027 0.011133
# 5 -0.000122 -0.001530 0.006489 -0.007027 0.020400 -0.000883
# 6 0.000634 0.000606 -0.002593 0.011133 -0.000883 0.032896
#
#
# Mechanical properties :
#
#
# Convention : Reuss Voigt Hill
#
# Bulk Modulus (GPa) = 46.06576 71.95585 59.01081
# Shear Modulus (GPa) = 23.71049 42.26843 32.98946
#
# Velocity S-wave (km/s) = 3.15900 4.21781 3.72620
# Velocity P-wave (km/s) = 5.71785 7.34879 6.58401
#
# Compressibility (1/GPa) = 0.02170810
#
# Stress axis : x y z
#
# Youngs Moduli (GPa) = 24.21479 153.68788 44.03093
#
# Poissons Ratio (x) = 0.02305 0.90706
# Poissons Ratio (y) = 0.00363 0.16084
# Poissons Ratio (z) = 0.49884 0.56140
#
# Static dielectric constant tensor:
#      x y z
#    x 3.570120 1.109580 -0.901580 
#    y 1.109580 1.124180 -0.649510 
#    z -0.901580 -0.649510 4.800410 
# 
# 
# High freq. dielectric constant tensor:
#      x y z
#    x 1.929190 0.008550 -0.032280 
#    y 0.008550 1.958090 -0.000110 
#    z -0.032280 -0.000110 1.950000 
# 
# From -- ./inp_files/47682.got.cif
#   From: 2010.06.25/outbox.cif.g09.slc.cpg/sg2_24_cif.got.tgz:47682.got - 2010.06.27 13:26:56.
