data_PCOD8013393
_publ_section_title
;
Structure prediction by ZEFSAII (Michael W. Deem and Ramdas Pophale) SiO2 
 PCOD8013393
Probable space group: P -1
;
_chemical_formula_sum "Si O2"
_cell_formula_units_Z 16
_cell_length_a 17.325858
_cell_length_b 8.794283
_cell_length_c 8.582001
_cell_angle_alpha 102.059639
_cell_angle_beta 36.833081
_cell_angle_gamma 113.395104
_cell_volume 705.230053
_symmetry_space_group_name_H-M "P -1"
_symmetry_group_IT_number 2
_symmetry_cell_setting 'triclinic'
loop_
_space_group_symop_operation_xyz
x,y,z
-x,-y,-z
loop_
_atom_site_type_symbol
_atom_site_label
_atom_site_fract_x
_atom_site_fract_y
_atom_site_fract_z
Si Si1 0.029290 0.096529 0.637177
Si Si2 0.198965 0.170513 0.879654
Si Si3 0.404112 0.980751 0.502729
Si Si4 0.727958 0.350366 0.521756
Si Si5 0.793127 0.516422 0.900489
Si Si6 0.443079 0.765544 0.933674
Si Si7 0.990805 0.570424 0.295340
Si Si8 0.292871 0.306686 0.427908
O O1 0.957538 0.232775 0.790219
O O2 0.195606 0.192805 0.421262
O O3 0.000000 0.000000 0.500000
O O4 0.958197 0.962840 0.861022
O O5 0.204651 0.246701 0.715938
O O6 0.310045 0.086633 0.706724
O O7 0.235041 0.318274 0.979944
O O8 0.309406 0.782002 0.588108
O O9 0.500000 0.000000 0.500000
O O10 0.497949 0.054110 0.210836
O O11 0.896823 0.443088 0.285764
O O12 0.667417 0.494641 0.622472
O O13 0.662798 0.239967 0.758463
O O14 0.889200 0.544679 0.601001
O O15 0.873238 0.469771 0.903648
O O16 0.640504 0.371291 0.091341
O O17 0.565107 0.721218 0.803154
#
# Coordination Sequence:
#
# PCOD8013393 Si02
#       8
#     2   2   2   2   2   2   2   2
#     4  11  22  42  66  97 128 168 219 264 318 385
#     4  11  25  41  64  94 135 169 213 266 331 379
#     4  11  27  42  62  99 133 171 214 267 330 383
#     4  10  22  44  67  92 130 169 222 263 317 388
#     4  10  21  40  67  95 125 168 215 269 314 381
#     4  10  23  43  67  93 127 173 221 261 327 379
#     4   9  21  41  65  97 122 167 220 265 314 373
#     4  10  24  41  65  98 130 170 213 267 329 382
#
# _framework density 22.687629999999999
#
# number of rings (size 3 to 8) (size 9 to 14) (size 15 to 20)
#    0.000    1.750    1.250    1.125    5.250    5.000 
#    4.500    2.500    0.000    0.000    0.000    0.000 
#    0.000    0.000    0.000    0.000    0.000    0.000 
#
# Total GULP energy -198406.689036 kJ/mol
# GULP energy per Si atom -12400.418065 kJ/mol
# Density = 2.263599 g / cm^3
# Si number density = 22.687630 Si / 1000 Ang^3
#
#
#
# Elastic Constant Matrix: (Units=GPa)
#
#
# Indices 1 2 3 4 5 6 
#
# 1 133.3033 59.8877 14.3207 -4.5797 -18.0928 11.6794
# 2 59.8877 155.8612 22.6557 -12.7754 -12.2019 27.6836
# 3 14.3207 22.6557 60.3015 -8.1790 0.9037 2.3600
# 4 -4.5797 -12.7754 -8.1790 26.9826 -5.6764 -0.1900
# 5 -18.0928 -12.2019 0.9037 -5.6764 31.0072 -9.0704
# 6 11.6794 27.6836 2.3600 -0.1900 -9.0704 33.9681
#
#
#
# Elastic Compliance Matrix: (Units=1/GPa)
#
#
# Indices 1 2 3 4 5 6 
#
# 1 0.009689 -0.003249 -0.001071 0.000784 0.004743 0.000662
# 2 -0.003249 0.009394 -0.002069 0.003365 0.000664 -0.006199
# 3 -0.001071 -0.002069 0.018170 0.004128 -0.001057 0.000533
# 4 0.000784 0.003365 0.004128 0.041962 0.009163 -0.000618
# 5 0.004743 0.000664 -0.001057 0.009163 0.039472 0.008493
# 6 0.000662 -0.006199 0.000533 -0.000618 0.008493 0.036491
#
#
# Mechanical properties :
#
#
# Convention : Reuss Voigt Hill
#
# Bulk Modulus (GPa) = 40.85751 60.35491 50.60621
# Shear Modulus (GPa) = 28.39070 35.23173 31.81121
#
# Velocity S-wave (km/s) = 3.54131 3.94497 3.74858
# Velocity P-wave (km/s) = 5.89653 6.88554 6.41014
#
# Compressibility (1/GPa) = 0.02447531
#
# Stress axis : x y z
#
# Youngs Moduli (GPa) = 103.20721 106.45106 55.03658
#
# Poissons Ratio (x) = 0.34589 0.05894
# Poissons Ratio (y) = 0.33535 0.11385
# Poissons Ratio (z) = 0.11053 0.22021
#
# Static dielectric constant tensor:
#      x y z
#    x 4.165270 0.028860 0.084830 
#    y 0.028860 4.145900 -0.310340 
#    z 0.084830 -0.310340 3.994350 
# 
# 
# High freq. dielectric constant tensor:
#      x y z
#    x 1.897560 0.003880 0.005430 
#    y 0.003880 1.902300 -0.018910 
#    z 0.005430 -0.018910 1.889290 
# 
# From -- ./inp_files/329119.got.cif
#   From: 2010.06.25/outbox.cif.g09.slc.cpg/sg2_165_cif.got.tgz:329119.got - 2010.06.27 13:26:56.
