data_PCOD8013749
_publ_section_title
;
Structure prediction by ZEFSAII (Michael W. Deem and Ramdas Pophale) SiO2 
 PCOD8013749
Probable space group: P -1
;
_chemical_formula_sum "Si O2"
_cell_formula_units_Z 10
_cell_length_a 6.331685
_cell_length_b 17.127595
_cell_length_c 15.367110
_cell_angle_alpha 155.288849
_cell_angle_beta 95.197504
_cell_angle_gamma 67.254400
_cell_volume 473.417137
_symmetry_space_group_name_H-M "P -1"
_symmetry_group_IT_number 2
_symmetry_cell_setting 'triclinic'
loop_
_space_group_symop_operation_xyz
x,y,z
-x,-y,-z
loop_
_atom_site_type_symbol
_atom_site_label
_atom_site_fract_x
_atom_site_fract_y
_atom_site_fract_z
Si Si1 0.358608 0.256818 0.866772
Si Si2 0.899126 0.233833 0.335747
Si Si3 0.802471 0.878338 0.935837
Si Si4 0.592682 0.753437 0.938728
Si Si5 0.963297 0.811793 0.336143
O O1 0.118000 0.258999 0.823127
O O2 0.699777 0.974955 0.565168
O O3 0.332998 0.268251 0.980250
O O4 0.272483 0.520435 0.094920
O O5 0.915319 0.309204 0.313969
O O6 0.651079 0.504186 0.658050
O O7 0.236122 0.030997 0.187664
O O8 0.763773 0.113735 0.206021
O O9 0.842457 0.721695 0.863374
O O10 0.500000 0.000000 0.000000
O O11 0.000000 0.000000 0.500000
#
# Coordination Sequence:
#
# PCOD8013749 Si02
#       5
#     2   2   2   2   2
#     4  10  22  37  59  88 113 144 192 232 277 342
#     4  10  22  38  58  83 116 154 192 227 278 335
#     4   9  21  39  59  82 115 156 190 230 280 330
#     4  11  22  37  57  87 117 145 189 240 277 326
#     4  10  21  41  61  81 114 152 183 229 288 340
#
# _framework density 21.123021000000001
#
# number of rings (size 3 to 8) (size 9 to 14) (size 15 to 20)
#    0.000    2.000    0.000    2.400    0.000   13.600 
#    0.000    0.000    0.000    0.000    0.000    0.000 
#    0.000    0.000    0.000    0.000    0.000    0.000 
#
# Total GULP energy -123984.429183 kJ/mol
# GULP energy per Si atom -12398.442918 kJ/mol
# Density = 2.107494 g / cm^3
# Si number density = 21.123021 Si / 1000 Ang^3
#
#
#
# Elastic Constant Matrix: (Units=GPa)
#
#
# Indices 1 2 3 4 5 6 
#
# 1 66.7895 34.6111 15.7272 -9.4834 30.1322 10.1035
# 2 34.6111 132.2488 49.7235 -24.5015 13.5781 23.8240
# 3 15.7272 49.7235 102.7729 -14.1687 12.9978 14.2236
# 4 -9.4834 -24.5015 -14.1687 40.0536 -0.8159 -7.1657
# 5 30.1322 13.5781 12.9978 -0.8159 31.6010 3.3679
# 6 10.1035 23.8240 14.2236 -7.1657 3.3679 16.5546
#
#
#
# Elastic Compliance Matrix: (Units=1/GPa)
#
#
# Indices 1 2 3 4 5 6 
#
# 1 0.030577 -0.003968 0.002294 0.003679 -0.027474 -0.007740
# 2 -0.003968 0.012476 -0.003547 0.003453 0.001168 -0.011229
# 3 0.002294 -0.003547 0.012761 0.001814 -0.005290 -0.005399
# 4 0.003679 0.003453 0.001814 0.029386 -0.005520 0.005070
# 5 -0.027474 0.001168 -0.005290 -0.005520 0.058811 0.005279
# 6 -0.007740 -0.011229 -0.005399 0.005070 0.005279 0.087048
#
#
# Mechanical properties :
#
#
# Convention : Reuss Voigt Hill
#
# Bulk Modulus (GPa) = 22.03959 55.77053 38.90506
# Shear Modulus (GPa) = 19.48362 31.09179 25.28770
#
# Velocity S-wave (km/s) = 3.04038 3.84075 3.46376
# Velocity P-wave (km/s) = 4.77303 6.79180 5.86985
#
# Compressibility (1/GPa) = 0.04537289
#
# Stress axis : x y z
#
# Youngs Moduli (GPa) = 32.70434 80.15390 78.36106
#
# Poissons Ratio (x) = 0.31805 -0.17974
# Poissons Ratio (y) = 0.12977 0.27791
# Poissons Ratio (z) = -0.07502 0.28427
#
# Static dielectric constant tensor:
#      x y z
#    x 3.946130 0.186690 0.068000 
#    y 0.186690 3.845450 0.002130 
#    z 0.068000 0.002130 3.955820 
# 
# 
# High freq. dielectric constant tensor:
#      x y z
#    x 1.819670 0.003090 0.007680 
#    y 0.003090 1.819060 -0.003250 
#    z 0.007680 -0.003250 1.842350 
# 
# From -- ./inp_files/2244.got.cif
#   From: 2010.06.25/outbox.cif.g09.slc.cpg/sg2_2_cif.got.tgz:2244.got - 2010.06.27 13:26:56.
