data_PCOD8013753
_publ_section_title
;
Structure prediction by ZEFSAII (Michael W. Deem and Ramdas Pophale) SiO2 
 PCOD8013753
Probable space group: P -1
;
_chemical_formula_sum "Si O2"
_cell_formula_units_Z 16
_cell_length_a 11.183061
_cell_length_b 15.841019
_cell_length_c 6.731924
_cell_angle_alpha 72.203545
_cell_angle_beta 87.365184
_cell_angle_gamma 129.473634
_cell_volume 828.354218
_symmetry_space_group_name_H-M "P -1"
_symmetry_group_IT_number 2
_symmetry_cell_setting 'triclinic'
loop_
_space_group_symop_operation_xyz
x,y,z
-x,-y,-z
loop_
_atom_site_type_symbol
_atom_site_label
_atom_site_fract_x
_atom_site_fract_y
_atom_site_fract_z
Si Si1 0.800536 0.722830 0.844780
Si Si2 0.886170 0.213683 0.384027
Si Si3 0.182231 0.112306 0.966702
Si Si4 0.028540 0.618078 0.399863
Si Si5 0.332948 0.005469 0.143050
Si Si6 0.295714 0.837440 0.964059
Si Si7 0.282250 0.442309 0.690814
Si Si8 0.363479 0.320143 0.508632
O O1 0.677172 0.696867 0.707813
O O2 0.971535 0.781049 0.694329
O O3 0.830839 0.817103 0.924782
O O4 0.719228 0.599563 0.057604
O O5 0.962474 0.333932 0.416570
O O6 0.792288 0.205820 0.209169
O O7 0.757635 0.093003 0.606825
O O8 0.288148 0.195000 0.707168
O O9 0.264050 0.068822 0.089946
O O10 0.000000 0.000000 0.000000
O O11 0.000000 0.500000 0.500000
O O12 0.881109 0.584458 0.307872
O O13 0.197787 0.721727 0.198615
O O14 0.522849 0.109390 0.111645
O O15 0.304336 0.940628 0.982604
O O16 0.286207 0.368217 0.578388
O O17 0.440298 0.584874 0.550959
#
# Coordination Sequence:
#
# PCOD8013753 Si02
#       8
#     2   2   2   2   2   2   2   2
#     4  11  21  39  64  90 118 160 197 239 300 363
#     4  11  21  40  66  85 119 160 201 240 299 360
#     4  11  24  38  60  94 124 152 198 247 294 354
#     4  11  24  40  63  90 119 156 202 249 296 349
#     4  10  23  40  62  89 124 156 199 248 293 351
#     4  10  22  43  63  86 119 164 198 242 301 351
#     4  10  21  41  61  86 120 157 199 246 300 353
#     4  10  22  39  62  86 121 160 195 245 301 351
#
# _framework density 19.315408000000001
#
# number of rings (size 3 to 8) (size 9 to 14) (size 15 to 20)
#    0.000    1.500    2.500    2.250    5.250    3.500 
#    2.250    0.000    0.000    0.000    0.000    0.000 
#    0.000    0.000    0.000    0.000    0.000    0.000 
#
# Total GULP energy -198476.048845 kJ/mol
# GULP energy per Si atom -12404.753053 kJ/mol
# Density = 1.927145 g / cm^3
# Si number density = 19.315408 Si / 1000 Ang^3
#
#
#
# Elastic Constant Matrix: (Units=GPa)
#
#
# Indices 1 2 3 4 5 6 
#
# 1 87.7720 42.4497 21.1636 -5.2096 -7.5378 -0.5239
# 2 42.4497 96.4906 47.9636 -7.2201 5.8667 5.2584
# 3 21.1636 47.9636 91.1371 6.4781 -1.6131 -0.6716
# 4 -5.2096 -7.2201 6.4781 37.1109 9.5007 0.2101
# 5 -7.5378 5.8667 -1.6131 9.5007 30.8675 -3.5498
# 6 -0.5239 5.2584 -0.6716 0.2101 -3.5498 27.0707
#
#
#
# Elastic Compliance Matrix: (Units=1/GPa)
#
#
# Indices 1 2 3 4 5 6 
#
# 1 0.015405 -0.007666 0.000647 -0.000952 0.005842 0.002577
# 2 -0.007666 0.019642 -0.009222 0.006625 -0.008746 -0.005391
# 3 0.000647 -0.009222 0.016195 -0.005794 0.004873 0.002890
# 4 -0.000952 0.006625 -0.005794 0.032227 -0.012091 -0.003285
# 5 0.005842 -0.008746 0.004873 -0.012091 0.040302 0.007312
# 6 0.002577 -0.005391 0.002890 -0.003285 0.007312 0.039093
#
#
# Mechanical properties :
#
#
# Convention : Reuss Voigt Hill
#
# Bulk Modulus (GPa) = 53.30512 55.39482 54.34997
# Shear Modulus (GPa) = 24.80161 29.93135 27.36648
#
# Velocity S-wave (km/s) = 3.58723 3.94078 3.76815
# Velocity P-wave (km/s) = 6.69438 7.03190 6.86522
#
# Compressibility (1/GPa) = 0.01875992
#
# Stress axis : x y z
#
# Youngs Moduli (GPa) = 64.91332 50.91238 61.74703
#
# Poissons Ratio (x) = 0.39028 -0.03995
# Poissons Ratio (y) = 0.49761 0.56945
# Poissons Ratio (z) = -0.04200 0.46953
#
# Static dielectric constant tensor:
#      x y z
#    x 3.530480 0.287850 -0.150510 
#    y 0.287850 3.732910 -0.007230 
#    z -0.150510 -0.007230 3.699620 
# 
# 
# High freq. dielectric constant tensor:
#      x y z
#    x 1.751590 0.014760 -0.005690 
#    y 0.014760 1.753770 -0.001190 
#    z -0.005690 -0.001190 1.764160 
# 
# From -- ./inp_files/67229.got.cif
#   From: 2010.06.25/outbox.cif.g09.slc.cpg/sg2_34_cif.got.tgz:67229.got - 2010.06.27 13:26:56.
