data_PCOD8013420
_publ_section_title
;
Structure prediction by ZEFSAII (Michael W. Deem and Ramdas Pophale) SiO2 
 PCOD8013420
Probable space group: P -1
;
_chemical_formula_sum "Si O2"
_cell_formula_units_Z 16
_cell_length_a 4.986097
_cell_length_b 25.361100
_cell_length_c 9.920187
_cell_angle_alpha 31.641481
_cell_angle_beta 65.971690
_cell_angle_gamma 72.930153
_cell_volume 597.348665
_symmetry_space_group_name_H-M "P -1"
_symmetry_group_IT_number 2
_symmetry_cell_setting 'triclinic'
loop_
_space_group_symop_operation_xyz
x,y,z
-x,-y,-z
loop_
_atom_site_type_symbol
_atom_site_label
_atom_site_fract_x
_atom_site_fract_y
_atom_site_fract_z
Si Si1 0.244031 0.105587 0.087796
Si Si2 0.495701 0.691141 0.038632
Si Si3 0.218479 0.811791 0.489871
Si Si4 0.058373 0.578106 0.196845
Si Si5 0.772007 0.122150 0.371002
Si Si6 0.929280 0.397078 0.444467
Si Si7 0.465729 0.691490 0.503262
Si Si8 0.852892 0.904206 0.162014
O O1 0.045734 0.136473 0.182873
O O2 0.359617 0.995820 0.331436
O O3 0.515811 0.194914 0.816705
O O4 0.041082 0.096370 0.013752
O O5 0.368983 0.643194 0.026260
O O6 0.284586 0.649252 0.293911
O O7 0.820486 0.659088 0.061540
O O8 0.490935 0.813324 0.766311
O O9 0.089782 0.823155 0.640253
O O10 0.341162 0.704842 0.653105
O O11 0.959462 0.814564 0.425561
O O12 0.496503 0.899582 0.239264
O O13 0.000000 0.500000 0.500000
O O14 0.052785 0.513120 0.201192
O O15 0.738586 0.392283 0.356510
O O16 0.201454 0.333794 0.503354
O O17 0.000000 0.000000 0.000000
#
# Coordination Sequence:
#
# PCOD8013420 Si02
#       8
#     2   2   2   2   2   2   2   2
#     4  10  23  44  66  98 138 188 223 274 323 392
#     4  11  22  39  63 100 135 169 211 278 337 402
#     4  11  25  42  65  93 131 181 225 275 323 389
#     4  10  21  40  67  97 130 165 217 276 347 386
#     4  11  24  44  64 100 144 181 218 273 341 392
#     4  11  20  40  67  97 123 166 218 282 320 392
#     4  11  22  39  67  95 131 168 231 262 318 386
#     4  11  22  44  66  88 124 180 240 272 306 380
#
# _framework density 26.785026999999999
#
# number of rings (size 3 to 8) (size 9 to 14) (size 15 to 20)
#    0.000    1.250    2.500    5.625    1.750    1.000 
#    0.000    1.250    0.000    4.500    0.000    0.000 
#    0.000    0.000    0.000    0.000    0.000    0.000 
#
# Total GULP energy -198238.897697 kJ/mol
# GULP energy per Si atom -12389.931106 kJ/mol
# Density = 2.672406 g / cm^3
# Si number density = 26.785027 Si / 1000 Ang^3
#
#
#
# Elastic Constant Matrix: (Units=GPa)
#
#
# Indices 1 2 3 4 5 6 
#
# 1 105.2889 34.3010 11.6207 2.2745 10.0955 19.1122
# 2 34.3010 191.0828 33.1906 21.3732 -0.0006 8.8047
# 3 11.6207 33.1906 63.3916 -17.7679 26.4247 -2.9436
# 4 2.2745 21.3732 -17.7679 55.5841 0.0265 6.2402
# 5 10.0955 -0.0006 26.4247 0.0265 32.3351 -7.1056
# 6 19.1122 8.8047 -2.9436 6.2402 -7.1056 35.0128
#
#
#
# Elastic Compliance Matrix: (Units=1/GPa)
#
#
# Indices 1 2 3 4 5 6 
#
# 1 0.012093 -0.002467 0.002394 0.002082 -0.007416 -0.007656
# 2 -0.002467 0.007726 -0.008467 -0.005730 0.007987 0.001334
# 3 0.002394 -0.008467 0.037550 0.015789 -0.032647 -0.005461
# 4 0.002082 -0.005730 0.015789 0.025836 -0.014892 -0.005995
# 5 -0.007416 0.007987 -0.032647 -0.014892 0.063179 0.014771
# 6 -0.007656 0.001334 -0.005461 -0.005995 0.014771 0.036012
#
#
# Mechanical properties :
#
#
# Convention : Reuss Voigt Hill
#
# Bulk Modulus (GPa) = 24.81970 57.55420 41.18695
# Shear Modulus (GPa) = 23.48471 43.29647 33.39059
#
# Velocity S-wave (km/s) = 2.96427 4.02486 3.53457
# Velocity P-wave (km/s) = 4.58282 6.56761 5.66285
#
# Compressibility (1/GPa) = 0.04029058
#
# Stress axis : x y z
#
# Youngs Moduli (GPa) = 82.69359 129.42868 26.63131
#
# Poissons Ratio (x) = 0.31928 -0.06376
# Poissons Ratio (y) = 0.20399 0.22548
# Poissons Ratio (z) = -0.19800 1.09583
#
# Static dielectric constant tensor:
#      x y z
#    x 8.070460 0.413490 0.579250 
#    y 0.413490 5.564370 -0.092390 
#    z 0.579250 -0.092390 5.298910 
# 
# 
# High freq. dielectric constant tensor:
#      x y z
#    x 2.065920 0.006280 0.004430 
#    y 0.006280 2.101540 -0.003820 
#    z 0.004430 -0.003820 2.066560 
# 
# From -- ./inp_files/141955.got.cif
#   From: 2010.06.25/outbox.cif.g09.slc.cpg/sg2_71_cif.got.tgz:141955.got - 2010.06.27 13:26:56.
