data_PCOD8013404
_publ_section_title
;
Structure prediction by ZEFSAII (Michael W. Deem and Ramdas Pophale) SiO2 
 PCOD8013404
Probable space group: P -1
;
_chemical_formula_sum "Si O2"
_cell_formula_units_Z 14
_cell_length_a 9.739693
_cell_length_b 24.560405
_cell_length_c 8.628037
_cell_angle_alpha 42.247854
_cell_angle_beta 131.162821
_cell_angle_gamma 151.954096
_cell_volume 652.367575
_symmetry_space_group_name_H-M "P -1"
_symmetry_group_IT_number 2
_symmetry_cell_setting 'triclinic'
loop_
_space_group_symop_operation_xyz
x,y,z
-x,-y,-z
loop_
_atom_site_type_symbol
_atom_site_label
_atom_site_fract_x
_atom_site_fract_y
_atom_site_fract_z
Si Si1 0.796514 0.879855 0.720301
Si Si2 0.213111 0.585293 0.833042
Si Si3 0.762379 0.973808 0.789046
Si Si4 0.893273 0.611253 0.442132
Si Si5 0.826768 0.134069 0.000406
Si Si6 0.719207 0.567994 0.758125
Si Si7 0.849754 0.172274 0.287996
O O1 0.490743 0.740222 0.727529
O O2 0.703420 0.908444 0.723895
O O3 0.000000 0.000000 0.500000
O O4 0.976304 0.863863 0.947884
O O5 0.024968 0.567432 0.601138
O O6 0.313620 0.530856 0.974738
O O7 0.000000 0.500000 0.000000
O O8 0.446174 0.875693 0.841828
O O9 0.860802 0.100519 0.566315
O O10 0.000000 0.000000 0.000000
O O11 0.862663 0.614228 0.597779
O O12 0.603315 0.509946 0.339505
O O13 0.115693 0.756496 0.246832
O O14 0.905859 0.155758 0.194759
O O15 0.500000 0.000000 0.000000
O O16 0.890131 0.681186 0.769306
#
# Coordination Sequence:
#
# PCOD8013404 Si02
#       7
#     2   2   2   2   2   2   2
#     4  12  23  43  69 100 136 179 229 287 339 406
#     4  10  21  40  67  96 131 177 227 277 335 405
#     4  11  25  42  66  99 138 183 229 280 346 410
#     4  10  22  40  67  97 126 183 227 272 333 415
#     4  12  25  43  68 101 139 178 229 283 348 410
#     4  10  22  41  66  95 133 174 232 275 336 406
#     4  11  26  44  65 101 142 180 223 292 345 403
#
# _framework density 21.460296
#
# number of rings (size 3 to 8) (size 9 to 14) (size 15 to 20)
#    0.000    1.143    2.857    3.429    6.000    1.714 
#    0.000    0.714    0.000    0.000    0.000    0.000 
#    0.000    0.000    0.000    0.000    0.000    0.000 
#
# Total GULP energy -173470.937173 kJ/mol
# GULP energy per Si atom -12390.781227 kJ/mol
# Density = 2.141145 g / cm^3
# Si number density = 21.460296 Si / 1000 Ang^3
#
#
#
# Elastic Constant Matrix: (Units=GPa)
#
#
# Indices 1 2 3 4 5 6 
#
# 1 63.5913 33.8778 22.9551 4.4141 17.7587 1.6128
# 2 33.8778 170.4510 68.9124 -6.9904 16.6712 1.5286
# 3 22.9551 68.9124 143.1616 1.3920 30.2168 12.9648
# 4 4.4141 -6.9904 1.3920 39.0323 15.7163 7.4834
# 5 17.7587 16.6712 30.2168 15.7163 34.0753 5.8213
# 6 1.6128 1.5286 12.9648 7.4834 5.8213 39.9926
#
#
#
# Elastic Compliance Matrix: (Units=1/GPa)
#
#
# Indices 1 2 3 4 5 6 
#
# 1 0.019877 -0.003086 0.000280 0.000980 -0.009626 0.000443
# 2 -0.003086 0.007928 -0.003332 0.001891 -0.000288 0.000590
# 3 0.000280 -0.003332 0.010634 0.003085 -0.008923 -0.002610
# 4 0.000980 0.001891 0.003085 0.034387 -0.019221 -0.004749
# 5 -0.009626 -0.000288 -0.008923 -0.019221 0.051383 -0.000591
# 6 0.000443 0.000590 -0.002610 -0.004749 -0.000591 0.026785
#
#
# Mechanical properties :
#
#
# Convention : Reuss Voigt Hill
#
# Bulk Modulus (GPa) = 38.22264 69.85497 54.03881
# Shear Modulus (GPa) = 29.07133 39.38393 34.22763
#
# Velocity S-wave (km/s) = 3.68456 4.28857 3.99799
# Velocity P-wave (km/s) = 5.99590 7.55936 6.82256
#
# Compressibility (1/GPa) = 0.02616250
#
# Stress axis : x y z
#
# Youngs Moduli (GPa) = 50.30878 126.13746 94.03942
#
# Poissons Ratio (x) = 0.38931 -0.02638
# Poissons Ratio (y) = 0.15527 0.31337
# Poissons Ratio (z) = -0.01411 0.42033
#
# Static dielectric constant tensor:
#      x y z
#    x 4.020370 0.245440 0.380970 
#    y 0.245440 3.889650 0.041230 
#    z 0.380970 0.041230 4.311330 
# 
# 
# High freq. dielectric constant tensor:
#      x y z
#    x 1.831860 0.015930 0.025930 
#    y 0.015930 1.850680 -0.006150 
#    z 0.025930 -0.006150 1.854850 
# 
# From -- ./inp_files/226002.got.cif
#   From: 2010.06.25/outbox.cif.g09.slc.cpg/sg2_114_cif.got.tgz:226002.got - 2010.06.27 13:26:56.
