data_PCOD8013294
_publ_section_title
;
Structure prediction by ZEFSAII (Michael W. Deem and Ramdas Pophale) SiO2 
 PCOD8013294
Probable space group: P -1
;
_chemical_formula_sum "Si O2"
_cell_formula_units_Z 12
_cell_length_a 9.483045
_cell_length_b 6.671884
_cell_length_c 9.356483
_cell_angle_alpha 65.391221
_cell_angle_beta 115.834437
_cell_angle_gamma 126.445037
_cell_volume 418.342873
_symmetry_space_group_name_H-M "P -1"
_symmetry_group_IT_number 2
_symmetry_cell_setting 'triclinic'
loop_
_space_group_symop_operation_xyz
x,y,z
-x,-y,-z
loop_
_atom_site_type_symbol
_atom_site_label
_atom_site_fract_x
_atom_site_fract_y
_atom_site_fract_z
Si Si1 0.833806 0.009895 0.489873
Si Si2 0.794268 0.318511 0.002714
Si Si3 0.551732 0.722870 0.665870
Si Si4 0.084749 0.466017 0.714305
Si Si5 0.326602 0.753789 0.321291
Si Si6 0.297313 0.210221 0.786015
O O1 0.751902 0.840662 0.647822
O O2 0.685226 0.884796 0.336059
O O3 0.000000 0.000000 0.500000
O O4 0.880474 0.302588 0.449175
O O5 0.775047 0.408574 0.125782
O O6 0.737462 0.018329 0.056287
O O7 0.666284 0.330984 0.816196
O O8 0.000000 0.500000 0.000000
O O9 0.396530 0.617835 0.502681
O O10 0.486983 0.479091 0.814620
O O11 0.543137 0.941833 0.688013
O O12 0.128187 0.264708 0.714588
O O13 0.880354 0.321201 0.722136
#
# Coordination Sequence:
#
# PCOD8013294 Si02
#       6
#     2   2   2   2   2   2
#     4  11  23  41  67  96 130 175 223 273 330 394
#     4   9  22  43  67  97 132 178 227 268 319 388
#     4  11  23  39  63  99 136 170 214 273 337 391
#     4  10  21  41  68  96 130 176 227 269 318 389
#     4  10  21  40  66  96 135 176 216 270 328 387
#     4  11  23  41  65  98 134 171 222 273 326 389
#
# _framework density 28.684604
#
# number of rings (size 3 to 8) (size 9 to 14) (size 15 to 20)
#    0.000    1.667    0.000    4.500    0.000    5.333 
#    0.000   14.167    0.000    0.000    0.000    0.000 
#    0.000    0.000    0.000    0.000    0.000    0.000 
#
# Total GULP energy -148691.529969 kJ/mol
# GULP energy per Si atom -12390.960831 kJ/mol
# Density = 2.861932 g / cm^3
# Si number density = 28.684604 Si / 1000 Ang^3
#
#
#
# Elastic Constant Matrix: (Units=GPa)
#
#
# Indices 1 2 3 4 5 6 
#
# 1 80.3893 26.7611 1.0377 -1.6436 -11.8980 -5.0247
# 2 26.7611 176.0879 43.8654 -23.3985 -8.2829 5.9663
# 3 1.0377 43.8654 92.6022 5.1542 -1.2303 0.6295
# 4 -1.6436 -23.3985 5.1542 44.6773 9.5455 -11.1321
# 5 -11.8980 -8.2829 -1.2303 9.5455 30.2722 2.8958
# 6 -5.0247 5.9663 0.6295 -11.1321 2.8958 45.7473
#
#
#
# Elastic Compliance Matrix: (Units=1/GPa)
#
#
# Indices 1 2 3 4 5 6 
#
# 1 0.014064 -0.002448 0.001165 -0.001776 0.005362 0.001076
# 2 -0.002448 0.007563 -0.003803 0.004370 -0.000414 -0.000113
# 3 0.001165 -0.003803 0.012820 -0.003823 0.001197 -0.000558
# 4 -0.001776 0.004370 -0.003823 0.028768 -0.009387 0.006882
# 5 0.005362 -0.000414 0.001197 -0.009387 0.038428 -0.004090
# 6 0.001076 -0.000113 -0.000558 0.006882 -0.004090 0.023933
#
#
# Mechanical properties :
#
#
# Convention : Reuss Voigt Hill
#
# Bulk Modulus (GPa) = 41.19556 54.71199 47.95377
# Shear Modulus (GPa) = 34.76074 42.63370 38.69722
#
# Velocity S-wave (km/s) = 3.48490 3.85943 3.67694
# Velocity P-wave (km/s) = 5.53041 6.24302 5.89749
#
# Compressibility (1/GPa) = 0.02427446
#
# Stress axis : x y z
#
# Youngs Moduli (GPa) = 71.10400 132.21397 78.00353
#
# Poissons Ratio (x) = 0.32363 -0.09085
# Poissons Ratio (y) = 0.17405 0.29667
# Poissons Ratio (z) = -0.08282 0.50286
#
# Static dielectric constant tensor:
#      x y z
#    x 4.836570 -0.005300 -0.294470 
#    y -0.005300 5.903150 0.733980 
#    z -0.294470 0.733980 5.955430 
# 
# 
# High freq. dielectric constant tensor:
#      x y z
#    x 2.159330 0.006840 -0.018730 
#    y 0.006840 2.193840 0.015990 
#    z -0.018730 0.015990 2.148470 
# 
# From -- ./inp_files/233919.got.cif
#   From: 2010.06.25/outbox.cif.g09.slc.cpg/sg2_117_cif.got.tgz:233919.got - 2010.06.27 13:26:56.
