data_PCOD8013609
_publ_section_title
;
Structure prediction by ZEFSAII (Michael W. Deem and Ramdas Pophale) SiO2 
 PCOD8013609
Probable space group: P -1
;
_chemical_formula_sum "Si O2"
_cell_formula_units_Z 14
_cell_length_a 8.416433
_cell_length_b 8.044235
_cell_length_c 11.015853
_cell_angle_alpha 56.354487
_cell_angle_beta 99.768594
_cell_angle_gamma 109.087970
_cell_volume 586.676698
_symmetry_space_group_name_H-M "P -1"
_symmetry_group_IT_number 2
_symmetry_cell_setting 'triclinic'
loop_
_space_group_symop_operation_xyz
x,y,z
-x,-y,-z
loop_
_atom_site_type_symbol
_atom_site_label
_atom_site_fract_x
_atom_site_fract_y
_atom_site_fract_z
Si Si1 0.258421 0.341825 0.837441
Si Si2 0.512472 0.870152 0.915032
Si Si3 0.720019 0.735717 0.517700
Si Si4 0.992600 0.730365 0.375160
Si Si5 0.190757 0.502581 0.005738
Si Si6 0.482359 0.680977 0.293876
Si Si7 0.284669 0.119097 0.281317
O O1 0.091366 0.251373 0.773255
O O2 0.226364 0.503479 0.865620
O O3 0.408652 0.441758 0.721278
O O4 0.320888 0.168165 0.988661
O O5 0.334143 0.703791 0.995802
O O6 0.539454 0.852306 0.779349
O O7 0.518204 0.105367 0.861358
O O8 0.894619 0.815587 0.435420
O O9 0.564608 0.745547 0.409127
O O10 0.698039 0.490809 0.648429
O O11 0.705069 0.875851 0.573775
O O12 0.000000 0.500000 0.500000
O O13 0.176560 0.886835 0.325656
O O14 0.200941 0.296820 0.158479
O O15 0.000000 0.500000 0.000000
#
# Coordination Sequence:
#
# PCOD8013609 Si02
#       7
#     2   2   2   2   2   2   2
#     4  10  23  44  65  95 137 169 226 278 325 400
#     4  11  23  43  69  98 131 177 224 271 343 398
#     4  10  22  40  65  96 138 172 221 274 325 398
#     4  11  25  42  66  98 136 179 227 272 334 386
#     4  11  26  42  69 100 133 174 221 277 345 395
#     4  10  21  40  69  99 129 177 221 272 335 395
#     4  11  24  44  65  95 140 175 222 279 325 399
#
# _framework density 23.863227999999999
#
# number of rings (size 3 to 8) (size 9 to 14) (size 15 to 20)
#    0.000    1.429    0.000    5.143    6.000    4.000 
#    2.571    0.000    0.000    0.000    0.000    0.000 
#    0.000    0.000    0.000    0.000    0.000    0.000 
#
# Total GULP energy -173516.039317 kJ/mol
# GULP energy per Si atom -12394.002808 kJ/mol
# Density = 2.380891 g / cm^3
# Si number density = 23.863228 Si / 1000 Ang^3
#
#
#
# Elastic Constant Matrix: (Units=GPa)
#
#
# Indices 1 2 3 4 5 6 
#
# 1 93.9409 37.2819 19.7035 -3.5786 -3.9877 3.5922
# 2 37.2819 104.5896 43.4460 -1.1036 0.4918 4.8118
# 3 19.7035 43.4460 93.1734 -4.2702 -2.2487 11.8132
# 4 -3.5786 -1.1036 -4.2702 57.0031 -4.1466 -11.3602
# 5 -3.9877 0.4918 -2.2487 -4.1466 28.5330 1.2296
# 6 3.5922 4.8118 11.8132 -11.3602 1.2296 35.4217
#
#
#
# Elastic Compliance Matrix: (Units=1/GPa)
#
#
# Indices 1 2 3 4 5 6 
#
# 1 0.012564 -0.004231 -0.000561 0.000735 0.001906 -0.000343
# 2 -0.004231 0.013299 -0.005400 -0.000444 -0.001325 0.000327
# 3 -0.000561 -0.005400 0.013895 0.000236 0.001308 -0.003813
# 4 0.000735 -0.000444 0.000236 0.018965 0.002631 0.005898
# 5 0.001906 -0.001325 0.001308 0.002631 0.035859 -0.000851
# 6 -0.000343 0.000327 -0.003813 0.005898 -0.000851 0.031414
#
#
# Mechanical properties :
#
#
# Convention : Reuss Voigt Hill
#
# Bulk Modulus (GPa) = 51.61583 54.72964 53.17273
# Shear Modulus (GPa) = 32.71431 36.94305 34.82868
#
# Velocity S-wave (km/s) = 3.70660 3.93888 3.82450
# Velocity P-wave (km/s) = 6.32418 6.60839 6.46785
#
# Compressibility (1/GPa) = 0.01937390
#
# Stress axis : x y z
#
# Youngs Moduli (GPa) = 79.59400 75.19311 71.96673
#
# Poissons Ratio (x) = 0.31814 0.04036
# Poissons Ratio (y) = 0.33676 0.38864
# Poissons Ratio (z) = 0.04464 0.40607
#
# Static dielectric constant tensor:
#      x y z
#    x 4.207170 -0.135570 -0.244120 
#    y -0.135570 4.290550 0.289350 
#    z -0.244120 0.289350 4.540020 
# 
# 
# High freq. dielectric constant tensor:
#      x y z
#    x 1.934260 -0.009910 -0.018890 
#    y -0.009910 1.944760 0.019150 
#    z -0.018890 0.019150 1.958680 
# 
# From -- ./inp_files/256432.got.cif
#   From: 2010.06.25/outbox.cif.g09.slc.cpg/sg2_129_cif.got.tgz:256432.got - 2010.06.27 13:26:56.
