data_PCOD8013046
_publ_section_title
;
Structure prediction by ZEFSAII (Michael W. Deem and Ramdas Pophale) SiO2 
 PCOD8013046
Probable space group: P -1
;
_chemical_formula_sum "Si O2"
_cell_formula_units_Z 16
_cell_length_a 8.691202
_cell_length_b 17.334013
_cell_length_c 7.165025
_cell_angle_alpha 75.974435
_cell_angle_beta 52.480029
_cell_angle_gamma 58.151555
_cell_volume 722.230044
_symmetry_space_group_name_H-M "P -1"
_symmetry_group_IT_number 2
_symmetry_cell_setting 'triclinic'
loop_
_space_group_symop_operation_xyz
x,y,z
-x,-y,-z
loop_
_atom_site_type_symbol
_atom_site_label
_atom_site_fract_x
_atom_site_fract_y
_atom_site_fract_z
Si Si1 0.196472 0.936031 0.756677
Si Si2 0.578812 0.228607 0.752846
Si Si3 0.049938 0.105867 0.556868
Si Si4 0.627032 0.824958 0.720076
Si Si5 0.882491 0.213590 0.001230
Si Si6 0.137930 0.535415 0.262749
Si Si7 0.203327 0.278947 0.713229
Si Si8 0.415729 0.623332 0.112196
O O1 0.428123 0.908170 0.705389
O O2 0.173352 0.995154 0.552806
O O3 0.183413 0.843578 0.772834
O O4 0.000000 0.000000 0.000000
O O5 0.437029 0.244730 0.662012
O O6 0.604056 0.317745 0.723770
O O7 0.824058 0.142319 0.580406
O O8 0.461865 0.211676 0.027027
O O9 0.220255 0.136054 0.327266
O O10 0.971060 0.153349 0.786522
O O11 0.762123 0.742936 0.521074
O O12 0.079704 0.228311 0.929846
O O13 0.667081 0.311067 0.049323
O O14 0.257868 0.577722 0.280601
O O15 0.000000 0.500000 0.500000
O O16 0.960944 0.612517 0.208202
O O17 0.327097 0.452950 0.052515
#
# Coordination Sequence:
#
# PCOD8013046 Si02
#       8
#     2   2   2   2   2   2   2   2
#     4  10  16  33  64  86 110 158 197 238 291 341
#     4  11  21  41  59  84 127 149 195 242 281 344
#     4   9  19  34  58  89 114 153 203 236 282 351
#     4  11  20  38  64  81 118 163 188 239 301 329
#     4   8  16  34  57  81 117 151 192 237 288 339
#     4  10  20  36  61  86 115 144 197 233 287 350
#     4  10  23  38  58  92 114 154 199 235 286 358
#     4   9  18  35  58  83 112 156 181 239 292 331
#
# _framework density 22.153604999999999
#
# number of rings (size 3 to 8) (size 9 to 14) (size 15 to 20)
#    0.000    2.250    3.750    1.875    0.000    0.500 
#    2.250    1.875    0.000    0.000    0.000    0.000 
#    0.000    0.000    0.000    0.000    0.000    0.000 
#
# Total GULP energy -198297.265506 kJ/mol
# GULP energy per Si atom -12393.579094 kJ/mol
# Density = 2.210318 g / cm^3
# Si number density = 22.153605 Si / 1000 Ang^3
#
#
#
# Elastic Constant Matrix: (Units=GPa)
#
#
# Indices 1 2 3 4 5 6 
#
# 1 104.7943 41.0150 29.3011 -14.6374 -32.2579 -7.2009
# 2 41.0150 126.7640 30.1971 -5.7731 -24.5041 -4.3422
# 3 29.3011 30.1971 66.5462 -11.7512 -29.4320 1.9633
# 4 -14.6374 -5.7731 -11.7512 30.9207 3.0627 -17.2847
# 5 -32.2579 -24.5041 -29.4320 3.0627 36.9609 1.6784
# 6 -7.2009 -4.3422 1.9633 -17.2847 1.6784 32.5071
#
#
#
# Elastic Compliance Matrix: (Units=1/GPa)
#
#
# Indices 1 2 3 4 5 6 
#
# 1 0.015940 -0.002306 0.000970 0.011007 0.011861 0.008405
# 2 -0.002306 0.009703 -0.002260 0.000066 0.002577 0.000824
# 3 0.000970 -0.002260 0.025473 0.009118 0.018774 0.002253
# 4 0.011007 0.000066 0.009118 0.057952 0.010648 0.032161
# 5 0.011861 0.002577 0.018774 0.010648 0.052967 0.004765
# 6 0.008405 0.000824 0.002253 0.032161 0.004765 0.049453
#
#
# Mechanical properties :
#
#
# Convention : Reuss Voigt Hill
#
# Bulk Modulus (GPa) = 22.76782 55.45898 39.11340
# Shear Modulus (GPa) = 21.42961 33.25050 27.34006
#
# Velocity S-wave (km/s) = 3.11355 3.87836 3.51681
# Velocity P-wave (km/s) = 4.81925 6.71891 5.84675
#
# Compressibility (1/GPa) = 0.04392164
#
# Stress axis : x y z
#
# Youngs Moduli (GPa) = 62.73454 103.06384 39.25757
#
# Poissons Ratio (x) = 0.23772 -0.03807
# Poissons Ratio (y) = 0.14470 0.08873
# Poissons Ratio (z) = -0.06083 0.23295
#
# Static dielectric constant tensor:
#      x y z
#    x 4.141730 0.255180 -0.526400 
#    y 0.255180 4.867680 -0.053590 
#    z -0.526400 -0.053590 3.882460 
# 
# 
# High freq. dielectric constant tensor:
#      x y z
#    x 1.857650 0.002320 -0.040650 
#    y 0.002320 1.884980 0.005020 
#    z -0.040650 0.005020 1.851490 
# 
# From -- ./inp_files/214905.got.cif
#   From: 2010.06.25/outbox.cif.g09.slc.cpg/sg2_108_cif.got.tgz:214905.got - 2010.06.27 13:26:56.
