data_PCOD8013278
_publ_section_title
;
Structure prediction by ZEFSAII (Michael W. Deem and Ramdas Pophale) SiO2 
 PCOD8013278
Probable space group: P -1
;
_chemical_formula_sum "Si O2"
_cell_formula_units_Z 16
_cell_length_a 22.564430
_cell_length_b 11.213797
_cell_length_c 11.402489
_cell_angle_alpha 39.275591
_cell_angle_beta 32.341230
_cell_angle_gamma 28.877491
_cell_volume 738.806756
_symmetry_space_group_name_H-M "P -1"
_symmetry_group_IT_number 2
_symmetry_cell_setting 'triclinic'
loop_
_space_group_symop_operation_xyz
x,y,z
-x,-y,-z
loop_
_atom_site_type_symbol
_atom_site_label
_atom_site_fract_x
_atom_site_fract_y
_atom_site_fract_z
Si Si1 0.773667 0.290171 0.088606
Si Si2 0.585814 0.779657 0.430199
Si Si3 0.818221 0.826415 0.971421
Si Si4 0.301768 0.762948 0.327343
Si Si5 0.474733 0.811242 0.188023
Si Si6 0.935384 0.072473 0.218776
Si Si7 0.071320 0.313971 0.853724
Si Si8 0.664603 0.031960 0.458494
O O1 0.642747 0.576054 0.112666
O O2 0.831742 0.151972 0.221448
O O3 0.703536 0.189611 0.214306
O O4 0.910763 0.214123 0.838884
O O5 0.625547 0.522898 0.602783
O O6 0.485178 0.883607 0.404789
O O7 0.500000 0.000000 0.500000
O O8 0.729671 0.728923 0.188494
O O9 0.973083 0.608346 0.816414
O O10 0.735288 0.091124 0.844104
O O11 0.845223 0.849865 0.043352
O O12 0.412830 0.775741 0.203279
O O13 0.148021 0.904864 0.543514
O O14 0.358919 0.900570 0.416466
O O15 0.500000 0.000000 0.000000
O O16 0.971310 0.254973 0.020128
O O17 0.192162 0.250048 0.603402
#
# Coordination Sequence:
#
# PCOD8013278 Si02
#       8
#     2   2   2   2   2   2   2   2
#     4  10  21  40  66  95 133 178 219 270 339 414
#     4  12  24  45  71  98 137 186 226 279 344 401
#     4  11  25  45  67  98 136 179 235 283 332 405
#     4  12  25  44  70 104 137 177 231 284 339 409
#     4  12  25  40  65 104 142 172 221 284 347 408
#     4  10  21  40  68  96 129 181 224 274 341 397
#     4  10  23  44  67  94 134 182 233 278 337 403
#     4  11  21  42  69  94 134 179 222 276 346 403
#
# _framework density 21.656544
#
# number of rings (size 3 to 8) (size 9 to 14) (size 15 to 20)
#    0.000    1.000    5.000    1.875    1.750    2.000 
#    0.000    2.500    0.000    0.000    0.000    0.000 
#    0.000    0.000    0.000    0.000    0.000    0.000 
#
# Total GULP energy -198236.776438 kJ/mol
# GULP energy per Si atom -12389.798527 kJ/mol
# Density = 2.160725 g / cm^3
# Si number density = 21.656544 Si / 1000 Ang^3
#
#
#
# Elastic Constant Matrix: (Units=GPa)
#
#
# Indices 1 2 3 4 5 6 
#
# 1 85.4266 41.0600 23.5983 0.6605 -7.5733 6.4930
# 2 41.0600 139.0096 67.4231 15.6617 8.4790 11.4364
# 3 23.5983 67.4231 72.2805 6.7257 -11.8003 -1.8303
# 4 0.6605 15.6617 6.7257 41.2857 4.4411 -0.7324
# 5 -7.5733 8.4790 -11.8003 4.4411 30.6295 2.7660
# 6 6.4930 11.4364 -1.8303 -0.7324 2.7660 27.7537
#
#
#
# Elastic Compliance Matrix: (Units=1/GPa)
#
#
# Indices 1 2 3 4 5 6 
#
# 1 0.014449 -0.004692 0.000349 0.000915 0.005045 -0.001903
# 2 -0.004692 0.019013 -0.018116 -0.002977 -0.012359 -0.006779
# 3 0.000349 -0.018116 0.033697 -0.000358 0.017425 0.007859
# 4 0.000915 -0.002977 -0.000358 0.025752 -0.002999 0.001968
# 5 0.005045 -0.012359 0.017425 -0.002999 0.044415 0.000556
# 6 -0.001903 -0.006779 0.007859 0.001968 0.000556 0.039784
#
#
# Mechanical properties :
#
#
# Convention : Reuss Voigt Hill
#
# Bulk Modulus (GPa) = 44.95940 62.31992 53.63966
# Shear Modulus (GPa) = 21.79202 30.90947 26.35075
#
# Velocity S-wave (km/s) = 3.17559 3.78200 3.49199
# Velocity P-wave (km/s) = 5.85245 6.92173 6.40943
#
# Compressibility (1/GPa) = 0.02224229
#
# Stress axis : x y z
#
# Youngs Moduli (GPa) = 69.20731 52.59487 29.67649
#
# Poissons Ratio (x) = 0.24676 -0.01036
# Poissons Ratio (y) = 0.32470 0.53762
# Poissons Ratio (z) = -0.02417 0.95281
#
# Static dielectric constant tensor:
#      x y z
#    x 3.943990 0.055900 -0.183850 
#    y 0.055900 4.121540 0.328170 
#    z -0.183850 0.328170 3.761440 
# 
# 
# High freq. dielectric constant tensor:
#      x y z
#    x 1.856940 0.012270 -0.021520 
#    y 0.012270 1.851370 0.032270 
#    z -0.021520 0.032270 1.841760 
# 
# From -- ./inp_files/474840.got.cif
#   From: 2010.06.25/outbox.cif.g09.slc.cpg/sg2_238_cif.got.tgz:474840.got - 2010.06.27 13:26:56.
