data_PCOD8013893
_publ_section_title
;
Structure prediction by ZEFSAII (Michael W. Deem and Ramdas Pophale) SiO2 
 PCOD8013893
Probable space group: P -1
;
_chemical_formula_sum "Si O2"
_cell_formula_units_Z 16
_cell_length_a 10.400770
_cell_length_b 9.115049
_cell_length_c 8.820830
_cell_angle_alpha 85.443671
_cell_angle_beta 84.308691
_cell_angle_gamma 53.676539
_cell_volume 670.206749
_symmetry_space_group_name_H-M "P -1"
_symmetry_group_IT_number 2
_symmetry_cell_setting 'triclinic'
loop_
_space_group_symop_operation_xyz
x,y,z
-x,-y,-z
loop_
_atom_site_type_symbol
_atom_site_label
_atom_site_fract_x
_atom_site_fract_y
_atom_site_fract_z
Si Si1 0.453725 0.372846 0.744969
Si Si2 0.993958 0.651707 0.399756
Si Si3 0.488102 0.832241 0.517449
Si Si4 0.728382 0.057799 0.908008
Si Si5 0.655919 0.508884 0.718971
Si Si6 0.929070 0.697332 0.062335
Si Si7 0.233173 0.666755 0.973921
Si Si8 0.144999 0.005966 0.430485
O O1 0.394335 0.314413 0.614720
O O2 0.544119 0.198483 0.863855
O O3 0.577137 0.414877 0.667360
O O4 0.300962 0.559838 0.816488
O O5 0.166007 0.608128 0.356650
O O6 0.000000 0.500000 0.500000
O O7 0.903374 0.694905 0.245118
O O8 0.893730 0.807963 0.519753
O O9 0.556778 0.724315 0.676958
O O10 0.500000 0.000000 0.500000
O O11 0.318214 0.868260 0.500405
O O12 0.842403 0.007787 0.751964
O O13 0.758886 0.162265 0.024087
O O14 0.764770 0.870370 0.990428
O O15 0.657096 0.489720 0.901470
O O16 0.000000 0.500000 0.000000
O O17 0.049629 0.748125 0.006587
O O18 0.000000 0.000000 0.500000
#
# Coordination Sequence:
#
# PCOD8013893 Si02
#       8
#     2   2   2   2   2   2   2   2
#     4  10  22  41  64  91 122 164 210 263 316 373
#     4  11  23  40  61  89 125 166 208 257 317 380
#     4  11  24  40  61  93 130 167 210 261 317 379
#     4  10  21  41  63  89 124 160 211 268 313 372
#     4  10  21  41  63  89 124 163 212 265 313 373
#     4  11  24  40  61  92 127 165 207 258 320 385
#     4  10  22  41  64  90 122 162 210 265 315 369
#     4  11  23  40  63  93 125 165 212 261 314 373
#
# _framework density 23.873231000000001
#
# number of rings (size 3 to 8) (size 9 to 14) (size 15 to 20)
#    0.000    1.500    0.000    6.750    0.000    9.000 
#    0.000    1.250    0.000    0.000    0.000    0.000 
#    0.000    0.000    0.000    0.000    0.000    0.000 
#
# Total GULP energy -198263.475617 kJ/mol
# GULP energy per Si atom -12391.467226 kJ/mol
# Density = 2.381889 g / cm^3
# Si number density = 23.873231 Si / 1000 Ang^3
#
#
#
# Elastic Constant Matrix: (Units=GPa)
#
#
# Indices 1 2 3 4 5 6 
#
# 1 37.7357 -4.0342 15.6314 -2.0595 -2.3090 0.1085
# 2 -4.0342 141.1746 45.3490 -3.8367 1.5351 11.6665
# 3 15.6314 45.3490 88.2563 11.7118 -7.2875 3.4489
# 4 -2.0595 -3.8367 11.7118 61.6566 -1.6462 4.6610
# 5 -2.3090 1.5351 -7.2875 -1.6462 25.8303 5.8467
# 6 0.1085 11.6665 3.4489 4.6610 5.8467 28.4186
#
#
#
# Elastic Compliance Matrix: (Units=1/GPa)
#
#
# Indices 1 2 3 4 5 6 
#
# 1 0.030091 0.003372 -0.007302 0.002719 0.000884 -0.001241
# 2 0.003372 0.009313 -0.005596 0.001978 -0.000962 -0.003283
# 3 -0.007302 -0.005596 0.016304 -0.003590 0.004027 0.000107
# 4 0.002719 0.001978 -0.003590 0.017402 0.001002 -0.003447
# 5 0.000884 -0.000962 0.004027 0.001002 0.042069 -0.008917
# 6 -0.001241 -0.003283 0.000107 -0.003447 -0.008917 0.038928
#
#
# Mechanical properties :
#
#
# Convention : Reuss Voigt Hill
#
# Bulk Modulus (GPa) = 27.27990 42.33989 34.80989
# Shear Modulus (GPa) = 26.97209 37.19579 32.08394
#
# Velocity S-wave (km/s) = 3.36490 3.95150 3.66994
# Velocity P-wave (km/s) = 5.15253 6.21232 5.70708
#
# Compressibility (1/GPa) = 0.03665703
#
# Stress axis : x y z
#
# Youngs Moduli (GPa) = 33.23219 107.37733 61.33457
#
# Poissons Ratio (x) = -0.36210 0.44785
# Poissons Ratio (y) = -0.11207 0.34323
# Poissons Ratio (z) = 0.24265 0.60089
#
# Static dielectric constant tensor:
#      x y z
#    x 4.102240 -0.040940 0.252560 
#    y -0.040940 4.329620 -0.106460 
#    z 0.252560 -0.106460 4.101820 
# 
# 
# High freq. dielectric constant tensor:
#      x y z
#    x 1.926870 -0.002290 0.005320 
#    y -0.002290 1.962650 0.008190 
#    z 0.005320 0.008190 1.942790 
# 
# From -- ./inp_files/244031.got.cif
#   From: 2010.06.25/outbox.cif.g09.slc.cpg/sg2_123_cif.got.tgz:244031.got - 2010.06.27 13:26:56.
