data_PCOD8013432
_publ_section_title
;
Structure prediction by ZEFSAII (Michael W. Deem and Ramdas Pophale) SiO2 
 PCOD8013432
Probable space group: P -1
;
_chemical_formula_sum "Si O2"
_cell_formula_units_Z 16
_cell_length_a 7.068263
_cell_length_b 7.602915
_cell_length_c 14.097381
_cell_angle_alpha 76.022447
_cell_angle_beta 109.610575
_cell_angle_gamma 104.817214
_cell_volume 679.750760
_symmetry_space_group_name_H-M "P -1"
_symmetry_group_IT_number 2
_symmetry_cell_setting 'triclinic'
loop_
_space_group_symop_operation_xyz
x,y,z
-x,-y,-z
loop_
_atom_site_type_symbol
_atom_site_label
_atom_site_fract_x
_atom_site_fract_y
_atom_site_fract_z
Si Si1 0.340559 0.726253 0.992297
Si Si2 0.054032 0.220435 0.143885
Si Si3 0.488310 0.826303 0.306823
Si Si4 0.319550 0.043962 0.091181
Si Si5 0.934839 0.043623 0.334958
Si Si6 0.144173 0.596274 0.642850
Si Si7 0.821628 0.260984 0.573262
Si Si8 0.457269 0.490599 0.208895
O O1 0.432430 0.585212 0.091098
O O2 0.297417 0.906621 0.017337
O O3 0.111630 0.647583 0.923775
O O4 0.498001 0.783571 0.925151
O O5 0.948165 0.062544 0.220304
O O6 0.116590 0.126303 0.069360
O O7 0.255412 0.337149 0.212424
O O8 0.388260 0.789489 0.397759
O O9 0.484071 0.632993 0.280505
O O10 0.364898 0.950204 0.208737
O O11 0.717245 0.931900 0.346035
O O12 0.976811 0.247285 0.361684
O O13 0.101637 0.928163 0.414092
O O14 0.225745 0.639530 0.544062
O O15 0.337705 0.595784 0.745110
O O16 0.991610 0.398257 0.646017
#
# Coordination Sequence:
#
# PCOD8013432 Si02
#       8
#     2   2   2   2   2   2   2   2
#     4  10  23  42  66  96 136 183 225 281 340 406
#     4  12  23  42  68 100 135 182 229 278 342 411
#     4  11  22  45  70 101 137 185 227 284 348 404
#     4  10  21  40  67  99 133 176 234 281 334 407
#     4  12  24  45  73 102 141 178 234 283 341 413
#     4  11  26  48  70 106 139 180 231 288 340 415
#     4  11  25  48  75  99 139 183 229 284 354 403
#     4  11  25  44  66 101 143 179 229 285 342 403
#
# _framework density 23.538036999999999
#
# number of rings (size 3 to 8) (size 9 to 14) (size 15 to 20)
#    0.000    1.000    3.750    2.625    0.000    1.500 
#    9.000    0.000    0.000    0.000    0.000    0.000 
#    0.000    0.000    0.000    0.000    0.000    0.000 
#
# Total GULP energy -198449.036111 kJ/mol
# GULP energy per Si atom -12403.064757 kJ/mol
# Density = 2.348446 g / cm^3
# Si number density = 23.538037 Si / 1000 Ang^3
#
#
#
# Elastic Constant Matrix: (Units=GPa)
#
#
# Indices 1 2 3 4 5 6 
#
# 1 114.9775 32.2339 44.7499 -15.6471 -20.4296 13.0422
# 2 32.2339 97.7562 11.5885 -9.5307 -0.3428 -3.8390
# 3 44.7499 11.5885 75.7249 -16.1189 -5.7970 2.4633
# 4 -15.6471 -9.5307 -16.1189 28.1870 1.8639 1.9768
# 5 -20.4296 -0.3428 -5.7970 1.8639 47.4016 -2.0500
# 6 13.0422 -3.8390 2.4633 1.9768 -2.0500 31.2798
#
#
#
# Elastic Compliance Matrix: (Units=1/GPa)
#
#
# Indices 1 2 3 4 5 6 
#
# 1 0.014308 -0.003853 -0.006682 0.002895 0.004958 -0.005770
# 2 -0.003853 0.011725 0.000740 0.002151 -0.001451 0.002756
# 3 -0.006682 0.000740 0.018454 0.007086 -0.000857 0.000920
# 4 0.002895 0.002151 0.007086 0.042135 0.000294 -0.004145
# 5 0.004958 -0.001451 -0.000857 0.000294 0.023077 -0.000684
# 6 -0.005770 0.002756 0.000920 -0.004145 -0.000684 0.034858
#
#
# Mechanical properties :
#
#
# Convention : Reuss Voigt Hill
#
# Bulk Modulus (GPa) = 40.16557 51.73369 45.94963
# Shear Modulus (GPa) = 28.99454 34.69944 31.84699
#
# Velocity S-wave (km/s) = 3.51353 3.84368 3.68231
# Velocity P-wave (km/s) = 5.79319 6.45949 6.13539
#
# Compressibility (1/GPa) = 0.02489695
#
# Stress axis : x y z
#
# Youngs Moduli (GPa) = 69.89292 85.28710 54.18858
#
# Poissons Ratio (x) = 0.32857 0.36209
# Poissons Ratio (y) = 0.26927 -0.04008
# Poissons Ratio (z) = 0.46702 -0.06308
#
# Static dielectric constant tensor:
#      x y z
#    x 4.252600 -0.065000 -0.058420 
#    y -0.065000 4.263520 -0.121270 
#    z -0.058420 -0.121270 4.001590 
# 
# 
# High freq. dielectric constant tensor:
#      x y z
#    x 1.940750 -0.004850 -0.006420 
#    y -0.004850 1.930540 -0.005880 
#    z -0.006420 -0.005880 1.926170 
# 
# From -- ./inp_files/480357.got.cif
#   From: 2010.06.25/outbox.cif.g09.slc.cpg/sg2_241_cif.got.tgz:480357.got - 2010.06.27 13:26:56.
