data_PCOD8013395
_publ_section_title
;
Structure prediction by ZEFSAII (Michael W. Deem and Ramdas Pophale) SiO2 
 PCOD8013395
Probable space group: P -1
;
_chemical_formula_sum "Si O2"
_cell_formula_units_Z 12
_cell_length_a 12.342072
_cell_length_b 9.185562
_cell_length_c 9.818374
_cell_angle_alpha 77.198950
_cell_angle_beta 142.782233
_cell_angle_gamma 124.610406
_cell_volume 490.985128
_symmetry_space_group_name_H-M "P -1"
_symmetry_group_IT_number 2
_symmetry_cell_setting 'triclinic'
loop_
_space_group_symop_operation_xyz
x,y,z
-x,-y,-z
loop_
_atom_site_type_symbol
_atom_site_label
_atom_site_fract_x
_atom_site_fract_y
_atom_site_fract_z
Si Si1 0.160720 0.932122 0.554588
Si Si2 0.751858 0.403626 0.700451
Si Si3 0.638043 0.667003 0.992105
Si Si4 0.541259 0.120459 0.315724
Si Si5 0.883385 0.258629 0.167612
Si Si6 0.584043 0.368949 0.820890
O O1 0.252207 0.850549 0.565991
O O2 0.143521 0.863970 0.705796
O O3 0.907433 0.852935 0.267757
O O4 0.334442 0.171302 0.674677
O O5 0.622974 0.192878 0.538916
O O6 0.571010 0.362529 0.643557
O O7 0.839179 0.578966 0.640755
O O8 0.000000 0.500000 0.000000
O O9 0.500000 0.500000 0.000000
O O10 0.493625 0.737844 0.814731
O O11 0.640360 0.569686 0.877228
O O12 0.292715 0.891185 0.102019
O O13 0.794717 0.377937 0.089559
#
# Coordination Sequence:
#
# PCOD8013395 Si02
#       6
#     2   2   2   2   2   2
#     4  11  23  43  67  93 129 167 209 263 315 369
#     4  10  22  40  65  93 128 169 209 258 316 374
#     4  12  25  40  66  99 127 164 213 262 315 375
#     4  11  24  41  65  95 127 167 214 258 313 377
#     4  10  21  40  67  95 127 168 211 260 315 372
#     4  10  23  41  62  94 129 166 212 261 313 373
#
# _framework density 24.440660000000001
#
# number of rings (size 3 to 8) (size 9 to 14) (size 15 to 20)
#    0.000    1.333    0.000    7.000    0.000   14.000 
#    0.000    1.667    0.000    0.000    0.000    0.000 
#    0.000    0.000    0.000    0.000    0.000    0.000 
#
# Total GULP energy -148783.054339 kJ/mol
# GULP energy per Si atom -12398.587862 kJ/mol
# Density = 2.438503 g / cm^3
# Si number density = 24.440660 Si / 1000 Ang^3
#
#
#
# Elastic Constant Matrix: (Units=GPa)
#
#
# Indices 1 2 3 4 5 6 
#
# 1 73.7340 2.4293 6.8754 5.0816 -15.0914 17.4681
# 2 2.4293 46.1804 -14.9376 11.6542 14.1075 8.2982
# 3 6.8754 -14.9376 79.8578 14.7624 -6.4586 -1.5140
# 4 5.0816 11.6542 14.7624 33.8829 -6.3382 8.0291
# 5 -15.0914 14.1075 -6.4586 -6.3382 35.7933 5.6009
# 6 17.4681 8.2982 -1.5140 8.0291 5.6009 48.1244
#
#
#
# Elastic Compliance Matrix: (Units=1/GPa)
#
#
# Indices 1 2 3 4 5 6 
#
# 1 0.017637 -0.004502 -0.002327 0.003695 0.010627 -0.007552
# 2 -0.004502 0.034589 0.008913 -0.018613 -0.017388 0.001080
# 3 -0.002327 0.008913 0.016145 -0.010967 -0.003850 0.002094
# 4 0.003695 -0.018613 -0.010967 0.045018 0.016117 -0.007863
# 5 0.010627 -0.017388 -0.003850 0.016117 0.042785 -0.008649
# 6 -0.007552 0.001080 0.002094 -0.007863 -0.008649 0.025719
#
#
# Mechanical properties :
#
#
# Convention : Reuss Voigt Hill
#
# Bulk Modulus (GPa) = 13.78605 20.94516 17.36560
# Shear Modulus (GPa) = 24.76392 37.25379 31.00886
#
# Velocity S-wave (km/s) = 3.18657 3.90841 3.56580
# Velocity P-wave (km/s) = 4.38085 5.38107 4.90652
#
# Compressibility (1/GPa) = 0.07253710
#
# Stress axis : x y z
#
# Youngs Moduli (GPa) = 56.69837 28.91093 61.93691
#
# Poissons Ratio (x) = 0.13017 0.14415
# Poissons Ratio (y) = 0.25528 -0.55202
# Poissons Ratio (z) = 0.13196 -0.25767
#
# Static dielectric constant tensor:
#      x y z
#    x 4.936720 0.111940 -0.127240 
#    y 0.111940 4.796910 0.141000 
#    z -0.127240 0.141000 4.561670 
# 
# 
# High freq. dielectric constant tensor:
#      x y z
#    x 1.971960 0.003780 -0.008440 
#    y 0.003780 1.979770 0.010870 
#    z -0.008440 0.010870 1.972040 
# 
# From -- ./inp_files/223138.got.cif
#   From: 2010.06.25/outbox.cif.g09.slc.cpg/sg2_112_cif.got.tgz:223138.got - 2010.06.27 13:26:56.
