data_PCOD8013657
_publ_section_title
;
Structure prediction by ZEFSAII (Michael W. Deem and Ramdas Pophale) SiO2 
 PCOD8013657
Probable space group: P -1
;
_chemical_formula_sum "Si O2"
_cell_formula_units_Z 16
_cell_length_a 9.079100
_cell_length_b 14.312144
_cell_length_c 13.288804
_cell_angle_alpha 45.676492
_cell_angle_beta 115.627264
_cell_angle_gamma 80.003652
_cell_volume 752.063905
_symmetry_space_group_name_H-M "P -1"
_symmetry_group_IT_number 2
_symmetry_cell_setting 'triclinic'
loop_
_space_group_symop_operation_xyz
x,y,z
-x,-y,-z
loop_
_atom_site_type_symbol
_atom_site_label
_atom_site_fract_x
_atom_site_fract_y
_atom_site_fract_z
Si Si1 0.074363 0.738978 0.864128
Si Si2 0.747275 0.517495 0.065607
Si Si3 0.797121 0.579046 0.724779
Si Si4 0.400989 0.836610 0.562372
Si Si5 0.465300 0.668927 0.396428
Si Si6 0.483428 0.363293 0.879370
Si Si7 0.610973 0.076676 0.994028
Si Si8 0.830486 0.233401 0.589141
O O1 0.169511 0.660827 0.836836
O O2 0.102828 0.586354 0.044053
O O3 0.237243 0.753593 0.953941
O O4 0.791984 0.939611 0.633317
O O5 0.621212 0.552716 0.104641
O O6 0.989165 0.450836 0.217369
O O7 0.556963 0.715608 0.798214
O O8 0.576696 0.782879 0.564426
O O9 0.707497 0.567226 0.604048
O O10 0.255860 0.793623 0.515294
O O11 0.500000 0.500000 0.500000
O O12 0.422907 0.799728 0.198585
O O13 0.233472 0.811585 0.295531
O O14 0.483041 0.214100 0.951995
O O15 0.325076 0.541772 0.620982
O O16 0.500000 0.000000 0.000000
O O17 0.891772 0.891625 0.238934
#
# Coordination Sequence:
#
# PCOD8013657 Si02
#       8
#     2   2   2   2   2   2   2   2
#     4  11  20  42  71  93 133 180 231 269 328 416
#     4  11  25  39  64 101 143 173 212 280 353 396
#     4  10  23  42  63 101 135 170 230 282 334 399
#     4  10  21  40  70  98 128 179 227 272 326 413
#     4  11  22  47  75  94 127 189 233 274 339 401
#     4  12  24  45  66  99 138 180 227 274 338 415
#     4  12  28  46  68 105 137 172 231 296 344 386
#     4  11  23  44  72  96 133 177 233 278 331 418
#
# _framework density 21.274788000000001
#
# number of rings (size 3 to 8) (size 9 to 14) (size 15 to 20)
#    0.000    1.000    6.250    2.250    1.750    5.000 
#    4.500    0.000    0.000    0.000    0.000    0.000 
#    0.000    0.000    0.000    0.000    0.000    0.000 
#
# Total GULP energy -198380.594275 kJ/mol
# GULP energy per Si atom -12398.787142 kJ/mol
# Density = 2.122637 g / cm^3
# Si number density = 21.274788 Si / 1000 Ang^3
#
#
#
# Elastic Constant Matrix: (Units=GPa)
#
#
# Indices 1 2 3 4 5 6 
#
# 1 75.2143 19.8689 38.6583 4.9564 11.2023 8.9159
# 2 19.8689 103.7896 44.5162 -4.7427 3.9674 6.5546
# 3 38.6583 44.5162 116.3525 -3.9613 23.7074 -2.4718
# 4 4.9564 -4.7427 -3.9613 33.7076 -1.5411 3.1532
# 5 11.2023 3.9674 23.7074 -1.5411 34.7086 2.8069
# 6 8.9159 6.5546 -2.4718 3.1532 2.8069 36.5456
#
#
#
# Elastic Compliance Matrix: (Units=1/GPa)
#
#
# Indices 1 2 3 4 5 6 
#
# 1 0.017113 -0.000866 -0.005197 -0.002953 -0.001683 -0.003987
# 2 -0.000866 0.012007 -0.004811 0.001607 0.002474 -0.002596
# 3 -0.005197 -0.004811 0.013786 0.001036 -0.007430 0.003544
# 4 -0.002953 0.001607 0.001036 0.030735 0.001610 -0.002273
# 5 -0.001683 0.002474 -0.007430 0.001610 0.034487 -0.003323
# 6 -0.003987 -0.002596 0.003544 -0.002273 -0.003323 0.029493
#
#
# Mechanical properties :
#
#
# Convention : Reuss Voigt Hill
#
# Bulk Modulus (GPa) = 47.26022 55.71591 51.48806
# Shear Modulus (GPa) = 30.04434 33.81323 31.92878
#
# Velocity S-wave (km/s) = 3.76201 3.99100 3.87819
# Velocity P-wave (km/s) = 6.41348 6.89079 6.65641
#
# Compressibility (1/GPa) = 0.02115945
#
# Stress axis : x y z
#
# Youngs Moduli (GPa) = 58.43503 83.28615 72.53611
#
# Poissons Ratio (x) = 0.07211 0.37695
# Poissons Ratio (y) = 0.05060 0.34895
# Poissons Ratio (z) = 0.30367 0.40066
#
# Static dielectric constant tensor:
#      x y z
#    x 3.714610 -0.076250 0.161960 
#    y -0.076250 3.967700 0.066110 
#    z 0.161960 0.066110 3.907540 
# 
# 
# High freq. dielectric constant tensor:
#      x y z
#    x 1.825270 -0.002470 0.014770 
#    y -0.002470 1.843080 0.005990 
#    z 0.014770 0.005990 1.835110 
# 
# From -- ./inp_files/500178.got.cif
#   From: 2010.06.25/outbox.cif.g09.slc.cpg/sg2_251_cif.got.tgz:500178.got - 2010.06.27 13:26:56.
