data_PCOD8013552
_publ_section_title
;
Structure prediction by ZEFSAII (Michael W. Deem and Ramdas Pophale) SiO2 
 PCOD8013552
Probable space group: P -1
;
_chemical_formula_sum "Si O2"
_cell_formula_units_Z 12
_cell_length_a 11.081089
_cell_length_b 12.394045
_cell_length_c 16.076503
_cell_angle_alpha 152.706536
_cell_angle_beta 33.575875
_cell_angle_gamma 146.598097
_cell_volume 519.657473
_symmetry_space_group_name_H-M "P -1"
_symmetry_group_IT_number 2
_symmetry_cell_setting 'triclinic'
loop_
_space_group_symop_operation_xyz
x,y,z
-x,-y,-z
loop_
_atom_site_type_symbol
_atom_site_label
_atom_site_fract_x
_atom_site_fract_y
_atom_site_fract_z
Si Si1 0.600085 0.417570 0.190639
Si Si2 0.347166 0.065636 0.226488
Si Si3 0.215600 0.078859 0.492266
Si Si4 0.169577 0.583374 0.247698
Si Si5 0.699954 0.123318 0.195445
Si Si6 0.456602 0.436310 0.105209
O O1 0.802612 0.666287 0.284545
O O2 0.500956 0.499436 0.220243
O O3 0.377065 0.284396 0.290981
O O4 0.722628 0.213220 0.963829
O O5 0.158156 0.045137 0.398375
O O6 0.390635 0.851772 0.828794
O O7 0.493076 0.130935 0.380125
O O8 0.093780 0.825585 0.444475
O O9 0.343161 0.619832 0.252438
O O10 0.938283 0.342308 0.232489
O O11 0.294460 0.534868 0.059489
O O12 0.726174 0.852087 0.001692
#
# Coordination Sequence:
#
# PCOD8013552 Si02
#       6
#     2   2   2   2   2   2
#     4  10  16  34  55  74 100 130 173 197 249 302
#     4   8  18  33  55  73  97 138 160 204 253 288
#     4   9  19  32  54  76  98 135 159 209 253 283
#     4  10  17  34  51  74 105 128 170 202 248 296
#     4   8  17  33  50  75  99 135 162 202 252 291
#     4   9  19  31  54  74  97 141 161 204 249 289
#
# _framework density 23.092133
#
# number of rings (size 3 to 8) (size 9 to 14) (size 15 to 20)
#    1.000    2.000    1.667    1.000    0.000    0.667 
#    0.000    5.833    0.000    0.000    0.000    0.000 
#    0.000    0.000    0.000    0.000    0.000    0.000 
#
# Total GULP energy -148692.724487 kJ/mol
# GULP energy per Si atom -12391.060374 kJ/mol
# Density = 2.303957 g / cm^3
# Si number density = 23.092133 Si / 1000 Ang^3
#
#
#
# Elastic Constant Matrix: (Units=GPa)
#
#
# Indices 1 2 3 4 5 6 
#
# 1 101.5251 40.4382 34.1702 6.3753 0.8713 -27.4896
# 2 40.4382 104.2435 28.8564 -3.3024 5.4106 -12.6647
# 3 34.1702 28.8564 88.7228 18.2312 18.8204 -3.5305
# 4 6.3753 -3.3024 18.2312 38.1795 -6.0440 6.1614
# 5 0.8713 5.4106 18.8204 -6.0440 26.7405 2.0727
# 6 -27.4896 -12.6647 -3.5305 6.1614 2.0727 40.1800
#
#
#
# Elastic Compliance Matrix: (Units=1/GPa)
#
#
# Indices 1 2 3 4 5 6 
#
# 1 0.015441 -0.003833 -0.004415 -0.001924 0.002236 0.009148
# 2 -0.003833 0.012097 -0.003269 0.003300 0.000696 0.000361
# 3 -0.004415 -0.003269 0.019740 -0.011500 -0.015707 0.000257
# 4 -0.001924 0.003300 -0.011500 0.036097 0.016241 -0.007660
# 5 0.002236 0.000696 -0.015707 0.016241 0.052282 -0.004818
# 6 0.009148 0.000361 0.000257 -0.007660 -0.004818 0.032706
#
#
# Mechanical properties :
#
#
# Convention : Reuss Voigt Hill
#
# Bulk Modulus (GPa) = 41.25004 55.71346 48.48175
# Shear Modulus (GPa) = 25.06514 33.75511 29.41013
#
# Velocity S-wave (km/s) = 3.29818 3.82744 3.57262
# Velocity P-wave (km/s) = 5.69263 6.61146 6.16917
#
# Compressibility (1/GPa) = 0.02424240
#
# Stress axis : x y z
#
# Youngs Moduli (GPa) = 64.76192 82.66290 50.65884
#
# Poissons Ratio (x) = 0.31688 0.22366
# Poissons Ratio (y) = 0.24826 0.16563
# Poissons Ratio (z) = 0.28593 0.27027
#
# Static dielectric constant tensor:
#      x y z
#    x 4.051940 -0.175430 -0.047800 
#    y -0.175430 4.238860 0.026100 
#    z -0.047800 0.026100 3.975500 
# 
# 
# High freq. dielectric constant tensor:
#      x y z
#    x 1.903760 -0.006980 -0.007470 
#    y -0.006980 1.923970 0.006500 
#    z -0.007470 0.006500 1.892650 
# 
# From -- ./inp_files/247998.got.cif
#   From: 2010.06.25/outbox.cif.g09.slc.cpg/sg2_124_cif.got.tgz:247998.got - 2010.06.27 13:26:56.
