data_PCOD8013540
_publ_section_title
;
Structure prediction by ZEFSAII (Michael W. Deem and Ramdas Pophale) SiO2 
 PCOD8013540
Probable space group: P -1
;
_chemical_formula_sum "Si O2"
_cell_formula_units_Z 16
_cell_length_a 22.226508
_cell_length_b 6.830985
_cell_length_c 4.940759
_cell_angle_alpha 104.599730
_cell_angle_beta 80.899391
_cell_angle_gamma 102.706554
_cell_volume 703.944530
_symmetry_space_group_name_H-M "P -1"
_symmetry_group_IT_number 2
_symmetry_cell_setting 'triclinic'
loop_
_space_group_symop_operation_xyz
x,y,z
-x,-y,-z
loop_
_atom_site_type_symbol
_atom_site_label
_atom_site_fract_x
_atom_site_fract_y
_atom_site_fract_z
Si Si1 0.265215 0.140387 0.927261
Si Si2 0.437800 0.570345 0.478876
Si Si3 0.824534 0.268223 0.296201
Si Si4 0.927107 0.842258 0.783768
Si Si5 0.653268 0.851183 0.628891
Si Si6 0.936865 0.114516 0.376086
Si Si7 0.437611 0.846428 0.066434
Si Si8 0.810407 0.517346 0.866660
O O1 0.323454 0.132653 0.690050
O O2 0.207228 0.961195 0.843391
O O3 0.287030 0.115531 0.208519
O O4 0.243248 0.356865 0.981618
O O5 0.500000 0.500000 0.500000
O O6 0.386956 0.373344 0.366642
O O7 0.453779 0.711028 0.254992
O O8 0.412870 0.699574 0.780423
O O9 0.893343 0.269364 0.363310
O O10 0.785071 0.347351 0.595171
O O11 0.829835 0.417776 0.090144
O O12 0.870036 0.655058 0.730105
O O13 0.991258 0.768817 0.631896
O O14 0.916275 0.028865 0.659862
O O15 0.930455 0.917282 0.116152
O O16 0.614996 0.029928 0.768173
O O17 0.500000 0.000000 0.000000
#
# Coordination Sequence:
#
# PCOD8013540 Si02
#       8
#     2   2   2   2   2   2   2   2
#     4  12  28  48  67 100 144 180 234 284 336 398
#     4  12  26  45  76 108 142 179 225 275 342 413
#     4  12  26  43  72  99 134 185 232 282 344 410
#     4  10  21  40  68  99 134 176 224 285 351 406
#     4  12  28  46  74 102 139 184 226 288 336 396
#     4  10  21  40  68  99 134 176 224 285 351 406
#     4  12  26  45  76 108 142 179 225 275 342 413
#     4  12  26  43  72  99 134 185 232 282 344 410
#
# _framework density 22.729064000000001
#
# number of rings (size 3 to 8) (size 9 to 14) (size 15 to 20)
#    0.000    0.500    2.500    5.250    3.500    7.000 
#    0.000    0.000    0.000    0.000    0.000    0.000 
#    0.000    0.000    0.000    0.000    0.000    0.000 
#
# Total GULP energy -198524.852358 kJ/mol
# GULP energy per Si atom -12407.803272 kJ/mol
# Density = 2.267733 g / cm^3
# Si number density = 22.729064 Si / 1000 Ang^3
#
#
#
# Elastic Constant Matrix: (Units=GPa)
#
#
# Indices 1 2 3 4 5 6 
#
# 1 88.7826 30.1140 13.6520 -1.8982 -2.1112 -7.6977
# 2 30.1140 80.6901 29.3352 -4.7718 -6.0263 -17.4325
# 3 13.6520 29.3352 110.2589 -1.1329 2.2400 -3.6943
# 4 -1.8982 -4.7718 -1.1329 48.4865 -4.4354 3.2537
# 5 -2.1112 -6.0263 2.2400 -4.4354 38.2108 1.1084
# 6 -7.6977 -17.4325 -3.6943 3.2537 1.1084 24.5865
#
#
#
# Elastic Compliance Matrix: (Units=1/GPa)
#
#
# Indices 1 2 3 4 5 6 
#
# 1 0.012921 -0.004517 -0.000372 0.000000 0.000000 0.000787
# 2 -0.004517 0.018042 -0.003931 0.001042 0.002642 0.010530
# 3 -0.000372 -0.003931 0.010141 -0.000189 -0.001219 -0.001300
# 4 0.000000 0.001042 -0.000189 0.021117 0.002691 -0.002205
# 5 0.000000 0.002642 -0.001219 0.002691 0.026968 0.000118
# 6 0.000787 0.010530 -0.001300 -0.002205 0.000118 0.048476
#
#
# Mechanical properties :
#
#
# Convention : Reuss Voigt Hill
#
# Bulk Modulus (GPa) = 42.61829 47.32600 44.97214
# Shear Modulus (GPa) = 30.65130 36.03213 33.34171
#
# Velocity S-wave (km/s) = 3.67625 3.98589 3.83419
# Velocity P-wave (km/s) = 6.06721 6.48460 6.27937
#
# Compressibility (1/GPa) = 0.02346411
#
# Stress axis : x y z
#
# Youngs Moduli (GPa) = 77.39360 55.42643 98.61209
#
# Poissons Ratio (x) = 0.25036 0.03666
# Poissons Ratio (y) = 0.34959 0.38765
# Poissons Ratio (z) = 0.02877 0.21788
#
# Static dielectric constant tensor:
#      x y z
#    x 4.037060 -0.056270 0.024530 
#    y -0.056270 3.868200 0.127820 
#    z 0.024530 0.127820 4.325130 
# 
# 
# High freq. dielectric constant tensor:
#      x y z
#    x 1.898570 -0.006620 0.002040 
#    y -0.006620 1.897320 0.000630 
#    z 0.002040 0.000630 1.917560 
# 
# From -- ./inp_files/114750.got.cif
#   From: 2010.06.25/outbox.cif.g09.slc.cpg/sg2_58_cif.got.tgz:114750.got - 2010.06.27 13:26:56.
