data_PCOD8013769
_publ_section_title
;
Structure prediction by ZEFSAII (Michael W. Deem and Ramdas Pophale) SiO2 
 PCOD8013769
Probable space group: P -1
;
_chemical_formula_sum "Si O2"
_cell_formula_units_Z 14
_cell_length_a 29.498286
_cell_length_b 7.248942
_cell_length_c 5.205348
_cell_angle_alpha 91.299519
_cell_angle_beta 87.205663
_cell_angle_gamma 145.220909
_cell_volume 633.859169
_symmetry_space_group_name_H-M "P -1"
_symmetry_group_IT_number 2
_symmetry_cell_setting 'triclinic'
loop_
_space_group_symop_operation_xyz
x,y,z
-x,-y,-z
loop_
_atom_site_type_symbol
_atom_site_label
_atom_site_fract_x
_atom_site_fract_y
_atom_site_fract_z
Si Si1 0.567840 0.239201 0.786289
Si Si2 0.985120 0.328603 0.249515
Si Si3 0.156994 0.404973 0.695219
Si Si4 0.265167 0.290353 0.234936
Si Si5 0.127957 0.541845 0.206921
Si Si6 0.463873 0.183775 0.563754
Si Si7 0.706980 0.395074 0.250662
O O1 0.657865 0.579580 0.864070
O O2 0.540159 0.313636 0.617096
O O3 0.574780 0.054104 0.669516
O O4 0.500000 0.000000 0.000000
O O5 0.039597 0.328454 0.238312
O O6 0.000000 0.500000 0.500000
O O7 0.894953 0.953671 0.263473
O O8 0.000000 0.500000 0.000000
O O9 0.139488 0.429070 0.420832
O O10 0.249566 0.652056 0.692017
O O11 0.139621 0.495378 0.921900
O O12 0.274183 0.394048 0.525511
O O13 0.187637 0.908607 0.241623
O O14 0.257171 0.422226 0.027063
O O15 0.500000 0.500000 0.500000
O O16 0.388958 0.956366 0.772438
#
# Coordination Sequence:
#
# PCOD8013769 Si02
#       7
#     2   2   2   2   2   2   2
#     4  10  21  41  61  90 125 170 214 274 322 386
#     4  12  24  44  70  94 128 173 209 252 317 382
#     4  12  25  42  65  98 132 159 215 263 312 378
#     4  11  23  42  65  88 129 168 214 256 325 382
#     4  12  25  42  66  98 128 166 206 268 316 369
#     4  10  23  39  63  90 127 167 220 269 327 384
#     4  11  23  43  62  92 126 170 211 261 315 391
#
# _framework density 22.086925999999998
#
# number of rings (size 3 to 8) (size 9 to 14) (size 15 to 20)
#    0.000    0.857    1.429    6.000    2.000    1.714 
#    0.000    0.000    0.000    0.000    0.000    0.000 
#    0.000    0.000    0.000    0.000    0.000    0.000 
#
# Total GULP energy -173553.307804 kJ/mol
# GULP energy per Si atom -12396.664843 kJ/mol
# Density = 2.203666 g / cm^3
# Si number density = 22.086926 Si / 1000 Ang^3
#
#
#
# Elastic Constant Matrix: (Units=GPa)
#
#
# Indices 1 2 3 4 5 6 
#
# 1 121.4047 13.9661 7.4671 2.5368 1.8800 6.3784
# 2 13.9661 90.7012 8.5794 -11.1720 6.3301 -13.5805
# 3 7.4671 8.5794 90.4203 -5.5545 8.8381 -8.2042
# 4 2.5368 -11.1720 -5.5545 35.7154 -6.9590 2.6061
# 5 1.8800 6.3301 8.8381 -6.9590 41.5128 -2.5667
# 6 6.3784 -13.5805 -8.2042 2.6061 -2.5667 37.7782
#
#
#
# Elastic Compliance Matrix: (Units=1/GPa)
#
#
# Indices 1 2 3 4 5 6 
#
# 1 0.008625 -0.001703 -0.000792 -0.001166 -0.000293 -0.002180
# 2 -0.001703 0.012468 -0.000343 0.003472 -0.000897 0.004395
# 3 -0.000792 -0.000343 0.011641 0.001191 -0.002047 0.002317
# 4 -0.001166 0.003472 0.001191 0.030203 0.004327 -0.000086
# 5 -0.000293 -0.000897 -0.002047 0.004327 0.025444 0.000712
# 6 -0.002180 0.004395 0.002317 -0.000086 0.000712 0.028976
#
#
# Mechanical properties :
#
#
# Convention : Reuss Voigt Hill
#
# Bulk Modulus (GPa) = 36.95481 40.28348 38.61915
# Shear Modulus (GPa) = 37.86426 41.16886 39.51656
#
# Velocity S-wave (km/s) = 4.14494 4.32203 4.23441
# Velocity P-wave (km/s) = 6.29883 6.57151 6.43661
#
# Compressibility (1/GPa) = 0.02706007
#
# Stress axis : x y z
#
# Youngs Moduli (GPa) = 115.94340 80.20447 85.90413
#
# Poissons Ratio (x) = 0.13657 0.06799
# Poissons Ratio (y) = 0.19743 0.02943
# Poissons Ratio (z) = 0.09177 0.02748
#
# Static dielectric constant tensor:
#      x y z
#    x 3.075630 -0.144650 -0.255040 
#    y -0.144650 3.714440 -0.008260 
#    z -0.255040 -0.008260 3.866970 
# 
# 
# High freq. dielectric constant tensor:
#      x y z
#    x 1.887570 0.017290 0.001050 
#    y 0.017290 1.866630 -0.004670 
#    z 0.001050 -0.004670 1.873720 
# 
# From -- ./inp_files/7395.got.cif
#   From: 2010.06.25/outbox.cif.g09.slc.cpg/sg2_4_cif.got.tgz:7395.got - 2010.06.27 13:26:56.
