data_PCOD8013376
_publ_section_title
;
Structure prediction by ZEFSAII (Michael W. Deem and Ramdas Pophale) SiO2 
 PCOD8013376
Probable space group: P -1
;
_chemical_formula_sum "Si O2"
_cell_formula_units_Z 16
_cell_length_a 11.927091
_cell_length_b 15.755287
_cell_length_c 9.192962
_cell_angle_alpha 132.756269
_cell_angle_beta 70.101702
_cell_angle_gamma 139.678568
_cell_volume 761.503473
_symmetry_space_group_name_H-M "P -1"
_symmetry_group_IT_number 2
_symmetry_cell_setting 'triclinic'
loop_
_space_group_symop_operation_xyz
x,y,z
-x,-y,-z
loop_
_atom_site_type_symbol
_atom_site_label
_atom_site_fract_x
_atom_site_fract_y
_atom_site_fract_z
Si Si1 0.745688 0.245953 0.001461
Si Si2 0.033420 0.372308 0.555030
Si Si3 0.275086 0.396343 0.075717
Si Si4 0.315955 0.933132 0.457862
Si Si5 0.587231 0.844697 0.957320
Si Si6 0.423671 0.265188 0.851426
Si Si7 0.390753 0.519571 0.493748
Si Si8 0.092704 0.778898 0.857743
O O1 0.787549 0.196589 0.787440
O O2 0.894259 0.461608 0.196706
O O3 0.534586 0.130860 0.938293
O O4 0.759670 0.181457 0.066038
O O5 0.187471 0.384128 0.502668
O O6 0.835910 0.182485 0.481937
O O7 0.000391 0.374769 0.400780
O O8 0.375136 0.545182 0.078516
O O9 0.379006 0.491798 0.294749
O O10 0.063345 0.281863 0.039982
O O11 0.279377 0.262558 0.880450
O O12 0.500000 0.000000 0.500000
O O13 0.365061 0.104118 0.607180
O O14 0.508914 0.723757 0.707329
O O15 0.565650 0.747550 0.995006
O O16 0.801381 0.038179 0.059746
O O17 0.500000 0.500000 0.500000
#
# Coordination Sequence:
#
# PCOD8013376 Si02
#       8
#     2   2   2   2   2   2   2   2
#     4  11  24  40  62  98 133 168 212 266 325 385
#     4  10  23  41  63  98 126 172 212 264 327 386
#     4  10  25  43  67  92 128 176 209 273 319 385
#     4  12  24  41  66  95 130 175 214 265 323 384
#     4  11  22  41  67  93 127 170 214 270 316 387
#     4  11  23  44  64  90 131 166 223 250 329 379
#     4  10  21  40  67  94 123 164 216 268 325 379
#     4  11  23  42  65  97 127 167 218 267 328 375
#
# _framework density 21.011066
#
# number of rings (size 3 to 8) (size 9 to 14) (size 15 to 20)
#    0.000    1.250    3.750    1.125    3.500    3.500 
#    2.250    0.625    0.000    0.000    0.000    0.000 
#    0.000    0.000    0.000    0.000    0.000    0.000 
#
# Total GULP energy -198381.285474 kJ/mol
# GULP energy per Si atom -12398.830342 kJ/mol
# Density = 2.096324 g / cm^3
# Si number density = 21.011066 Si / 1000 Ang^3
#
#
#
# Elastic Constant Matrix: (Units=GPa)
#
#
# Indices 1 2 3 4 5 6 
#
# 1 88.9988 55.4677 29.1453 6.8467 -8.3205 -5.4169
# 2 55.4677 135.8512 23.7266 8.5593 -9.4514 4.1524
# 3 29.1453 23.7266 91.3996 2.9638 -17.0152 -0.2858
# 4 6.8467 8.5593 2.9638 24.4122 -2.1826 1.8684
# 5 -8.3205 -9.4514 -17.0152 -2.1826 34.9066 -0.4597
# 6 -5.4169 4.1524 -0.2858 1.8684 -0.4597 31.1253
#
#
#
# Elastic Compliance Matrix: (Units=1/GPa)
#
#
# Indices 1 2 3 4 5 6 
#
# 1 0.016674 -0.006124 -0.003548 -0.002348 0.000491 0.003834
# 2 -0.006124 0.010176 -0.000472 -0.001532 0.000939 -0.002322
# 3 -0.003548 -0.000472 0.013209 0.000073 0.005465 -0.000357
# 4 -0.002348 -0.001532 0.000073 0.042509 0.001683 -0.002731
# 5 0.000491 0.000939 0.005465 0.001683 0.031793 0.000379
# 6 0.003834 -0.002322 -0.000357 -0.002731 0.000379 0.033272
#
#
# Mechanical properties :
#
#
# Convention : Reuss Voigt Hill
#
# Bulk Modulus (GPa) = 50.57409 59.21433 54.89421
# Shear Modulus (GPa) = 28.65142 31.94947 30.30044
#
# Velocity S-wave (km/s) = 3.69675 3.90372 3.80164
# Velocity P-wave (km/s) = 6.50721 6.96867 6.74189
#
# Compressibility (1/GPa) = 0.01977297
#
# Stress axis : x y z
#
# Youngs Moduli (GPa) = 59.97227 98.26612 75.70759
#
# Poissons Ratio (x) = 0.60174 0.26861
# Poissons Ratio (y) = 0.36724 0.03572
# Poissons Ratio (z) = 0.21278 0.04636
#
# Static dielectric constant tensor:
#      x y z
#    x 3.754380 0.103850 -0.137500 
#    y 0.103850 3.657060 -0.139560 
#    z -0.137500 -0.139560 4.121670 
# 
# 
# High freq. dielectric constant tensor:
#      x y z
#    x 1.819600 0.007200 -0.004300 
#    y 0.007200 1.815360 -0.007200 
#    z -0.004300 -0.007200 1.836130 
# 
# From -- ./inp_files/207932.got.cif
#   From: 2010.06.25/outbox.cif.g09.slc.cpg/sg2_104_cif.got.tgz:207932.got - 2010.06.27 13:26:56.
