data_PCOD8013448
_publ_section_title
;
Structure prediction by ZEFSAII (Michael W. Deem and Ramdas Pophale) SiO2 
 PCOD8013448
Probable space group: P -1
;
_chemical_formula_sum "Si O2"
_cell_formula_units_Z 14
_cell_length_a 9.112627
_cell_length_b 13.915066
_cell_length_c 13.025803
_cell_angle_alpha 136.488903
_cell_angle_beta 136.919040
_cell_angle_gamma 42.759927
_cell_volume 699.453015
_symmetry_space_group_name_H-M "P -1"
_symmetry_group_IT_number 2
_symmetry_cell_setting 'triclinic'
loop_
_space_group_symop_operation_xyz
x,y,z
-x,-y,-z
loop_
_atom_site_type_symbol
_atom_site_label
_atom_site_fract_x
_atom_site_fract_y
_atom_site_fract_z
Si Si1 0.586492 0.479996 0.913357
Si Si2 0.372327 0.759845 0.395328
Si Si3 0.858865 0.653295 0.879225
Si Si4 0.442849 0.097358 0.230401
Si Si5 0.937596 0.040057 0.379532
Si Si6 0.393838 0.241511 0.956741
Si Si7 0.087754 0.670702 0.342098
O O1 0.483163 0.371895 0.717499
O O2 0.500000 0.500000 0.000000
O O3 0.490004 0.648093 0.940369
O O4 0.873275 0.392837 0.982975
O O5 0.528458 0.834342 0.590984
O O6 0.287909 0.670553 0.366712
O O7 0.151420 0.894592 0.321895
O O8 0.789567 0.775452 0.845627
O O9 0.835366 0.500772 0.707014
O O10 0.675511 0.722879 0.932593
O O11 0.673119 0.053735 0.238323
O O12 0.415181 0.937689 0.103307
O O13 0.940002 0.206085 0.485107
O O14 0.000000 0.000000 0.500000
O O15 0.161152 0.270126 0.796390
#
# Coordination Sequence:
#
# PCOD8013448 Si02
#       7
#     2   2   2   2   2   2   2
#     4  11  23  38  56  73 102 147 185 212 254 318
#     4  10  16  34  54  78 109 138 171 211 267 308
#     4  11  20  31  56  85 109 129 180 217 264 303
#     4  10  19  30  55  85 110 133 165 224 267 310
#     4   8  14  26  51  77 109 128 168 202 268 301
#     4  11  17  35  56  81 106 137 173 215 265 312
#     4   9  14  29  51  79 105 137 162 213 253 314
#
# _framework density 20.015640999999999
#
# number of rings (size 3 to 8) (size 9 to 14) (size 15 to 20)
#    0.000    2.286    7.143    1.286    0.000    2.286 
#    0.000    2.143    0.000    0.000    0.000    0.000 
#    0.000    0.000    0.000    0.000    0.000    0.000 
#
# Total GULP energy -173443.865162 kJ/mol
# GULP energy per Si atom -12388.847512 kJ/mol
# Density = 1.997008 g / cm^3
# Si number density = 20.015641 Si / 1000 Ang^3
#
#
#
# Elastic Constant Matrix: (Units=GPa)
#
#
# Indices 1 2 3 4 5 6 
#
# 1 38.9390 13.3528 19.8493 14.6051 -18.9499 9.2695
# 2 13.3528 140.7307 54.2109 34.8559 -8.4650 7.4454
# 3 19.8493 54.2109 78.5793 40.3408 -13.0313 7.1263
# 4 14.6051 34.8559 40.3408 42.5171 -6.8127 3.8156
# 5 -18.9499 -8.4650 -13.0313 -6.8127 19.1066 -2.5669
# 6 9.2695 7.4454 7.1263 3.8156 -2.5669 7.0339
#
#
#
# Elastic Compliance Matrix: (Units=1/GPa)
#
#
# Indices 1 2 3 4 5 6 
#
# 1 0.080516 0.002995 0.004461 -0.016307 0.067627 -0.080271
# 2 0.002995 0.010108 -0.004835 -0.003802 0.001854 -0.007009
# 3 0.004461 -0.004835 0.029993 -0.022713 0.012735 -0.014180
# 4 -0.016307 -0.003802 -0.022713 0.050190 -0.013240 0.016468
# 5 0.067627 0.001854 0.012735 -0.013240 0.116923 -0.054133
# 6 -0.080271 -0.007009 -0.014180 0.016468 -0.054133 0.241051
#
#
# Mechanical properties :
#
#
# Convention : Reuss Voigt Hill
#
# Bulk Modulus (GPa) = 7.94535 48.11947 28.03241
# Shear Modulus (GPa) = 8.84187 25.12057 16.98122
#
# Velocity S-wave (km/s) = 2.10406 3.54651 2.91589
# Velocity P-wave (km/s) = 3.14340 6.39245 5.03708
#
# Compressibility (1/GPa) = 0.12585985
#
# Stress axis : x y z
#
# Youngs Moduli (GPa) = 12.41995 98.93060 33.34084
#
# Poissons Ratio (x) = -0.29633 -0.14874
# Poissons Ratio (y) = -0.03720 0.16121
# Poissons Ratio (z) = -0.05541 0.47834
#
# Static dielectric constant tensor:
#      x y z
#    x 3.005270 -0.150250 -0.031360 
#    y -0.150250 4.293550 0.751650 
#    z -0.031360 0.751650 3.921390 
# 
# 
# High freq. dielectric constant tensor:
#      x y z
#    x 1.695370 -0.005170 -0.000140 
#    y -0.005170 1.789170 0.036140 
#    z -0.000140 0.036140 1.782930 
# 
# From -- ./inp_files/292545.got.cif
#   From: 2010.06.25/outbox.cif.g09.slc.cpg/sg2_147_cif.got.tgz:292545.got - 2010.06.27 13:26:56.
