data_PCOD8013264
_publ_section_title
;
Structure prediction by ZEFSAII (Michael W. Deem and Ramdas Pophale) SiO2 
 PCOD8013264
Probable space group: P -1
;
_chemical_formula_sum "Si O2"
_cell_formula_units_Z 16
_cell_length_a 13.758387
_cell_length_b 6.805121
_cell_length_c 10.532866
_cell_angle_alpha 76.904543
_cell_angle_beta 84.813622
_cell_angle_gamma 49.064942
_cell_volume 723.364849
_symmetry_space_group_name_H-M "P -1"
_symmetry_group_IT_number 2
_symmetry_cell_setting 'triclinic'
loop_
_space_group_symop_operation_xyz
x,y,z
-x,-y,-z
loop_
_atom_site_type_symbol
_atom_site_label
_atom_site_fract_x
_atom_site_fract_y
_atom_site_fract_z
Si Si1 0.859681 0.196792 0.666238
Si Si2 0.055834 0.324691 0.334600
Si Si3 0.541888 0.781104 0.133401
Si Si4 0.981930 0.267934 0.873258
Si Si5 0.781207 0.307891 0.041120
Si Si6 0.544100 0.020907 0.354389
Si Si7 0.186775 0.343073 0.527246
Si Si8 0.622907 0.394292 0.810083
O O1 0.932878 0.217971 0.762509
O O2 0.809953 0.420277 0.534105
O O3 0.744730 0.209391 0.729413
O O4 0.956106 0.900125 0.640710
O O5 0.044023 0.457569 0.181434
O O6 0.183922 0.224244 0.411105
O O7 0.933941 0.568418 0.391417
O O8 0.692720 0.505889 0.139838
O O9 0.444148 0.727119 0.138000
O O10 0.524077 0.888280 0.262508
O O11 0.500000 0.000000 0.000000
O O12 0.892996 0.321655 0.994567
O O13 0.135421 0.011295 0.904937
O O14 0.673152 0.422322 0.930410
O O15 0.474627 0.321141 0.285586
O O16 0.500000 0.000000 0.500000
O O17 0.692446 0.880481 0.369597
#
# Coordination Sequence:
#
# PCOD8013264 Si02
#       8
#     2   2   2   2   2   2   2   2
#     4  10  21  40  66  94 132 173 225 276 336 408
#     4  10  22  39  67  93 128 178 219 276 341 396
#     4  12  28  43  73 100 135 187 231 279 339 411
#     4   9  22  41  66  97 132 171 217 290 336 390
#     4  10  22  47  65  97 139 170 226 284 336 401
#     4  12  27  47  69 102 141 181 227 285 339 407
#     4  10  23  41  62  95 134 171 224 282 328 399
#     4  11  25  44  69  98 137 183 225 283 342 398
#
# _framework density 22.118852
#
# number of rings (size 3 to 8) (size 9 to 14) (size 15 to 20)
#    0.000    1.500    2.500    0.750    7.000    1.500 
#    0.000    1.875    0.000    0.000    0.000    0.000 
#    0.000    0.000    0.000    0.000    0.000    0.000 
#
# Total GULP energy -198318.264559 kJ/mol
# GULP energy per Si atom -12394.891535 kJ/mol
# Density = 2.206851 g / cm^3
# Si number density = 22.118852 Si / 1000 Ang^3
#
#
#
# Elastic Constant Matrix: (Units=GPa)
#
#
# Indices 1 2 3 4 5 6 
#
# 1 82.1438 24.5162 25.8747 -11.0256 -7.6122 -7.4240
# 2 24.5162 71.8005 28.3960 -12.1540 5.2712 1.1949
# 3 25.8747 28.3960 91.7276 -11.0158 -0.4993 -0.1867
# 4 -11.0256 -12.1540 -11.0158 41.8875 -5.9534 -2.8168
# 5 -7.6122 5.2712 -0.4993 -5.9534 27.2382 -9.4537
# 6 -7.4240 1.1949 -0.1867 -2.8168 -9.4537 35.8250
#
#
#
# Elastic Compliance Matrix: (Units=1/GPa)
#
#
# Indices 1 2 3 4 5 6 
#
# 1 0.016178 -0.004538 -0.002643 0.003822 0.008258 0.005970
# 2 -0.004538 0.017849 -0.004043 0.001973 -0.005341 -0.002811
# 3 -0.002643 -0.004043 0.013102 0.001663 0.000631 -0.000047
# 4 0.003822 0.001973 0.001663 0.027442 0.008497 0.005135
# 5 0.008258 -0.005341 0.000631 0.008497 0.047129 0.014998
# 6 0.005970 -0.002811 -0.000047 0.005135 0.014998 0.033606
#
#
# Mechanical properties :
#
#
# Convention : Reuss Voigt Hill
#
# Bulk Modulus (GPa) = 40.51553 44.80506 42.66030
# Shear Modulus (GPa) = 26.88452 32.11578 29.50015
#
# Velocity S-wave (km/s) = 3.49012 3.81460 3.65596
# Velocity P-wave (km/s) = 5.88203 6.30095 6.09509
#
# Compressibility (1/GPa) = 0.02468189
#
# Stress axis : x y z
#
# Youngs Moduli (GPa) = 61.81090 56.02642 76.32352
#
# Poissons Ratio (x) = 0.25422 0.20171
# Poissons Ratio (y) = 0.28047 0.30860
# Poissons Ratio (z) = 0.16336 0.22653
#
# Static dielectric constant tensor:
#      x y z
#    x 4.035390 -0.182660 -0.106500 
#    y -0.182660 4.019160 -0.116850 
#    z -0.106500 -0.116850 4.170360 
# 
# 
# High freq. dielectric constant tensor:
#      x y z
#    x 1.868860 -0.009950 -0.006650 
#    y -0.009950 1.870840 -0.009690 
#    z -0.006650 -0.009690 1.871720 
# 
# From -- ./inp_files/410274.got.cif
#   From: 2010.06.25/outbox.cif.g09.slc.cpg/sg2_206_cif.got.tgz:410274.got - 2010.06.27 13:26:56.
