data_PCOD8013059
_publ_section_title
;
Structure prediction by ZEFSAII (Michael W. Deem and Ramdas Pophale) SiO2 
 PCOD8013059
Probable space group: P -1
;
_chemical_formula_sum "Si O2"
_cell_formula_units_Z 16
_cell_length_a 9.479488
_cell_length_b 13.189699
_cell_length_c 9.032323
_cell_angle_alpha 131.433348
_cell_angle_beta 89.143411
_cell_angle_gamma 106.267990
_cell_volume 789.668628
_symmetry_space_group_name_H-M "P -1"
_symmetry_group_IT_number 2
_symmetry_cell_setting 'triclinic'
loop_
_space_group_symop_operation_xyz
x,y,z
-x,-y,-z
loop_
_atom_site_type_symbol
_atom_site_label
_atom_site_fract_x
_atom_site_fract_y
_atom_site_fract_z
Si Si1 0.090650 0.032076 0.681293
Si Si2 0.428355 0.089962 0.759010
Si Si3 0.599781 0.215579 0.592831
Si Si4 0.591882 0.648173 0.450131
Si Si5 0.932840 0.449144 0.791472
Si Si6 0.889926 0.710120 0.874646
Si Si7 0.453386 0.333256 0.204252
Si Si8 0.063639 0.255582 0.428520
O O1 0.268672 0.088774 0.695931
O O2 0.044292 0.148698 0.886806
O O3 0.000000 0.000000 0.500000
O O4 0.055021 0.891355 0.647054
O O5 0.561166 0.162635 0.710172
O O6 0.420020 0.927891 0.643522
O O7 0.471930 0.189519 0.000584
O O8 0.485185 0.293100 0.620992
O O9 0.769651 0.325453 0.688987
O O10 0.567526 0.478347 0.263029
O O11 0.510391 0.663901 0.619605
O O12 0.768837 0.742457 0.540095
O O13 0.926025 0.583454 0.830187
O O14 0.044175 0.390662 0.642322
O O15 0.000000 0.500000 0.000000
O O16 0.711931 0.662896 0.812490
O O17 0.969031 0.740678 0.742162
#
# Coordination Sequence:
#
# PCOD8013059 Si02
#       8
#     2   2   2   2   2   2   2   2
#     4  11  21  40  64  95 127 163 206 255 306 367
#     4  10  23  40  61  88 125 163 204 252 302 365
#     4  11  23  42  63  87 126 162 205 250 309 364
#     4  10  21  40  65  91 118 161 204 252 302 369
#     4  12  25  42  62  95 126 163 205 261 311 368
#     4  10  22  41  65  91 123 166 205 255 312 368
#     4   9  20  40  64  90 121 155 208 252 302 365
#     4  11  23  41  64  92 128 161 207 255 312 367
#
# _framework density 20.261665000000001
#
# number of rings (size 3 to 8) (size 9 to 14) (size 15 to 20)
#    0.000    1.500    2.500    2.250    1.750    2.000 
#    0.000    0.000    0.000    0.000    0.000    0.000 
#    0.000    0.000    0.000    0.000    0.000    0.000 
#
# Total GULP energy -198454.476127 kJ/mol
# GULP energy per Si atom -12403.404758 kJ/mol
# Density = 2.021555 g / cm^3
# Si number density = 20.261665 Si / 1000 Ang^3
#
#
#
# Elastic Constant Matrix: (Units=GPa)
#
#
# Indices 1 2 3 4 5 6 
#
# 1 50.9814 21.7388 22.5843 -2.9826 -6.0205 -0.2726
# 2 21.7388 113.4690 44.6608 3.2402 -3.3230 -3.6223
# 3 22.5843 44.6608 139.7388 6.4660 -9.9059 2.7178
# 4 -2.9826 3.2402 6.4660 33.0370 -4.7420 -3.9334
# 5 -6.0205 -3.3230 -9.9059 -4.7420 32.0709 -0.3974
# 6 -0.2726 -3.6223 2.7178 -3.9334 -0.3974 14.8756
#
#
#
# Elastic Compliance Matrix: (Units=1/GPa)
#
#
# Indices 1 2 3 4 5 6 
#
# 1 0.022811 -0.003325 -0.002548 0.003546 0.003689 0.001110
# 2 -0.003325 0.010706 -0.002952 -0.000488 -0.000462 0.002944
# 3 -0.002548 -0.002952 0.008762 -0.001754 0.001628 -0.002786
# 4 0.003546 -0.000488 -0.001754 0.032783 0.005033 0.009069
# 5 0.003689 -0.000462 0.001628 0.005033 0.033096 0.001872
# 6 0.001110 0.002944 -0.002786 0.009069 0.001872 0.070918
#
#
# Mechanical properties :
#
#
# Convention : Reuss Voigt Hill
#
# Bulk Modulus (GPa) = 40.60220 53.57298 47.08759
# Shear Modulus (GPa) = 24.39797 30.34372 27.37084
#
# Velocity S-wave (km/s) = 3.47384 3.87407 3.67940
# Velocity P-wave (km/s) = 6.01436 6.81977 6.42969
#
# Compressibility (1/GPa) = 0.02462921
#
# Stress axis : x y z
#
# Youngs Moduli (GPa) = 43.83931 93.40403 114.12673
#
# Poissons Ratio (x) = 0.31057 0.29081
# Poissons Ratio (y) = 0.14577 0.33688
# Poissons Ratio (z) = 0.11171 0.27571
#
# Static dielectric constant tensor:
#      x y z
#    x 3.524500 0.084960 -0.040160 
#    y 0.084960 3.658440 0.174400 
#    z -0.040160 0.174400 3.792690 
# 
# 
# High freq. dielectric constant tensor:
#      x y z
#    x 1.783920 0.008160 -0.003100 
#    y 0.008160 1.796350 0.009970 
#    z -0.003100 0.009970 1.802170 
# 
# From -- ./inp_files/175159.got.cif
#   From: 2010.06.25/outbox.cif.g09.slc.cpg/sg2_88_cif.got.tgz:175159.got - 2010.06.27 13:26:56.
