data_PCOD8013794
_publ_section_title
;
Structure prediction by ZEFSAII (Michael W. Deem and Ramdas Pophale) SiO2 
 PCOD8013794
Probable space group: P -1
;
_chemical_formula_sum "Si O2"
_cell_formula_units_Z 14
_cell_length_a 20.358671
_cell_length_b 15.359026
_cell_length_c 8.648119
_cell_angle_alpha 55.332494
_cell_angle_beta 145.872946
_cell_angle_gamma 148.876400
_cell_volume 687.000826
_symmetry_space_group_name_H-M "P -1"
_symmetry_group_IT_number 2
_symmetry_cell_setting 'triclinic'
loop_
_space_group_symop_operation_xyz
x,y,z
-x,-y,-z
loop_
_atom_site_type_symbol
_atom_site_label
_atom_site_fract_x
_atom_site_fract_y
_atom_site_fract_z
Si Si1 0.777098 0.464167 0.707809
Si Si2 0.593749 0.696252 0.332868
Si Si3 0.026771 0.498368 0.375094
Si Si4 0.078519 0.782594 0.723334
Si Si5 0.456654 0.792447 0.776486
Si Si6 0.547400 0.642933 0.642533
Si Si7 0.025075 0.054935 0.668102
O O1 0.611776 0.280077 0.459709
O O2 0.660597 0.470442 0.563939
O O3 0.976148 0.662198 0.803197
O O4 0.859210 0.441311 0.012721
O O5 0.570043 0.714079 0.446763
O O6 0.465500 0.492563 0.260076
O O7 0.494998 0.708842 0.016096
O O8 0.841215 0.864970 0.606412
O O9 0.267488 0.709981 0.581075
O O10 0.000000 0.500000 0.500000
O O11 0.980676 0.340055 0.409141
O O12 0.983225 0.824677 0.454482
O O13 0.332816 0.977344 0.044031
O O14 0.754132 0.825632 0.961886
O O15 0.000000 0.000000 0.500000
#
# Coordination Sequence:
#
# PCOD8013794 Si02
#       7
#     2   2   2   2   2   2   2
#     4  11  23  37  60  87 114 153 198 238 285 348
#     4  10  22  37  59  87 117 155 193 238 293 347
#     4  11  24  41  60  87 118 152 196 240 289 347
#     4  10  22  40  62  86 115 154 195 242 289 337
#     4  10  21  41  62  84 115 150 196 244 288 341
#     4  11  21  37  58  85 122 155 189 240 294 339
#     4  11  22  38  61  89 119 153 196 238 287 350
#
# _framework density 20.378433000000001
#
# number of rings (size 3 to 8) (size 9 to 14) (size 15 to 20)
#    0.000    1.429    0.000    7.286    0.000    5.714 
#    0.000    5.714    0.000    0.000    0.000    0.000 
#    0.000    0.000    0.000    0.000    0.000    0.000 
#
# Total GULP energy -173670.176861 kJ/mol
# GULP energy per Si atom -12405.012633 kJ/mol
# Density = 2.033205 g / cm^3
# Si number density = 20.378433 Si / 1000 Ang^3
#
#
#
# Elastic Constant Matrix: (Units=GPa)
#
#
# Indices 1 2 3 4 5 6 
#
# 1 170.2076 41.3353 60.9841 10.4708 -12.3566 10.2058
# 2 41.3353 69.3502 35.4978 18.6805 -9.6383 11.9478
# 3 60.9841 35.4978 125.0682 8.6081 -0.6149 2.0750
# 4 10.4708 18.6805 8.6081 34.2020 4.8806 2.6284
# 5 -12.3566 -9.6383 -0.6149 4.8806 25.9792 -5.0983
# 6 10.2058 11.9478 2.0750 2.6284 -5.0983 22.5662
#
#
#
# Elastic Compliance Matrix: (Units=1/GPa)
#
#
# Indices 1 2 3 4 5 6 
#
# 1 0.007862 -0.002329 -0.003094 -0.000630 0.002653 -0.001366
# 2 -0.002329 0.023866 -0.004659 -0.011723 0.008285 -0.007917
# 3 -0.003094 -0.004659 0.010707 0.001019 -0.002716 0.002149
# 4 -0.000630 -0.011723 0.001019 0.037300 -0.011750 -0.000601
# 5 0.002653 0.008285 -0.002716 -0.011750 0.046243 0.006480
# 6 -0.001366 -0.007917 0.002149 -0.000601 0.006480 0.050460
#
#
# Mechanical properties :
#
#
# Convention : Reuss Voigt Hill
#
# Bulk Modulus (GPa) = 44.89992 71.14005 58.01998
# Shear Modulus (GPa) = 24.50668 31.67004 28.08836
#
# Velocity S-wave (km/s) = 3.47158 3.94648 3.71662
# Velocity P-wave (km/s) = 6.17658 7.46669 6.85207
#
# Compressibility (1/GPa) = 0.02227175
#
# Stress axis : x y z
#
# Youngs Moduli (GPa) = 127.18654 41.90084 93.39395
#
# Poissons Ratio (x) = 0.09760 0.28893
# Poissons Ratio (y) = 0.29625 0.43513
# Poissons Ratio (z) = 0.39347 0.19522
#
# Static dielectric constant tensor:
#      x y z
#    x 3.796640 0.107330 0.100800 
#    y 0.107330 3.717810 0.116210 
#    z 0.100800 0.116210 3.807380 
# 
# 
# High freq. dielectric constant tensor:
#      x y z
#    x 1.802750 0.007130 0.003850 
#    y 0.007130 1.791490 0.007640 
#    z 0.003850 0.007640 1.809230 
# 
# From -- ./inp_files/258773.got.cif
#   From: 2010.06.25/outbox.cif.g09.slc.cpg/sg2_130_cif.got.tgz:258773.got - 2010.06.27 13:26:56.
