data_PCOD8013167
_publ_section_title
;
Structure prediction by ZEFSAII (Michael W. Deem and Ramdas Pophale) SiO2 
 PCOD8013167
Probable space group: P -1
;
_chemical_formula_sum "Si O2"
_cell_formula_units_Z 14
_cell_length_a 8.889952
_cell_length_b 9.663537
_cell_length_c 12.281429
_cell_angle_alpha 50.641678
_cell_angle_beta 119.784214
_cell_angle_gamma 129.439442
_cell_volume 622.191111
_symmetry_space_group_name_H-M "P -1"
_symmetry_group_IT_number 2
_symmetry_cell_setting 'triclinic'
loop_
_space_group_symop_operation_xyz
x,y,z
-x,-y,-z
loop_
_atom_site_type_symbol
_atom_site_label
_atom_site_fract_x
_atom_site_fract_y
_atom_site_fract_z
Si Si1 0.072298 0.409256 0.974862
Si Si2 0.416249 0.805076 0.793330
Si Si3 0.312947 0.802098 0.200873
Si Si4 0.119447 0.904787 0.531565
Si Si5 0.294924 0.215173 0.265530
Si Si6 0.143258 0.486706 0.473513
Si Si7 0.492025 0.448723 0.649990
O O1 0.262182 0.591268 0.895637
O O2 0.893757 0.277135 0.895336
O O3 0.140320 0.250274 0.121560
O O4 0.000000 0.500000 0.000000
O O5 0.309033 0.935673 0.652639
O O6 0.520007 0.757249 0.753353
O O7 0.578142 0.952259 0.867285
O O8 0.275339 0.706105 0.356651
O O9 0.457505 0.735619 0.220928
O O10 0.976373 0.663309 0.593309
O O11 0.182672 0.989901 0.389227
O O12 0.000000 0.000000 0.500000
O O13 0.357041 0.362696 0.318482
O O14 0.270945 0.399007 0.628422
O O15 0.000000 0.500000 0.500000
O O16 0.500000 0.500000 0.500000
#
# Coordination Sequence:
#
# PCOD8013167 Si02
#       7
#     2   2   2   2   2   2   2
#     4  12  26  49  72  98 145 185 233 286 350 427
#     4  12  26  46  73 104 139 183 234 290 354 409
#     4  11  23  46  69  99 139 182 233 281 344 424
#     4  12  22  41  71 102 136 182 231 281 342 409
#     4  12  25  45  68 105 145 181 230 296 348 409
#     4  11  21  38  67 104 136 174 228 288 340 401
#     4  10  21  40  65  97 137 177 227 283 335 405
#
# _framework density 22.501123
#
# number of rings (size 3 to 8) (size 9 to 14) (size 15 to 20)
#    0.000    0.571    2.857    7.714    0.000    1.143 
#    2.571    0.000    0.000    0.000    0.000    0.000 
#    0.000    0.000    0.000    0.000    0.000    0.000 
#
# Total GULP energy -173591.407723 kJ/mol
# GULP energy per Si atom -12399.386266 kJ/mol
# Density = 2.244991 g / cm^3
# Si number density = 22.501123 Si / 1000 Ang^3
#
#
#
# Elastic Constant Matrix: (Units=GPa)
#
#
# Indices 1 2 3 4 5 6 
#
# 1 126.6036 10.2540 29.4404 8.9122 12.8521 -3.6329
# 2 10.2540 118.9501 21.4824 19.8693 10.5095 13.5236
# 3 29.4404 21.4824 92.0613 8.7140 9.8718 12.7698
# 4 8.9122 19.8693 8.7140 26.1294 7.6073 1.1715
# 5 12.8521 10.5095 9.8718 7.6073 33.5221 -2.1116
# 6 -3.6329 13.5236 12.7698 1.1715 -2.1116 40.8687
#
#
#
# Elastic Compliance Matrix: (Units=1/GPa)
#
#
# Indices 1 2 3 4 5 6 
#
# 1 0.008898 -0.000006 -0.002680 -0.001577 -0.002164 0.001564
# 2 -0.000006 0.010219 -0.001176 -0.006812 -0.001491 -0.002896
# 3 -0.002680 -0.001176 0.012947 -0.001665 -0.002288 -0.003965
# 4 -0.001577 -0.006812 -0.001665 0.046626 -0.007292 0.000921
# 5 -0.002164 -0.001491 -0.002288 -0.007292 0.033644 0.002964
# 6 0.001564 -0.002896 -0.003965 0.000921 0.002964 0.026932
#
#
# Mechanical properties :
#
#
# Convention : Reuss Voigt Hill
#
# Bulk Modulus (GPa) = 41.08587 51.10764 46.09675
# Shear Modulus (GPa) = 32.23693 38.53327 35.38510
#
# Velocity S-wave (km/s) = 3.78918 4.14273 3.96989
# Velocity P-wave (km/s) = 6.11907 6.75616 6.44549
#
# Compressibility (1/GPa) = 0.02433927
#
# Stress axis : x y z
#
# Youngs Moduli (GPa) = 112.38708 97.85911 77.24011
#
# Poissons Ratio (x) = 0.00062 0.20697
# Poissons Ratio (y) = 0.00071 0.09084
# Poissons Ratio (z) = 0.30115 0.11509
#
# Static dielectric constant tensor:
#      x y z
#    x 4.431140 0.039120 0.288840 
#    y 0.039120 3.935620 0.000930 
#    z 0.288840 0.000930 4.106440 
# 
# 
# High freq. dielectric constant tensor:
#      x y z
#    x 1.904840 0.001610 0.016080 
#    y 0.001610 1.890830 0.007070 
#    z 0.016080 0.007070 1.872890 
# 
# From -- ./inp_files/381149.got.cif
#   From: 2010.06.25/outbox.cif.g09.slc.cpg/sg2_191_cif.got.tgz:381149.got - 2010.06.27 13:26:56.
