data_PCOD8013858
_publ_section_title
;
Structure prediction by ZEFSAII (Michael W. Deem and Ramdas Pophale) SiO2 
 PCOD8013858
Probable space group: P -1
;
_chemical_formula_sum "Si O2"
_cell_formula_units_Z 16
_cell_length_a 22.346276
_cell_length_b 12.456488
_cell_length_c 6.328401
_cell_angle_alpha 54.255821
_cell_angle_beta 121.356265
_cell_angle_gamma 148.958605
_cell_volume 736.422261
_symmetry_space_group_name_H-M "P -1"
_symmetry_group_IT_number 2
_symmetry_cell_setting 'triclinic'
loop_
_space_group_symop_operation_xyz
x,y,z
-x,-y,-z
loop_
_atom_site_type_symbol
_atom_site_label
_atom_site_fract_x
_atom_site_fract_y
_atom_site_fract_z
Si Si1 0.491466 0.127970 0.947702
Si Si2 0.873999 0.586428 0.061993
Si Si3 0.930880 0.200322 0.095311
Si Si4 0.273971 0.476707 0.843994
Si Si5 0.311181 0.268942 0.925031
Si Si6 0.278967 0.717367 0.247351
Si Si7 0.075694 0.519883 0.349355
Si Si8 0.519331 0.626130 0.586628
O O1 0.448648 0.177141 0.651607
O O2 0.613090 0.360553 0.991227
O O3 0.500000 0.000000 0.000000
O O4 0.400494 0.977693 0.146211
O O5 0.839323 0.657663 0.067229
O O6 0.898867 0.496133 0.354806
O O7 0.762619 0.389502 0.938419
O O8 0.987676 0.784994 0.895827
O O9 0.973088 0.279807 0.324141
O O10 0.796116 0.961127 0.126363
O O11 0.956486 0.374998 0.815549
O O12 0.254296 0.304307 0.906662
O O13 0.294678 0.613656 0.541325
O O14 0.402305 0.456225 0.704499
O O15 0.371722 0.258199 0.208213
O O16 0.189464 0.684820 0.221182
O O17 0.500000 0.500000 0.500000
#
# Coordination Sequence:
#
# PCOD8013858 Si02
#       8
#     2   2   2   2   2   2   2   2
#     4  12  23  41  70  98 127 180 215 266 330 386
#     4  10  21  41  62  96 125 164 220 270 315 388
#     4  10  22  40  65  92 127 173 211 265 333 385
#     4  11  23  42  62  95 138 168 217 273 316 395
#     4  11  26  43  66  93 134 177 210 270 333 386
#     4  10  22  37  66  96 130 165 217 273 324 377
#     4   9  21  40  61  95 130 159 218 278 315 387
#     4  11  26  46  64  99 137 168 223 266 322 404
#
# _framework density 21.726666999999999
#
# number of rings (size 3 to 8) (size 9 to 14) (size 15 to 20)
#    0.000    1.500    2.500    1.500    3.500    1.500 
#    0.000    5.625    0.000    0.000    0.000    0.000 
#    0.000    0.000    0.000    0.000    0.000    0.000 
#
# Total GULP energy -198420.610906 kJ/mol
# GULP energy per Si atom -12401.288182 kJ/mol
# Density = 2.167722 g / cm^3
# Si number density = 21.726667 Si / 1000 Ang^3
#
#
#
# Elastic Constant Matrix: (Units=GPa)
#
#
# Indices 1 2 3 4 5 6 
#
# 1 114.6687 33.9616 27.3057 -7.9506 0.7124 -1.8474
# 2 33.9616 82.2454 11.0907 -3.9836 2.1252 11.3198
# 3 27.3057 11.0907 91.7366 -3.5750 11.0279 -2.0031
# 4 -7.9506 -3.9836 -3.5750 23.7028 -2.6093 3.2904
# 5 0.7124 2.1252 11.0279 -2.6093 29.0676 0.9343
# 6 -1.8474 11.3198 -2.0031 3.2904 0.9343 34.5372
#
#
#
# Elastic Compliance Matrix: (Units=1/GPa)
#
#
# Indices 1 2 3 4 5 6 
#
# 1 0.010806 -0.004220 -0.002728 0.002428 0.001247 0.001538
# 2 -0.004220 0.014788 -0.000526 0.001668 -0.000460 -0.005250
# 3 -0.002728 -0.000526 0.012356 0.000238 -0.004588 0.000845
# 4 0.002428 0.001668 0.000238 0.044403 0.003866 -0.004738
# 5 0.001247 -0.000460 -0.004588 0.003866 0.036538 -0.001406
# 6 0.001538 -0.005250 0.000845 -0.004738 -0.001406 0.031296
#
#
# Mechanical properties :
#
#
# Convention : Reuss Voigt Hill
#
# Bulk Modulus (GPa) = 43.47741 48.15186 45.81464
# Shear Modulus (GPa) = 28.93498 31.88103 30.40801
#
# Velocity S-wave (km/s) = 3.65331 3.83478 3.74514
# Velocity P-wave (km/s) = 6.15224 6.46669 6.31142
#
# Compressibility (1/GPa) = 0.02300045
#
# Stress axis : x y z
#
# Youngs Moduli (GPa) = 92.54395 67.62410 80.93525
#
# Poissons Ratio (x) = 0.28541 0.22078
# Poissons Ratio (y) = 0.39058 0.04256
# Poissons Ratio (z) = 0.25244 0.03556
#
# Static dielectric constant tensor:
#      x y z
#    x 4.225890 0.037920 0.019200 
#    y 0.037920 3.829950 0.243350 
#    z 0.019200 0.243350 3.959540 
# 
# 
# High freq. dielectric constant tensor:
#      x y z
#    x 1.874660 0.009470 0.001370 
#    y 0.009470 1.831630 0.018230 
#    z 0.001370 0.018230 1.856530 
# 
# From -- ./inp_files/99521.got.cif
#   From: 2010.06.25/outbox.cif.g09.slc.cpg/sg2_50_cif.got.tgz:99521.got - 2010.06.27 13:26:56.
