data_PCOD8013598
_publ_section_title
;
Structure prediction by ZEFSAII (Michael W. Deem and Ramdas Pophale) SiO2 
 PCOD8013598
Probable space group: P -1
;
_chemical_formula_sum "Si O2"
_cell_formula_units_Z 16
_cell_length_a 14.888079
_cell_length_b 8.300345
_cell_length_c 20.228329
_cell_angle_alpha 92.550853
_cell_angle_beta 159.609385
_cell_angle_gamma 99.004083
_cell_volume 715.218297
_symmetry_space_group_name_H-M "P -1"
_symmetry_group_IT_number 2
_symmetry_cell_setting 'triclinic'
loop_
_space_group_symop_operation_xyz
x,y,z
-x,-y,-z
loop_
_atom_site_type_symbol
_atom_site_label
_atom_site_fract_x
_atom_site_fract_y
_atom_site_fract_z
Si Si1 0.258614 0.673800 0.944086
Si Si2 0.172203 0.341107 0.619144
Si Si3 0.642047 0.377096 0.583262
Si Si4 0.322126 0.587498 0.849138
Si Si5 0.144925 0.697498 0.145670
Si Si6 0.359397 0.092990 0.260332
Si Si7 0.474129 0.098545 0.102662
Si Si8 0.433357 0.313823 0.195097
O O1 0.597383 0.717160 0.196502
O O2 0.256997 0.865731 0.948370
O O3 0.135229 0.588851 0.783305
O O4 0.008093 0.518254 0.819848
O O5 0.122674 0.459690 0.644919
O O6 0.304320 0.466876 0.644869
O O7 0.825866 0.156315 0.360754
O O8 0.500000 0.500000 0.500000
O O9 0.619939 0.283044 0.636460
O O10 0.458468 0.206865 0.399902
O O11 0.545410 0.810814 0.978891
O O12 0.500000 0.500000 0.000000
O O13 0.372627 0.901349 0.265345
O O14 0.000000 0.500000 0.000000
O O15 0.865411 0.695467 0.986498
O O16 0.559720 0.243992 0.341141
O O17 0.000000 0.000000 0.000000
O O18 0.333689 0.165128 0.062881
#
# Coordination Sequence:
#
# PCOD8013598 Si02
#       8
#     2   2   2   2   2   2   2   2
#     4  11  24  41  66  98 138 172 222 279 334 396
#     4  10  21  42  67  93 134 179 222 270 327 404
#     4  12  26  44  69  99 135 178 227 283 341 404
#     4   9  20  40  62  92 130 176 218 273 328 387
#     4  11  24  46  70  96 136 175 226 287 336 405
#     4  10  24  43  71  94 133 172 228 276 339 410
#     4  11  23  38  70  98 135 176 225 272 329 404
#     4  10  21  40  69  97 131 175 222 271 343 394
#
# _framework density 22.370792999999999
#
# number of rings (size 3 to 8) (size 9 to 14) (size 15 to 20)
#    0.000    1.500    1.250    4.125    8.750    0.000 
#    0.000    0.000    0.000    0.000    0.000    0.000 
#    0.000    0.000    0.000    0.000    0.000    0.000 
#
# Total GULP energy -198287.879905 kJ/mol
# GULP energy per Si atom -12392.992494 kJ/mol
# Density = 2.231988 g / cm^3
# Si number density = 22.370793 Si / 1000 Ang^3
#
#
#
# Elastic Constant Matrix: (Units=GPa)
#
#
# Indices 1 2 3 4 5 6 
#
# 1 111.6868 46.8097 20.5784 -8.9835 -15.7565 11.7388
# 2 46.8097 147.7160 26.3618 1.6919 -14.8455 9.3022
# 3 20.5784 26.3618 67.4840 -0.2927 -9.6850 0.8666
# 4 -8.9835 1.6919 -0.2927 31.5547 -3.0231 -4.3660
# 5 -15.7565 -14.8455 -9.6850 -3.0231 32.9876 -12.5054
# 6 11.7388 9.3022 0.8666 -4.3660 -12.5054 45.6620
#
#
#
# Elastic Compliance Matrix: (Units=1/GPa)
#
#
# Indices 1 2 3 4 5 6 
#
# 1 0.011401 -0.002913 -0.001799 0.003590 0.003562 -0.000984
# 2 -0.002913 0.008265 -0.002146 -0.001254 0.001338 -0.000648
# 3 -0.001799 -0.002146 0.016722 0.000343 0.003737 0.001639
# 4 0.003590 -0.001254 0.000343 0.033935 0.005954 0.004201
# 5 0.003562 0.001338 0.003737 0.005954 0.037938 0.009700
# 6 -0.000984 -0.000648 0.001639 0.004201 0.009700 0.025312
#
#
# Mechanical properties :
#
#
# Convention : Reuss Voigt Hill
#
# Bulk Modulus (GPa) = 44.10592 57.15407 50.63000
# Shear Modulus (GPa) = 32.29007 37.58333 34.93670
#
# Velocity S-wave (km/s) = 3.80334 4.10325 3.95614
# Velocity P-wave (km/s) = 6.24866 6.93202 6.59919
#
# Compressibility (1/GPa) = 0.02267269
#
# Stress axis : x y z
#
# Youngs Moduli (GPa) = 87.71367 120.98753 59.80178
#
# Poissons Ratio (x) = 0.35241 0.10760
# Poissons Ratio (y) = 0.25549 0.12831
# Poissons Ratio (z) = 0.15782 0.25959
#
# Static dielectric constant tensor:
#      x y z
#    x 4.601550 0.396630 -0.159520 
#    y 0.396630 4.592220 0.000650 
#    z -0.159520 0.000650 3.687130 
# 
# 
# High freq. dielectric constant tensor:
#      x y z
#    x 1.890710 0.012530 -0.008880 
#    y 0.012530 1.898170 -0.008600 
#    z -0.008880 -0.008600 1.858750 
# 
# From -- ./inp_files/597203.got.cif
#   From: 2010.06.25/outbox.cif.g09.slc.cpg/sg2_299_cif.got.tgz:597203.got - 2010.06.27 13:26:56.
