data_PCOD8013108
_publ_section_title
;
Structure prediction by ZEFSAII (Michael W. Deem and Ramdas Pophale) SiO2 
 PCOD8013108
Probable space group: P -1
;
_chemical_formula_sum "Si O2"
_cell_formula_units_Z 16
_cell_length_a 11.844501
_cell_length_b 12.050519
_cell_length_c 5.112488
_cell_angle_alpha 76.449233
_cell_angle_beta 81.396251
_cell_angle_gamma 92.812573
_cell_volume 698.729814
_symmetry_space_group_name_H-M "P -1"
_symmetry_group_IT_number 2
_symmetry_cell_setting 'triclinic'
loop_
_space_group_symop_operation_xyz
x,y,z
-x,-y,-z
loop_
_atom_site_type_symbol
_atom_site_label
_atom_site_fract_x
_atom_site_fract_y
_atom_site_fract_z
Si Si1 0.104778 0.994833 0.183904
Si Si2 0.279271 0.881921 0.500815
Si Si3 0.201096 0.663413 0.942519
Si Si4 0.299422 0.091717 0.693579
Si Si5 0.555380 0.385668 0.114173
Si Si6 0.912443 0.829646 0.475330
Si Si7 0.945655 0.379139 0.485253
Si Si8 0.481565 0.761598 0.287370
O O1 0.154702 0.902944 0.417877
O O2 0.983663 0.918142 0.186151
O O3 0.073872 0.109859 0.280131
O O4 0.210739 0.014025 0.943944
O O5 0.252310 0.791658 0.792288
O O6 0.368297 0.829926 0.300954
O O7 0.341687 0.002739 0.515726
O O8 0.307384 0.584766 0.964370
O O9 0.114139 0.609143 0.781499
O O10 0.145462 0.670455 0.242689
O O11 0.222388 0.186206 0.540983
O O12 0.405841 0.151039 0.777245
O O13 0.518014 0.337954 0.439509
O O14 0.500000 0.500000 0.000000
O O15 0.511875 0.289543 0.973854
O O16 0.953534 0.704023 0.534904
O O17 0.000000 0.500000 0.500000
#
# Coordination Sequence:
#
# PCOD8013108 Si02
#       8
#     2   2   2   2   2   2   2   2
#     4  10  21  40  65  93 133 182 226 268 336 413
#     4  10  22  40  68  97 134 182 223 276 334 419
#     4  11  24  46  70  97 132 177 230 276 333 409
#     4  11  24  38  65 100 143 176 218 285 348 396
#     4  11  26  48  74  96 132 181 232 275 339 406
#     4  10  23  39  63  96 134 181 229 266 339 405
#     4  12  26  44  69 102 135 176 229 287 339 390
#     4  11  26  43  69 107 134 172 226 288 341 400
#
# _framework density 22.898693999999999
#
# number of rings (size 3 to 8) (size 9 to 14) (size 15 to 20)
#    0.000    1.250    1.250    3.750    8.750    2.500 
#    0.000    0.000    0.000    0.000    0.000    0.000 
#    0.000    0.000    0.000    0.000    0.000    0.000 
#
# Total GULP energy -198392.440447 kJ/mol
# GULP energy per Si atom -12399.527528 kJ/mol
# Density = 2.284658 g / cm^3
# Si number density = 22.898694 Si / 1000 Ang^3
#
#
#
# Elastic Constant Matrix: (Units=GPa)
#
#
# Indices 1 2 3 4 5 6 
#
# 1 91.5458 52.5643 -5.3605 -2.7147 -9.3742 -6.3841
# 2 52.5643 125.4678 -6.2946 7.2079 8.0328 -22.3529
# 3 -5.3605 -6.2946 46.9463 7.2656 -2.6649 -8.2878
# 4 -2.7147 7.2079 7.2656 23.8650 2.2322 4.6419
# 5 -9.3742 8.0328 -2.6649 2.2322 18.9022 3.9211
# 6 -6.3841 -22.3529 -8.2878 4.6419 3.9211 44.3841
#
#
#
# Elastic Compliance Matrix: (Units=1/GPa)
#
#
# Indices 1 2 3 4 5 6 
#
# 1 0.017175 -0.008836 0.000251 0.004046 0.012549 -0.003465
# 2 -0.008836 0.014354 0.002775 -0.006743 -0.010986 0.008152
# 3 0.000251 0.002775 0.024553 -0.009819 0.002144 0.006856
# 4 0.004046 -0.006743 -0.009819 0.049319 -0.000308 -0.009778
# 5 0.012549 -0.010986 0.002144 -0.000308 0.066028 -0.009128
# 6 -0.003465 0.008152 0.006856 -0.009778 -0.009128 0.029247
#
#
# Mechanical properties :
#
#
# Convention : Reuss Voigt Hill
#
# Bulk Modulus (GPa) = 22.49092 38.41979 30.45536
# Shear Modulus (GPa) = 22.01498 32.30030 27.15764
#
# Velocity S-wave (km/s) = 3.10402 3.75984 3.44756
# Velocity P-wave (km/s) = 4.76339 5.97186 5.40152
#
# Compressibility (1/GPa) = 0.04446239
#
# Stress axis : x y z
#
# Youngs Moduli (GPa) = 58.22414 69.66584 40.72773
#
# Poissons Ratio (x) = 0.61556 -0.01022
# Poissons Ratio (y) = 0.51446 -0.11302
# Poissons Ratio (z) = -0.01461 -0.19332
#
# Static dielectric constant tensor:
#      x y z
#    x 4.562870 -0.197200 0.210100 
#    y -0.197200 3.925430 0.094640 
#    z 0.210100 0.094640 4.288550 
# 
# 
# High freq. dielectric constant tensor:
#      x y z
#    x 1.921050 -0.014560 0.010100 
#    y -0.014560 1.892680 0.008940 
#    z 0.010100 0.008940 1.907900 
# 
# From -- ./inp_files/66230.got.cif
#   From: 2010.06.25/outbox.cif.g09.slc.cpg/sg2_34_cif.got.tgz:66230.got - 2010.06.27 13:26:56.
