data_PCOD8013853
_publ_section_title
;
Structure prediction by ZEFSAII (Michael W. Deem and Ramdas Pophale) SiO2 
 PCOD8013853
Probable space group: P -1
;
_chemical_formula_sum "Si O2"
_cell_formula_units_Z 16
_cell_length_a 10.344641
_cell_length_b 11.449548
_cell_length_c 12.199469
_cell_angle_alpha 47.382880
_cell_angle_beta 96.033851
_cell_angle_gamma 63.467930
_cell_volume 747.132435
_symmetry_space_group_name_H-M "P -1"
_symmetry_group_IT_number 2
_symmetry_cell_setting 'triclinic'
loop_
_space_group_symop_operation_xyz
x,y,z
-x,-y,-z
loop_
_atom_site_type_symbol
_atom_site_label
_atom_site_fract_x
_atom_site_fract_y
_atom_site_fract_z
Si Si1 0.974105 0.518890 0.735429
Si Si2 0.339582 0.258141 0.836752
Si Si3 0.458047 0.698808 0.017843
Si Si4 0.544945 0.278124 0.238194
Si Si5 0.925631 0.023587 0.097477
Si Si6 0.927831 0.883189 0.593639
Si Si7 0.114838 0.628991 0.994818
Si Si8 0.129288 0.527474 0.452008
O O1 0.166012 0.305139 0.831535
O O2 0.962692 0.721360 0.604102
O O3 0.966262 0.454135 0.897963
O O4 0.825089 0.556012 0.618871
O O5 0.381537 0.343199 0.883715
O O6 0.309551 0.370561 0.645075
O O7 0.500000 0.000000 0.000000
O O8 0.560004 0.451718 0.147736
O O9 0.393776 0.827173 0.813172
O O10 0.291783 0.828048 0.008075
O O11 0.334977 0.408355 0.159139
O O12 0.703343 0.073220 0.464527
O O13 0.955935 0.149674 0.095576
O O14 0.040336 0.775473 0.307543
O O15 0.000000 0.000000 0.000000
O O16 0.000000 0.000000 0.500000
O O17 0.032773 0.715390 0.811940
O O18 0.000000 0.500000 0.500000
#
# Coordination Sequence:
#
# PCOD8013853 Si02
#       8
#     2   2   2   2   2   2   2   2
#     4  11  24  45  65  94 138 174 217 280 342 397
#     4  11  24  39  67  97 131 173 227 275 331 406
#     4  10  21  41  62  94 135 165 220 275 329 391
#     4  10  23  41  65  98 130 179 222 275 329 390
#     4  11  22  42  69  94 133 176 214 276 342 397
#     4  12  25  41  73  99 126 179 234 275 330 398
#     4  11  25  45  66  99 142 173 221 277 342 399
#     4  10  23  40  65  97 126 178 222 259 337 407
#
# _framework density 21.415212
#
# number of rings (size 3 to 8) (size 9 to 14) (size 15 to 20)
#    0.000    1.250    1.250    5.625   10.500    0.500 
#    2.250    0.625    0.000    0.000    0.000    0.000 
#    0.000    0.000    0.000    0.000    0.000    0.000 
#
# Total GULP energy -198213.171953 kJ/mol
# GULP energy per Si atom -12388.323247 kJ/mol
# Density = 2.136647 g / cm^3
# Si number density = 21.415212 Si / 1000 Ang^3
#
#
#
# Elastic Constant Matrix: (Units=GPa)
#
#
# Indices 1 2 3 4 5 6 
#
# 1 82.1245 43.9286 53.7700 0.2043 -3.2048 0.5722
# 2 43.9286 115.8413 49.2010 -0.6997 6.6199 2.9706
# 3 53.7700 49.2010 143.3664 -3.8702 13.0081 -1.1380
# 4 0.2043 -0.6997 -3.8702 35.8413 3.1837 -2.2911
# 5 -3.2048 6.6199 13.0081 3.1837 35.5827 1.0221
# 6 0.5722 2.9706 -1.1380 -2.2911 1.0221 40.8332
#
#
#
# Elastic Compliance Matrix: (Units=1/GPa)
#
#
# Indices 1 2 3 4 5 6 
#
# 1 0.018847 -0.004941 -0.005852 -0.001286 0.004879 -0.000262
# 2 -0.004941 0.011443 -0.001906 0.000163 -0.001870 -0.000760
# 3 -0.005852 -0.001906 0.010240 0.001508 -0.004071 0.000693
# 4 -0.001286 0.000163 0.001508 0.028477 -0.003295 0.001728
# 5 0.004879 -0.001870 -0.004071 -0.003295 0.030702 -0.000999
# 6 -0.000262 -0.000760 0.000693 0.001728 -0.000999 0.024690
#
#
# Mechanical properties :
#
#
# Convention : Reuss Voigt Hill
#
# Bulk Modulus (GPa) = 66.08980 70.57016 68.32998
# Shear Modulus (GPa) = 32.29105 35.41360 33.85233
#
# Velocity S-wave (km/s) = 3.88732 4.07094 3.98019
# Velocity P-wave (km/s) = 7.14678 7.42439 7.28691
#
# Compressibility (1/GPa) = 0.01513093
#
# Stress axis : x y z
#
# Youngs Moduli (GPa) = 53.05942 87.38904 97.65973
#
# Poissons Ratio (x) = 0.43181 0.57153
# Poissons Ratio (y) = 0.26218 0.18612
# Poissons Ratio (z) = 0.31052 0.16655
#
# Static dielectric constant tensor:
#      x y z
#    x 3.592840 -0.119490 -0.032570 
#    y -0.119490 3.736870 0.174480 
#    z -0.032570 0.174480 4.213420 
# 
# 
# High freq. dielectric constant tensor:
#      x y z
#    x 1.823250 0.018350 0.005090 
#    y 0.018350 1.855690 0.000050 
#    z 0.005090 0.000050 1.842200 
# 
# From -- ./inp_files/427350.got.cif
#   From: 2010.06.25/outbox.cif.g09.slc.cpg/sg2_214_cif.got.tgz:427350.got - 2010.06.27 13:26:56.
