data_PCOD8013908
_publ_section_title
;
Structure prediction by ZEFSAII (Michael W. Deem and Ramdas Pophale) SiO2 
 PCOD8013908
Probable space group: P -1
;
_chemical_formula_sum "Si O2"
_cell_formula_units_Z 16
_cell_length_a 7.331642
_cell_length_b 19.903074
_cell_length_c 5.205322
_cell_angle_alpha 81.850665
_cell_angle_beta 88.477697
_cell_angle_gamma 82.221901
_cell_volume 744.963058
_symmetry_space_group_name_H-M "P -1"
_symmetry_group_IT_number 2
_symmetry_cell_setting 'triclinic'
loop_
_space_group_symop_operation_xyz
x,y,z
-x,-y,-z
loop_
_atom_site_type_symbol
_atom_site_label
_atom_site_fract_x
_atom_site_fract_y
_atom_site_fract_z
Si Si1 0.317884 0.463895 0.051836
Si Si2 0.201598 0.821058 0.123211
Si Si3 0.885781 0.938848 0.987860
Si Si4 0.460718 0.658720 0.670571
Si Si5 0.434332 0.815923 0.616754
Si Si6 0.657533 0.937287 0.493765
Si Si7 0.986547 0.555304 0.254913
Si Si8 0.226002 0.665782 0.182931
O O1 0.361558 0.399644 0.280038
O O2 0.148231 0.522641 0.075836
O O3 0.500000 0.500000 0.000000
O O4 0.229541 0.430558 0.825660
O O5 0.287636 0.836972 0.385356
O O6 0.149583 0.745043 0.160762
O O7 0.010823 0.867465 0.063886
O O8 0.342326 0.832962 0.886167
O O9 0.723417 0.943960 0.197106
O O10 0.813163 0.943635 0.696635
O O11 0.000000 0.000000 0.000000
O O12 0.516916 0.735451 0.637791
O O13 0.376914 0.644017 0.407171
O O14 0.318317 0.647976 0.911581
O O15 0.595842 0.862405 0.565471
O O16 0.500000 0.000000 0.500000
O O17 0.048200 0.628766 0.275531
O O18 0.000000 0.500000 0.500000
#
# Coordination Sequence:
#
# PCOD8013908 Si02
#       8
#     2   2   2   2   2   2   2   2
#     4  11  23  41  63  88 126 163 213 260 319 377
#     4  10  21  41  64  89 123 164 198 254 304 375
#     4  12  24  40  63  92 124 166 207 250 313 360
#     4  10  22  40  66  89 120 170 200 255 313 382
#     4  10  21  41  63  91 123 159 207 246 313 363
#     4  12  24  40  63  92 126 162 206 261 297 367
#     4  11  25  39  61  94 121 166 210 267 312 379
#     4  10  22  41  64  89 125 161 208 250 317 374
#
# _framework density 21.477575999999999
#
# number of rings (size 3 to 8) (size 9 to 14) (size 15 to 20)
#    0.000    1.250    1.250    4.500    3.500    2.000 
#    2.250    0.000    0.000    0.000    0.000    0.000 
#    0.000    0.000    0.000    0.000    0.000    0.000 
#
# Total GULP energy -198304.563369 kJ/mol
# GULP energy per Si atom -12394.035211 kJ/mol
# Density = 2.142869 g / cm^3
# Si number density = 21.477576 Si / 1000 Ang^3
#
#
#
# Elastic Constant Matrix: (Units=GPa)
#
#
# Indices 1 2 3 4 5 6 
#
# 1 109.2322 54.1631 18.6815 -14.8492 10.6619 20.4847
# 2 54.1631 99.9889 19.4139 -20.2074 12.4550 14.1812
# 3 18.6815 19.4139 92.4811 -14.8576 8.1119 9.5123
# 4 -14.8492 -20.2074 -14.8576 29.7240 -3.8369 0.7846
# 5 10.6619 12.4550 8.1119 -3.8369 40.6090 -11.9197
# 6 20.4847 14.1812 9.5123 0.7846 -11.9197 49.6317
#
#
#
# Elastic Compliance Matrix: (Units=1/GPa)
#
#
# Indices 1 2 3 4 5 6 
#
# 1 0.013548 -0.005774 -0.000423 0.002388 -0.002819 -0.004576
# 2 -0.005774 0.015453 -0.000350 0.007092 -0.003328 -0.002876
# 3 -0.000423 -0.000350 0.012363 0.005474 -0.002554 -0.002795
# 4 0.002388 0.007092 0.005474 0.042349 -0.001380 -0.005062
# 5 -0.002819 -0.003328 -0.002554 -0.001380 0.029625 0.009740
# 6 -0.004576 -0.002876 -0.002795 -0.005062 0.009740 0.025814
#
#
# Mechanical properties :
#
#
# Convention : Reuss Voigt Hill
#
# Bulk Modulus (GPa) = 35.37474 54.02435 44.69955
# Shear Modulus (GPa) = 30.92740 37.95585 34.44162
#
# Velocity S-wave (km/s) = 3.79883 4.20841 4.00885
# Velocity P-wave (km/s) = 5.97895 6.98732 6.50271
#
# Compressibility (1/GPa) = 0.02826876
#
# Stress axis : x y z
#
# Youngs Moduli (GPa) = 73.81088 64.71430 80.88662
#
# Poissons Ratio (x) = 0.37366 0.03422
# Poissons Ratio (y) = 0.42618 0.02834
# Poissons Ratio (z) = 0.03123 0.02268
#
# Static dielectric constant tensor:
#      x y z
#    x 3.744630 0.182100 0.170550 
#    y 0.182100 3.979060 -0.004660 
#    z 0.170550 -0.004660 4.172500 
# 
# 
# High freq. dielectric constant tensor:
#      x y z
#    x 1.831610 0.008340 0.007720 
#    y 0.008340 1.861130 -0.007860 
#    z 0.007720 -0.007860 1.856540 
# 
# From -- ./inp_files/10693.got.cif
#   From: 2010.06.25/outbox.cif.g09.slc.cpg/sg2_6_cif.got.tgz:10693.got - 2010.06.27 13:26:56.
