data_PCOD8013871
_publ_section_title
;
Structure prediction by ZEFSAII (Michael W. Deem and Ramdas Pophale) SiO2 
 PCOD8013871
Probable space group: P -1
;
_chemical_formula_sum "Si O2"
_cell_formula_units_Z 12
_cell_length_a 8.127854
_cell_length_b 9.091005
_cell_length_c 9.004705
_cell_angle_alpha 60.177386
_cell_angle_beta 88.023869
_cell_angle_gamma 87.290231
_cell_volume 576.554979
_symmetry_space_group_name_H-M "P -1"
_symmetry_group_IT_number 2
_symmetry_cell_setting 'triclinic'
loop_
_space_group_symop_operation_xyz
x,y,z
-x,-y,-z
loop_
_atom_site_type_symbol
_atom_site_label
_atom_site_fract_x
_atom_site_fract_y
_atom_site_fract_z
Si Si1 0.452193 0.332485 0.001169
Si Si2 0.446567 0.654960 0.323061
Si Si3 0.068228 0.657273 0.334620
Si Si4 0.643442 0.975991 0.190081
Si Si5 0.964090 0.968993 0.345394
Si Si6 0.147121 0.185094 0.995831
O O1 0.447737 0.383568 0.805281
O O2 0.571906 0.168110 0.107759
O O3 0.261529 0.287764 0.055085
O O4 0.500000 0.500000 0.000000
O O5 0.500000 0.500000 0.500000
O O6 0.257269 0.639664 0.291181
O O7 0.498735 0.841001 0.287430
O O8 0.000000 0.500000 0.500000
O O9 0.063169 0.798030 0.390939
O O10 0.958386 0.696887 0.172963
O O11 0.768926 0.949798 0.336555
O O12 0.737244 0.946691 0.041727
O O13 0.000000 0.000000 0.500000
O O14 0.020508 0.102266 0.153104
#
# Coordination Sequence:
#
# PCOD8013871 Si02
#       6
#     2   2   2   2   2   2
#     4  11  23  39  61  90 119 155 199 248 298 345
#     4  11  22  40  63  88 118 158 200 240 292 362
#     4  11  22  40  63  88 118 158 200 240 292 362
#     4  10  21  41  63  84 118 163 199 238 296 361
#     4  11  23  39  61  90 119 155 199 248 298 345
#     4  10  21  41  63  84 118 163 199 238 296 361
#
# _framework density 20.813279000000001
#
# number of rings (size 3 to 8) (size 9 to 14) (size 15 to 20)
#    0.000    1.333    0.000   10.000    0.000    5.333 
#    0.000    5.000    0.000    0.000    0.000    0.000 
#    0.000    0.000    0.000    0.000    0.000    0.000 
#
# Total GULP energy -148683.245864 kJ/mol
# GULP energy per Si atom -12390.270489 kJ/mol
# Density = 2.076591 g / cm^3
# Si number density = 20.813279 Si / 1000 Ang^3
#
#
#
# Elastic Constant Matrix: (Units=GPa)
#
#
# Indices 1 2 3 4 5 6 
#
# 1 112.1571 24.5419 15.2886 -8.2096 8.0366 20.9449
# 2 24.5419 111.4238 39.0143 -10.3918 12.9369 21.7109
# 3 15.2886 39.0143 113.4800 -13.6516 2.6858 5.6554
# 4 -8.2096 -10.3918 -13.6516 34.3498 7.1926 6.2727
# 5 8.0366 12.9369 2.6858 7.1926 32.2245 -3.0405
# 6 20.9449 21.7109 5.6554 6.2727 -3.0405 35.0259
#
#
#
# Elastic Compliance Matrix: (Units=1/GPa)
#
#
# Indices 1 2 3 4 5 6 
#
# 1 0.011133 0.000315 -0.000487 0.005034 -0.004749 -0.008088
# 2 0.000315 0.013374 -0.003237 0.006172 -0.007472 -0.009710
# 3 -0.000487 -0.003237 0.010354 0.003029 -0.000111 0.000074
# 4 0.005034 0.006172 0.003029 0.039206 -0.014207 -0.015580
# 5 -0.004749 -0.007472 -0.000111 -0.014207 0.039668 0.013477
# 6 -0.008088 -0.009710 0.000074 -0.015580 0.013477 0.043353
#
#
# Mechanical properties :
#
#
# Convention : Reuss Voigt Hill
#
# Bulk Modulus (GPa) = 35.66053 54.97228 45.31641
# Shear Modulus (GPa) = 28.85949 37.53444 33.19697
#
# Velocity S-wave (km/s) = 3.72773 4.25124 3.99806
# Velocity P-wave (km/s) = 5.97484 7.11104 6.56756
#
# Compressibility (1/GPa) = 0.02804221
#
# Stress axis : x y z
#
# Youngs Moduli (GPa) = 89.82671 74.77278 96.58096
#
# Poissons Ratio (x) = -0.02357 0.04706
# Poissons Ratio (y) = -0.02832 0.31264
# Poissons Ratio (z) = 0.04377 0.24205
#
# Static dielectric constant tensor:
#      x y z
#    x 4.573720 0.727360 -0.010450 
#    y 0.727360 5.149620 -0.091220 
#    z -0.010450 -0.091220 3.701350 
# 
# 
# High freq. dielectric constant tensor:
#      x y z
#    x 1.837870 0.018820 0.005970 
#    y 0.018820 1.797690 -0.018090 
#    z 0.005970 -0.018090 1.815950 
# 
# From -- ./inp_files/156784.got.cif
#   From: 2010.06.25/outbox.cif.g09.slc.cpg/sg2_79_cif.got.tgz:156784.got - 2010.06.27 13:26:56.
