data_PCOD8013857
_publ_section_title
;
Structure prediction by ZEFSAII (Michael W. Deem and Ramdas Pophale) SiO2 
 PCOD8013857
Probable space group: P -1
;
_chemical_formula_sum "Si O2"
_cell_formula_units_Z 12
_cell_length_a 8.578201
_cell_length_b 15.450799
_cell_length_c 8.243223
_cell_angle_alpha 117.768572
_cell_angle_beta 49.850083
_cell_angle_gamma 82.887721
_cell_volume 575.501339
_symmetry_space_group_name_H-M "P -1"
_symmetry_group_IT_number 2
_symmetry_cell_setting 'triclinic'
loop_
_space_group_symop_operation_xyz
x,y,z
-x,-y,-z
loop_
_atom_site_type_symbol
_atom_site_label
_atom_site_fract_x
_atom_site_fract_y
_atom_site_fract_z
Si Si1 0.016956 0.185643 0.174654
Si Si2 0.347368 0.750965 0.795776
Si Si3 0.579818 0.058140 0.122789
Si Si4 0.127753 0.496873 0.660907
Si Si5 0.893702 0.759013 0.162437
Si Si6 0.781466 0.438768 0.687548
O O1 0.747705 0.225566 0.309008
O O2 0.949621 0.288150 0.442996
O O3 0.193053 0.182208 0.910378
O O4 0.171514 0.051238 0.036451
O O5 0.345597 0.864633 0.954232
O O6 0.633037 0.618728 0.499359
O O7 0.141540 0.751922 0.045594
O O8 0.341137 0.155664 0.484365
O O9 0.500000 0.000000 0.000000
O O10 0.242386 0.513440 0.437354
O O11 0.924209 0.472813 0.736642
O O12 0.981937 0.619277 0.979427
O O13 0.500000 0.500000 0.000000
#
# Coordination Sequence:
#
# PCOD8013857 Si02
#       6
#     2   2   2   2   2   2
#     4   9  22  44  59  91 124 164 205 249 307 365
#     4  10  23  40  64  88 126 161 208 252 301 375
#     4  12  24  41  62  90 124 164 215 254 301 362
#     4  10  21  41  62  96 125 158 206 250 314 364
#     4   9  23  39  67  86 123 168 200 255 307 364
#     4  10  22  39  66  95 126 158 200 261 306 364
#
# _framework density 20.851386000000002
#
# number of rings (size 3 to 8) (size 9 to 14) (size 15 to 20)
#    1.000    1.000    0.000    2.500    2.333    4.000 
#    0.000    0.000    0.000    0.000    0.000    0.000 
#    0.000    0.000    0.000    0.000    0.000    0.000 
#
# Total GULP energy -148767.526332 kJ/mol
# GULP energy per Si atom -12397.293861 kJ/mol
# Density = 2.080393 g / cm^3
# Si number density = 20.851386 Si / 1000 Ang^3
#
#
#
# Elastic Constant Matrix: (Units=GPa)
#
#
# Indices 1 2 3 4 5 6 
#
# 1 126.2578 56.9284 73.4499 17.7294 -1.3776 21.1083
# 2 56.9284 82.0073 63.4545 35.7501 -4.1263 12.6936
# 3 73.4499 63.4545 145.7996 16.5090 -1.7176 10.7568
# 4 17.7294 35.7501 16.5090 40.6050 3.7390 -3.8093
# 5 -1.3776 -4.1263 -1.7176 3.7390 30.8035 10.2606
# 6 21.1083 12.6936 10.7568 -3.8093 10.2606 45.1609
#
#
#
# Elastic Compliance Matrix: (Units=1/GPa)
#
#
# Indices 1 2 3 4 5 6 
#
# 1 0.013459 -0.005754 -0.004023 0.000383 0.000851 -0.003876
# 2 -0.005754 0.039328 -0.009817 -0.030276 0.011897 -0.011283
# 3 -0.004023 -0.009817 0.012256 0.005903 -0.002453 0.002776
# 4 0.000383 -0.030276 0.005903 0.051455 -0.014830 0.014634
# 5 0.000851 0.011897 -0.002453 -0.014830 0.040275 -0.013559
# 6 -0.003876 -0.011283 0.002776 0.014634 -0.013559 0.030780
#
#
# Mechanical properties :
#
#
# Convention : Reuss Voigt Hill
#
# Bulk Modulus (GPa) = 38.67826 82.41448 60.54637
# Shear Modulus (GPa) = 21.24420 33.99602 27.62011
#
# Velocity S-wave (km/s) = 3.19539 4.04220 3.64348
# Velocity P-wave (km/s) = 5.67484 7.83558 6.84106
#
# Compressibility (1/GPa) = 0.02585432
#
# Stress axis : x y z
#
# Youngs Moduli (GPa) = 74.30084 25.42734 81.59396
#
# Poissons Ratio (x) = 0.14631 0.32827
# Poissons Ratio (y) = 0.42754 0.80097
# Poissons Ratio (z) = 0.29893 0.24961
#
# Static dielectric constant tensor:
#      x y z
#    x 3.833970 0.249410 0.037880 
#    y 0.249410 3.859970 0.164180 
#    z 0.037880 0.164180 3.513060 
# 
# 
# High freq. dielectric constant tensor:
#      x y z
#    x 1.816130 0.015310 -0.002660 
#    y 0.015310 1.819560 0.015890 
#    z -0.002660 0.015890 1.806380 
# 
# From -- ./inp_files/199217.got.cif
#   From: 2010.06.25/outbox.cif.g09.slc.cpg/sg2_100_cif.got.tgz:199217.got - 2010.06.27 13:26:56.
