data_PCOD8013442
_publ_section_title
;
Structure prediction by ZEFSAII (Michael W. Deem and Ramdas Pophale) SiO2 
 PCOD8013442
Probable space group: P -1
;
_chemical_formula_sum "Si O2"
_cell_formula_units_Z 16
_cell_length_a 15.364180
_cell_length_b 15.601060
_cell_length_c 9.545998
_cell_angle_alpha 99.556527
_cell_angle_beta 49.403021
_cell_angle_gamma 141.652974
_cell_volume 735.646623
_symmetry_space_group_name_H-M "P -1"
_symmetry_group_IT_number 2
_symmetry_cell_setting 'triclinic'
loop_
_space_group_symop_operation_xyz
x,y,z
-x,-y,-z
loop_
_atom_site_type_symbol
_atom_site_label
_atom_site_fract_x
_atom_site_fract_y
_atom_site_fract_z
Si Si1 0.286646 0.414356 0.627613
Si Si2 0.849161 0.709817 0.552759
Si Si3 0.753890 0.748427 0.913795
Si Si4 0.737677 0.154092 0.897049
Si Si5 0.918086 0.133174 0.179378
Si Si6 0.367911 0.900916 0.463506
Si Si7 0.900976 0.448272 0.430890
Si Si8 0.561075 0.762919 0.274281
O O1 0.500000 0.500000 0.500000
O O2 0.159838 0.268796 0.595200
O O3 0.393316 0.576282 0.489179
O O4 0.060339 0.281725 0.942463
O O5 0.911882 0.833985 0.626533
O O6 0.064860 0.780925 0.360125
O O7 0.563104 0.478068 0.839918
O O8 0.857422 0.758305 0.932839
O O9 0.785346 0.868955 0.970027
O O10 0.876049 0.342429 0.824452
O O11 0.500000 0.000000 0.000000
O O12 0.609173 0.037891 0.146479
O O13 0.768146 0.099511 0.427509
O O14 0.703817 0.919498 0.282922
O O15 0.133771 0.668497 0.639224
O O16 0.500000 0.000000 0.500000
O O17 0.621392 0.308065 0.662893
O O18 0.000000 0.500000 0.500000
#
# Coordination Sequence:
#
# PCOD8013442 Si02
#       8
#     2   2   2   2   2   2   2   2
#     4  11  22  42  70 101 136 185 224 288 359 422
#     4  10  21  40  68 100 137 177 232 290 352 411
#     4  10  21  40  71 101 134 184 226 293 355 415
#     4  12  24  46  73  99 147 190 237 297 358 419
#     4  12  24  44  73 104 144 181 239 286 366 426
#     4  12  27  44  72 108 141 193 239 296 358 424
#     4  12  26  46  73 104 143 195 245 289 360 428
#     4  11  24  44  72 101 146 182 231 300 353 426
#
# _framework density 21.749573000000002
#
# number of rings (size 3 to 8) (size 9 to 14) (size 15 to 20)
#    0.000    0.750    7.500    1.875    0.000    1.500 
#    0.000    0.625    0.000    0.000    0.000    0.000 
#    0.000    0.000    0.000    0.000    0.000    0.000 
#
# Total GULP energy -198233.099787 kJ/mol
# GULP energy per Si atom -12389.568737 kJ/mol
# Density = 2.170007 g / cm^3
# Si number density = 21.749573 Si / 1000 Ang^3
#
#
#
# Elastic Constant Matrix: (Units=GPa)
#
#
# Indices 1 2 3 4 5 6 
#
# 1 140.3766 52.8572 42.0022 11.7550 -22.0373 14.2263
# 2 52.8572 146.3515 50.5280 15.6100 -9.7916 -2.1469
# 3 42.0022 50.5280 104.2659 17.5331 -12.4260 0.9099
# 4 11.7550 15.6100 17.5331 37.0272 -2.4327 -1.0425
# 5 -22.0373 -9.7916 -12.4260 -2.4327 37.0580 4.3152
# 6 14.2263 -2.1469 0.9099 -1.0425 4.3152 39.1008
#
#
#
# Elastic Compliance Matrix: (Units=1/GPa)
#
#
# Indices 1 2 3 4 5 6 
#
# 1 0.009984 -0.002543 -0.001993 -0.000944 0.005036 -0.004307
# 2 -0.002543 0.008988 -0.003151 -0.001478 -0.000466 0.001504
# 3 -0.001993 -0.003151 0.012834 -0.003984 0.002033 -0.000077
# 4 -0.000944 -0.001478 -0.003984 0.029820 -0.000470 0.001202
# 5 0.005036 -0.000466 0.002033 -0.000470 0.031131 -0.005354
# 6 -0.004307 0.001504 -0.000077 0.001202 -0.005354 0.027849
#
#
# Mechanical properties :
#
#
# Convention : Reuss Voigt Hill
#
# Bulk Modulus (GPa) = 60.86170 75.75209 68.30689
# Shear Modulus (GPa) = 35.34658 39.01098 37.17878
#
# Velocity S-wave (km/s) = 4.03570 4.23974 4.13898
# Velocity P-wave (km/s) = 7.05405 7.67281 7.36992
#
# Compressibility (1/GPa) = 0.01643069
#
# Stress axis : x y z
#
# Youngs Moduli (GPa) = 100.16256 111.26089 77.91962
#
# Poissons Ratio (x) = 0.28297 0.15528
# Poissons Ratio (y) = 0.25475 0.24555
# Poissons Ratio (z) = 0.19960 0.35061
#
# Static dielectric constant tensor:
#      x y z
#    x 4.280450 -0.410150 -1.052280 
#    y -0.410150 7.675860 5.718260 
#    z -1.052280 5.718260 13.103810 
# 
# 
# High freq. dielectric constant tensor:
#      x y z
#    x 1.866290 0.015570 -0.015740 
#    y 0.015570 1.859300 0.010630 
#    z -0.015740 0.010630 1.844550 
# 
# From -- ./inp_files/315400.got.cif
#   From: 2010.06.25/outbox.cif.g09.slc.cpg/sg2_158_cif.got.tgz:315400.got - 2010.06.27 13:26:56.
