data_PCOD8013465
_publ_section_title
;
Structure prediction by ZEFSAII (Michael W. Deem and Ramdas Pophale) SiO2 
 PCOD8013465
Probable space group: P -1
;
_chemical_formula_sum "Si O2"
_cell_formula_units_Z 16
_cell_length_a 9.200076
_cell_length_b 18.897043
_cell_length_c 12.417147
_cell_angle_alpha 140.789884
_cell_angle_beta 35.418182
_cell_angle_gamma 130.181454
_cell_volume 790.341570
_symmetry_space_group_name_H-M "P -1"
_symmetry_group_IT_number 2
_symmetry_cell_setting 'triclinic'
loop_
_space_group_symop_operation_xyz
x,y,z
-x,-y,-z
loop_
_atom_site_type_symbol
_atom_site_label
_atom_site_fract_x
_atom_site_fract_y
_atom_site_fract_z
Si Si1 0.632306 0.715992 0.348719
Si Si2 0.556587 0.122022 0.826721
Si Si3 0.900663 0.773635 0.055591
Si Si4 0.046994 0.203974 0.558058
Si Si5 0.105113 0.623920 0.565868
Si Si6 0.548281 0.106077 0.476750
Si Si7 0.249617 0.964990 0.170148
Si Si8 0.060854 0.223455 0.333407
O O1 0.822643 0.689733 0.103843
O O2 0.784472 0.723279 0.375711
O O3 0.502766 0.834545 0.538986
O O4 0.408261 0.622308 0.387051
O O5 0.692145 0.070154 0.786077
O O6 0.748835 0.217701 0.774468
O O7 0.501418 0.026220 0.657902
O O8 0.297507 0.175939 0.075045
O O9 0.649292 0.841539 0.256747
O O10 0.118651 0.860739 0.064340
O O11 0.993574 0.705047 0.818031
O O12 0.131025 0.252329 0.448237
O O13 0.074619 0.070861 0.399181
O O14 0.025291 0.665994 0.545580
O O15 0.000000 0.500000 0.500000
O O16 0.835943 0.129358 0.363897
O O17 0.500000 0.000000 0.000000
#
# Coordination Sequence:
#
# PCOD8013465 Si02
#       8
#     2   2   2   2   2   2   2   2
#     4   9  20  40  67  93 121 164 216 246 305 383
#     4  12  21  36  62  91 144 170 205 237 307 370
#     4  10  21  40  68  89 125 168 221 243 303 381
#     4  12  21  38  62  95 138 168 204 243 302 386
#     4  11  26  48  69  87 116 163 219 277 328 371
#     4   9  20  39  56  93 131 171 205 234 297 385
#     4  12  20  34  61  99 128 180 200 238 292 380
#     4  11  27  37  58  97 127 166 210 267 310 360
#
# _framework density 20.244410999999999
#
# number of rings (size 3 to 8) (size 9 to 14) (size 15 to 20)
#    0.750    0.500    5.000    1.500    3.500    2.000 
#    0.000    0.625    0.000    1.500    0.000    0.000 
#    0.000    0.000    0.000    0.000    0.000    0.000 
#
# Total GULP energy -198349.164803 kJ/mol
# GULP energy per Si atom -12396.822800 kJ/mol
# Density = 2.019833 g / cm^3
# Si number density = 20.244411 Si / 1000 Ang^3
#
#
#
# Elastic Constant Matrix: (Units=GPa)
#
#
# Indices 1 2 3 4 5 6 
#
# 1 48.3974 14.7800 0.9671 8.1724 -8.0259 7.3991
# 2 14.7800 117.6544 23.3072 -13.9065 -10.1432 13.6627
# 3 0.9671 23.3072 65.9447 -23.3815 -4.7019 5.4359
# 4 8.1724 -13.9065 -23.3815 26.5639 8.8627 -8.0458
# 5 -8.0259 -10.1432 -4.7019 8.8627 23.5588 -10.5843
# 6 7.3991 13.6627 5.4359 -8.0458 -10.5843 27.1419
#
#
#
# Elastic Compliance Matrix: (Units=1/GPa)
#
#
# Indices 1 2 3 4 5 6 
#
# 1 0.028359 -0.003183 -0.005400 -0.021217 0.012247 -0.006561
# 2 -0.003183 0.010049 -0.001995 0.003587 0.000326 -0.002600
# 3 -0.005400 -0.001995 0.024004 0.024525 -0.005959 0.002615
# 4 -0.021217 0.003587 0.024525 0.079921 -0.025013 0.013004
# 5 0.012247 0.000326 -0.005959 -0.025013 0.061362 0.014205
# 6 -0.006561 -0.002600 0.002615 0.013004 0.014205 0.048811
#
#
# Mechanical properties :
#
#
# Convention : Reuss Voigt Hill
#
# Bulk Modulus (GPa) = 24.23923 34.45613 29.34768
# Shear Modulus (GPa) = 17.39653 28.31573 22.85613
#
# Velocity S-wave (km/s) = 2.93461 3.74397 3.36372
# Velocity P-wave (km/s) = 4.84581 5.97886 5.44190
#
# Compressibility (1/GPa) = 0.04125543
#
# Stress axis : x y z
#
# Youngs Moduli (GPa) = 35.26227 99.51550 41.65995
#
# Poissons Ratio (x) = 0.31675 0.22495
# Poissons Ratio (y) = 0.11224 0.08313
# Poissons Ratio (z) = 0.19040 0.19858
#
# Static dielectric constant tensor:
#      x y z
#    x 3.739770 0.138530 0.003440 
#    y 0.138530 3.606000 -0.502760 
#    z 0.003440 -0.502760 3.673610 
# 
# 
# High freq. dielectric constant tensor:
#      x y z
#    x 1.797450 0.017290 0.010080 
#    y 0.017290 1.769880 -0.045280 
#    z 0.010080 -0.045280 1.776710 
# 
# From -- ./inp_files/404894.got.cif
#   From: 2010.06.25/outbox.cif.g09.slc.cpg/sg2_203_cif.got.tgz:404894.got - 2010.06.27 13:26:56.
