data_PCOD8013051
_publ_section_title
;
Structure prediction by ZEFSAII (Michael W. Deem and Ramdas Pophale) SiO2 
 PCOD8013051
Probable space group: P -1
;
_chemical_formula_sum "Si O2"
_cell_formula_units_Z 16
_cell_length_a 16.369531
_cell_length_b 13.016540
_cell_length_c 11.133942
_cell_angle_alpha 97.585532
_cell_angle_beta 117.096731
_cell_angle_gamma 28.197291
_cell_volume 766.346212
_symmetry_space_group_name_H-M "P -1"
_symmetry_group_IT_number 2
_symmetry_cell_setting 'triclinic'
loop_
_space_group_symop_operation_xyz
x,y,z
-x,-y,-z
loop_
_atom_site_type_symbol
_atom_site_label
_atom_site_fract_x
_atom_site_fract_y
_atom_site_fract_z
Si Si1 0.435494 0.473537 0.698505
Si Si2 0.257570 0.478890 0.955721
Si Si3 0.931571 0.453296 0.954797
Si Si4 0.976422 0.243638 0.618695
Si Si5 0.594509 0.786164 0.556256
Si Si6 0.668360 0.095709 0.991112
Si Si7 0.574683 0.278881 0.302043
Si Si8 0.276596 0.924164 0.373968
O O1 0.497445 0.360553 0.852544
O O2 0.394283 0.638131 0.714237
O O3 0.663577 0.211318 0.720333
O O4 0.186863 0.685367 0.508179
O O5 0.487115 0.217767 0.976696
O O6 0.329572 0.487321 0.108074
O O7 0.023116 0.765710 0.763831
O O8 0.169117 0.469130 0.967418
O O9 0.710138 0.658061 0.746396
O O10 0.000000 0.500000 0.000000
O O11 0.192609 0.120577 0.048161
O O12 0.805672 0.526765 0.561231
O O13 0.180653 0.046373 0.620744
O O14 0.122490 0.066898 0.813625
O O15 0.359991 0.955486 0.414657
O O16 0.500000 0.000000 0.500000
O O17 0.566528 0.286433 0.441468
#
# Coordination Sequence:
#
# PCOD8013051 Si02
#       8
#     2   2   2   2   2   2   2   2
#     4  11  22  38  65  91 128 175 209 256 319 363
#     4  11  23  41  65  92 128 166 210 262 311 377
#     4  11  22  42  68  90 128 164 206 266 322 373
#     4   9  22  39  62  87 128 161 211 259 309 374
#     4  10  21  40  65  90 119 164 209 257 325 375
#     4  10  23  42  63  94 129 165 212 261 308 379
#     4  11  23  40  60  95 128 169 214 259 310 372
#     4  11  22  39  61  92 130 162 213 260 307 379
#
# _framework density 20.878294
#
# number of rings (size 3 to 8) (size 9 to 14) (size 15 to 20)
#    0.000    1.500    2.500    2.250    1.750    4.000 
#    0.000    1.875    0.000    0.000    0.000    0.000 
#    0.000    0.000    0.000    0.000    0.000    0.000 
#
# Total GULP energy -198384.382827 kJ/mol
# GULP energy per Si atom -12399.023927 kJ/mol
# Density = 2.083077 g / cm^3
# Si number density = 20.878294 Si / 1000 Ang^3
#
#
#
# Elastic Constant Matrix: (Units=GPa)
#
#
# Indices 1 2 3 4 5 6 
#
# 1 115.4139 45.5829 37.4973 -4.1480 -9.1192 2.1369
# 2 45.5829 78.9087 30.7353 -8.6664 -1.1128 -1.7682
# 3 37.4973 30.7353 116.8153 -11.4455 4.9288 1.6121
# 4 -4.1480 -8.6664 -11.4455 28.2022 -3.8114 1.4821
# 5 -9.1192 -1.1128 4.9288 -3.8114 32.5181 3.5885
# 6 2.1369 -1.7682 1.6121 1.4821 3.5885 31.8138
#
#
#
# Elastic Compliance Matrix: (Units=1/GPa)
#
#
# Indices 1 2 3 4 5 6 
#
# 1 0.012183 -0.006105 -0.002492 -0.000523 0.003681 -0.001422
# 2 -0.006105 0.017496 -0.002308 0.003398 -0.000520 0.001400
# 3 -0.002492 -0.002308 0.010338 0.002875 -0.001964 -0.000397
# 4 -0.000523 0.003398 0.002875 0.038283 0.004262 -0.002186
# 5 0.003681 -0.000520 -0.001964 0.004262 0.033016 -0.004099
# 6 -0.001422 0.001400 -0.000397 -0.002186 -0.004099 0.032191
#
#
# Mechanical properties :
#
#
# Convention : Reuss Voigt Hill
#
# Bulk Modulus (GPa) = 54.92172 59.86320 57.39246
# Shear Modulus (GPa) = 29.17405 31.66164 30.41785
#
# Velocity S-wave (km/s) = 3.74215 3.89843 3.82109
# Velocity P-wave (km/s) = 6.71077 6.99989 6.85685
#
# Compressibility (1/GPa) = 0.01820773
#
# Stress axis : x y z
#
# Youngs Moduli (GPa) = 82.07831 57.15679 96.73413
#
# Poissons Ratio (x) = 0.34894 0.24101
# Poissons Ratio (y) = 0.50108 0.22327
# Poissons Ratio (z) = 0.20450 0.13192
#
# Static dielectric constant tensor:
#      x y z
#    x 3.522520 -0.127540 0.050730 
#    y -0.127540 3.855030 -0.009000 
#    z 0.050730 -0.009000 4.014880 
# 
# 
# High freq. dielectric constant tensor:
#      x y z
#    x 1.796800 -0.012480 0.001510 
#    y -0.012480 1.809400 -0.000760 
#    z 0.001510 -0.000760 1.841360 
# 
# From -- ./inp_files/272041.got.cif
#   From: 2010.06.25/outbox.cif.g09.slc.cpg/sg2_137_cif.got.tgz:272041.got - 2010.06.27 13:26:56.
