data_PCOD8013366
_publ_section_title
;
Structure prediction by ZEFSAII (Michael W. Deem and Ramdas Pophale) SiO2 
 PCOD8013366
Probable space group: P -1
;
_chemical_formula_sum "Si O2"
_cell_formula_units_Z 16
_cell_length_a 9.717844
_cell_length_b 10.942426
_cell_length_c 8.939202
_cell_angle_alpha 81.584286
_cell_angle_beta 98.069298
_cell_angle_gamma 139.428304
_cell_volume 610.959889
_symmetry_space_group_name_H-M "P -1"
_symmetry_group_IT_number 2
_symmetry_cell_setting 'triclinic'
loop_
_space_group_symop_operation_xyz
x,y,z
-x,-y,-z
loop_
_atom_site_type_symbol
_atom_site_label
_atom_site_fract_x
_atom_site_fract_y
_atom_site_fract_z
Si Si1 0.045934 0.718228 0.402497
Si Si2 0.045964 0.006624 0.309876
Si Si3 0.849325 0.781398 0.979738
Si Si4 0.669853 0.296962 0.066977
Si Si5 0.673249 0.281568 0.403715
Si Si6 0.355325 0.199757 0.556678
Si Si7 0.892907 0.270910 0.914391
Si Si8 0.499513 0.601410 0.169084
O O1 0.189867 0.751522 0.547287
O O2 0.174895 0.774619 0.260616
O O3 0.814133 0.500026 0.406153
O O4 0.018316 0.846809 0.391631
O O5 0.075699 0.040305 0.125799
O O6 0.257089 0.200364 0.393313
O O7 0.849945 0.963102 0.338600
O O8 0.676402 0.614225 0.865495
O O9 0.737052 0.713802 0.138490
O O10 0.050910 0.828339 0.006037
O O11 0.573538 0.210272 0.233543
O O12 0.902362 0.506832 0.082350
O O13 0.697270 0.187393 0.999382
O O14 0.523251 0.288018 0.949178
O O15 0.483226 0.166095 0.517869
O O16 0.510391 0.384755 0.655075
#
# Coordination Sequence:
#
# PCOD8013366 Si02
#       8
#     2   2   2   2   2   2   2   2
#     4  10  22  41  66  94 124 163 209 258 312 369
#     4  11  26  42  59  91 131 166 204 257 316 368
#     4  10  22  41  64  91 124 160 204 260 311 363
#     4   9  18  35  62  93 117 148 204 262 301 349
#     4  10  22  42  67  92 123 165 211 257 306 371
#     4  11  25  41  62  90 127 168 209 252 309 372
#     4   9  18  35  61  91 120 152 198 253 308 362
#     4  10  21  40  67  93 118 160 213 255 303 371
#
# _framework density 26.188298
#
# number of rings (size 3 to 8) (size 9 to 14) (size 15 to 20)
#    0.000    2.000    0.000    2.250    0.000   13.500 
#    0.000    1.250    0.000    4.500    0.000    0.000 
#    0.000    0.000    0.000    0.000    0.000    0.000 
#
# Total GULP energy -198250.465896 kJ/mol
# GULP energy per Si atom -12390.654119 kJ/mol
# Density = 2.612869 g / cm^3
# Si number density = 26.188298 Si / 1000 Ang^3
#
#
#
# Elastic Constant Matrix: (Units=GPa)
#
#
# Indices 1 2 3 4 5 6 
#
# 1 120.9560 18.8282 33.9598 -14.7229 -14.1400 -12.3854
# 2 18.8282 46.7644 15.7929 -4.2566 15.9128 -6.0507
# 3 33.9598 15.7929 139.8802 -8.0984 -21.0000 -14.6792
# 4 -14.7229 -4.2566 -8.0984 18.7487 -17.4344 5.8356
# 5 -14.1400 15.9128 -21.0000 -17.4344 33.5372 -0.5013
# 6 -12.3854 -6.0507 -14.6792 5.8356 -0.5013 26.1538
#
#
#
# Elastic Compliance Matrix: (Units=1/GPa)
#
#
# Indices 1 2 3 4 5 6 
#
# 1 -0.074359 0.133806 -0.063865 -0.371331 -0.327323 0.036477
# 2 0.133806 -0.197255 0.099117 0.611851 0.529354 -0.053012
# 3 -0.063865 0.099117 -0.037836 -0.277472 -0.241463 0.028733
# 4 -0.371331 0.611851 -0.277472 -1.624618 -1.463022 0.144420
# 5 -0.327323 0.529354 -0.241463 -1.463022 -1.269108 0.134046
# 6 0.036477 -0.053012 0.028733 0.144420 0.134046 0.029718
#
#
# Mechanical properties :
#
#
# Convention : Reuss Voigt Hill
#
# Bulk Modulus (GPa) = 34.88496 49.41804 42.15150
# Shear Modulus (GPa) = -1.42775 31.62257 15.09741
#
# Velocity S-wave (km/s) = -0.73917 3.47869 2.40363
# Velocity P-wave (km/s) = 3.55264 5.91999 4.88198
#
# Compressibility (1/GPa) = 0.02866565
#
# Stress axis : x y z
#
# Youngs Moduli (GPa) = -13.44836 -5.06958 -26.42982
#
# Poissons Ratio (x) = 0.67834 -1.68795
# Poissons Ratio (y) = 1.79948 2.61964
# Poissons Ratio (z) = -0.85888 0.50248
#
# Static dielectric constant tensor:
#      x y z
#    x 4.630970 0.012090 -0.160070 
#    y 0.012090 4.646160 0.449220 
#    z -0.160070 0.449220 5.002130 
# 
# 
# High freq. dielectric constant tensor:
#      x y z
#    x 2.042610 0.009970 -0.004850 
#    y 0.009970 2.040780 0.028780 
#    z -0.004850 0.028780 2.062660 
# 
# From -- ./inp_files/186818.got.cif
#   From: 2010.06.25/outbox.cif.g09.slc.cpg/sg2_94_cif.got.tgz:186818.got - 2010.06.27 13:26:56.
