data_PCOD8013078
_publ_section_title
;
Structure prediction by ZEFSAII (Michael W. Deem and Ramdas Pophale) SiO2 
 PCOD8013078
Probable space group: P -1
;
_chemical_formula_sum "Si O2"
_cell_formula_units_Z 14
_cell_length_a 11.823049
_cell_length_b 11.499750
_cell_length_c 12.012025
_cell_angle_alpha 37.786798
_cell_angle_beta 33.131421
_cell_angle_gamma 43.662527
_cell_volume 537.603462
_symmetry_space_group_name_H-M "P -1"
_symmetry_group_IT_number 2
_symmetry_cell_setting 'triclinic'
loop_
_space_group_symop_operation_xyz
x,y,z
-x,-y,-z
loop_
_atom_site_type_symbol
_atom_site_label
_atom_site_fract_x
_atom_site_fract_y
_atom_site_fract_z
Si Si1 0.623969 0.103823 0.660501
Si Si2 0.254217 0.933825 0.005757
Si Si3 0.755628 0.477383 0.347062
Si Si4 0.512913 0.748438 0.731069
Si Si5 0.789463 0.017913 0.361607
Si Si6 0.586509 0.436008 0.742804
Si Si7 0.786422 0.715634 0.930899
O O1 0.801865 0.061983 0.449515
O O2 0.596138 0.329495 0.552712
O O3 0.401808 0.084460 0.802755
O O4 0.694540 0.945905 0.819979
O O5 0.263121 0.773951 0.216515
O O6 0.013165 0.041065 0.107123
O O7 0.334860 0.813390 0.920049
O O8 0.684277 0.548851 0.477157
O O9 0.771798 0.658966 0.116061
O O10 0.979519 0.333780 0.272105
O O11 0.734411 0.806881 0.541046
O O12 0.576483 0.526311 0.808037
O O13 0.412148 0.839066 0.629784
O O14 0.348267 0.411422 0.933014
#
# Coordination Sequence:
#
# PCOD8013078 Si02
#       7
#     2   2   2   2   2   2   2
#     4  10  22  41  64  94 130 163 212 267 310 377
#     4  10  22  39  65  93 122 169 215 257 320 376
#     4  11  23  41  64  93 130 170 210 258 319 380
#     4  10  22  40  61  92 130 161 210 268 310 374
#     4  10  21  40  65  92 124 168 211 259 319 374
#     4  11  23  40  62  93 131 166 208 264 316 375
#     4  10  23  40  61  93 128 168 214 259 314 376
#
# _framework density 26.041499999999999
#
# number of rings (size 3 to 8) (size 9 to 14) (size 15 to 20)
#    0.000    1.714    0.000    3.429    0.000    5.143 
#    0.000   11.429    0.000    0.000    0.000    0.000 
#    0.000    0.000    0.000    0.000    0.000    0.000 
#
# Total GULP energy -173532.844834 kJ/mol
# GULP energy per Si atom -12395.203202 kJ/mol
# Density = 2.598223 g / cm^3
# Si number density = 26.041500 Si / 1000 Ang^3
#
#
#
# Elastic Constant Matrix: (Units=GPa)
#
#
# Indices 1 2 3 4 5 6 
#
# 1 66.6439 34.6844 24.7481 11.8008 10.1009 5.8403
# 2 34.6844 108.6770 50.5933 11.2149 7.5839 26.6032
# 3 24.7481 50.5933 111.0701 18.0753 4.2260 0.9522
# 4 11.8008 11.2149 18.0753 53.0563 -16.0165 2.6955
# 5 10.1009 7.5839 4.2260 -16.0165 31.9518 -0.4079
# 6 5.8403 26.6032 0.9522 2.6955 -0.4079 38.4897
#
#
#
# Elastic Compliance Matrix: (Units=1/GPa)
#
#
# Indices 1 2 3 4 5 6 
#
# 1 0.020057 -0.005011 -0.001016 -0.005426 -0.007727 0.000744
# 2 -0.005011 0.016346 -0.006133 -0.000249 -0.001742 -0.010387
# 3 -0.001016 -0.006133 0.012611 -0.003468 -0.001575 0.004308
# 4 -0.005426 -0.000249 -0.003468 0.025911 0.015214 -0.000572
# 5 -0.007727 -0.001742 -0.001575 0.015214 0.042011 0.001795
# 6 0.000744 -0.010387 0.004308 -0.000572 0.001795 0.033000
#
#
# Mechanical properties :
#
#
# Convention : Reuss Voigt Hill
#
# Bulk Modulus (GPa) = 40.49620 56.27140 48.38380
# Shear Modulus (GPa) = 27.39909 36.45724 31.92816
#
# Velocity S-wave (km/s) = 3.24718 3.74567 3.50530
# Velocity P-wave (km/s) = 5.44456 6.35311 5.91630
#
# Compressibility (1/GPa) = 0.02469367
#
# Stress axis : x y z
#
# Youngs Moduli (GPa) = 49.85719 61.17665 79.29736
#
# Poissons Ratio (x) = 0.30657 0.08054
# Poissons Ratio (y) = 0.24985 0.48635
# Poissons Ratio (z) = 0.05064 0.37521
#
# Static dielectric constant tensor:
#      x y z
#    x 4.826900 -0.044920 0.074310 
#    y -0.044920 4.576670 -0.088550 
#    z 0.074310 -0.088550 4.790920 
# 
# 
# High freq. dielectric constant tensor:
#      x y z
#    x 2.036720 -0.000800 0.007710 
#    y -0.000800 2.050060 0.006150 
#    z 0.007710 0.006150 2.048110 
# 
# From -- ./inp_files/424838.got.cif
#   From: 2010.06.25/outbox.cif.g09.slc.cpg/sg2_213_cif.got.tgz:424838.got - 2010.06.27 13:26:56.
