data_PCOD8013822
_publ_section_title
;
Structure prediction by ZEFSAII (Michael W. Deem and Ramdas Pophale) SiO2 
 PCOD8013822
Probable space group: P -1
;
_chemical_formula_sum "Si O2"
_cell_formula_units_Z 16
_cell_length_a 12.182672
_cell_length_b 10.679725
_cell_length_c 11.543128
_cell_angle_alpha 37.653298
_cell_angle_beta 132.187813
_cell_angle_gamma 123.315110
_cell_volume 679.272493
_symmetry_space_group_name_H-M "P -1"
_symmetry_group_IT_number 2
_symmetry_cell_setting 'triclinic'
loop_
_space_group_symop_operation_xyz
x,y,z
-x,-y,-z
loop_
_atom_site_type_symbol
_atom_site_label
_atom_site_fract_x
_atom_site_fract_y
_atom_site_fract_z
Si Si1 0.657748 0.791220 0.192172
Si Si2 0.244914 0.467689 0.356631
Si Si3 0.654485 0.114835 0.781309
Si Si4 0.853638 0.930147 0.855955
Si Si5 0.408988 0.117222 0.441197
Si Si6 0.925009 0.467468 0.202480
Si Si7 0.043170 0.290241 0.632582
Si Si8 0.361596 0.553591 0.123894
O O1 0.700601 0.744376 0.390005
O O2 0.489551 0.728071 0.086832
O O3 0.779751 0.688555 0.272159
O O4 0.670973 0.030681 0.987154
O O5 0.304353 0.644166 0.359040
O O6 0.319045 0.481214 0.275543
O O7 0.068008 0.482671 0.207857
O O8 0.481618 0.077703 0.647330
O O9 0.757013 0.000339 0.845278
O O10 0.763635 0.947940 0.656344
O O11 0.996177 0.088715 0.824832
O O12 0.901403 0.693657 0.077596
O O13 0.426886 0.359027 0.247697
O O14 0.500000 0.000000 0.500000
O O15 0.958834 0.290344 0.449105
O O16 0.783992 0.377239 0.097420
O O17 0.000000 0.500000 0.500000
#
# Coordination Sequence:
#
# PCOD8013822 Si02
#       8
#     2   2   2   2   2   2   2   2
#     4  11  24  38  62  96 123 161 216 255 307 374
#     4  11  23  43  65  89 128 165 213 264 306 367
#     4  11  22  39  64  94 124 169 207 257 315 367
#     4  10  21  41  62  90 129 162 206 257 313 374
#     4   9  21  39  63  90 124 163 200 258 318 364
#     4  10  23  41  65  93 124 168 209 253 317 370
#     4  11  23  38  63  95 126 164 204 258 310 372
#     4  11  23  44  64  91 128 168 209 261 311 372
#
# _framework density 23.554611999999999
#
# number of rings (size 3 to 8) (size 9 to 14) (size 15 to 20)
#    0.000    1.500    1.250    3.750    3.500    2.000 
#    0.000    2.500    0.000    6.000    0.000    0.000 
#    0.000    0.000    0.000    0.000    0.000    0.000 
#
# Total GULP energy -198208.913770 kJ/mol
# GULP energy per Si atom -12388.057111 kJ/mol
# Density = 2.350100 g / cm^3
# Si number density = 23.554612 Si / 1000 Ang^3
#
#
#
# Elastic Constant Matrix: (Units=GPa)
#
#
# Indices 1 2 3 4 5 6 
#
# 1 68.0221 18.8583 23.2230 -1.4994 -3.6549 16.5992
# 2 18.8583 39.1867 14.2230 15.7771 7.5496 14.7200
# 3 23.2230 14.2230 112.3512 9.3362 -6.0626 9.6940
# 4 -1.4994 15.7771 9.3362 36.0965 10.9071 3.5814
# 5 -3.6549 7.5496 -6.0626 10.9071 39.2585 1.9294
# 6 16.5992 14.7200 9.6940 3.5814 1.9294 28.4772
#
#
#
# Elastic Compliance Matrix: (Units=1/GPa)
#
#
# Indices 1 2 3 4 5 6 
#
# 1 0.019952 -0.008446 -0.002784 0.005370 0.001910 -0.007121
# 2 -0.008446 0.042703 -0.001302 -0.016028 -0.004038 -0.014417
# 3 -0.002784 -0.001302 0.010081 -0.002775 0.002365 -0.000947
# 4 0.005370 -0.016028 -0.002775 0.037705 -0.007413 0.001860
# 5 0.001910 -0.004038 0.002365 -0.007413 0.028893 -0.000857
# 6 -0.007121 -0.014417 -0.000947 0.001860 -0.000857 0.046866
#
#
# Mechanical properties :
#
#
# Convention : Reuss Voigt Hill
#
# Bulk Modulus (GPa) = 20.97682 36.90762 28.94222
# Shear Modulus (GPa) = 22.01143 31.65015 26.83079
#
# Velocity S-wave (km/s) = 3.06025 3.66962 3.37870
# Velocity P-wave (km/s) = 4.62729 5.80153 5.24736
#
# Compressibility (1/GPa) = 0.04767167
#
# Stress axis : x y z
#
# Youngs Moduli (GPa) = 50.12090 23.41751 99.19844
#
# Poissons Ratio (x) = 0.19779 0.27612
# Poissons Ratio (y) = 0.42334 0.12917
# Poissons Ratio (z) = 0.13951 0.03049
#
# Static dielectric constant tensor:
#      x y z
#    x 4.245510 0.165430 0.152060 
#    y 0.165430 4.383000 0.579740 
#    z 0.152060 0.579740 5.287750 
# 
# 
# High freq. dielectric constant tensor:
#      x y z
#    x 1.924280 0.005370 0.016360 
#    y 0.005370 1.912250 0.015450 
#    z 0.016360 0.015450 1.959160 
# 
# From -- ./inp_files/427459.got.cif
#   From: 2010.06.25/outbox.cif.g09.slc.cpg/sg2_214_cif.got.tgz:427459.got - 2010.06.27 13:26:56.
