data_PCOD8013454
_publ_section_title
;
Structure prediction by ZEFSAII (Michael W. Deem and Ramdas Pophale) SiO2 
 PCOD8013454
Probable space group: P -1
;
_chemical_formula_sum "Si O2"
_cell_formula_units_Z 16
_cell_length_a 6.311690
_cell_length_b 11.096659
_cell_length_c 22.124026
_cell_angle_alpha 29.704187
_cell_angle_beta 61.361912
_cell_angle_gamma 66.887611
_cell_volume 672.890770
_symmetry_space_group_name_H-M "P -1"
_symmetry_group_IT_number 2
_symmetry_cell_setting 'triclinic'
loop_
_space_group_symop_operation_xyz
x,y,z
-x,-y,-z
loop_
_atom_site_type_symbol
_atom_site_label
_atom_site_fract_x
_atom_site_fract_y
_atom_site_fract_z
Si Si1 0.632245 0.304511 0.525579
Si Si2 0.072514 0.062376 0.298804
Si Si3 0.601007 0.817288 0.516140
Si Si4 0.520074 0.358331 0.806824
Si Si5 0.666967 0.027185 0.083705
Si Si6 0.035964 0.410773 0.908870
Si Si7 0.142587 0.106618 0.136220
Si Si8 0.023165 0.317286 0.739665
O O1 0.500000 0.500000 0.500000
O O2 0.500244 0.183984 0.537827
O O3 0.883970 0.429761 0.412571
O O4 0.682024 0.075079 0.662428
O O5 0.004871 0.078627 0.230426
O O6 0.096439 0.343541 0.193187
O O7 0.877073 0.908658 0.431582
O O8 0.555973 0.541994 0.665345
O O9 0.500000 0.000000 0.500000
O O10 0.323254 0.453196 0.838534
O O11 0.791634 0.352771 0.801386
O O12 0.414056 0.086412 0.920394
O O13 0.432354 0.155304 0.086865
O O14 0.746796 0.798491 0.211671
O O15 0.899595 0.216826 0.966863
O O16 0.020839 0.315273 0.021900
O O17 0.102547 0.846413 0.223953
#
# Coordination Sequence:
#
# PCOD8013454 Si02
#       8
#     2   2   2   2   2   2   2   2
#     4  12  26  44  77 107 141 190 240 292 355 436
#     4  12  26  45  70 106 144 190 232 299 366 424
#     4  12  26  48  72 109 151 183 232 299 369 431
#     4  11  22  43  70 102 142 185 239 294 357 427
#     4  10  22  42  69  99 136 185 242 295 344 422
#     4  11  25  44  67 100 142 192 238 292 355 426
#     4  10  24  43  69  99 141 184 246 294 349 413
#     4  10  21  40  68 103 135 179 235 299 347 416
#
# _framework density 23.778006000000001
#
# number of rings (size 3 to 8) (size 9 to 14) (size 15 to 20)
#    0.000    1.000    3.750    2.250    1.750    9.500 
#    2.250    0.000    0.000    0.000    0.000    0.000 
#    0.000    0.000    0.000    0.000    0.000    0.000 
#
# Total GULP energy -198239.115216 kJ/mol
# GULP energy per Si atom -12389.944701 kJ/mol
# Density = 2.372389 g / cm^3
# Si number density = 23.778006 Si / 1000 Ang^3
#
#
#
# Elastic Constant Matrix: (Units=GPa)
#
#
# Indices 1 2 3 4 5 6 
#
# 1 105.6725 38.2820 43.3492 -8.0111 9.6110 -2.0551
# 2 38.2820 108.2049 27.0632 -7.5120 11.7235 -2.3039
# 3 43.3492 27.0632 104.5833 -12.9332 15.2070 -6.5696
# 4 -8.0111 -7.5120 -12.9332 36.4945 -2.0296 4.7449
# 5 9.6110 11.7235 15.2070 -2.0296 30.7455 2.9523
# 6 -2.0551 -2.3039 -6.5696 4.7449 2.9523 36.9909
#
#
#
# Elastic Compliance Matrix: (Units=1/GPa)
#
#
# Indices 1 2 3 4 5 6 
#
# 1 0.012449 -0.003268 -0.004186 0.000586 -0.000508 -0.000290
# 2 -0.003268 0.011005 -0.000953 0.001007 -0.002677 0.000419
# 3 -0.004186 -0.000953 0.012691 0.002871 -0.004604 0.001961
# 4 0.000586 0.001007 0.002871 0.029179 0.000242 -0.003157
# 5 -0.000508 -0.002677 -0.004604 0.000242 0.036377 -0.003947
# 6 -0.000290 0.000419 0.001961 -0.003157 -0.003947 0.028112
#
#
# Mechanical properties :
#
#
# Convention : Reuss Voigt Hill
#
# Bulk Modulus (GPa) = 51.73035 59.53886 55.63461
# Shear Modulus (GPa) = 32.66433 34.83061 33.74747
#
# Velocity S-wave (km/s) = 3.71039 3.83145 3.77141
# Velocity P-wave (km/s) = 6.33710 6.68335 6.51253
#
# Compressibility (1/GPa) = 0.01933101
#
# Stress axis : x y z
#
# Youngs Moduli (GPa) = 80.32497 90.86659 78.79360
#
# Poissons Ratio (x) = 0.29694 0.32986
# Poissons Ratio (y) = 0.26249 0.07511
# Poissons Ratio (z) = 0.33627 0.08662
#
# Static dielectric constant tensor:
#      x y z
#    x 4.449420 -0.283260 -0.018640 
#    y -0.283260 4.166690 -0.051820 
#    z -0.018640 -0.051820 4.378400 
# 
# 
# High freq. dielectric constant tensor:
#      x y z
#    x 1.945090 -0.012360 0.002600 
#    y -0.012360 1.924220 0.000430 
#    z 0.002600 0.000430 1.955470 
# 
# From -- ./inp_files/604375.got.cif
#   From: 2010.06.25/outbox.cif.g09.slc.cpg/sg2_303_cif.got.tgz:604375.got - 2010.06.27 13:26:56.
