data_PCOD8013817
_publ_section_title
;
Structure prediction by ZEFSAII (Michael W. Deem and Ramdas Pophale) SiO2 
 PCOD8013817
Probable space group: P -1
;
_chemical_formula_sum "Si O2"
_cell_formula_units_Z 14
_cell_length_a 12.215242
_cell_length_b 28.716979
_cell_length_c 13.164855
_cell_angle_alpha 150.721323
_cell_angle_beta 141.209289
_cell_angle_gamma 18.716366
_cell_volume 691.898269
_symmetry_space_group_name_H-M "P -1"
_symmetry_group_IT_number 2
_symmetry_cell_setting 'triclinic'
loop_
_space_group_symop_operation_xyz
x,y,z
-x,-y,-z
loop_
_atom_site_type_symbol
_atom_site_label
_atom_site_fract_x
_atom_site_fract_y
_atom_site_fract_z
Si Si1 0.116984 0.225715 0.649489
Si Si2 0.297348 0.317881 0.292119
Si Si3 0.791561 0.198209 0.711408
Si Si4 0.706375 0.789150 0.452557
Si Si5 0.089243 0.845179 0.507823
Si Si6 0.032346 0.520897 0.855254
Si Si7 0.375700 0.062499 0.914277
O O1 0.039226 0.276490 0.569438
O O2 0.854277 0.276516 0.613745
O O3 0.500000 0.000000 0.500000
O O4 0.152563 0.310002 0.890707
O O5 0.699455 0.168363 0.312049
O O6 0.000000 0.500000 0.500000
O O7 0.185387 0.396277 0.246428
O O8 0.319330 0.195042 0.087011
O O9 0.705884 0.263878 0.657798
O O10 0.428093 0.368612 0.832143
O O11 0.003535 0.185220 0.886125
O O12 0.000000 0.000000 0.500000
O O13 0.945926 0.585679 0.268022
O O14 0.635480 0.885677 0.685569
O O15 0.329837 0.936377 0.406454
O O16 0.500000 0.000000 0.000000
#
# Coordination Sequence:
#
# PCOD8013817 Si02
#       7
#     2   2   2   2   2   2   2
#     4  10  23  43  64  88 123 174 215 251 302 378
#     4  12  24  36  58 100 132 156 204 264 315 367
#     4  11  20  38  64  96 124 163 206 259 320 374
#     4  10  22  45  65  87 124 169 213 251 308 379
#     4  10  21  41  62  89 129 166 204 251 316 370
#     4  12  22  38  68  93 125 161 212 260 314 370
#     4  11  23  39  64  92 130 162 202 261 321 367
#
# _framework density 20.234186999999999
#
# number of rings (size 3 to 8) (size 9 to 14) (size 15 to 20)
#    0.000    1.143    4.286    4.714    2.000    1.143 
#    0.000    7.143    0.000    0.000    0.000    0.000 
#    0.000    0.000    0.000    0.000    0.000    0.000 
#
# Total GULP energy -173507.448611 kJ/mol
# GULP energy per Si atom -12393.389187 kJ/mol
# Density = 2.018813 g / cm^3
# Si number density = 20.234187 Si / 1000 Ang^3
#
#
#
# Elastic Constant Matrix: (Units=GPa)
#
#
# Indices 1 2 3 4 5 6 
#
# 1 157.5844 42.8697 54.9964 -7.4664 10.3072 32.0140
# 2 42.8697 91.6240 49.5267 -19.7337 11.0741 20.6218
# 3 54.9964 49.5267 138.2016 0.4669 8.8889 9.1664
# 4 -7.4664 -19.7337 0.4669 36.6054 1.8355 1.7072
# 5 10.3072 11.0741 8.8889 1.8355 46.3838 -3.6676
# 6 32.0140 20.6218 9.1664 1.7072 -3.6676 28.8470
#
#
#
# Elastic Compliance Matrix: (Units=1/GPa)
#
#
# Indices 1 2 3 4 5 6 
#
# 1 0.009833 0.000532 -0.003227 0.002970 -0.002664 -0.010781
# 2 0.000532 0.020775 -0.006358 0.012359 -0.005523 -0.014855
# 3 -0.003227 -0.006358 0.010416 -0.004502 0.000827 0.005188
# 4 0.002970 0.012359 -0.004502 0.035534 -0.005219 -0.013467
# 5 -0.002664 -0.005523 0.000827 -0.005219 0.024312 0.010041
# 6 -0.010781 -0.014855 0.005188 -0.013467 0.010041 0.057675
#
#
# Mechanical properties :
#
#
# Convention : Reuss Voigt Hill
#
# Bulk Modulus (GPa) = 43.63443 75.79952 59.71698
# Shear Modulus (GPa) = 27.13123 38.36841 32.74982
#
# Velocity S-wave (km/s) = 3.66575 4.35928 4.02747
# Velocity P-wave (km/s) = 6.28717 7.92970 7.15572
#
# Compressibility (1/GPa) = 0.02291768
#
# Stress axis : x y z
#
# Youngs Moduli (GPa) = 101.70339 48.13522 96.00308
#
# Poissons Ratio (x) = -0.02561 0.30981
# Poissons Ratio (y) = -0.05410 0.61038
# Poissons Ratio (z) = 0.32820 0.30604
#
# Static dielectric constant tensor:
#      x y z
#    x 6.276000 3.056890 2.511390 
#    y 3.056890 9.400910 4.627900 
#    z 2.511390 4.627900 6.961200 
# 
# 
# High freq. dielectric constant tensor:
#      x y z
#    x 1.814160 0.016290 0.004560 
#    y 0.016290 1.773680 -0.001960 
#    z 0.004560 -0.001960 1.789060 
# 
# From -- ./inp_files/203322.got.cif
#   From: 2010.06.25/outbox.cif.g09.slc.cpg/sg2_102_cif.got.tgz:203322.got - 2010.06.27 13:26:56.
