data_PCOD8013557
_publ_section_title
;
Structure prediction by ZEFSAII (Michael W. Deem and Ramdas Pophale) SiO2 
 PCOD8013557
Probable space group: P -1
;
_chemical_formula_sum "Si O2"
_cell_formula_units_Z 16
_cell_length_a 24.662228
_cell_length_b 9.313322
_cell_length_c 8.629124
_cell_angle_alpha 106.522138
_cell_angle_beta 47.131794
_cell_angle_gamma 144.139498
_cell_volume 666.469840
_symmetry_space_group_name_H-M "P -1"
_symmetry_group_IT_number 2
_symmetry_cell_setting 'triclinic'
loop_
_space_group_symop_operation_xyz
x,y,z
-x,-y,-z
loop_
_atom_site_type_symbol
_atom_site_label
_atom_site_fract_x
_atom_site_fract_y
_atom_site_fract_z
Si Si1 0.022007 0.311530 0.842155
Si Si2 0.567957 0.301774 0.697506
Si Si3 0.765995 0.629489 0.106368
Si Si4 0.977419 0.407309 0.272587
Si Si5 0.642475 0.116722 0.544091
Si Si6 0.427883 0.490591 0.754594
Si Si7 0.664479 0.745908 0.820010
Si Si8 0.264785 0.762866 0.950112
O O1 0.985761 0.357702 0.782333
O O2 0.200157 0.584863 0.577861
O O3 0.972858 0.297004 0.095406
O O4 0.935989 0.001184 0.900057
O O5 0.678971 0.478617 0.390634
O O6 0.542692 0.090609 0.752724
O O7 0.666871 0.576788 0.709053
O O8 0.397784 0.063831 0.902101
O O9 0.675077 0.568898 0.144498
O O10 0.782473 0.487111 0.976093
O O11 0.809188 0.097580 0.583127
O O12 0.110129 0.590611 0.192696
O O13 0.661010 0.112012 0.325168
O O14 0.561456 0.824919 0.683854
O O15 0.500000 0.500000 0.500000
O O16 0.331244 0.232072 0.994531
O O17 0.500000 0.500000 0.000000
#
# Coordination Sequence:
#
# PCOD8013557 Si02
#       8
#     2   2   2   2   2   2   2   2
#     4  10  22  37  70 102 137 179 227 275 329 410
#     4  11  21  43  70 102 137 173 231 283 334 401
#     4  11  21  40  69 104 132 184 231 269 337 405
#     4  10  23  42  63 101 141 178 226 280 342 394
#     4  10  21  40  69 103 134 179 228 277 335 401
#     4  12  26  43  70  98 134 180 235 280 336 415
#     4  12  27  44  67 100 139 180 226 286 346 396
#     4  10  21  40  70 101 137 176 227 276 341 405
#
# _framework density 24.007086000000001
#
# number of rings (size 3 to 8) (size 9 to 14) (size 15 to 20)
#    0.000    1.250    3.750    2.250    7.000    2.000 
#    0.000    4.375    0.000    0.000    0.000    0.000 
#    0.000    0.000    0.000    0.000    0.000    0.000 
#
# Total GULP energy -198363.448251 kJ/mol
# GULP energy per Si atom -12397.715516 kJ/mol
# Density = 2.395245 g / cm^3
# Si number density = 24.007086 Si / 1000 Ang^3
#
#
#
# Elastic Constant Matrix: (Units=GPa)
#
#
# Indices 1 2 3 4 5 6 
#
# 1 124.7803 12.2771 34.5383 -4.9751 -11.0781 -4.7494
# 2 12.2771 76.1723 7.5133 -29.4944 5.9108 3.6092
# 3 34.5383 7.5133 84.4453 -20.7234 -2.1410 2.9519
# 4 -4.9751 -29.4944 -20.7234 34.6196 4.3431 3.8581
# 5 -11.0781 5.9108 -2.1410 4.3431 39.2368 -9.6886
# 6 -4.7494 3.6092 2.9519 3.8581 -9.6886 30.5470
#
#
#
# Elastic Compliance Matrix: (Units=1/GPa)
#
#
# Indices 1 2 3 4 5 6 
#
# 1 0.010409 -0.004478 -0.005610 -0.006940 0.005377 0.005272
# 2 -0.004478 0.024991 0.006347 0.026970 -0.010374 -0.010959
# 3 -0.005610 0.006347 0.017783 0.016683 -0.005166 -0.007086
# 4 -0.006940 0.026970 0.016683 0.065183 -0.017154 -0.019551
# 5 0.005377 -0.010374 -0.005166 -0.017154 0.034015 0.015516
# 6 0.005272 -0.010959 -0.007086 -0.019551 0.015516 0.042926
#
#
# Mechanical properties :
#
#
# Convention : Reuss Voigt Hill
#
# Bulk Modulus (GPa) = 21.88206 43.78391 32.83299
# Shear Modulus (GPa) = 22.93339 36.28530 29.60934
#
# Velocity S-wave (km/s) = 3.09411 3.89194 3.51573
# Velocity P-wave (km/s) = 4.67967 6.20273 5.49423
#
# Compressibility (1/GPa) = 0.04569955
#
# Stress axis : x y z
#
# Youngs Moduli (GPa) = 96.07262 40.01444 56.23463
#
# Poissons Ratio (x) = 0.17920 0.31546
# Poissons Ratio (y) = 0.43025 -0.35691
# Poissons Ratio (z) = 0.53894 -0.25396
#
# Static dielectric constant tensor:
#      x y z
#    x 4.696570 -0.102510 0.118560 
#    y -0.102510 4.978380 -0.205110 
#    z 0.118560 -0.205110 4.297460 
# 
# 
# High freq. dielectric constant tensor:
#      x y z
#    x 1.958620 -0.011920 -0.005250 
#    y -0.011920 1.963450 -0.016630 
#    z -0.005250 -0.016630 1.931740 
# 
# From -- ./inp_files/352239.got.cif
#   From: 2010.06.25/outbox.cif.g09.slc.cpg/sg2_177_cif.got.tgz:352239.got - 2010.06.27 13:26:56.
