data_PCOD8013983
_publ_section_title
;
Structure prediction by ZEFSAII (Michael W. Deem and Ramdas Pophale) SiO2 
 PCOD8013983
Probable space group: P -1
;
_chemical_formula_sum "Si O2"
_cell_formula_units_Z 10
_cell_length_a 16.199178
_cell_length_b 15.675922
_cell_length_c 5.691861
_cell_angle_alpha 75.572209
_cell_angle_beta 74.947031
_cell_angle_gamma 16.736130
_cell_volume 401.933931
_symmetry_space_group_name_H-M "P -1"
_symmetry_group_IT_number 2
_symmetry_cell_setting 'triclinic'
loop_
_space_group_symop_operation_xyz
x,y,z
-x,-y,-z
loop_
_atom_site_type_symbol
_atom_site_label
_atom_site_fract_x
_atom_site_fract_y
_atom_site_fract_z
Si Si1 0.819422 0.088992 0.626175
Si Si2 0.260040 0.226341 0.718799
Si Si3 0.711596 0.471429 0.081348
Si Si4 0.268681 0.341839 0.040231
Si Si5 0.391782 0.537202 0.239991
O O1 0.622733 0.225964 0.857370
O O2 0.665781 0.229776 0.389976
O O3 0.830240 0.184681 0.625185
O O4 0.126128 0.737610 0.677813
O O5 0.944392 0.493878 0.711966
O O6 0.500000 0.000000 0.500000
O O7 0.401949 0.010900 0.926658
O O8 0.190002 0.384211 0.808087
O O9 0.768551 0.518047 0.019816
O O10 0.789711 0.359484 0.836386
O O11 0.500000 0.500000 0.000000
#
# Coordination Sequence:
#
# PCOD8013983 Si02
#       5
#     2   2   2   2   2
#     4  10  22  38  60  87 121 165 207 250 313 373
#     4  10  21  41  64  88 123 165 203 255 320 382
#     4  11  22  39  60  90 124 158 207 265 306 364
#     4  10  22  39  62  92 124 160 210 259 312 378
#     4   9  21  39  60  86 122 164 205 253 310 368
#
# _framework density 24.879711
#
# number of rings (size 3 to 8) (size 9 to 14) (size 15 to 20)
#    0.000    2.000    0.000    2.400    0.000   12.000 
#    0.000    4.000    0.000    0.000    0.000    0.000 
#    0.000    0.000    0.000    0.000    0.000    0.000 
#
# Total GULP energy -123916.818790 kJ/mol
# GULP energy per Si atom -12391.681879 kJ/mol
# Density = 2.482308 g / cm^3
# Si number density = 24.879711 Si / 1000 Ang^3
#
#
#
# Elastic Constant Matrix: (Units=GPa)
#
#
# Indices 1 2 3 4 5 6 
#
# 1 213.9857 61.1101 53.2289 -0.0044 -5.4533 21.3626
# 2 61.1101 127.9697 25.0196 1.6734 5.3431 -0.9387
# 3 53.2289 25.0196 70.8507 8.0668 14.1266 10.8668
# 4 -0.0044 1.6734 8.0668 50.9716 -8.3583 2.6364
# 5 -5.4533 5.3431 14.1266 -8.3583 36.5388 -1.3598
# 6 21.3626 -0.9387 10.8668 2.6364 -1.3598 31.9102
#
#
#
# Elastic Compliance Matrix: (Units=1/GPa)
#
#
# Indices 1 2 3 4 5 6 
#
# 1 0.006996 -0.002605 -0.004732 0.001570 0.003497 -0.003129
# 2 -0.002605 0.009419 -0.001468 -0.000403 -0.001197 0.002503
# 3 -0.004732 -0.001468 0.021364 -0.004756 -0.009995 -0.004184
# 4 0.001570 -0.000403 -0.004756 0.021586 0.007035 -0.000927
# 5 0.003497 -0.001197 -0.009995 0.007035 0.033609 0.001878
# 6 -0.003129 0.002503 -0.004184 -0.000927 0.001878 0.035088
#
#
# Mechanical properties :
#
#
# Convention : Reuss Voigt Hill
#
# Bulk Modulus (GPa) = 49.58423 76.83591 63.21007
# Shear Modulus (GPa) = 32.80946 42.11396 37.46171
#
# Velocity S-wave (km/s) = 3.63536 4.11871 3.88456
# Velocity P-wave (km/s) = 6.13139 7.31904 6.75138
#
# Compressibility (1/GPa) = 0.02016770
#
# Stress axis : x y z
#
# Youngs Moduli (GPa) = 142.94216 106.16745 46.80828
#
# Poissons Ratio (x) = 0.27658 0.22150
# Poissons Ratio (y) = 0.37238 0.06873
# Poissons Ratio (z) = 0.67641 0.15589
#
# Static dielectric constant tensor:
#      x y z
#    x 4.766050 0.158510 0.754600 
#    y 0.158510 5.230910 0.518410 
#    z 0.754600 0.518410 5.430290 
# 
# 
# High freq. dielectric constant tensor:
#      x y z
#    x 1.969810 -0.012330 -0.001560 
#    y -0.012330 2.017970 0.012460 
#    z -0.001560 0.012460 2.007750 
# 
# From -- ./inp_files/2522.got.cif
#   From: 2010.06.25/outbox.cif.g09.slc.cpg/sg2_2_cif.got.tgz:2522.got - 2010.06.27 13:26:56.
