data_PCOD8013791
_publ_section_title
;
Structure prediction by ZEFSAII (Michael W. Deem and Ramdas Pophale) SiO2 
 PCOD8013791
Probable space group: P -1
;
_chemical_formula_sum "Si O2"
_cell_formula_units_Z 16
_cell_length_a 21.671524
_cell_length_b 13.923101
_cell_length_c 9.446350
_cell_angle_alpha 29.951314
_cell_angle_beta 127.258622
_cell_angle_gamma 146.526435
_cell_volume 710.077896
_symmetry_space_group_name_H-M "P -1"
_symmetry_group_IT_number 2
_symmetry_cell_setting 'triclinic'
loop_
_space_group_symop_operation_xyz
x,y,z
-x,-y,-z
loop_
_atom_site_type_symbol
_atom_site_label
_atom_site_fract_x
_atom_site_fract_y
_atom_site_fract_z
Si Si1 0.719814 0.488893 0.194135
Si Si2 0.825459 0.990228 0.909706
Si Si3 0.343762 0.901460 0.148465
Si Si4 0.771050 0.616564 0.562622
Si Si5 0.961033 0.694694 0.828519
Si Si6 0.376673 0.530496 0.188502
Si Si7 0.815792 0.115119 0.179448
Si Si8 0.898523 0.539779 0.262273
O O1 0.654011 0.207627 0.562427
O O2 0.845419 0.638546 0.117329
O O3 0.629545 0.354745 0.108902
O O4 0.749123 0.741656 0.995581
O O5 0.807536 0.186240 0.629274
O O6 0.969539 0.226806 0.777492
O O7 0.783263 0.827197 0.211254
O O8 0.298139 0.683350 0.234789
O O9 0.246840 0.892328 0.030001
O O10 0.481213 0.244359 0.870279
O O11 0.913041 0.811284 0.551106
O O12 0.682290 0.473373 0.755387
O O13 0.109150 0.929026 0.721606
O O14 0.902121 0.415816 0.006730
O O15 0.909572 0.563490 0.079377
O O16 0.296295 0.180946 0.500502
#
# Coordination Sequence:
#
# PCOD8013791 Si02
#       8
#     2   2   2   2   2   2   2   2
#     4  11  24  41  63  92 127 167 211 259 315 368
#     4  10  24  39  61  94 132 164 203 259 318 384
#     4  10  24  43  61  88 126 169 208 258 309 371
#     4  10  22  41  64  91 124 161 209 257 316 370
#     4  10  21  41  61  97 127 160 202 263 318 378
#     4  12  22  40  66  90 122 166 215 256 309 371
#     4  10  23  38  65  92 129 159 207 263 317 369
#     4  11  22  39  64  92 131 166 208 250 323 383
#
# _framework density 22.532738999999999
#
# number of rings (size 3 to 8) (size 9 to 14) (size 15 to 20)
#    0.000    1.500    1.250    3.000    7.000    1.000 
#    0.000    0.000    0.000    3.000    0.000    0.000 
#    0.000    0.000    0.000    0.000    0.000    0.000 
#
# Total GULP energy -198407.886659 kJ/mol
# GULP energy per Si atom -12400.492916 kJ/mol
# Density = 2.248145 g / cm^3
# Si number density = 22.532739 Si / 1000 Ang^3
#
#
#
# Elastic Constant Matrix: (Units=GPa)
#
#
# Indices 1 2 3 4 5 6 
#
# 1 84.8004 43.2224 31.3507 4.7629 0.5954 -6.6515
# 2 43.2224 100.9478 47.6099 8.6395 -11.0514 7.5008
# 3 31.3507 47.6099 118.4243 15.7773 -1.3504 -0.2053
# 4 4.7629 8.6395 15.7773 31.9658 0.0887 -13.5924
# 5 0.5954 -11.0514 -1.3504 0.0887 33.7803 3.2332
# 6 -6.6515 7.5008 -0.2053 -13.5924 3.2332 19.7089
#
#
#
# Elastic Compliance Matrix: (Units=1/GPa)
#
#
# Indices 1 2 3 4 5 6 
#
# 1 0.017991 -0.008980 -0.002159 0.007340 -0.004827 0.015321
# 2 -0.008980 0.018514 -0.003748 -0.009457 0.007805 -0.017918
# 3 -0.002159 -0.003748 0.011235 -0.005421 -0.000452 -0.002850
# 4 0.007340 -0.009457 -0.005421 0.054550 -0.007884 0.044934
# 5 -0.004827 0.007805 -0.000452 -0.007884 0.033735 -0.015575
# 6 0.015321 -0.017918 -0.002850 0.044934 -0.015575 0.096243
#
#
# Mechanical properties :
#
#
# Convention : Reuss Voigt Hill
#
# Bulk Modulus (GPa) = 55.66166 60.94873 58.30520
# Shear Modulus (GPa) = 18.65470 29.22363 23.93917
#
# Velocity S-wave (km/s) = 2.88043 3.60521 3.26301
# Velocity P-wave (km/s) = 5.98488 6.66617 6.33469
#
# Compressibility (1/GPa) = 0.01796569
#
# Stress axis : x y z
#
# Youngs Moduli (GPa) = 55.58356 54.01362 89.01008
#
# Poissons Ratio (x) = 0.48504 0.19217
# Poissons Ratio (y) = 0.49913 0.33361
# Poissons Ratio (z) = 0.12000 0.20244
#
# Static dielectric constant tensor:
#      x y z
#    x 4.125130 -0.024670 0.266600 
#    y -0.024670 4.165410 0.040020 
#    z 0.266600 0.040020 4.175500 
# 
# 
# High freq. dielectric constant tensor:
#      x y z
#    x 1.888660 -0.015250 0.015350 
#    y -0.015250 1.897960 -0.000390 
#    z 0.015350 -0.000390 1.898100 
# 
# From -- ./inp_files/354491.got.cif
#   From: 2010.06.25/outbox.cif.g09.slc.cpg/sg2_178_cif.got.tgz:354491.got - 2010.06.27 13:26:56.
