data_PCOD8013253
_publ_section_title
;
Structure prediction by ZEFSAII (Michael W. Deem and Ramdas Pophale) SiO2 
 PCOD8013253
Probable space group: P -1
;
_chemical_formula_sum "Si O2"
_cell_formula_units_Z 16
_cell_length_a 9.451435
_cell_length_b 11.709313
_cell_length_c 13.649751
_cell_angle_alpha 109.969767
_cell_angle_beta 69.376642
_cell_angle_gamma 51.754099
_cell_volume 719.980086
_symmetry_space_group_name_H-M "P -1"
_symmetry_group_IT_number 2
_symmetry_cell_setting 'triclinic'
loop_
_space_group_symop_operation_xyz
x,y,z
-x,-y,-z
loop_
_atom_site_type_symbol
_atom_site_label
_atom_site_fract_x
_atom_site_fract_y
_atom_site_fract_z
Si Si1 0.097455 0.619936 0.976898
Si Si2 0.473587 0.192805 0.137976
Si Si3 0.526438 0.408449 0.098935
Si Si4 0.129890 0.867154 0.252684
Si Si5 0.474897 0.943006 0.699880
Si Si6 0.488763 0.761419 0.475714
Si Si7 0.412157 0.869626 0.300252
Si Si8 0.066325 0.289219 0.166808
O O1 0.271383 0.626017 0.913545
O O2 0.306927 0.374098 0.890820
O O3 0.935745 0.679673 0.938759
O O4 0.855352 0.809833 0.170539
O O5 0.458853 0.347995 0.174870
O O6 0.489416 0.159325 0.240451
O O7 0.198232 0.314051 0.198899
O O8 0.742679 0.960399 0.942844
O O9 0.232068 0.670263 0.217873
O O10 0.676178 0.243806 0.921699
O O11 0.158940 0.958128 0.349541
O O12 0.804109 0.090973 0.368800
O O13 0.595687 0.793903 0.532200
O O14 0.638559 0.959685 0.674199
O O15 0.440786 0.844783 0.403018
O O16 0.740816 0.491602 0.337645
#
# Coordination Sequence:
#
# PCOD8013253 Si02
#       8
#     2   2   2   2   2   2   2   2
#     4   9  19  39  61  91 120 160 210 252 299 357
#     4  10  23  42  65  88 125 164 210 248 306 370
#     4  10  21  40  66  94 122 162 206 258 299 364
#     4  10  22  39  66  94 122 160 208 254 311 359
#     4  11  22  37  62  94 123 164 204 252 308 370
#     4  11  22  43  60  92 130 158 208 255 308 362
#     4  10  22  37  63  90 128 160 203 256 309 360
#     4   9  22  40  63  89 121 167 199 253 303 367
#
# _framework density 22.222835
#
# number of rings (size 3 to 8) (size 9 to 14) (size 15 to 20)
#    0.000    2.000    1.250    1.125    5.250    5.500 
#    0.000    0.625    5.500    0.000    0.000    0.000 
#    0.000    0.000    0.000    0.000    0.000    0.000 
#
# Total GULP energy -198304.474738 kJ/mol
# GULP energy per Si atom -12394.029671 kJ/mol
# Density = 2.217226 g / cm^3
# Si number density = 22.222835 Si / 1000 Ang^3
#
#
#
# Elastic Constant Matrix: (Units=GPa)
#
#
# Indices 1 2 3 4 5 6 
#
# 1 98.1563 49.9829 35.3766 2.0605 10.7446 -3.8776
# 2 49.9829 87.1535 22.2997 -4.3231 7.7710 9.5756
# 3 35.3766 22.2997 97.9708 10.4431 1.7407 -10.5831
# 4 2.0605 -4.3231 10.4431 27.4162 -13.5838 -3.1629
# 5 10.7446 7.7710 1.7407 -13.5838 32.7102 2.6101
# 6 -3.8776 9.5756 -10.5831 -3.1629 2.6101 32.5800
#
#
#
# Elastic Compliance Matrix: (Units=1/GPa)
#
#
# Indices 1 2 3 4 5 6 
#
# 1 0.016562 -0.008830 -0.003125 -0.003458 -0.004900 0.003608
# 2 -0.008830 0.017908 -0.002047 0.003959 0.000931 -0.006669
# 3 -0.003125 -0.002047 0.012838 -0.005367 -0.001719 0.004017
# 4 -0.003458 0.003959 -0.005367 0.049894 0.021215 -0.000174
# 5 -0.004900 0.000931 -0.001719 0.021215 0.041073 -0.002646
# 6 0.003608 -0.006669 0.004017 -0.000174 -0.002646 0.034583
#
#
# Mechanical properties :
#
#
# Convention : Reuss Voigt Hill
#
# Bulk Modulus (GPa) = 51.80172 55.39988 53.60080
# Shear Modulus (GPa) = 24.12015 30.24940 27.18477
#
# Velocity S-wave (km/s) = 3.29808 3.69343 3.50134
# Velocity P-wave (km/s) = 6.15336 6.57053 6.36537
#
# Compressibility (1/GPa) = 0.01930438
#
# Stress axis : x y z
#
# Youngs Moduli (GPa) = 60.37928 55.84196 77.89412
#
# Poissons Ratio (x) = 0.49307 0.24343
# Poissons Ratio (y) = 0.53313 0.15942
# Poissons Ratio (z) = 0.18870 0.11429
#
# Static dielectric constant tensor:
#      x y z
#    x 3.993670 -0.237270 0.081590 
#    y -0.237270 3.656610 0.248720 
#    z 0.081590 0.248720 4.138500 
# 
# 
# High freq. dielectric constant tensor:
#      x y z
#    x 1.878170 -0.019120 0.011060 
#    y -0.019120 1.842150 0.012110 
#    z 0.011060 0.012110 1.875670 
# 
# From -- ./inp_files/446913.got.cif
#   From: 2010.06.25/outbox.cif.g09.slc.cpg/sg2_224_cif.got.tgz:446913.got - 2010.06.27 13:26:56.
