data_PCOD8013377
_publ_section_title
;
Structure prediction by ZEFSAII (Michael W. Deem and Ramdas Pophale) SiO2 
 PCOD8013377
Probable space group: P -1
;
_chemical_formula_sum "Si O2"
_cell_formula_units_Z 16
_cell_length_a 12.466223
_cell_length_b 8.805822
_cell_length_c 20.888519
_cell_angle_alpha 136.852756
_cell_angle_beta 38.051369
_cell_angle_gamma 107.667282
_cell_volume 740.250939
_symmetry_space_group_name_H-M "P -1"
_symmetry_group_IT_number 2
_symmetry_cell_setting 'triclinic'
loop_
_space_group_symop_operation_xyz
x,y,z
-x,-y,-z
loop_
_atom_site_type_symbol
_atom_site_label
_atom_site_fract_x
_atom_site_fract_y
_atom_site_fract_z
Si Si1 0.048078 0.717530 0.033690
Si Si2 0.589357 0.444579 0.280656
Si Si3 0.250173 0.672732 0.695128
Si Si4 0.938974 0.489683 0.372397
Si Si5 0.431339 0.216981 0.043920
Si Si6 0.937982 0.063690 0.316581
Si Si7 0.345417 0.568828 0.032868
Si Si8 0.487928 0.017862 0.203748
O O1 0.038419 0.825238 0.141426
O O2 0.297118 0.553371 0.836017
O O3 0.874684 0.987790 0.150691
O O4 0.000000 0.500000 0.000000
O O5 0.730426 0.417797 0.267702
O O6 0.600757 0.168015 0.196600
O O7 0.331865 0.745443 0.491292
O O8 0.500000 0.500000 0.500000
O O9 0.130966 0.578714 0.680989
O O10 0.741077 0.804458 0.591515
O O11 0.157482 0.456765 0.241067
O O12 0.997174 0.267808 0.333332
O O13 0.531049 0.380202 0.063787
O O14 0.500000 0.000000 0.000000
O O15 0.549486 0.023782 0.864734
O O16 0.080501 0.870009 0.253229
O O17 0.350130 0.299910 0.935977
O O18 0.500000 0.500000 0.000000
#
# Coordination Sequence:
#
# PCOD8013377 Si02
#       8
#     2   2   2   2   2   2   2   2
#     4  11  25  40  64  99 134 173 216 262 325 395
#     4  11  23  44  69  96 128 180 213 262 333 388
#     4  11  20  43  67  97 138 167 217 270 315 391
#     4  10  21  40  67  94 127 173 214 261 321 394
#     4  11  22  40  65  91 131 171 211 271 331 372
#     4  10  21  43  64  91 134 163 220 271 317 384
#     4  10  23  43  63  95 130 163 217 280 321 373
#     4  10  22  40  67  93 123 166 223 257 325 386
#
# _framework density 21.614294000000001
#
# number of rings (size 3 to 8) (size 9 to 14) (size 15 to 20)
#    0.000    1.500    5.000    1.875    1.750    1.500 
#    4.500    2.500    0.000    0.000    0.000    0.000 
#    0.000    0.000    0.000    0.000    0.000    0.000 
#
# Total GULP energy -198238.479531 kJ/mol
# GULP energy per Si atom -12389.904971 kJ/mol
# Density = 2.156510 g / cm^3
# Si number density = 21.614294 Si / 1000 Ang^3
#
#
#
# Elastic Constant Matrix: (Units=GPa)
#
#
# Indices 1 2 3 4 5 6 
#
# 1 77.8361 35.6636 50.2670 5.4803 -17.1591 -12.2494
# 2 35.6636 120.7109 62.1211 1.6652 -7.6961 3.2948
# 3 50.2670 62.1211 134.8836 -2.0504 -9.1468 -5.9582
# 4 5.4803 1.6652 -2.0504 36.8709 -6.3685 -11.1697
# 5 -17.1591 -7.6961 -9.1468 -6.3685 37.7261 3.2503
# 6 -12.2494 3.2948 -5.9582 -11.1697 3.2503 27.6392
#
#
#
# Elastic Compliance Matrix: (Units=1/GPa)
#
#
# Indices 1 2 3 4 5 6 
#
# 1 0.020376 -0.003015 -0.005412 0.000252 0.006734 0.007533
# 2 -0.003015 0.011599 -0.004433 -0.001633 0.000018 -0.004336
# 3 -0.005412 -0.004433 0.011545 0.002035 -0.000351 0.001483
# 4 0.000252 -0.001633 0.002035 0.032044 0.004550 0.013160
# 5 0.006734 0.000018 -0.000351 0.004550 0.030153 0.001200
# 6 0.007533 -0.004336 0.001483 0.013160 0.001200 0.045533
#
#
# Mechanical properties :
#
#
# Convention : Reuss Voigt Hill
#
# Bulk Modulus (GPa) = 56.18050 69.94821 63.06435
# Shear Modulus (GPa) = 27.33695 32.80583 30.07139
#
# Velocity S-wave (km/s) = 3.56021 3.90010 3.73402
# Velocity P-wave (km/s) = 6.55354 7.26039 6.91600
#
# Compressibility (1/GPa) = 0.01779977
#
# Stress axis : x y z
#
# Youngs Moduli (GPa) = 49.07697 86.21783 86.61693
#
# Poissons Ratio (x) = 0.25992 0.46876
# Poissons Ratio (y) = 0.14795 0.38401
# Poissons Ratio (z) = 0.26560 0.38224
#
# Static dielectric constant tensor:
#      x y z
#    x 3.141980 -0.230400 -0.091690 
#    y -0.230400 4.594430 0.044990 
#    z -0.091690 0.044990 4.265880 
# 
# 
# High freq. dielectric constant tensor:
#      x y z
#    x 1.843300 -0.002880 -0.011160 
#    y -0.002880 1.845200 0.001600 
#    z -0.011160 0.001600 1.851600 
# 
# From -- ./inp_files/594245.got.cif
#   From: 2010.06.25/outbox.cif.g09.slc.cpg/sg2_298_cif.got.tgz:594245.got - 2010.06.27 13:26:56.
