data_PCOD8013402
_publ_section_title
;
Structure prediction by ZEFSAII (Michael W. Deem and Ramdas Pophale) SiO2 
 PCOD8013402
Probable space group: P -1
;
_chemical_formula_sum "Si O2"
_cell_formula_units_Z 16
_cell_length_a 11.618322
_cell_length_b 9.422582
_cell_length_c 26.908809
_cell_angle_alpha 29.894635
_cell_angle_beta 32.000838
_cell_angle_gamma 42.357508
_cell_volume 777.978521
_symmetry_space_group_name_H-M "P -1"
_symmetry_group_IT_number 2
_symmetry_cell_setting 'triclinic'
loop_
_space_group_symop_operation_xyz
x,y,z
-x,-y,-z
loop_
_atom_site_type_symbol
_atom_site_label
_atom_site_fract_x
_atom_site_fract_y
_atom_site_fract_z
Si Si1 0.185602 0.976641 0.498915
Si Si2 0.953833 0.617366 0.230959
Si Si3 0.404200 0.773402 0.977378
Si Si4 0.760911 0.297112 0.538657
Si Si5 0.553982 0.340045 0.285574
Si Si6 0.620156 0.125729 0.870654
Si Si7 0.881958 0.877457 0.280220
Si Si8 0.387231 0.274183 0.760096
O O1 0.063574 0.708895 0.647540
O O2 0.295969 0.892347 0.431367
O O3 0.374865 0.093181 0.429272
O O4 0.009346 0.229573 0.482321
O O5 0.865834 0.827862 0.242056
O O6 0.820902 0.655160 0.218001
O O7 0.203715 0.689127 0.110540
O O8 0.500000 0.500000 0.000000
O O9 0.591610 0.910869 0.900455
O O10 0.327160 0.989835 0.897395
O O11 0.740070 0.633637 0.432839
O O12 0.599636 0.220258 0.665287
O O13 0.487683 0.569703 0.197728
O O14 0.570840 0.471908 0.293898
O O15 0.784037 0.190180 0.232798
O O16 0.873207 0.151080 0.781295
O O17 0.500000 0.000000 0.000000
#
# Coordination Sequence:
#
# PCOD8013402 Si02
#       8
#     2   2   2   2   2   2   2   2
#     4  10  21  40  69  97 125 169 221 265 317 377
#     4  11  23  42  65  95 129 172 219 262 317 385
#     4  11  25  44  65  92 130 176 211 262 329 386
#     4  10  21  40  67  96 130 169 214 267 320 382
#     4  11  25  42  65 102 131 168 213 267 331 378
#     4  11  24  46  67  96 131 166 223 268 315 384
#     4  11  23  43  70  96 128 171 219 271 316 376
#     4  11  25  42  61  98 135 167 211 265 326 393
#
# _framework density 20.566120000000002
#
# number of rings (size 3 to 8) (size 9 to 14) (size 15 to 20)
#    0.000    1.250    2.500    2.625    1.750    7.000 
#    0.000    0.000    0.000    0.000    0.000    0.000 
#    0.000    0.000    0.000    0.000    0.000    0.000 
#
# Total GULP energy -198458.149626 kJ/mol
# GULP energy per Si atom -12403.634352 kJ/mol
# Density = 2.051931 g / cm^3
# Si number density = 20.566120 Si / 1000 Ang^3
#
#
#
# Elastic Constant Matrix: (Units=GPa)
#
#
# Indices 1 2 3 4 5 6 
#
# 1 113.7978 36.2894 25.0180 -11.4464 -3.4752 1.7110
# 2 36.2894 125.9301 38.7837 -14.5111 1.7305 0.8956
# 3 25.0180 38.7837 98.4728 1.4185 4.8035 10.9560
# 4 -11.4464 -14.5111 1.4185 22.3370 2.6346 -0.2130
# 5 -3.4752 1.7305 4.8035 2.6346 34.0347 1.3327
# 6 1.7110 0.8956 10.9560 -0.2130 1.3327 27.5220
#
#
#
# Elastic Compliance Matrix: (Units=1/GPa)
#
#
# Indices 1 2 3 4 5 6 
#
# 1 0.010267 -0.001897 -0.001995 0.004027 0.001107 0.000195
# 2 -0.001897 0.010362 -0.003806 0.006098 -0.000709 0.001377
# 3 -0.001995 -0.003806 0.012822 -0.004201 -0.001306 -0.004826
# 4 0.004027 0.006098 -0.004201 0.051474 -0.003360 0.001785
# 5 0.001107 -0.000709 -0.001306 -0.003360 0.030015 -0.001005
# 6 0.000195 0.001377 -0.004826 0.001785 -0.001005 0.038261
#
#
# Mechanical properties :
#
#
# Convention : Reuss Voigt Hill
#
# Bulk Modulus (GPa) = 55.38359 59.82032 57.60196
# Shear Modulus (GPa) = 28.63441 32.65270 30.64355
#
# Velocity S-wave (km/s) = 3.73541 3.98891 3.86424
# Velocity P-wave (km/s) = 6.75222 7.09684 6.92667
#
# Compressibility (1/GPa) = 0.01805589
#
# Stress axis : x y z
#
# Youngs Moduli (GPa) = 97.40013 96.50397 77.99108
#
# Poissons Ratio (x) = 0.18304 0.15560
# Poissons Ratio (y) = 0.18474 0.29682
# Poissons Ratio (z) = 0.19432 0.36727
#
# Static dielectric constant tensor:
#      x y z
#    x 3.986580 -0.046200 -0.015770 
#    y -0.046200 3.765170 -0.042830 
#    z -0.015770 -0.042830 3.496340 
# 
# 
# High freq. dielectric constant tensor:
#      x y z
#    x 1.815170 -0.000400 -0.002120 
#    y -0.000400 1.806770 -0.006150 
#    z -0.002120 -0.006150 1.809820 
# 
# From -- ./inp_files/272320.got.cif
#   From: 2010.06.25/outbox.cif.g09.slc.cpg/sg2_137_cif.got.tgz:272320.got - 2010.06.27 13:26:56.
