data_PCOD8013644
_publ_section_title
;
Structure prediction by ZEFSAII (Michael W. Deem and Ramdas Pophale) SiO2 
 PCOD8013644
Probable space group: P -1
;
_chemical_formula_sum "Si O2"
_cell_formula_units_Z 16
_cell_length_a 21.756592
_cell_length_b 8.866893
_cell_length_c 9.047699
_cell_angle_alpha 119.741053
_cell_angle_beta 61.077813
_cell_angle_gamma 149.317679
_cell_volume 766.906707
_symmetry_space_group_name_H-M "P -1"
_symmetry_group_IT_number 2
_symmetry_cell_setting 'triclinic'
loop_
_space_group_symop_operation_xyz
x,y,z
-x,-y,-z
loop_
_atom_site_type_symbol
_atom_site_label
_atom_site_fract_x
_atom_site_fract_y
_atom_site_fract_z
Si Si1 0.473192 0.333540 0.808162
Si Si2 0.065799 0.277587 0.152192
Si Si3 0.009579 0.545909 0.837707
Si Si4 0.322489 0.635450 0.069224
Si Si5 0.465952 0.950200 0.766448
Si Si6 0.287089 0.173385 0.794837
Si Si7 0.066843 0.800385 0.496104
Si Si8 0.349813 0.377848 0.504890
O O1 0.340084 0.123677 0.806130
O O2 0.573613 0.575533 0.682238
O O3 0.474872 0.134292 0.741623
O O4 0.500000 0.500000 0.000000
O O5 0.196124 0.479208 0.155073
O O6 0.075875 0.470132 0.131195
O O7 0.987567 0.144109 0.328345
O O8 0.000000 0.000000 0.000000
O O9 0.968023 0.282436 0.678024
O O10 0.144925 0.865272 0.785176
O O11 0.000000 0.500000 0.000000
O O12 0.401523 0.839049 0.222511
O O13 0.384570 0.834650 0.946402
O O14 0.309797 0.402201 0.960045
O O15 0.405938 0.683204 0.604083
O O16 0.356106 0.300402 0.619736
O O17 0.000000 0.500000 0.500000
O O18 0.211036 0.101944 0.481689
#
# Coordination Sequence:
#
# PCOD8013644 Si02
#       8
#     2   2   2   2   2   2   2   2
#     4  12  26  40  69 101 134 175 219 280 341 382
#     4  11  20  41  72  94 128 183 220 266 338 399
#     4  11  25  42  67 100 135 168 226 286 329 388
#     4  10  21  40  70  94 138 175 221 269 324 407
#     4  10  23  43  63 103 135 175 221 271 335 393
#     4  11  22  45  66  98 135 177 227 268 333 404
#     4  10  22  44  68  97 129 173 228 270 331 403
#     4  11  23  46  69  92 139 176 222 280 329 411
#
# _framework density 20.863033000000001
#
# number of rings (size 3 to 8) (size 9 to 14) (size 15 to 20)
#    0.000    1.250    5.000    1.500    3.500    2.000 
#    0.000    0.625    0.000    0.000    0.000    0.000 
#    0.000    0.000    0.000    0.000    0.000    0.000 
#
# Total GULP energy -198379.516775 kJ/mol
# GULP energy per Si atom -12398.719798 kJ/mol
# Density = 2.081555 g / cm^3
# Si number density = 20.863033 Si / 1000 Ang^3
#
#
#
# Elastic Constant Matrix: (Units=GPa)
#
#
# Indices 1 2 3 4 5 6 
#
# 1 107.0542 43.2905 42.8927 -8.1085 4.0110 15.6730
# 2 43.2905 109.7572 44.3864 18.6077 -1.5618 24.3731
# 3 42.8927 44.3864 150.4313 13.6164 5.9593 4.6679
# 4 -8.1085 18.6077 13.6164 32.1004 8.6557 2.0909
# 5 4.0110 -1.5618 5.9593 8.6557 23.5117 -5.8483
# 6 15.6730 24.3731 4.6679 2.0909 -5.8483 35.2481
#
#
#
# Elastic Compliance Matrix: (Units=1/GPa)
#
#
# Indices 1 2 3 4 5 6 
#
# 1 0.014310 -0.005338 -0.003026 0.010065 -0.006725 -0.003984
# 2 -0.005338 0.015287 -0.002047 -0.010138 0.004543 -0.006571
# 3 -0.003026 -0.002047 0.008352 -0.003213 -0.000099 0.001829
# 4 0.010065 -0.010138 -0.003213 0.046359 -0.019391 -0.003007
# 5 -0.006725 0.004543 -0.000099 -0.019391 0.053609 0.009907
# 6 -0.003984 -0.006571 0.001829 -0.003007 0.009907 0.036265
#
#
# Mechanical properties :
#
#
# Convention : Reuss Voigt Hill
#
# Bulk Modulus (GPa) = 58.38704 69.82020 64.10362
# Shear Modulus (GPa) = 24.91124 33.95023 29.43073
#
# Velocity S-wave (km/s) = 3.45923 4.03835 3.75996
# Velocity P-wave (km/s) = 6.63338 7.43525 7.04573
#
# Compressibility (1/GPa) = 0.01712709
#
# Stress axis : x y z
#
# Youngs Moduli (GPa) = 69.88333 65.41674 119.72581
#
# Poissons Ratio (x) = 0.34916 0.36232
# Poissons Ratio (y) = 0.37301 0.24508
# Poissons Ratio (z) = 0.21148 0.13391
#
# Static dielectric constant tensor:
#      x y z
#    x 3.731770 0.047540 0.183820 
#    y 0.047540 3.830550 0.243230 
#    z 0.183820 0.243230 3.727980 
# 
# 
# High freq. dielectric constant tensor:
#      x y z
#    x 1.804000 0.015770 0.007200 
#    y 0.015770 1.819300 0.007260 
#    z 0.007200 0.007260 1.830970 
# 
# From -- ./inp_files/178733.got.cif
#   From: 2010.06.25/outbox.cif.g09.slc.cpg/sg2_90_cif.got.tgz:178733.got - 2010.06.27 13:26:56.
