data_PCOD8013776
_publ_section_title
;
Structure prediction by ZEFSAII (Michael W. Deem and Ramdas Pophale) SiO2 
 PCOD8013776
Probable space group: P -1
;
_chemical_formula_sum "Si O2"
_cell_formula_units_Z 14
_cell_length_a 19.359522
_cell_length_b 6.743759
_cell_length_c 8.924952
_cell_angle_alpha 121.383979
_cell_angle_beta 39.739871
_cell_angle_gamma 119.668642
_cell_volume 626.322749
_symmetry_space_group_name_H-M "P -1"
_symmetry_group_IT_number 2
_symmetry_cell_setting 'triclinic'
loop_
_space_group_symop_operation_xyz
x,y,z
-x,-y,-z
loop_
_atom_site_type_symbol
_atom_site_label
_atom_site_fract_x
_atom_site_fract_y
_atom_site_fract_z
Si Si1 0.348315 0.444381 0.849610
Si Si2 0.321752 0.313245 0.506100
Si Si3 0.365621 0.999598 0.053998
Si Si4 0.017751 0.700554 0.246843
Si Si5 0.066376 0.232556 0.912829
Si Si6 0.183102 0.138588 0.208676
Si Si7 0.517200 0.344060 0.770114
O O1 0.366164 0.354113 0.617122
O O2 0.450951 0.403973 0.759431
O O3 0.335770 0.718830 0.991117
O O4 0.238479 0.284364 0.032531
O O5 0.193491 0.221201 0.682665
O O6 0.356335 0.568538 0.460686
O O7 0.378767 0.111492 0.245474
O O8 0.269835 0.125596 0.191683
O O9 0.475704 0.076947 0.794825
O O10 0.981590 0.728729 0.151134
O O11 0.918343 0.734714 0.531812
O O12 0.132727 0.872650 0.145897
O O13 0.046778 0.445872 0.135930
O O14 0.000000 0.000000 0.000000
O O15 0.500000 0.500000 0.000000
#
# Coordination Sequence:
#
# PCOD8013776 Si02
#       7
#     2   2   2   2   2   2   2
#     4  11  23  40  66  96 122 165 210 257 318 374
#     4  11  22  41  63  92 128 160 211 263 306 376
#     4  10  22  42  65  93 127 164 208 259 315 375
#     4  10  22  39  62  85 128 169 206 260 311 366
#     4  11  23  39  60  96 123 162 216 256 309 373
#     4  10  21  41  61  91 126 168 210 255 314 372
#     4   9  22  43  64  91 129 160 207 261 313 382
#
# _framework density 22.352692999999999
#
# number of rings (size 3 to 8) (size 9 to 14) (size 15 to 20)
#    0.000    1.714    1.429    2.143    2.000    2.857 
#    0.000   15.000    0.000    0.000    0.000    0.000 
#    0.000    0.000    0.000    0.000    0.000    0.000 
#
# Total GULP energy -173472.256249 kJ/mol
# GULP energy per Si atom -12390.875446 kJ/mol
# Density = 2.230182 g / cm^3
# Si number density = 22.352693 Si / 1000 Ang^3
#
#
#
# Elastic Constant Matrix: (Units=GPa)
#
#
# Indices 1 2 3 4 5 6 
#
# 1 116.0614 24.3034 -6.9783 3.0419 22.7439 22.2644
# 2 24.3034 174.8326 84.2629 -20.0835 5.7215 13.5960
# 3 -6.9783 84.2629 131.2298 -27.4557 21.1518 1.5921
# 4 3.0419 -20.0835 -27.4557 47.3596 9.8509 -2.6825
# 5 22.7439 5.7215 21.1518 9.8509 36.2971 -4.1183
# 6 22.2644 13.5960 1.5921 -2.6825 -4.1183 32.7485
#
#
#
# Elastic Compliance Matrix: (Units=1/GPa)
#
#
# Indices 1 2 3 4 5 6 
#
# 1 0.014208 -0.003172 0.005887 0.003479 -0.013923 -0.010095
# 2 -0.003172 0.009428 -0.007221 -0.001052 0.004895 -0.000877
# 3 0.005887 -0.007221 0.017079 0.009499 -0.015421 -0.002996
# 4 0.003479 -0.001052 0.009499 0.029100 -0.015672 -0.001977
# 5 -0.013923 0.004895 -0.015421 -0.015672 0.050242 0.013217
# 6 -0.010095 -0.000877 -0.002996 -0.001977 0.013217 0.039409
#
#
# Mechanical properties :
#
#
# Convention : Reuss Voigt Hill
#
# Bulk Modulus (GPa) = 31.54312 69.47776 50.51044
# Shear Modulus (GPa) = 27.92581 44.65010 36.28796
#
# Velocity S-wave (km/s) = 3.53842 4.47422 4.03355
# Velocity P-wave (km/s) = 5.55302 7.60536 6.65874
#
# Compressibility (1/GPa) = 0.03170264
#
# Stress axis : x y z
#
# Youngs Moduli (GPa) = 70.38335 106.06601 58.55085
#
# Poissons Ratio (x) = 0.33643 -0.34467
# Poissons Ratio (y) = 0.22325 0.42280
# Poissons Ratio (z) = -0.41432 0.76591
#
# Static dielectric constant tensor:
#      x y z
#    x 4.102450 0.258390 0.134220 
#    y 0.258390 4.491330 -0.210860 
#    z 0.134220 -0.210860 4.242580 
# 
# 
# High freq. dielectric constant tensor:
#      x y z
#    x 1.884100 0.022960 0.012950 
#    y 0.022960 1.890820 -0.021650 
#    z 0.012950 -0.021650 1.879260 
# 
# From -- ./inp_files/35188.got.cif
#   From: 2010.06.25/outbox.cif.g09.slc.cpg/sg2_18_cif.got.tgz:35188.got - 2010.06.27 13:26:56.
