data_PCOD8013333
_publ_section_title
;
Structure prediction by ZEFSAII (Michael W. Deem and Ramdas Pophale) SiO2 
 PCOD8013333
Probable space group: P -1
;
_chemical_formula_sum "Si O2"
_cell_formula_units_Z 14
_cell_length_a 9.009039
_cell_length_b 11.322848
_cell_length_c 11.038386
_cell_angle_alpha 127.309878
_cell_angle_beta 63.436308
_cell_angle_gamma 137.796331
_cell_volume 601.624116
_symmetry_space_group_name_H-M "P -1"
_symmetry_group_IT_number 2
_symmetry_cell_setting 'triclinic'
loop_
_space_group_symop_operation_xyz
x,y,z
-x,-y,-z
loop_
_atom_site_type_symbol
_atom_site_label
_atom_site_fract_x
_atom_site_fract_y
_atom_site_fract_z
Si Si1 0.179967 0.426611 0.124128
Si Si2 0.754651 0.937020 0.666486
Si Si3 0.756478 0.179118 0.996464
Si Si4 0.680688 0.432765 0.276302
Si Si5 0.940894 0.372301 0.561664
Si Si6 0.414942 0.439172 0.826894
Si Si7 0.809520 0.981956 0.404041
O O1 0.193869 0.601097 0.281839
O O2 0.319021 0.401667 0.148755
O O3 0.302923 0.492846 0.990282
O O4 0.923299 0.223169 0.072627
O O5 0.546361 0.758331 0.705347
O O6 0.941487 0.924798 0.607818
O O7 0.833505 0.142367 0.822730
O O8 0.694288 0.932177 0.546426
O O9 0.784326 0.373848 0.107232
O O10 0.500000 0.000000 0.000000
O O11 0.638315 0.556554 0.291268
O O12 0.840858 0.559820 0.408508
O O13 0.804400 0.140396 0.437457
O O14 0.000000 0.500000 0.500000
O O15 0.324674 0.218932 0.750195
#
# Coordination Sequence:
#
# PCOD8013333 Si02
#       7
#     2   2   2   2   2   2   2
#     4  10  24  45  68 100 145 179 236 282 341 423
#     4  10  21  40  67 107 133 178 239 283 341 409
#     4   9  19  41  68 101 137 181 231 285 340 402
#     4  10  23  41  73  99 138 186 233 285 346 417
#     4  11  27  46  66 102 138 185 229 291 350 409
#     4  11  24  45  71 106 134 190 228 285 356 400
#     4  11  24  40  69  99 139 181 228 289 344 412
#
# _framework density 23.270344999999999
#
# number of rings (size 3 to 8) (size 9 to 14) (size 15 to 20)
#    0.000    1.714    1.429    1.714    6.000    2.857 
#    0.000   12.143    0.000    0.000    0.000    0.000 
#    0.000    0.000    0.000    0.000    0.000    0.000 
#
# Total GULP energy -173470.084093 kJ/mol
# GULP energy per Si atom -12390.720292 kJ/mol
# Density = 2.321738 g / cm^3
# Si number density = 23.270345 Si / 1000 Ang^3
#
#
#
# Elastic Constant Matrix: (Units=GPa)
#
#
# Indices 1 2 3 4 5 6 
#
# 1 140.4386 59.5792 34.2834 -2.7241 17.0014 6.7148
# 2 59.5792 81.3502 43.5033 7.1886 -8.9194 -10.5562
# 3 34.2834 43.5033 125.0436 2.5765 -17.4844 -12.5793
# 4 -2.7241 7.1886 2.5765 27.6995 -0.2207 -0.9646
# 5 17.0014 -8.9194 -17.4844 -0.2207 35.0338 2.6071
# 6 6.7148 -10.5562 -12.5793 -0.9646 2.6071 42.7303
#
#
#
# Elastic Compliance Matrix: (Units=1/GPa)
#
#
# Indices 1 2 3 4 5 6 
#
# 1 0.013922 -0.011307 -0.001880 0.004229 -0.010188 -0.004817
# 2 -0.011307 0.024887 -0.003453 -0.006958 0.009597 0.006166
# 3 -0.001880 -0.003453 0.010670 -0.000161 0.005189 0.002263
# 4 0.004229 -0.006958 -0.000161 0.038263 -0.003563 -0.001350
# 5 -0.010188 0.009597 0.005189 -0.003563 0.038269 0.003084
# 6 -0.004817 0.006166 0.002263 -0.001350 0.003084 0.026130
#
#
# Mechanical properties :
#
#
# Convention : Reuss Voigt Hill
#
# Bulk Modulus (GPa) = 61.72424 69.06268 65.39346
# Shear Modulus (GPa) = 26.20273 35.05715 30.62994
#
# Velocity S-wave (km/s) = 3.35925 3.88560 3.63197
# Velocity P-wave (km/s) = 6.45202 7.06210 6.76394
#
# Compressibility (1/GPa) = 0.01620109
#
# Stress axis : x y z
#
# Youngs Moduli (GPa) = 71.82993 40.18163 93.71809
#
# Poissons Ratio (x) = 0.45432 0.17615
# Poissons Ratio (y) = 0.81216 0.32358
# Poissons Ratio (z) = 0.13501 0.13874
#
# Static dielectric constant tensor:
#      x y z
#    x 4.308710 0.300500 -0.238870 
#    y 0.300500 3.869200 0.180730 
#    z -0.238870 0.180730 4.806840 
# 
# 
# High freq. dielectric constant tensor:
#      x y z
#    x 1.917350 0.027210 -0.013520 
#    y 0.027210 1.887970 0.008160 
#    z -0.013520 0.008160 1.941630 
# 
# From -- ./inp_files/393043.got.cif
#   From: 2010.06.25/outbox.cif.g09.slc.cpg/sg2_197_cif.got.tgz:393043.got - 2010.06.27 13:26:56.
