data_PCOD8013901
_publ_section_title
;
Structure prediction by ZEFSAII (Michael W. Deem and Ramdas Pophale) SiO2 
 PCOD8013901
Probable space group: P -1
;
_chemical_formula_sum "Si O2"
_cell_formula_units_Z 16
_cell_length_a 15.278381
_cell_length_b 8.514833
_cell_length_c 12.074589
_cell_angle_alpha 33.400528
_cell_angle_beta 59.287287
_cell_angle_gamma 69.984336
_cell_volume 731.597867
_symmetry_space_group_name_H-M "P -1"
_symmetry_group_IT_number 2
_symmetry_cell_setting 'triclinic'
loop_
_space_group_symop_operation_xyz
x,y,z
-x,-y,-z
loop_
_atom_site_type_symbol
_atom_site_label
_atom_site_fract_x
_atom_site_fract_y
_atom_site_fract_z
Si Si1 0.655882 0.415373 0.381606
Si Si2 0.239809 0.371726 0.037017
Si Si3 0.133775 0.841738 0.918110
Si Si4 0.009923 0.313448 0.709515
Si Si5 0.797794 0.289956 0.556861
Si Si6 0.620228 0.500988 0.918763
Si Si7 0.317426 0.336603 0.455288
Si Si8 0.564885 0.850304 0.328588
O O1 0.748218 0.337640 0.441987
O O2 0.610167 0.691502 0.291170
O O3 0.558300 0.146454 0.605187
O O4 0.696283 0.474632 0.197103
O O5 0.318161 0.364294 0.093039
O O6 0.188295 0.040838 0.239201
O O7 0.146385 0.546527 0.020554
O O8 0.046030 0.012947 0.825143
O O9 0.241985 0.056455 0.716190
O O10 0.100811 0.759616 0.114899
O O11 0.091466 0.498312 0.632901
O O12 0.000000 0.500000 0.500000
O O13 0.724439 0.372591 0.654040
O O14 0.669659 0.680107 0.674419
O O15 0.500000 0.500000 0.000000
O O16 0.632424 0.168870 0.095847
O O17 0.423124 0.319949 0.463007
#
# Coordination Sequence:
#
# PCOD8013901 Si02
#       8
#     2   2   2   2   2   2   2   2
#     4  10  23  41  63  91 137 174 220 270 321 390
#     4  12  25  38  66  99 137 168 214 274 333 372
#     4  10  24  41  67 101 123 171 214 268 332 384
#     4  10  24  47  73  95 127 166 221 269 333 410
#     4  10  24  42  66  95 126 171 214 269 333 390
#     4  12  25  36  63  98 136 178 226 265 317 378
#     4  10  22  42  65  90 133 176 227 260 314 395
#     4  10  21  41  63  89 130 187 224 261 319 381
#
# _framework density 21.869937
#
# number of rings (size 3 to 8) (size 9 to 14) (size 15 to 20)
#    0.000    1.500    1.250    2.250    7.000    5.500 
#    0.000    6.250    0.000    0.000    0.000    0.000 
#    0.000    0.000    0.000    0.000    0.000    0.000 
#
# Total GULP energy -198370.051185 kJ/mol
# GULP energy per Si atom -12398.128199 kJ/mol
# Density = 2.182016 g / cm^3
# Si number density = 21.869937 Si / 1000 Ang^3
#
#
#
# Elastic Constant Matrix: (Units=GPa)
#
#
# Indices 1 2 3 4 5 6 
#
# 1 86.9852 36.4249 47.7413 14.2937 10.2778 1.8465
# 2 36.4249 103.1278 56.4968 5.5067 8.4529 -16.2270
# 3 47.7413 56.4968 135.9841 15.4109 9.0776 -5.3740
# 4 14.2937 5.5067 15.4109 49.0914 11.3028 3.9464
# 5 10.2778 8.4529 9.0776 11.3028 31.8502 0.9315
# 6 1.8465 -16.2270 -5.3740 3.9464 0.9315 30.6901
#
#
#
# Elastic Compliance Matrix: (Units=1/GPa)
#
#
# Indices 1 2 3 4 5 6 
#
# 1 0.015802 -0.003758 -0.003715 -0.002259 -0.002147 -0.003233
# 2 -0.003758 0.014719 -0.004465 0.000699 -0.001880 0.007194
# 3 -0.003715 -0.004465 0.010715 -0.001769 -0.000041 -0.000032
# 4 -0.002259 0.000699 -0.001769 0.023363 -0.007168 -0.002591
# 5 -0.002147 -0.001880 -0.000041 -0.007168 0.035174 -0.001018
# 6 -0.003233 0.007194 -0.000032 -0.002591 -0.001018 0.036940
#
#
# Mechanical properties :
#
#
# Convention : Reuss Voigt Hill
#
# Bulk Modulus (GPa) = 57.60508 67.49147 62.54828
# Shear Modulus (GPa) = 30.05210 34.68860 32.37035
#
# Velocity S-wave (km/s) = 3.71095 3.98695 3.85142
# Velocity P-wave (km/s) = 6.69018 7.21954 6.95989
#
# Compressibility (1/GPa) = 0.01735958
#
# Stress axis : x y z
#
# Youngs Moduli (GPa) = 63.28142 67.93916 93.32577
#
# Poissons Ratio (x) = 0.25534 0.34669
# Poissons Ratio (y) = 0.23784 0.41673
# Poissons Ratio (z) = 0.23508 0.30337
#
# Static dielectric constant tensor:
#      x y z
#    x 3.945040 -0.123440 -0.064390 
#    y -0.123440 4.190860 -0.139610 
#    z -0.064390 -0.139610 3.999640 
# 
# 
# High freq. dielectric constant tensor:
#      x y z
#    x 1.850700 -0.008710 0.004720 
#    y -0.008710 1.864640 -0.008860 
#    z 0.004720 -0.008860 1.863100 
# 
# From -- ./inp_files/38771.got.cif
#   From: 2010.06.25/outbox.cif.g09.slc.cpg/sg2_20_cif.got.tgz:38771.got - 2010.06.27 13:26:56.
