data_PCOD8013562
_publ_section_title
;
Structure prediction by ZEFSAII (Michael W. Deem and Ramdas Pophale) SiO2 
 PCOD8013562
Probable space group: P -1
;
_chemical_formula_sum "Si O2"
_cell_formula_units_Z 14
_cell_length_a 5.641697
_cell_length_b 17.023385
_cell_length_c 5.421218
_cell_angle_alpha 77.525183
_cell_angle_beta 79.912689
_cell_angle_gamma 84.192568
_cell_volume 499.419441
_symmetry_space_group_name_H-M "P -1"
_symmetry_group_IT_number 2
_symmetry_cell_setting 'triclinic'
loop_
_space_group_symop_operation_xyz
x,y,z
-x,-y,-z
loop_
_atom_site_type_symbol
_atom_site_label
_atom_site_fract_x
_atom_site_fract_y
_atom_site_fract_z
Si Si1 0.841999 0.150503 0.359703
Si Si2 0.864615 0.731854 0.035514
Si Si3 0.164831 0.986112 0.216009
Si Si4 0.921733 0.306001 0.473496
Si Si5 0.473667 0.128532 0.058204
Si Si6 0.255934 0.450054 0.044981
Si Si7 0.569209 0.589628 0.462681
O O1 0.977926 0.189996 0.077390
O O2 0.949667 0.061146 0.494248
O O3 0.847310 0.213551 0.542970
O O4 0.583141 0.135926 0.305557
O O5 0.923256 0.674726 0.818301
O O6 0.599042 0.778072 0.072493
O O7 0.924998 0.683338 0.311681
O O8 0.256188 0.073019 0.203604
O O9 0.374231 0.917193 0.153798
O O10 0.000000 0.000000 0.000000
O O11 0.676517 0.360649 0.468551
O O12 0.238461 0.406798 0.346777
O O13 0.500000 0.500000 0.000000
O O14 0.313975 0.386811 0.842962
O O15 0.000000 0.500000 0.000000
O O16 0.500000 0.500000 0.500000
#
# Coordination Sequence:
#
# PCOD8013562 Si02
#       7
#     2   2   2   2   2   2   2
#     4  10  23  40  63  88 136 164 223 264 342 388
#     4  10  24  42  68  89 137 172 223 268 336 398
#     4  11  24  40  65  94 134 168 224 275 344 387
#     4  10  22  44  67  94 135 178 217 280 334 408
#     4  11  23  39  64  98 124 175 222 275 330 404
#     4  10  21  40  69 104 144 181 227 291 356 421
#     4  10  21  41  72  99 139 176 234 287 352 417
#
# _framework density 28.032550000000001
#
# number of rings (size 3 to 8) (size 9 to 14) (size 15 to 20)
#    0.857    0.857    0.000    4.286    2.000    3.429 
#    0.000    8.571    0.000    0.000    0.000    0.000 
#    0.000    0.000    0.000    0.000    0.000    0.000 
#
# Total GULP energy -173473.699169 kJ/mol
# GULP energy per Si atom -12390.978512 kJ/mol
# Density = 2.796875 g / cm^3
# Si number density = 28.032550 Si / 1000 Ang^3
#
#
#
# Elastic Constant Matrix: (Units=GPa)
#
#
# Indices 1 2 3 4 5 6 
#
# 1 115.1836 49.7140 96.0470 -2.9576 17.1613 -14.0819
# 2 49.7140 162.2958 75.1359 5.0414 9.0563 -30.1395
# 3 96.0470 75.1359 240.2790 -24.5546 23.1018 1.4750
# 4 -2.9576 5.0414 -24.5546 56.6684 3.8544 3.1774
# 5 17.1613 9.0563 23.1018 3.8544 64.1229 1.5053
# 6 -14.0819 -30.1395 1.4750 3.1774 1.5053 69.4894
#
#
#
# Elastic Compliance Matrix: (Units=1/GPa)
#
#
# Indices 1 2 3 4 5 6 
#
# 1 0.014138 -0.001295 -0.005248 -0.001448 -0.001682 0.002518
# 2 -0.001295 0.008343 -0.002323 -0.002015 0.000044 0.003497
# 3 -0.005248 -0.002323 0.007450 0.003368 -0.001099 -0.002360
# 4 -0.001448 -0.002015 0.003368 0.019440 -0.001661 -0.002092
# 5 -0.001682 0.000044 -0.001099 -0.001661 0.016548 -0.000581
# 6 0.002518 0.003497 -0.002360 -0.002092 -0.000581 0.016576
#
#
# Mechanical properties :
#
#
# Convention : Reuss Voigt Hill
#
# Bulk Modulus (GPa) = 81.96901 106.61688 94.29295
# Shear Modulus (GPa) = 47.94115 57.84692 52.89403
#
# Velocity S-wave (km/s) = 4.13994 4.54757 4.34853
# Velocity P-wave (km/s) = 7.22193 8.10492 7.67613
#
# Compressibility (1/GPa) = 0.01219973
#
# Stress axis : x y z
#
# Youngs Moduli (GPa) = 70.73058 119.85823 134.21971
#
# Poissons Ratio (x) = 0.15517 0.70442
# Poissons Ratio (y) = 0.09157 0.31181
# Poissons Ratio (z) = 0.37121 0.27844
#
# Static dielectric constant tensor:
#      x y z
#    x 5.263250 0.358130 -0.066790 
#    y 0.358130 5.456620 -0.393340 
#    z -0.066790 -0.393340 5.641440 
# 
# 
# High freq. dielectric constant tensor:
#      x y z
#    x 2.156640 0.032730 -0.016060 
#    y 0.032730 2.178350 -0.001990 
#    z -0.016060 -0.001990 2.165400 
# 
# From -- ./inp_files/9692.got.cif
#   From: 2010.06.25/outbox.cif.g09.slc.cpg/sg2_5_cif.got.tgz:9692.got - 2010.06.27 13:26:56.
