data_PCOD8013922
_publ_section_title
;
Structure prediction by ZEFSAII (Michael W. Deem and Ramdas Pophale) SiO2 
 PCOD8013922
Probable space group: P -1
;
_chemical_formula_sum "Si O2"
_cell_formula_units_Z 16
_cell_length_a 5.183114
_cell_length_b 14.288640
_cell_length_c 16.300482
_cell_angle_alpha 137.929866
_cell_angle_beta 94.293716
_cell_angle_gamma 103.110298
_cell_volume 731.018841
_symmetry_space_group_name_H-M "P -1"
_symmetry_group_IT_number 2
_symmetry_cell_setting 'triclinic'
loop_
_space_group_symop_operation_xyz
x,y,z
-x,-y,-z
loop_
_atom_site_type_symbol
_atom_site_label
_atom_site_fract_x
_atom_site_fract_y
_atom_site_fract_z
Si Si1 0.324976 0.075277 0.650317
Si Si2 0.741425 0.254890 0.310916
Si Si3 0.910805 0.198932 0.654891
Si Si4 0.747125 0.471223 0.583336
Si Si5 0.940533 0.490736 0.221134
Si Si6 0.436998 0.310136 0.201984
Si Si7 0.012673 0.215128 0.000641
Si Si8 0.370396 0.057507 0.829298
O O1 0.621010 0.177205 0.678748
O O2 0.397535 0.051521 0.728909
O O3 0.119256 0.162918 0.697548
O O4 0.161889 0.908450 0.496781
O O5 0.616824 0.317141 0.425261
O O6 0.514358 0.203173 0.196659
O O7 0.029369 0.388996 0.373145
O O8 0.808376 0.113347 0.249923
O O9 0.080469 0.375785 0.746831
O O10 0.511889 0.531866 0.644543
O O11 0.874311 0.433113 0.644223
O O12 0.632800 0.362521 0.159398
O O13 0.071285 0.395097 0.105660
O O14 0.113639 0.212601 0.097010
O O15 0.680635 0.109171 0.910926
O O16 0.206117 0.163665 0.913101
#
# Coordination Sequence:
#
# PCOD8013922 Si02
#       8
#     2   2   2   2   2   2   2   2
#     4  10  23  43  64 103 127 156 206 265 312 394
#     4  10  22  38  63  95 128 169 204 265 325 371
#     4  10  22  42  72  95 127 159 205 259 332 372
#     4   9  20  39  62  99 129 154 218 261 316 389
#     4  10  21  42  67  92 124 174 207 265 313 368
#     4  10  21  41  63  93 127 166 219 261 300 379
#     4  11  25  43  63  90 130 170 224 253 297 378
#     4  12  25  44  64  90 134 171 207 262 315 364
#
# _framework density 21.887262
#
# number of rings (size 3 to 8) (size 9 to 14) (size 15 to 20)
#    0.000    1.750    1.250    1.875    5.250    1.000 
#    4.500    3.750    0.000    0.000    0.000    0.000 
#    0.000    0.000    0.000    0.000    0.000    0.000 
#
# Total GULP energy -198318.580937 kJ/mol
# GULP energy per Si atom -12394.911309 kJ/mol
# Density = 2.183745 g / cm^3
# Si number density = 21.887262 Si / 1000 Ang^3
#
#
#
# Elastic Constant Matrix: (Units=GPa)
#
#
# Indices 1 2 3 4 5 6 
#
# 1 103.4032 26.2686 35.5671 -0.4201 -5.5106 -15.1699
# 2 26.2686 115.4293 50.9475 9.5047 -4.1604 -20.9280
# 3 35.5671 50.9475 90.1951 -2.7170 -6.6029 -11.6255
# 4 -0.4201 9.5047 -2.7170 13.9329 -1.6640 -4.5798
# 5 -5.5106 -4.1604 -6.6029 -1.6640 34.2364 -2.7168
# 6 -15.1699 -20.9280 -11.6255 -4.5798 -2.7168 19.3888
#
#
#
# Elastic Compliance Matrix: (Units=1/GPa)
#
#
# Indices 1 2 3 4 5 6 
#
# 1 0.012235 0.000228 -0.003620 0.002569 0.002102 0.008549
# 2 0.000228 0.014085 -0.007005 -0.007768 0.000770 0.009454
# 3 -0.003620 -0.007005 0.017250 0.009146 0.002533 0.002465
# 4 0.002569 -0.007768 0.009146 0.086528 0.007069 0.020538
# 5 0.002102 0.000770 0.002533 0.007069 0.031270 0.010046
# 6 0.008549 0.009454 0.002465 0.020538 0.010046 0.076207
#
#
# Mechanical properties :
#
#
# Convention : Reuss Voigt Hill
#
# Bulk Modulus (GPa) = 43.90705 59.39932 51.65319
# Shear Modulus (GPa) = 18.79983 26.59458 22.69720
#
# Velocity S-wave (km/s) = 2.93395 3.48957 3.22375
# Velocity P-wave (km/s) = 5.61974 6.59043 6.12435
#
# Compressibility (1/GPa) = 0.02277539
#
# Stress axis : x y z
#
# Youngs Moduli (GPa) = 81.73348 70.99946 57.97116
#
# Poissons Ratio (x) = -0.01617 0.20986
# Poissons Ratio (y) = -0.01862 0.40607
# Poissons Ratio (z) = 0.29588 0.49733
#
# Static dielectric constant tensor:
#      x y z
#    x 4.054580 -0.199080 -0.225120 
#    y -0.199080 3.618170 -0.155180 
#    z -0.225120 -0.155180 4.141440 
# 
# 
# High freq. dielectric constant tensor:
#      x y z
#    x 1.866520 -0.019370 -0.010540 
#    y -0.019370 1.836090 -0.009360 
#    z -0.010540 -0.009360 1.862610 
# 
# From -- ./inp_files/442184.got.cif
#   From: 2010.06.25/outbox.cif.g09.slc.cpg/sg2_222_cif.got.tgz:442184.got - 2010.06.27 13:26:56.
