data_PCOD8013154
_publ_section_title
;
Structure prediction by ZEFSAII (Michael W. Deem and Ramdas Pophale) SiO2 
 PCOD8013154
Probable space group: P -1
;
_chemical_formula_sum "Si O2"
_cell_formula_units_Z 14
_cell_length_a 5.063904
_cell_length_b 15.713857
_cell_length_c 9.409166
_cell_angle_alpha 112.894268
_cell_angle_beta 74.023902
_cell_angle_gamma 86.475190
_cell_volume 650.978786
_symmetry_space_group_name_H-M "P -1"
_symmetry_group_IT_number 2
_symmetry_cell_setting 'triclinic'
loop_
_space_group_symop_operation_xyz
x,y,z
-x,-y,-z
loop_
_atom_site_type_symbol
_atom_site_label
_atom_site_fract_x
_atom_site_fract_y
_atom_site_fract_z
Si Si1 0.213700 0.557700 0.145488
Si Si2 0.544115 0.271723 0.077037
Si Si3 0.196298 0.858089 0.284531
Si Si4 0.325529 0.051443 0.433940
Si Si5 0.294136 0.726479 0.429057
Si Si6 0.660355 0.784625 0.635203
Si Si7 0.004154 0.379631 0.073332
O O1 0.291209 0.624027 0.299389
O O2 0.030134 0.484631 0.188808
O O3 0.500000 0.500000 0.000000
O O4 0.024777 0.620982 0.094959
O O5 0.436893 0.221504 0.193560
O O6 0.283208 0.310131 0.038276
O O7 0.719216 0.350430 0.156142
O O8 0.763694 0.196336 0.905678
O O9 0.381867 0.797958 0.343179
O O10 0.890526 0.866034 0.402115
O O11 0.219724 0.965687 0.316226
O O12 0.467832 0.108363 0.331692
O O13 0.500000 0.000000 0.500000
O O14 0.531544 0.713048 0.507068
O O15 0.995592 0.764717 0.572179
#
# Coordination Sequence:
#
# PCOD8013154 Si02
#       7
#     2   2   2   2   2   2   2
#     4  11  23  40  72 102 123 164 228 273 310 372
#     4  12  25  44  64  96 134 175 208 264 330 388
#     4  10  22  38  68  92 126 166 222 265 318 375
#     4  10  21  40  65  97 125 166 219 273 309 379
#     4  11  23  42  67  94 124 175 215 265 318 384
#     4  11  26  43  63  94 138 170 210 263 332 384
#     4  11  24  40  67  97 129 162 219 272 309 382
#
# _framework density 21.506077000000001
#
# number of rings (size 3 to 8) (size 9 to 14) (size 15 to 20)
#    0.000    1.143    4.286    0.857    8.000    0.571 
#    0.000    5.000    0.000    0.000    0.000    0.000 
#    0.000    0.000    0.000    0.000    0.000    0.000 
#
# Total GULP energy -173462.161542 kJ/mol
# GULP energy per Si atom -12390.154396 kJ/mol
# Density = 2.145713 g / cm^3
# Si number density = 21.506077 Si / 1000 Ang^3
#
#
#
# Elastic Constant Matrix: (Units=GPa)
#
#
# Indices 1 2 3 4 5 6 
#
# 1 99.1372 41.9887 19.3373 -4.7336 10.8084 8.6562
# 2 41.9887 131.0301 63.5680 -15.3639 -5.9079 11.7574
# 3 19.3373 63.5680 96.8408 -7.6213 0.4901 9.1708
# 4 -4.7336 -15.3639 -7.6213 24.3636 3.5149 -2.9821
# 5 10.8084 -5.9079 0.4901 3.5149 23.5447 -6.4622
# 6 8.6562 11.7574 9.1708 -2.9821 -6.4622 34.9270
#
#
#
# Elastic Compliance Matrix: (Units=1/GPa)
#
#
# Indices 1 2 3 4 5 6 
#
# 1 0.013087 -0.004569 0.000801 0.000682 -0.008199 -0.003374
# 2 -0.004569 0.013578 -0.007656 0.004550 0.004951 -0.000124
# 3 0.000801 -0.007656 0.015450 0.000358 -0.003283 -0.002255
# 4 0.000682 0.004550 0.000358 0.045096 -0.005633 0.001013
# 5 -0.008199 0.004951 -0.003283 -0.005633 0.051192 0.010218
# 6 -0.003374 -0.000124 -0.002255 0.001013 0.010218 0.032078
#
#
# Mechanical properties :
#
#
# Convention : Reuss Voigt Hill
#
# Bulk Modulus (GPa) = 51.90265 64.08846 57.99555
# Shear Modulus (GPa) = 25.03108 30.04132 27.53620
#
# Velocity S-wave (km/s) = 3.41531 3.74153 3.58214
# Velocity P-wave (km/s) = 6.30387 6.96637 6.64338
#
# Compressibility (1/GPa) = 0.01926684
#
# Stress axis : x y z
#
# Youngs Moduli (GPa) = 76.41083 73.64853 64.72491
#
# Poissons Ratio (x) = 0.33652 -0.05183
# Poissons Ratio (y) = 0.34914 0.49551
# Poissons Ratio (z) = -0.06119 0.56383
#
# Static dielectric constant tensor:
#      x y z
#    x -17.382200 -23.151720 -17.233740 
#    y -23.151720 -21.912050 -18.817500 
#    z -17.233740 -18.817500 -10.509890 
# 
# 
# High freq. dielectric constant tensor:
#      x y z
#    x 1.853610 0.008470 0.009250 
#    y 0.008470 1.855570 0.004510 
#    z 0.009250 0.004510 1.805380 
# 
# From -- ./inp_files/90908.got.cif
#   From: 2010.06.25/outbox.cif.g09.slc.cpg/sg2_46_cif.got.tgz:90908.got - 2010.06.27 13:26:56.
