data_PCOD8013423
_publ_section_title
;
Structure prediction by ZEFSAII (Michael W. Deem and Ramdas Pophale) SiO2 
 PCOD8013423
Probable space group: P -1
;
_chemical_formula_sum "Si O2"
_cell_formula_units_Z 16
_cell_length_a 14.782258
_cell_length_b 9.794940
_cell_length_c 11.727120
_cell_angle_alpha 38.870840
_cell_angle_beta 48.930706
_cell_angle_gamma 48.351595
_cell_volume 760.169668
_symmetry_space_group_name_H-M "P -1"
_symmetry_group_IT_number 2
_symmetry_cell_setting 'triclinic'
loop_
_space_group_symop_operation_xyz
x,y,z
-x,-y,-z
loop_
_atom_site_type_symbol
_atom_site_label
_atom_site_fract_x
_atom_site_fract_y
_atom_site_fract_z
Si Si1 0.612275 0.835534 0.943221
Si Si2 0.060238 0.322550 0.896190
Si Si3 0.074504 0.465582 0.344419
Si Si4 0.455485 0.615115 0.080998
Si Si5 0.184641 0.535678 0.837849
Si Si6 0.778725 0.170597 0.994666
Si Si7 0.741965 0.028209 0.534438
Si Si8 0.581811 0.156887 0.364001
O O1 0.697163 0.978142 0.729078
O O2 0.546117 0.762575 0.937492
O O3 0.696118 0.619585 0.087547
O O4 0.500000 0.000000 0.000000
O O5 0.163839 0.386797 0.845114
O O6 0.025549 0.483852 0.709061
O O7 0.935115 0.366063 0.045678
O O8 0.110586 0.061279 0.979361
O O9 0.162408 0.628894 0.154351
O O10 0.000000 0.500000 0.500000
O O11 0.153207 0.198615 0.450128
O O12 0.308018 0.763702 0.090948
O O13 0.480832 0.414853 0.284512
O O14 0.500000 0.500000 0.000000
O O15 0.207773 0.760220 0.622795
O O16 0.698130 0.133564 0.194680
O O17 0.630532 0.097060 0.489662
O O18 0.500000 0.000000 0.500000
#
# Coordination Sequence:
#
# PCOD8013423 Si02
#       8
#     2   2   2   2   2   2   2   2
#     4  12  25  47  68 100 139 185 234 288 353 421
#     4  11  24  45  68  97 143 182 230 290 343 409
#     4  12  24  42  70 107 136 183 234 285 356 416
#     4  10  21  40  67  97 136 174 221 289 350 406
#     4  11  25  47  69  96 138 190 232 283 346 416
#     4  11  22  42  67 103 142 173 229 296 348 412
#     4  12  23  43  70  96 141 177 230 284 344 418
#     4  11  21  38  67 101 134 179 222 282 357 415
#
# _framework density 21.047931999999999
#
# number of rings (size 3 to 8) (size 9 to 14) (size 15 to 20)
#    0.000    0.750    2.500    7.125    0.000    1.000 
#    6.750    0.000    0.000    0.000    0.000    0.000 
#    0.000    0.000    0.000    0.000    0.000    0.000 
#
# Total GULP energy -198391.464679 kJ/mol
# GULP energy per Si atom -12399.466542 kJ/mol
# Density = 2.100003 g / cm^3
# Si number density = 21.047932 Si / 1000 Ang^3
#
#
#
# Elastic Constant Matrix: (Units=GPa)
#
#
# Indices 1 2 3 4 5 6 
#
# 1 110.3143 21.1130 21.6178 -7.9713 8.0485 2.0856
# 2 21.1130 91.7890 50.8428 -5.0963 -2.5685 -4.1438
# 3 21.6178 50.8428 121.3774 -3.3960 -1.1666 0.9528
# 4 -7.9713 -5.0963 -3.3960 39.8257 -2.7862 4.4123
# 5 8.0485 -2.5685 -1.1666 -2.7862 39.7948 -8.2123
# 6 2.0856 -4.1438 0.9528 4.4123 -8.2123 34.1711
#
#
#
# Elastic Compliance Matrix: (Units=1/GPa)
#
#
# Indices 1 2 3 4 5 6 
#
# 1 0.009922 -0.001781 -0.000984 0.001684 -0.002358 -0.001578
# 2 -0.001781 0.014738 -0.005834 0.000890 0.001688 0.002349
# 3 -0.000984 -0.005834 0.010867 0.000087 -0.000054 -0.000975
# 4 0.001684 0.000890 0.000087 0.025978 0.000891 -0.003138
# 5 -0.002358 0.001688 -0.000054 0.000891 0.027172 0.006765
# 6 -0.001578 0.002349 -0.000975 -0.003138 0.006765 0.031704
#
#
# Mechanical properties :
#
#
# Convention : Reuss Voigt Hill
#
# Bulk Modulus (GPa) = 54.55538 56.73645 55.64591
# Shear Modulus (GPa) = 34.79736 38.08546 36.44141
#
# Velocity S-wave (km/s) = 4.07042 4.25839 4.16547
# Velocity P-wave (km/s) = 6.93303 7.15492 7.04485
#
# Compressibility (1/GPa) = 0.01833000
#
# Stress axis : x y z
#
# Youngs Moduli (GPa) = 100.78262 67.85081 92.01891
#
# Poissons Ratio (x) = 0.12083 0.09059
# Poissons Ratio (y) = 0.17947 0.53681
# Poissons Ratio (z) = 0.09921 0.39582
#
# Static dielectric constant tensor:
#      x y z
#    x 4.191330 -0.139320 0.033700 
#    y -0.139320 3.759580 -0.022420 
#    z 0.033700 -0.022420 3.604560 
# 
# 
# High freq. dielectric constant tensor:
#      x y z
#    x 1.842570 -0.005330 0.006370 
#    y -0.005330 1.826770 -0.014180 
#    z 0.006370 -0.014180 1.827010 
# 
# From -- ./inp_files/398880.got.cif
#   From: 2010.06.25/outbox.cif.g09.slc.cpg/sg2_200_cif.got.tgz:398880.got - 2010.06.27 13:26:56.
