data_PCOD8013620
_publ_section_title
;
Structure prediction by ZEFSAII (Michael W. Deem and Ramdas Pophale) SiO2 
 PCOD8013620
Probable space group: P -1
;
_chemical_formula_sum "Si O2"
_cell_formula_units_Z 14
_cell_length_a 10.048456
_cell_length_b 8.457112
_cell_length_c 19.064801
_cell_angle_alpha 73.980271
_cell_angle_beta 27.698270
_cell_angle_gamma 61.360542
_cell_volume 615.647532
_symmetry_space_group_name_H-M "P -1"
_symmetry_group_IT_number 2
_symmetry_cell_setting 'triclinic'
loop_
_space_group_symop_operation_xyz
x,y,z
-x,-y,-z
loop_
_atom_site_type_symbol
_atom_site_label
_atom_site_fract_x
_atom_site_fract_y
_atom_site_fract_z
Si Si1 0.532230 0.299816 0.518523
Si Si2 0.126900 0.190719 0.648132
Si Si3 0.229038 0.565149 0.347575
Si Si4 0.654762 0.155637 0.972366
Si Si5 0.136396 0.780308 0.985808
Si Si6 0.979131 0.764050 0.809874
Si Si7 0.599760 0.658382 0.273948
O O1 0.500000 0.500000 0.500000
O O2 0.172430 0.336337 0.658592
O O3 0.606820 0.223951 0.573787
O O4 0.824526 0.165139 0.342214
O O5 0.020601 0.273182 0.610072
O O6 0.821691 0.183084 0.823093
O O7 0.500000 0.000000 0.500000
O O8 0.554732 0.375575 0.186457
O O9 0.341899 0.681104 0.331240
O O10 0.000000 0.500000 0.500000
O O11 0.797064 0.924540 0.936491
O O12 0.724664 0.240937 0.997885
O O13 0.261401 0.265978 0.125992
O O14 0.838734 0.734834 0.127228
O O15 0.000000 0.000000 0.000000
O O16 0.199844 0.566999 0.772539
#
# Coordination Sequence:
#
# PCOD8013620 Si02
#       7
#     2   2   2   2   2   2   2
#     4  10  21  40  70 101 139 183 229 298 355 426
#     4  12  25  46  74 104 145 191 245 298 355 432
#     4  12  29  47  75 108 151 196 241 299 378 431
#     4  11  24  42  71 106 138 192 241 299 360 435
#     4  12  28  47  74 104 150 193 251 301 364 433
#     4  10  22  41  70 104 146 179 241 298 363 433
#     4  11  24  46  71 102 147 188 239 302 365 429
#
# _framework density 22.740285
#
# number of rings (size 3 to 8) (size 9 to 14) (size 15 to 20)
#    0.000    0.857    2.857    3.857    8.000    3.429 
#    0.000    1.429    0.000    0.000    0.000    0.000 
#    0.000    0.000    0.000    0.000    0.000    0.000 
#
# Total GULP energy -173478.411199 kJ/mol
# GULP energy per Si atom -12391.315086 kJ/mol
# Density = 2.268853 g / cm^3
# Si number density = 22.740285 Si / 1000 Ang^3
#
#
#
# Elastic Constant Matrix: (Units=GPa)
#
#
# Indices 1 2 3 4 5 6 
#
# 1 174.7837 43.6679 44.5172 -11.6235 -14.3225 2.6122
# 2 43.6679 76.2040 40.6026 -13.2875 -4.1180 -11.5551
# 3 44.5172 40.6026 123.8017 -26.6266 -3.8100 -1.1264
# 4 -11.6235 -13.2875 -26.6266 38.8435 4.2556 -3.1202
# 5 -14.3225 -4.1180 -3.8100 4.2556 40.7381 -5.4060
# 6 2.6122 -11.5551 -1.1264 -3.1202 -5.4060 42.8133
#
#
#
# Elastic Compliance Matrix: (Units=1/GPa)
#
#
# Indices 1 2 3 4 5 6 
#
# 1 0.007099 -0.003431 -0.001455 -0.000349 0.001892 -0.001184
# 2 -0.003431 0.018693 -0.004215 0.002837 0.000715 0.005441
# 3 -0.001455 -0.004215 0.011219 0.005841 -0.000551 -0.000398
# 4 -0.000349 0.002837 0.005841 0.031086 -0.002147 0.002935
# 5 0.001892 0.000715 -0.000551 -0.002147 0.025879 0.003174
# 6 -0.001184 0.005441 -0.000398 0.002935 0.003174 0.025502
#
#
# Mechanical properties :
#
#
# Convention : Reuss Voigt Hill
#
# Bulk Modulus (GPa) = 53.16808 70.26276 61.71542
# Shear Modulus (GPa) = 34.73479 40.87910 37.80694
#
# Velocity S-wave (km/s) = 3.91251 4.24447 4.08187
# Velocity P-wave (km/s) = 6.62130 7.41524 7.02949
#
# Compressibility (1/GPa) = 0.01880828
#
# Stress axis : x y z
#
# Youngs Moduli (GPa) = 140.87302 53.49645 89.13534
#
# Poissons Ratio (x) = 0.18353 0.12970
# Poissons Ratio (y) = 0.48328 0.37573
# Poissons Ratio (z) = 0.20498 0.22550
#
# Static dielectric constant tensor:
#      x y z
#    x -1.338860 -3.188740 -9.708700 
#    y -3.188740 2.008090 -6.111160 
#    z -9.708700 -6.111160 -13.435370 
# 
# 
# High freq. dielectric constant tensor:
#      x y z
#    x 1.910750 0.022350 -0.002420 
#    y 0.022350 1.900150 -0.013060 
#    z -0.002420 -0.013060 1.910240 
# 
# From -- ./inp_files/185299.got.cif
#   From: 2010.06.25/outbox.cif.g09.slc.cpg/sg2_93_cif.got.tgz:185299.got - 2010.06.27 13:26:56.
