data_PCOD8013814
_publ_section_title
;
Structure prediction by ZEFSAII (Michael W. Deem and Ramdas Pophale) SiO2 
 PCOD8013814
Probable space group: P -1
;
_chemical_formula_sum "Si O2"
_cell_formula_units_Z 12
_cell_length_a 15.226794
_cell_length_b 12.065545
_cell_length_c 7.951115
_cell_angle_alpha 79.682979
_cell_angle_beta 113.579319
_cell_angle_gamma 153.683057
_cell_volume 532.510893
_symmetry_space_group_name_H-M "P -1"
_symmetry_group_IT_number 2
_symmetry_cell_setting 'triclinic'
loop_
_space_group_symop_operation_xyz
x,y,z
-x,-y,-z
loop_
_atom_site_type_symbol
_atom_site_label
_atom_site_fract_x
_atom_site_fract_y
_atom_site_fract_z
Si Si1 0.140926 0.033603 0.494082
Si Si2 0.651822 0.183224 0.403322
Si Si3 0.445895 0.159210 0.670332
Si Si4 0.080175 0.363579 0.306903
Si Si5 0.410709 0.111443 0.043109
Si Si6 0.655036 0.586031 0.210174
O O1 0.017046 0.853062 0.619788
O O2 0.920760 0.845647 0.266416
O O3 0.290273 0.096845 0.497118
O O4 0.315519 0.321926 0.610207
O O5 0.876870 0.498501 0.548509
O O6 0.500107 0.085021 0.172478
O O7 0.500000 0.000000 0.500000
O O8 0.712109 0.124467 0.392641
O O9 0.691243 0.416930 0.689267
O O10 0.495538 0.232426 0.885974
O O11 0.874275 0.192255 0.076226
O O12 0.521174 0.322551 0.198639
O O13 0.500000 0.500000 0.000000
#
# Coordination Sequence:
#
# PCOD8013814 Si02
#       6
#     2   2   2   2   2   2
#     4  10  22  40  65  86 123 164 201 251 302 367
#     4  10  22  41  62  91 127 163 202 250 305 362
#     4  10  22  40  62  96 120 159 213 244 304 366
#     4  10  21  41  62  89 128 162 197 252 306 356
#     4  11  22  41  64  91 124 163 203 253 303 360
#     4  11  20  41  66  87 122 164 200 250 312 354
#
# _framework density 22.534749999999999
#
# number of rings (size 3 to 8) (size 9 to 14) (size 15 to 20)
#    0.000    1.667    5.000    0.500    0.000    5.333 
#    9.000    6.667    0.000    0.000    0.000    0.000 
#    0.000    0.000    0.000    0.000    0.000    0.000 
#
# Total GULP energy -148707.640590 kJ/mol
# GULP energy per Si atom -12392.303383 kJ/mol
# Density = 2.248346 g / cm^3
# Si number density = 22.534750 Si / 1000 Ang^3
#
#
#
# Elastic Constant Matrix: (Units=GPa)
#
#
# Indices 1 2 3 4 5 6 
#
# 1 164.7749 39.7601 56.1896 32.9822 11.4284 -2.4179
# 2 39.7601 53.6186 18.3595 10.3429 -4.6401 9.1787
# 3 56.1896 18.3595 118.6351 34.3628 17.5713 0.4820
# 4 32.9822 10.3429 34.3628 31.9780 3.7037 -2.4193
# 5 11.4284 -4.6401 17.5713 3.7037 31.2242 10.4733
# 6 -2.4179 9.1787 0.4820 -2.4193 10.4733 41.5763
#
#
#
# Elastic Compliance Matrix: (Units=1/GPa)
#
#
# Indices 1 2 3 4 5 6 
#
# 1 0.009468 -0.006250 -0.001307 -0.005698 -0.003849 0.002584
# 2 -0.006250 0.026892 -0.002253 -0.001772 0.010815 -0.009102
# 3 -0.001307 -0.002253 0.013828 -0.011919 -0.006640 0.001240
# 4 -0.005698 -0.001772 -0.011919 0.050549 0.001617 0.002732
# 5 -0.003849 0.010815 -0.006640 0.001617 0.043043 -0.013283
# 6 0.002584 -0.009102 0.001240 0.002732 -0.013283 0.029702
#
#
# Mechanical properties :
#
#
# Convention : Reuss Voigt Hill
#
# Bulk Modulus (GPa) = 32.71408 62.84965 47.78187
# Shear Modulus (GPa) = 24.59521 35.80364 30.19942
#
# Velocity S-wave (km/s) = 3.30727 3.99032 3.66475
# Velocity P-wave (km/s) = 5.39748 7.01291 6.25754
#
# Compressibility (1/GPa) = 0.03056788
#
# Stress axis : x y z
#
# Youngs Moduli (GPa) = 105.61758 37.18602 72.31758
#
# Poissons Ratio (x) = 0.23240 0.09453
# Poissons Ratio (y) = 0.66007 0.16295
# Poissons Ratio (z) = 0.13806 0.08379
#
# Static dielectric constant tensor:
#      x y z
#    x 1.350130 -0.336690 -2.151070 
#    y -0.336690 3.960570 0.658560 
#    z -2.151070 0.658560 3.029770 
# 
# 
# High freq. dielectric constant tensor:
#      x y z
#    x 1.905470 -0.024660 0.013970 
#    y -0.024660 1.862800 0.025690 
#    z 0.013970 0.025690 1.885710 
# 
# From -- ./inp_files/208068.got.cif
#   From: 2010.06.25/outbox.cif.g09.slc.cpg/sg2_105_cif.got.tgz:208068.got - 2010.06.27 13:26:56.
