data_PCOD8013006
_publ_section_title
;
Structure prediction by ZEFSAII (Michael W. Deem and Ramdas Pophale) SiO2 
 PCOD8013006
Probable space group: P -1
;
_chemical_formula_sum "Si O2"
_cell_formula_units_Z 14
_cell_length_a 12.396538
_cell_length_b 9.221100
_cell_length_c 24.463793
_cell_angle_alpha 154.011454
_cell_angle_beta 29.356554
_cell_angle_gamma 141.034521
_cell_volume 600.505312
_symmetry_space_group_name_H-M "P -1"
_symmetry_group_IT_number 2
_symmetry_cell_setting 'triclinic'
loop_
_space_group_symop_operation_xyz
x,y,z
-x,-y,-z
loop_
_atom_site_type_symbol
_atom_site_label
_atom_site_fract_x
_atom_site_fract_y
_atom_site_fract_z
Si Si1 0.488606 0.570866 0.465019
Si Si2 0.184053 0.372719 0.335972
Si Si3 0.749563 0.634689 0.892811
Si Si4 0.162499 0.662133 0.857988
Si Si5 0.264241 0.646853 0.086241
Si Si6 0.024769 0.363856 0.589921
Si Si7 0.433437 0.217635 0.654961
O O1 0.500000 0.500000 0.500000
O O2 0.705156 0.455343 0.295749
O O3 0.278113 0.399087 0.472908
O O4 0.432515 0.966078 0.620784
O O5 0.139063 0.538738 0.353653
O O6 0.412539 0.482215 0.296765
O O7 0.000000 0.500000 0.500000
O O8 0.182628 0.975227 0.201689
O O9 0.760491 0.333071 0.829883
O O10 0.957732 0.610374 0.752670
O O11 0.525390 0.587899 0.940100
O O12 0.759229 0.977322 0.037813
O O13 0.206938 0.406063 0.801849
O O14 0.898123 0.649325 0.960956
O O15 0.000000 0.000000 0.500000
O O16 0.500000 0.000000 0.500000
#
# Coordination Sequence:
#
# PCOD8013006 Si02
#       7
#     2   2   2   2   2   2   2
#     4  11  23  42  67 102 138 176 233 287 340 405
#     4  12  22  42  70  99 136 182 229 284 345 414
#     4  11  26  46  68 104 139 182 233 282 351 414
#     4  11  22  46  71  99 136 185 232 280 344 416
#     4  11  24  43  74  98 138 184 229 280 347 410
#     4  12  27  45  70 101 139 179 231 291 348 412
#     4  10  21  40  64  98 133 175 228 277 336 412
#
# _framework density 23.313700999999998
#
# number of rings (size 3 to 8) (size 9 to 14) (size 15 to 20)
#    0.000    0.857    1.429    7.286    4.000    0.571 
#    2.571    1.429    0.000    0.000    0.000    0.000 
#    0.000    0.000    0.000    0.000    0.000    0.000 
#
# Total GULP energy -173482.818680 kJ/mol
# GULP energy per Si atom -12391.629906 kJ/mol
# Density = 2.326064 g / cm^3
# Si number density = 23.313701 Si / 1000 Ang^3
#
#
#
# Elastic Constant Matrix: (Units=GPa)
#
#
# Indices 1 2 3 4 5 6 
#
# 1 127.7711 45.9390 38.1225 7.8518 -18.3743 -7.8939
# 2 45.9390 119.3879 33.8383 2.8631 -10.4948 7.2767
# 3 38.1225 33.8383 64.9248 6.1671 -5.3662 -7.2490
# 4 7.8518 2.8631 6.1671 22.9280 -1.9130 -16.5447
# 5 -18.3743 -10.4948 -5.3662 -1.9130 36.4938 -0.8707
# 6 -7.8939 7.2767 -7.2490 -16.5447 -0.8707 66.9292
#
#
#
# Elastic Compliance Matrix: (Units=1/GPa)
#
#
# Indices 1 2 3 4 5 6 
#
# 1 0.010774 -0.002551 -0.004458 -0.001258 0.003989 0.000806
# 2 -0.002551 0.010791 -0.004197 -0.000771 0.001111 -0.002105
# 3 -0.004458 -0.004197 0.020567 -0.002400 -0.000516 0.001558
# 4 -0.001258 -0.000771 -0.002400 0.054447 0.001960 0.013160
# 5 0.003989 0.001111 -0.000516 0.001960 0.029785 0.001166
# 6 0.000806 -0.002105 0.001558 0.013160 0.001166 0.018702
#
#
# Mechanical properties :
#
#
# Convention : Reuss Voigt Hill
#
# Bulk Modulus (GPa) = 50.70471 60.87594 55.79033
# Shear Modulus (GPa) = 28.72722 38.21580 33.47151
#
# Velocity S-wave (km/s) = 3.51408 4.05309 3.79318
# Velocity P-wave (km/s) = 6.18556 6.93338 6.57012
#
# Compressibility (1/GPa) = 0.01972203
#
# Stress axis : x y z
#
# Youngs Moduli (GPa) = 92.81250 92.66590 48.62256
#
# Poissons Ratio (x) = 0.23636 0.21676
# Poissons Ratio (y) = 0.23673 0.20405
# Poissons Ratio (z) = 0.41375 0.38888
#
# Static dielectric constant tensor:
#      x y z
#    x 4.142500 -0.090860 -0.098860 
#    y -0.090860 4.526620 0.010790 
#    z -0.098860 0.010790 3.953970 
# 
# 
# High freq. dielectric constant tensor:
#      x y z
#    x 1.938070 -0.002460 -0.026410 
#    y -0.002460 1.934770 0.010280 
#    z -0.026410 0.010280 1.897280 
# 
# From -- ./inp_files/186003.got.cif
#   From: 2010.06.25/outbox.cif.g09.slc.cpg/sg2_94_cif.got.tgz:186003.got - 2010.06.27 13:26:56.
