data_PCOD8013509
_publ_section_title
;
Structure prediction by ZEFSAII (Michael W. Deem and Ramdas Pophale) SiO2 
 PCOD8013509
Probable space group: P -1
;
_chemical_formula_sum "Si O2"
_cell_formula_units_Z 14
_cell_length_a 20.704916
_cell_length_b 9.598641
_cell_length_c 22.217732
_cell_angle_alpha 26.632607
_cell_angle_beta 18.942780
_cell_angle_gamma 30.611144
_cell_volume 639.047182
_symmetry_space_group_name_H-M "P -1"
_symmetry_group_IT_number 2
_symmetry_cell_setting 'triclinic'
loop_
_space_group_symop_operation_xyz
x,y,z
-x,-y,-z
loop_
_atom_site_type_symbol
_atom_site_label
_atom_site_fract_x
_atom_site_fract_y
_atom_site_fract_z
Si Si1 0.709474 0.902742 0.430051
Si Si2 0.277726 0.099167 0.134627
Si Si3 0.960901 0.741489 0.495601
Si Si4 0.661763 0.312882 0.513227
Si Si5 0.579462 0.920815 0.284383
Si Si6 0.143059 0.542379 0.186677
Si Si7 0.573459 0.459341 0.256613
O O1 0.541708 0.694141 0.635764
O O2 0.925982 0.725574 0.308212
O O3 0.636594 0.003921 0.522033
O O4 0.717324 0.205448 0.264333
O O5 0.150990 0.276167 0.231570
O O6 0.166657 0.801869 0.325783
O O7 0.283165 0.311716 0.988508
O O8 0.500000 0.000000 0.000000
O O9 0.000000 0.500000 0.500000
O O10 0.816472 0.605925 0.725278
O O11 0.857642 0.066334 0.434332
O O12 0.710010 0.641528 0.313628
O O13 0.472419 0.189562 0.693809
O O14 0.595285 0.360985 0.622063
O O15 0.694818 0.224273 0.061585
#
# Coordination Sequence:
#
# PCOD8013509 Si02
#       7
#     2   2   2   2   2   2   2
#     4  10  21  42  66 103 132 166 225 276 336 401
#     4  12  26  44  68  99 138 184 227 275 341 399
#     4  12  28  44  68 101 138 179 233 279 327 411
#     4  10  23  45  65  98 141 173 223 275 344 394
#     4  10  23  44  71 100 136 177 214 285 338 403
#     4  12  25  43  74  97 135 181 221 280 342 399
#     4  10  21  40  68  96 135 171 218 285 327 400
#
# _framework density 21.907615
#
# number of rings (size 3 to 8) (size 9 to 14) (size 15 to 20)
#    0.000    1.143    1.429    3.857    6.000    1.143 
#    0.000    2.857    0.000    0.000    0.000    0.000 
#    0.000    0.000    0.000    0.000    0.000    0.000 
#
# Total GULP energy -173646.127116 kJ/mol
# GULP energy per Si atom -12403.294794 kJ/mol
# Density = 2.185775 g / cm^3
# Si number density = 21.907615 Si / 1000 Ang^3
#
#
#
# Elastic Constant Matrix: (Units=GPa)
#
#
# Indices 1 2 3 4 5 6 
#
# 1 24.2554 153.7312 151.8305 -51.0532 91.2494 -36.7925
# 2 153.7312 -56.7921 -147.9665 79.6611 -142.0881 74.9857
# 3 151.8305 -147.9665 -88.2208 57.4310 -127.7690 71.1711
# 4 -51.0532 79.6611 57.4310 1.1640 49.2802 -40.4468
# 5 91.2494 -142.0881 -127.7690 49.2802 -72.2613 55.0223
# 6 -36.7925 74.9857 71.1711 -40.4468 55.0223 9.7654
#
#
#
# Elastic Compliance Matrix: (Units=1/GPa)
#
#
# Indices 1 2 3 4 5 6 
#
# 1 0.009141 0.000711 -0.002289 -0.005110 0.005550 -0.006773
# 2 0.000711 0.007151 -0.005276 -0.001071 -0.003485 0.001419
# 3 -0.002289 -0.005276 0.014609 0.011111 -0.006148 0.006071
# 4 -0.005110 -0.001071 0.011111 0.040239 0.011398 0.010439
# 5 0.005550 -0.003485 -0.006148 0.011398 0.023633 0.006525
# 6 -0.006773 0.001419 0.006071 0.010439 0.006525 0.028214
#
#
# Mechanical properties :
#
#
# Convention : Reuss Voigt Hill
#
# Bulk Modulus (GPa) = 58.15981 21.60366 39.88173
# Shear Modulus (GPa) = 35.10602 -30.82323 2.14140
#
# Velocity S-wave (km/s) = 4.00741 -3.75502 0.98974
# Velocity P-wave (km/s) = 6.92949 2.98623 4.42155
#
# Compressibility (1/GPa) = 0.01719400
#
# Stress axis : x y z
#
# Youngs Moduli (GPa) = 109.39771 139.84870 68.44986
#
# Poissons Ratio (x) = -0.09939 0.15665
# Poissons Ratio (y) = -0.07775 0.36111
# Poissons Ratio (z) = 0.25036 0.73777
#
# Static dielectric constant tensor:
#      x y z
#    x 4.041290 0.038930 0.281470 
#    y 0.038930 4.140900 -0.230960 
#    z 0.281470 -0.230960 3.906790 
# 
# 
# High freq. dielectric constant tensor:
#      x y z
#    x 1.867720 0.004320 0.018170 
#    y 0.004320 1.877490 -0.009280 
#    z 0.018170 -0.009280 1.850480 
# 
# From -- ./inp_files/189718.got.cif
#   From: 2010.06.25/outbox.cif.g09.slc.cpg/sg2_95_cif.got.tgz:189718.got - 2010.06.27 13:26:56.
