data_PCOD8013626
_publ_section_title
;
Structure prediction by ZEFSAII (Michael W. Deem and Ramdas Pophale) SiO2 
 PCOD8013626
Probable space group: P -1
;
_chemical_formula_sum "Si O2"
_cell_formula_units_Z 16
_cell_length_a 9.232407
_cell_length_b 19.061619
_cell_length_c 5.444609
_cell_angle_alpha 75.063130
_cell_angle_beta 128.913319
_cell_angle_gamma 118.259894
_cell_volume 655.584741
_symmetry_space_group_name_H-M "P -1"
_symmetry_group_IT_number 2
_symmetry_cell_setting 'triclinic'
loop_
_space_group_symop_operation_xyz
x,y,z
-x,-y,-z
loop_
_atom_site_type_symbol
_atom_site_label
_atom_site_fract_x
_atom_site_fract_y
_atom_site_fract_z
Si Si1 0.067544 0.570002 0.705404
Si Si2 0.387591 0.234267 0.815837
Si Si3 0.654213 0.181205 0.870213
Si Si4 0.669957 0.471521 0.625907
Si Si5 0.058862 0.862197 0.487472
Si Si6 0.066053 0.718189 0.310538
Si Si7 0.380945 0.322661 0.224329
Si Si8 0.407235 0.015876 0.634106
O O1 0.000000 0.500000 0.500000
O O2 0.874479 0.547669 0.702618
O O3 0.121326 0.658922 0.591946
O O4 0.271740 0.575633 0.053992
O O5 0.573468 0.206838 0.011275
O O6 0.380428 0.276240 0.514507
O O7 0.173816 0.156155 0.681833
O O8 0.418624 0.285140 0.048249
O O9 0.762648 0.257786 0.742156
O O10 0.454881 0.110221 0.596170
O O11 0.823622 0.147434 0.136895
O O12 0.500000 0.500000 0.500000
O O13 0.569667 0.409667 0.351888
O O14 0.167390 0.953961 0.426506
O O15 0.074471 0.798497 0.369971
O O16 0.834322 0.668897 0.013127
O O17 0.500000 0.000000 0.500000
O O18 0.500000 0.000000 0.000000
#
# Coordination Sequence:
#
# PCOD8013626 Si02
#       8
#     2   2   2   2   2   2   2   2
#     4  11  28  47  73 109 144 192 245 303 367 443
#     4  11  27  43  71 108 142 192 246 302 364 433
#     4  11  24  42  71 104 143 191 247 300 368 436
#     4  11  28  50  73 103 146 195 244 306 373 440
#     4  10  23  44  68 100 149 188 244 303 364 433
#     4  11  24  45  74 101 148 193 245 303 373 436
#     4  11  27  48  72 105 150 190 243 308 367 435
#     4  10  21  40  70 103 142 195 242 298 367 430
#
# _framework density 24.405692999999999
#
# number of rings (size 3 to 8) (size 9 to 14) (size 15 to 20)
#    0.000    1.250    2.500    0.750   10.500    2.500 
#    0.000    0.000    0.000    5.250    0.000    0.000 
#    0.000    0.000    0.000    0.000    0.000    0.000 
#
# Total GULP energy -198330.610744 kJ/mol
# GULP energy per Si atom -12395.663171 kJ/mol
# Density = 2.435014 g / cm^3
# Si number density = 24.405693 Si / 1000 Ang^3
#
#
#
# Elastic Constant Matrix: (Units=GPa)
#
#
# Indices 1 2 3 4 5 6 
#
# 1 147.1156 52.8364 53.0365 7.3377 -5.6032 8.7882
# 2 52.8364 117.2073 50.1489 19.8523 6.8414 19.3097
# 3 53.0365 50.1489 109.9091 8.8430 -2.2713 4.7289
# 4 7.3377 19.8523 8.8430 37.2039 0.2883 -3.7765
# 5 -5.6032 6.8414 -2.2713 0.2883 47.5935 2.8823
# 6 8.7882 19.3097 4.7289 -3.7765 2.8823 37.8154
#
#
#
# Elastic Compliance Matrix: (Units=1/GPa)
#
#
# Indices 1 2 3 4 5 6 
#
# 1 0.008955 -0.002845 -0.003016 0.000427 0.001336 -0.000310
# 2 -0.002845 0.013891 -0.004212 -0.006482 -0.002106 -0.006392
# 3 -0.003016 -0.004212 0.012438 0.000006 0.000769 0.001238
# 4 0.000427 -0.006482 0.000006 0.030885 0.000416 0.006263
# 5 0.001336 -0.002106 0.000769 0.000416 0.021562 -0.000933
# 6 -0.000310 -0.006392 0.001238 0.006263 -0.000933 0.030322
#
#
# Mechanical properties :
#
#
# Convention : Reuss Voigt Hill
#
# Bulk Modulus (GPa) = 66.06713 76.25286 71.16000
# Shear Modulus (GPa) = 34.90536 39.06990 36.98763
#
# Velocity S-wave (km/s) = 3.78592 4.00541 3.89721
# Velocity P-wave (km/s) = 6.80000 7.25967 7.03359
#
# Compressibility (1/GPa) = 0.01513612
#
# Stress axis : x y z
#
# Youngs Moduli (GPa) = 111.67217 71.99061 80.39980
#
# Poissons Ratio (x) = 0.20485 0.24250
# Poissons Ratio (y) = 0.31776 0.33863
# Poissons Ratio (z) = 0.33683 0.30322
#
# Static dielectric constant tensor:
#      x y z
#    x 4.593940 0.302710 0.125190 
#    y 0.302710 4.827820 0.427810 
#    z 0.125190 0.427810 4.640740 
# 
# 
# High freq. dielectric constant tensor:
#      x y z
#    x 1.973520 0.018720 -0.001420 
#    y 0.018720 1.974200 0.023790 
#    z -0.001420 0.023790 1.973870 
# 
# From -- ./inp_files/53010.got.cif
#   From: 2010.06.25/outbox.cif.g09.slc.cpg/sg2_27_cif.got.tgz:53010.got - 2010.06.27 13:26:56.
