data_PCOD8013504
_publ_section_title
;
Structure prediction by ZEFSAII (Michael W. Deem and Ramdas Pophale) SiO2 
 PCOD8013504
Probable space group: P -1
;
_chemical_formula_sum "Si O2"
_cell_formula_units_Z 16
_cell_length_a 11.357833
_cell_length_b 9.688546
_cell_length_c 19.219557
_cell_angle_alpha 149.772978
_cell_angle_beta 133.644325
_cell_angle_gamma 56.137742
_cell_volume 766.009828
_symmetry_space_group_name_H-M "P -1"
_symmetry_group_IT_number 2
_symmetry_cell_setting 'triclinic'
loop_
_space_group_symop_operation_xyz
x,y,z
-x,-y,-z
loop_
_atom_site_type_symbol
_atom_site_label
_atom_site_fract_x
_atom_site_fract_y
_atom_site_fract_z
Si Si1 0.932096 0.708509 0.876335
Si Si2 0.437772 0.218665 0.817266
Si Si3 0.065925 0.131905 0.655755
Si Si4 0.440835 0.352046 0.600205
Si Si5 0.931580 0.787187 0.584888
Si Si6 0.565308 0.676751 0.670110
Si Si7 0.053476 0.777126 0.104553
Si Si8 0.429429 0.802382 0.281357
O O1 0.749449 0.618618 0.736283
O O2 0.033223 0.452216 0.787114
O O3 0.940278 0.770648 0.988250
O O4 0.000000 0.000000 0.000000
O O5 0.258819 0.115609 0.726753
O O6 0.446565 0.266379 0.758581
O O7 0.560131 0.996076 0.790609
O O8 0.500000 0.500000 0.000000
O O9 0.000000 0.000000 0.500000
O O10 0.992366 0.947829 0.609888
O O11 0.262532 0.272815 0.524443
O O12 0.455216 0.609463 0.665350
O O13 0.560521 0.407155 0.740246
O O14 0.496632 0.103584 0.468367
O O15 0.000000 0.500000 0.500000
O O16 0.986056 0.969131 0.753537
O O17 0.500000 0.500000 0.500000
O O18 0.246339 0.793799 0.172647
O O19 0.000000 0.500000 0.000000
#
# Coordination Sequence:
#
# PCOD8013504 Si02
#       8
#     2   2   2   2   2   2   2   2
#     4  12  27  44  69 105 136 180 231 280 346 407
#     4  12  25  44  66  97 142 176 214 280 347 397
#     4  12  26  44  70 100 137 181 227 280 343 406
#     4  10  22  40  71  97 126 169 234 276 322 392
#     4  11  25  43  67  99 137 178 228 282 340 401
#     4  12  24  44  71 100 132 177 235 276 329 412
#     4  11  22  43  70  93 135 178 228 279 336 408
#     4  10  21  40  68  96 127 175 222 277 328 393
#
# _framework density 20.887460000000001
#
# number of rings (size 3 to 8) (size 9 to 14) (size 15 to 20)
#    0.000    0.750    2.500    5.250    7.000    0.000 
#    2.250    0.625    0.000    0.000    0.000    0.000 
#    0.000    0.000    0.000    0.000    0.000    0.000 
#
# Total GULP energy -198398.530078 kJ/mol
# GULP energy per Si atom -12399.908130 kJ/mol
# Density = 2.083992 g / cm^3
# Si number density = 20.887460 Si / 1000 Ang^3
#
#
#
# Elastic Constant Matrix: (Units=GPa)
#
#
# Indices 1 2 3 4 5 6 
#
# 1 130.4460 50.7980 50.5036 -4.4313 -4.9017 18.2858
# 2 50.7980 136.5360 64.4676 -1.0501 -12.3982 19.5487
# 3 50.5036 64.4676 121.3027 -1.0617 -15.6149 7.0042
# 4 -4.4313 -1.0501 -1.0617 50.3395 -2.6003 1.0596
# 5 -4.9017 -12.3982 -15.6149 -2.6003 37.9067 1.9160
# 6 18.2858 19.5487 7.0042 1.0596 1.9160 43.3033
#
#
#
# Elastic Compliance Matrix: (Units=1/GPa)
#
#
# Indices 1 2 3 4 5 6 
#
# 1 0.009996 -0.001908 -0.003023 0.000817 -0.000375 -0.002874
# 2 -0.001908 0.010818 -0.004551 0.000116 0.001597 -0.003415
# 3 -0.003023 -0.004551 0.012252 0.000032 0.003108 0.001211
# 4 0.000817 0.000116 0.000032 0.020042 0.001581 -0.000963
# 5 -0.000375 0.001597 0.003108 0.001581 0.028363 -0.002359
# 6 -0.002874 -0.003415 0.001211 -0.000963 -0.002359 0.025780
#
#
# Mechanical properties :
#
#
# Convention : Reuss Voigt Hill
#
# Bulk Modulus (GPa) = 70.91464 79.98033 75.44748
# Shear Modulus (GPa) = 38.19289 41.14426 39.66857
#
# Velocity S-wave (km/s) = 4.28074 4.44307 4.36266
# Velocity P-wave (km/s) = 7.64575 8.04334 7.84707
#
# Compressibility (1/GPa) = 0.01410146
#
# Stress axis : x y z
#
# Youngs Moduli (GPa) = 100.04096 92.44154 81.62207
#
# Poissons Ratio (x) = 0.17637 0.24674
# Poissons Ratio (y) = 0.19087 0.37146
# Poissons Ratio (z) = 0.30242 0.42070
#
# Static dielectric constant tensor:
#      x y z
#    x 2.801850 1.814700 0.193680 
#    y 1.814700 1.113650 -0.433060 
#    z 0.193680 -0.433060 3.773590 
# 
# 
# High freq. dielectric constant tensor:
#      x y z
#    x 1.826570 0.012490 0.002990 
#    y 0.012490 1.828980 -0.006140 
#    z 0.002990 -0.006140 1.822350 
# 
# From -- ./inp_files/206451.got.cif
#   From: 2010.06.25/outbox.cif.g09.slc.cpg/sg2_104_cif.got.tgz:206451.got - 2010.06.27 13:26:56.
