data_PCOD8013547
_publ_section_title
;
Structure prediction by ZEFSAII (Michael W. Deem and Ramdas Pophale) SiO2 
 PCOD8013547
Probable space group: P -1
;
_chemical_formula_sum "Si O2"
_cell_formula_units_Z 16
_cell_length_a 14.824295
_cell_length_b 14.455759
_cell_length_c 12.231046
_cell_angle_alpha 58.625812
_cell_angle_beta 148.556418
_cell_angle_gamma 142.509068
_cell_volume 724.352845
_symmetry_space_group_name_H-M "P -1"
_symmetry_group_IT_number 2
_symmetry_cell_setting 'triclinic'
loop_
_space_group_symop_operation_xyz
x,y,z
-x,-y,-z
loop_
_atom_site_type_symbol
_atom_site_label
_atom_site_fract_x
_atom_site_fract_y
_atom_site_fract_z
Si Si1 0.161256 0.595434 0.969080
Si Si2 0.299092 0.985385 0.110106
Si Si3 0.380345 0.140195 0.884186
Si Si4 0.688597 0.494901 0.445603
Si Si5 0.322694 0.133542 0.248121
Si Si6 0.008578 0.855650 0.507889
Si Si7 0.447420 0.113000 0.626443
Si Si8 0.280260 0.405314 0.235279
O O1 0.313898 0.701716 0.948592
O O2 0.308754 0.711981 0.158795
O O3 0.142763 0.456289 0.046494
O O4 0.860868 0.506136 0.704697
O O5 0.485910 0.976570 0.277777
O O6 0.380214 0.063303 0.268181
O O7 0.970459 0.801115 0.875089
O O8 0.383978 0.119860 0.029197
O O9 0.241268 0.187921 0.690701
O O10 0.220347 0.964023 0.763428
O O11 0.518077 0.330323 0.289851
O O12 0.449974 0.453250 0.275437
O O13 0.898406 0.679023 0.485741
O O14 0.412413 0.158132 0.449989
O O15 0.000000 0.000000 0.000000
O O16 0.159193 0.972372 0.482535
O O17 0.500000 0.500000 0.500000
#
# Coordination Sequence:
#
# PCOD8013547 Si02
#       8
#     2   2   2   2   2   2   2   2
#     4  11  24  43  71 107 134 167 221 288 337 399
#     4  12  25  43  65  96 135 180 224 272 330 400
#     4  10  21  40  69 100 136 169 219 275 348 395
#     4  12  24  44  67  99 136 176 227 275 336 390
#     4  12  26  46  64  91 135 188 228 264 327 406
#     4  10  21  40  69 101 132 172 218 283 337 395
#     4  11  24  43  69 100 135 174 222 276 342 395
#     4  12  24  39  67 100 135 171 218 276 340 394
#
# _framework density 22.088683
#
# number of rings (size 3 to 8) (size 9 to 14) (size 15 to 20)
#    0.000    0.750    2.500    5.625    3.500    3.500 
#    0.000    6.250    0.000    0.000    0.000    0.000 
#    0.000    0.000    0.000    0.000    0.000    0.000 
#
# Total GULP energy -198388.081430 kJ/mol
# GULP energy per Si atom -12399.255089 kJ/mol
# Density = 2.203841 g / cm^3
# Si number density = 22.088683 Si / 1000 Ang^3
#
#
#
# Elastic Constant Matrix: (Units=GPa)
#
#
# Indices 1 2 3 4 5 6 
#
# 1 112.0814 28.8571 21.0389 3.0708 -9.4538 -4.6232
# 2 28.8571 113.7724 37.4775 6.6558 -15.3901 -10.9052
# 3 21.0389 37.4775 65.7236 3.2765 -4.4642 -3.6712
# 4 3.0708 6.6558 3.2765 31.6461 -8.6961 -0.6431
# 5 -9.4538 -15.3901 -4.4642 -8.6961 32.7111 -3.5268
# 6 -4.6232 -10.9052 -3.6712 -0.6431 -3.5268 35.7264
#
#
#
# Elastic Compliance Matrix: (Units=1/GPa)
#
#
# Indices 1 2 3 4 5 6 
#
# 1 0.009903 -0.001458 -0.002164 0.000137 0.002005 0.000815
# 2 -0.001458 0.012084 -0.005896 -0.000428 0.004707 0.003351
# 3 -0.002164 -0.005896 0.019230 -0.000825 -0.001018 -0.000219
# 4 0.000137 -0.000428 -0.000825 0.034254 0.008973 0.001305
# 5 0.002005 0.004707 -0.001018 0.008973 0.036185 0.005325
# 6 0.000815 0.003351 -0.000219 0.001305 0.005325 0.029646
#
#
# Mechanical properties :
#
#
# Convention : Reuss Voigt Hill
#
# Bulk Modulus (GPa) = 45.08228 51.81382 48.44805
# Shear Modulus (GPa) = 29.80977 33.63030 31.72004
#
# Velocity S-wave (km/s) = 3.67761 3.90617 3.79361
# Velocity P-wave (km/s) = 6.20379 6.62211 6.41636
#
# Compressibility (1/GPa) = 0.02218166
#
# Stress axis : x y z
#
# Youngs Moduli (GPa) = 100.98435 82.75155 52.00264
#
# Poissons Ratio (x) = 0.12062 0.11253
# Poissons Ratio (y) = 0.14719 0.30661
# Poissons Ratio (z) = 0.21852 0.48791
#
# Static dielectric constant tensor:
#      x y z
#    x 5.146650 -0.191260 -0.973570 
#    y -0.191260 4.131610 0.183250 
#    z -0.973570 0.183250 5.323600 
# 
# 
# High freq. dielectric constant tensor:
#      x y z
#    x 1.872490 0.000530 0.023480 
#    y 0.000530 1.880880 0.001710 
#    z 0.023480 0.001710 1.856450 
# 
# From -- ./inp_files/455676.got.cif
#   From: 2010.06.25/outbox.cif.g09.slc.cpg/sg2_228_cif.got.tgz:455676.got - 2010.06.27 13:26:56.
