data_PCOD8013947
_publ_section_title
;
Structure prediction by ZEFSAII (Michael W. Deem and Ramdas Pophale) SiO2 
 PCOD8013947
Probable space group: P -1
;
_chemical_formula_sum "Si O2"
_cell_formula_units_Z 16
_cell_length_a 16.780937
_cell_length_b 9.497534
_cell_length_c 20.048082
_cell_angle_alpha 151.940915
_cell_angle_beta 153.042558
_cell_angle_gamma 39.848337
_cell_volume 678.676478
_symmetry_space_group_name_H-M "P -1"
_symmetry_group_IT_number 2
_symmetry_cell_setting 'triclinic'
loop_
_space_group_symop_operation_xyz
x,y,z
-x,-y,-z
loop_
_atom_site_type_symbol
_atom_site_label
_atom_site_fract_x
_atom_site_fract_y
_atom_site_fract_z
Si Si1 0.234653 0.322261 0.270054
Si Si2 0.773446 0.747445 0.395039
Si Si3 0.626871 0.265097 0.570746
Si Si4 0.833803 0.149102 0.240187
Si Si5 0.873110 0.341028 0.062064
Si Si6 0.619677 0.229276 0.230655
Si Si7 0.804297 0.878498 0.319768
Si Si8 0.311408 0.533031 0.156481
O O1 0.424219 0.343916 0.456549
O O2 0.254463 0.499928 0.289183
O O3 0.083259 0.456904 0.259736
O O4 0.156298 0.978050 0.055961
O O5 0.739777 0.384531 0.220998
O O6 0.768019 0.849480 0.358072
O O7 0.957557 0.841869 0.609342
O O8 0.630680 0.926308 0.403371
O O9 0.708487 0.283593 0.713623
O O10 0.802992 0.271532 0.343997
O O11 0.753554 0.815528 0.024750
O O12 0.770715 0.564571 0.123884
O O13 0.793337 0.316986 0.917504
O O14 0.519807 0.531876 0.292241
O O15 0.660892 0.095340 0.277509
O O16 0.500000 0.000000 0.000000
O O17 0.000000 0.000000 0.500000
#
# Coordination Sequence:
#
# PCOD8013947 Si02
#       8
#     2   2   2   2   2   2   2   2
#     4  10  26  45  66  98 139 177 230 276 336 406
#     4  11  25  41  68 101 139 178 219 279 341 406
#     4  11  26  46  67  99 141 179 220 285 339 396
#     4  10  22  45  64 104 136 171 228 275 342 404
#     4  11  24  47  69 100 132 183 232 274 335 409
#     4  10  21  41  63  96 128 170 219 274 328 389
#     4  12  22  40  71  97 132 179 226 279 334 398
#     4  11  24  43  73  96 134 177 221 283 337 400
#
# _framework density 23.575296999999999
#
# number of rings (size 3 to 8) (size 9 to 14) (size 15 to 20)
#    0.000    1.250    3.750    1.500    8.750    2.500 
#    6.750    3.125    0.000    0.000    0.000    0.000 
#    0.000    0.000    0.000    0.000    0.000    0.000 
#
# Total GULP energy -198350.274247 kJ/mol
# GULP energy per Si atom -12396.892140 kJ/mol
# Density = 2.352164 g / cm^3
# Si number density = 23.575297 Si / 1000 Ang^3
#
#
#
# Elastic Constant Matrix: (Units=GPa)
#
#
# Indices 1 2 3 4 5 6 
#
# 1 92.7341 27.3683 20.1315 -1.3244 -21.0074 -4.2387
# 2 27.3683 112.1882 9.7748 -10.6053 -6.8857 3.5537
# 3 20.1315 9.7748 46.4090 -0.6238 -2.4062 6.2364
# 4 -1.3244 -10.6053 -0.6238 24.0723 6.8552 4.2486
# 5 -21.0074 -6.8857 -2.4062 6.8552 37.3647 -6.0619
# 6 -4.2387 3.5537 6.2364 4.2486 -6.0619 39.0785
#
#
#
# Elastic Compliance Matrix: (Units=1/GPa)
#
#
# Indices 1 2 3 4 5 6 
#
# 1 0.015304 -0.003178 -0.006197 -0.004179 0.009167 0.004814
# 2 -0.003178 0.010192 -0.000505 0.004971 -0.001163 -0.001912
# 3 -0.006197 -0.000505 0.024916 0.001926 -0.003187 -0.005306
# 4 -0.004179 0.004971 0.001926 0.048284 -0.011506 -0.008247
# 5 0.009167 -0.001163 -0.003187 -0.011506 0.034952 0.008282
# 6 0.004814 -0.001912 -0.005306 -0.008247 0.008282 0.029314
#
#
# Mechanical properties :
#
#
# Convention : Reuss Voigt Hill
#
# Bulk Modulus (GPa) = 32.62446 40.65339 36.63893
# Shear Modulus (GPa) = 25.91504 33.04021 29.47762
#
# Velocity S-wave (km/s) = 3.31908 3.74769 3.53988
# Velocity P-wave (km/s) = 5.34386 6.00070 5.68178
#
# Compressibility (1/GPa) = 0.03065185
#
# Stress axis : x y z
#
# Youngs Moduli (GPa) = 65.34283 98.11637 40.13538
#
# Poissons Ratio (x) = 0.31185 0.24872
# Poissons Ratio (y) = 0.20768 0.02025
# Poissons Ratio (z) = 0.40493 0.04950
#
# Static dielectric constant tensor:
#      x y z
#    x 5.031650 -0.274710 0.307780 
#    y -0.274710 4.499250 0.027650 
#    z 0.307780 0.027650 3.983220 
# 
# 
# High freq. dielectric constant tensor:
#      x y z
#    x 1.932580 -0.007390 0.009650 
#    y -0.007390 1.948810 0.000140 
#    z 0.009650 0.000140 1.910710 
# 
# From -- ./inp_files/599671.got.cif
#   From: 2010.06.25/outbox.cif.g09.slc.cpg/sg2_300_cif.got.tgz:599671.got - 2010.06.27 13:26:56.
