data_PCOD8013821
_publ_section_title
;
Structure prediction by ZEFSAII (Michael W. Deem and Ramdas Pophale) SiO2 
 PCOD8013821
Probable space group: P -1
;
_chemical_formula_sum "Si O2"
_cell_formula_units_Z 16
_cell_length_a 9.713047
_cell_length_b 9.413607
_cell_length_c 18.358475
_cell_angle_alpha 142.964825
_cell_angle_beta 68.979375
_cell_angle_gamma 130.558868
_cell_volume 719.414203
_symmetry_space_group_name_H-M "P -1"
_symmetry_group_IT_number 2
_symmetry_cell_setting 'triclinic'
loop_
_space_group_symop_operation_xyz
x,y,z
-x,-y,-z
loop_
_atom_site_type_symbol
_atom_site_label
_atom_site_fract_x
_atom_site_fract_y
_atom_site_fract_z
Si Si1 0.029306 0.887718 0.051714
Si Si2 0.411353 0.112931 0.013345
Si Si3 0.668933 0.801272 0.241160
Si Si4 0.196124 0.633684 0.478063
Si Si5 0.239587 0.767495 0.218607
Si Si6 0.628862 0.023405 0.198066
Si Si7 0.054293 0.465491 0.277759
Si Si8 0.913790 0.975511 0.740397
O O1 0.181523 0.896732 0.977810
O O2 0.018853 0.150686 0.139034
O O3 0.096556 0.921589 0.135645
O O4 0.825724 0.547945 0.935379
O O5 0.500195 0.456869 0.160598
O O6 0.500000 0.000000 0.000000
O O7 0.461417 0.127978 0.925390
O O8 0.640512 0.021436 0.379650
O O9 0.661869 0.833083 0.167836
O O10 0.870413 0.891122 0.260820
O O11 0.176986 0.642705 0.398986
O O12 0.236741 0.399586 0.391508
O O13 0.000000 0.500000 0.500000
O O14 0.181253 0.712376 0.291532
O O15 0.471697 0.028832 0.270352
O O16 0.135035 0.881307 0.250397
O O17 0.840328 0.362987 0.285516
#
# Coordination Sequence:
#
# PCOD8013821 Si02
#       8
#     2   2   2   2   2   2   2   2
#     4  11  21  39  61  90 135 171 209 260 323 389
#     4  12  25  39  63 105 135 161 214 271 324 383
#     4  11  22  42  70  89 124 181 214 256 325 385
#     4   9  19  43  71  86 124 177 220 258 317 383
#     4  12  24  38  63  99 132 168 208 270 338 367
#     4  12  24  41  67  96 131 169 218 260 320 390
#     4  11  23  41  65  96 128 172 220 267 306 394
#     4  10  21  41  62  90 128 170 215 266 321 376
#
# _framework density 22.240317000000001
#
# number of rings (size 3 to 8) (size 9 to 14) (size 15 to 20)
#    0.000    1.000    5.000    4.125    1.750    0.000 
#    0.000   10.000    0.000    0.000    0.000    0.000 
#    0.000    0.000    0.000    0.000    0.000    0.000 
#
# Total GULP energy -198370.824115 kJ/mol
# GULP energy per Si atom -12398.176507 kJ/mol
# Density = 2.218970 g / cm^3
# Si number density = 22.240317 Si / 1000 Ang^3
#
#
#
# Elastic Constant Matrix: (Units=GPa)
#
#
# Indices 1 2 3 4 5 6 
#
# 1 102.4986 45.0597 11.2131 -11.9566 4.4542 -7.5908
# 2 45.0597 123.7541 44.1556 -21.2581 -0.8988 -8.8468
# 3 11.2131 44.1556 89.6830 -3.8576 2.3190 -18.6715
# 4 -11.9566 -21.2581 -3.8576 26.8177 1.9799 3.6826
# 5 4.4542 -0.8988 2.3190 1.9799 14.5901 -2.7691
# 6 -7.5908 -8.8468 -18.6715 3.6826 -2.7691 46.3421
#
#
#
# Elastic Compliance Matrix: (Units=1/GPa)
#
#
# Indices 1 2 3 4 5 6 
#
# 1 0.012079 -0.004343 0.001073 0.002250 -0.004212 0.001151
# 2 -0.004343 0.012951 -0.005777 0.007509 0.001823 -0.001054
# 3 0.001073 -0.005777 0.014871 -0.002544 -0.001722 0.005164
# 4 0.002250 0.007509 -0.002544 0.044794 -0.006501 -0.003171
# 5 -0.004212 0.001823 -0.001722 -0.006501 0.071810 0.003772
# 6 0.001151 -0.001054 0.005164 -0.003171 0.003772 0.024124
#
#
# Mechanical properties :
#
#
# Convention : Reuss Voigt Hill
#
# Bulk Modulus (GPa) = 45.85596 57.42140 51.63868
# Shear Modulus (GPa) = 24.27314 31.91713 28.09513
#
# Velocity S-wave (km/s) = 3.30722 3.79238 3.55808
# Velocity P-wave (km/s) = 5.93690 6.71200 6.33631
#
# Compressibility (1/GPa) = 0.02180741
#
# Stress axis : x y z
#
# Youngs Moduli (GPa) = 82.79023 77.21581 67.24644
#
# Poissons Ratio (x) = 0.33532 -0.07218
# Poissons Ratio (y) = 0.35953 0.38848
# Poissons Ratio (z) = -0.08886 0.44608
#
# Static dielectric constant tensor:
#      x y z
#    x 3.876390 0.013950 0.068950 
#    y 0.013950 4.145750 0.241750 
#    z 0.068950 0.241750 4.889170 
# 
# 
# High freq. dielectric constant tensor:
#      x y z
#    x 1.866650 0.000730 0.009530 
#    y 0.000730 1.882140 -0.013380 
#    z 0.009530 -0.013380 1.859120 
# 
# From -- ./inp_files/354961.got.cif
#   From: 2010.06.25/outbox.cif.g09.slc.cpg/sg2_178_cif.got.tgz:354961.got - 2010.06.27 13:26:56.
