data_PCOD8013740
_publ_section_title
;
Structure prediction by ZEFSAII (Michael W. Deem and Ramdas Pophale) SiO2 
 PCOD8013740
Probable space group: P -1
;
_chemical_formula_sum "Si O2"
_cell_formula_units_Z 12
_cell_length_a 12.529553
_cell_length_b 5.295541
_cell_length_c 23.459470
_cell_angle_alpha 49.450027
_cell_angle_beta 157.070593
_cell_angle_gamma 130.068456
_cell_volume 455.442684
_symmetry_space_group_name_H-M "P -1"
_symmetry_group_IT_number 2
_symmetry_cell_setting 'triclinic'
loop_
_space_group_symop_operation_xyz
x,y,z
-x,-y,-z
loop_
_atom_site_type_symbol
_atom_site_label
_atom_site_fract_x
_atom_site_fract_y
_atom_site_fract_z
Si Si1 0.401815 0.954829 0.204410
Si Si2 0.300418 0.643913 0.605524
Si Si3 0.928428 0.411390 0.214882
Si Si4 0.013978 0.625974 0.880178
Si Si5 0.429546 0.078186 0.075202
Si Si6 0.574360 0.082524 0.589419
O O1 0.592927 0.676969 0.323013
O O2 0.106875 0.765220 0.111189
O O3 0.529341 0.212146 0.276840
O O4 0.371848 0.161910 0.100450
O O5 0.305475 0.954173 0.516021
O O6 0.000000 0.500000 0.500000
O O7 0.759830 0.134007 0.215164
O O8 0.923715 0.269842 0.169942
O O9 0.744874 0.711888 0.083293
O O10 0.257518 0.530637 0.376822
O O11 0.785061 0.852483 0.753729
O O12 0.289607 0.698906 0.044970
O O13 0.500000 0.000000 0.500000
#
# Coordination Sequence:
#
# PCOD8013740 Si02
#       6
#     2   2   2   2   2   2
#     4  11  24  43  67  96 127 169 213 263 323 374
#     4  11  25  45  65  95 131 166 218 266 309 384
#     4  10  21  41  60  91 130 158 219 260 314 382
#     4  10  21  41  61  92 127 163 212 267 312 382
#     4  10  23  37  64  94 125 168 209 262 320 381
#     4  10  23  41  62  91 124 170 212 262 321 374
#
# _framework density 26.347989999999999
#
# number of rings (size 3 to 8) (size 9 to 14) (size 15 to 20)
#    0.000    1.667    1.667    1.500    4.667    2.667 
#    0.000    0.000    0.000    0.000    0.000    0.000 
#    0.000    0.000    0.000    0.000    0.000    0.000 
#
# Total GULP energy -148727.375135 kJ/mol
# GULP energy per Si atom -12393.947928 kJ/mol
# Density = 2.628802 g / cm^3
# Si number density = 26.347990 Si / 1000 Ang^3
#
#
#
# Elastic Constant Matrix: (Units=GPa)
#
#
# Indices 1 2 3 4 5 6 
#
# 1 153.8745 20.8632 42.9735 29.7795 -11.8909 44.0981
# 2 20.8632 66.1470 37.3659 27.2968 4.1235 30.9709
# 3 42.9735 37.3659 89.0849 45.8279 -6.7255 34.0613
# 4 29.7795 27.2968 45.8279 44.9088 1.3479 10.0982
# 5 -11.8909 4.1235 -6.7255 1.3479 58.2295 11.5427
# 6 44.0981 30.9709 34.0613 10.0982 11.5427 56.2990
#
#
#
# Elastic Compliance Matrix: (Units=1/GPa)
#
#
# Indices 1 2 3 4 5 6 
#
# 1 0.010918 0.004506 0.003570 -0.011019 0.005004 -0.012240
# 2 0.004506 0.028202 0.003158 -0.019368 0.003337 -0.018165
# 3 0.003570 0.003158 0.035964 -0.036384 0.009818 -0.021779
# 4 -0.011019 -0.019368 -0.036384 0.071881 -0.012900 0.031051
# 5 0.005004 0.003337 0.009818 -0.012900 0.022152 -0.013923
# 6 -0.012240 -0.018165 -0.021779 0.031051 -0.013923 0.047804
#
#
# Mechanical properties :
#
#
# Convention : Reuss Voigt Hill
#
# Bulk Modulus (GPa) = 10.25095 56.83459 33.54277
# Shear Modulus (GPa) = 22.02925 45.74773 33.88849
#
# Velocity S-wave (km/s) = 2.89466 4.17140 3.59024
# Velocity P-wave (km/s) = 3.88215 6.69465 5.47218
#
# Compressibility (1/GPa) = 0.09755196
#
# Stress axis : x y z
#
# Youngs Moduli (GPa) = 91.59194 35.45793 27.80548
#
# Poissons Ratio (x) = -0.15978 -0.09925
# Poissons Ratio (y) = -0.41274 -0.08781
# Poissons Ratio (z) = -0.32694 -0.11197
#
# Static dielectric constant tensor:
#      x y z
#    x 4.856430 0.403150 0.341140 
#    y 0.403150 5.438380 0.181800 
#    z 0.341140 0.181800 4.775160 
# 
# 
# High freq. dielectric constant tensor:
#      x y z
#    x 2.068740 0.006800 0.014290 
#    y 0.006800 2.072560 0.005240 
#    z 0.014290 0.005240 2.054050 
# 
# From -- ./inp_files/19017.got.cif
#   From: 2010.06.25/outbox.cif.g09.slc.cpg/sg2_10_cif.got.tgz:19017.got - 2010.06.27 13:26:56.
