data_PCOD8013303
_publ_section_title
;
Structure prediction by ZEFSAII (Michael W. Deem and Ramdas Pophale) SiO2 
 PCOD8013303
Probable space group: P -1
;
_chemical_formula_sum "Si O2"
_cell_formula_units_Z 14
_cell_length_a 8.562256
_cell_length_b 12.867788
_cell_length_c 10.857271
_cell_angle_alpha 84.947830
_cell_angle_beta 125.180359
_cell_angle_gamma 132.521781
_cell_volume 623.962595
_symmetry_space_group_name_H-M "P -1"
_symmetry_group_IT_number 2
_symmetry_cell_setting 'triclinic'
loop_
_space_group_symop_operation_xyz
x,y,z
-x,-y,-z
loop_
_atom_site_type_symbol
_atom_site_label
_atom_site_fract_x
_atom_site_fract_y
_atom_site_fract_z
Si Si1 0.807250 0.692451 0.111025
Si Si2 0.661724 0.187003 0.189547
Si Si3 0.702666 0.788871 0.836786
Si Si4 0.327314 0.753593 0.339036
Si Si5 0.471455 0.100967 0.837826
Si Si6 0.967688 0.014479 0.717405
Si Si7 0.178556 0.518239 0.472335
O O1 0.089864 0.741726 0.268816
O O2 0.819679 0.794326 0.201758
O O3 0.500000 0.500000 0.000000
O O4 0.849921 0.759233 0.987392
O O5 0.491473 0.212920 0.169833
O O6 0.008090 0.340403 0.375240
O O7 0.534977 0.022901 0.193274
O O8 0.648331 0.190511 0.035598
O O9 0.509953 0.642925 0.663244
O O10 0.949188 0.958289 0.854541
O O11 0.364538 0.764476 0.207654
O O12 0.192599 0.589925 0.344698
O O13 0.642556 0.909733 0.531866
O O14 0.130174 0.998276 0.706346
O O15 0.000000 0.500000 0.500000
#
# Coordination Sequence:
#
# PCOD8013303 Si02
#       7
#     2   2   2   2   2   2   2
#     4  12  24  40  67 100 127 163 221 276 317 372
#     4  10  21  40  66  97 128 171 218 265 320 383
#     4  10  21  41  69  92 123 171 221 266 317 376
#     4  11  25  42  65  98 131 172 212 265 333 376
#     4  11  24  39  66  95 135 175 212 259 326 394
#     4  11  24  44  65  93 132 174 219 263 316 391
#     4   9  20  42  66  91 125 164 215 271 316 371
#
# _framework density 22.437244
#
# number of rings (size 3 to 8) (size 9 to 14) (size 15 to 20)
#    0.000    1.429    1.429    3.857    4.000    4.000 
#    0.000    2.857    0.000    0.000    0.000    0.000 
#    0.000    0.000    0.000    0.000    0.000    0.000 
#
# Total GULP energy -173552.870104 kJ/mol
# GULP energy per Si atom -12396.633579 kJ/mol
# Density = 2.238618 g / cm^3
# Si number density = 22.437244 Si / 1000 Ang^3
#
#
#
# Elastic Constant Matrix: (Units=GPa)
#
#
# Indices 1 2 3 4 5 6 
#
# 1 51.3126 20.5565 17.9724 0.5309 -5.7076 6.7285
# 2 20.5565 84.6322 37.4555 14.8144 -12.7750 16.0770
# 3 17.9724 37.4555 98.6636 7.3648 4.5511 -9.8282
# 4 0.5309 14.8144 7.3648 46.3272 2.1798 -9.4020
# 5 -5.7076 -12.7750 4.5511 2.1798 36.1813 -8.0101
# 6 6.7285 16.0770 -9.8282 -9.4020 -8.0101 30.0925
#
#
#
# Elastic Compliance Matrix: (Units=1/GPa)
#
#
# Indices 1 2 3 4 5 6 
#
# 1 0.022650 -0.002918 -0.003537 0.000325 0.002081 -0.004005
# 2 -0.002918 0.021643 -0.008781 -0.008808 0.005480 -0.015072
# 3 -0.003537 -0.008781 0.015100 0.002710 -0.003430 0.010348
# 4 0.000325 -0.008808 0.002710 0.026771 -0.002060 0.013334
# 5 0.002081 0.005480 -0.003430 -0.002060 0.031151 0.003135
# 6 -0.004005 -0.015072 0.010348 0.013334 0.003135 0.050558
#
#
# Mechanical properties :
#
#
# Convention : Reuss Voigt Hill
#
# Bulk Modulus (GPa) = 34.57854 42.95305 38.76579
# Shear Modulus (GPa) = 24.04001 33.09513 28.56757
#
# Velocity S-wave (km/s) = 3.27683 3.84475 3.57209
# Velocity P-wave (km/s) = 5.45541 6.23656 5.85902
#
# Compressibility (1/GPa) = 0.02891967
#
# Stress axis : x y z
#
# Youngs Moduli (GPa) = 44.15089 46.20427 66.22410
#
# Poissons Ratio (x) = 0.13481 0.23426
# Poissons Ratio (y) = 0.12882 0.58154
# Poissons Ratio (z) = 0.15618 0.40574
#
# Static dielectric constant tensor:
#      x y z
#    x 3.741140 0.086740 -0.001610 
#    y 0.086740 4.264420 0.164440 
#    z -0.001610 0.164440 4.585270 
# 
# 
# High freq. dielectric constant tensor:
#      x y z
#    x 1.857790 0.008730 -0.000740 
#    y 0.008730 1.885740 0.002600 
#    z -0.000740 0.002600 1.903140 
# 
# From -- ./inp_files/183071.got.cif
#   From: 2010.06.25/outbox.cif.g09.slc.cpg/sg2_92_cif.got.tgz:183071.got - 2010.06.27 13:26:56.
