data_PCOD8013148
_publ_section_title
;
Structure prediction by ZEFSAII (Michael W. Deem and Ramdas Pophale) SiO2 
 PCOD8013148
Probable space group: P -1
;
_chemical_formula_sum "Si O2"
_cell_formula_units_Z 16
_cell_length_a 8.988594
_cell_length_b 4.939735
_cell_length_c 17.721451
_cell_angle_alpha 82.088345
_cell_angle_beta 99.000061
_cell_angle_gamma 96.539950
_cell_volume 766.331381
_symmetry_space_group_name_H-M "P -1"
_symmetry_group_IT_number 2
_symmetry_cell_setting 'triclinic'
loop_
_space_group_symop_operation_xyz
x,y,z
-x,-y,-z
loop_
_atom_site_type_symbol
_atom_site_label
_atom_site_fract_x
_atom_site_fract_y
_atom_site_fract_z
Si Si1 0.138619 0.545407 0.951979
Si Si2 0.589050 0.074517 0.429588
Si Si3 0.154604 0.466944 0.359645
Si Si4 0.129684 0.913753 0.460606
Si Si5 0.486376 0.606815 0.336679
Si Si6 0.659532 0.916167 0.043822
Si Si7 0.112557 0.588033 0.773073
Si Si8 0.312369 0.138063 0.780293
O O1 0.271537 0.341319 0.981585
O O2 0.077099 0.540877 0.861030
O O3 0.210797 0.842979 0.967966
O O4 0.000000 0.500000 0.000000
O O5 0.588616 0.786969 0.397646
O O6 0.500000 0.000000 0.500000
O O7 0.754420 0.192439 0.465406
O O8 0.520777 0.292610 0.360883
O O9 0.307491 0.628835 0.332399
O O10 0.083109 0.666480 0.407436
O O11 0.041028 0.376492 0.285573
O O12 0.198556 0.186064 0.411634
O O13 0.000000 0.000000 0.500000
O O14 0.537471 0.736472 0.255616
O O15 0.630338 0.851155 0.130802
O O16 0.500000 0.000000 0.000000
O O17 0.174608 0.322936 0.751449
O O18 0.243202 0.836836 0.760117
#
# Coordination Sequence:
#
# PCOD8013148 Si02
#       8
#     2   2   2   2   2   2   2   2
#     4  10  21  40  65  96 128 170 210 249 314 372
#     4  12  23  43  62  85 120 156 200 259 310 357
#     4  12  24  43  60  90 122 155 204 258 302 366
#     4  12  27  41  61  90 117 155 208 253 309 365
#     4  12  24  40  65  88 118 161 203 251 312 367
#     4  10  21  40  65  96 131 163 210 262 302 368
#     4  10  23  41  62  89 129 163 202 256 302 365
#     4  10  23  41  62  92 123 166 206 245 313 367
#
# _framework density 20.878698
#
# number of rings (size 3 to 8) (size 9 to 14) (size 15 to 20)
#    0.000    1.000    2.500    3.750    5.250    1.000 
#    0.000    2.500    0.000    0.000    0.000    0.000 
#    0.000    0.000    0.000    0.000    0.000    0.000 
#
# Total GULP energy -198356.955396 kJ/mol
# GULP energy per Si atom -12397.309712 kJ/mol
# Density = 2.083118 g / cm^3
# Si number density = 20.878698 Si / 1000 Ang^3
#
#
#
# Elastic Constant Matrix: (Units=GPa)
#
#
# Indices 1 2 3 4 5 6 
#
# 1 105.1138 8.9044 59.1908 -4.9899 -3.4446 1.2863
# 2 8.9044 79.4135 27.2696 -7.1206 -9.8614 -12.4998
# 3 59.1908 27.2696 86.1394 -9.8533 -9.3703 5.0837
# 4 -4.9899 -7.1206 -9.8533 32.8014 5.9459 -0.1869
# 5 -3.4446 -9.8614 -9.3703 5.9459 36.3850 -8.8496
# 6 1.2863 -12.4998 5.0837 -0.1869 -8.8496 26.4742
#
#
#
# Elastic Compliance Matrix: (Units=1/GPa)
#
#
# Indices 1 2 3 4 5 6 
#
# 1 0.016054 0.002752 -0.012144 -0.000578 -0.000081 0.002820
# 2 0.002752 0.017395 -0.007334 0.001025 0.005691 0.011397
# 3 -0.012144 -0.007334 0.023140 0.003373 0.000541 -0.007112
# 4 -0.000578 0.001025 0.003373 0.032453 -0.004560 -0.001431
# 5 -0.000081 0.005691 0.000541 -0.004560 0.033226 0.013661
# 6 0.002820 0.011397 -0.007112 -0.001431 0.013661 0.048939
#
#
# Mechanical properties :
#
#
# Convention : Reuss Voigt Hill
#
# Bulk Modulus (GPa) = 43.22184 51.26627 47.24406
# Shear Modulus (GPa) = 23.54360 30.81890 27.18125
#
# Velocity S-wave (km/s) = 3.36167 3.84616 3.61205
# Velocity P-wave (km/s) = 5.98449 6.65820 6.33031
#
# Compressibility (1/GPa) = 0.02313645
#
# Stress axis : x y z
#
# Youngs Moduli (GPa) = 62.28801 57.48887 43.21451
#
# Poissons Ratio (x) = -0.15821 0.52482
# Poissons Ratio (y) = -0.17142 0.31694
# Poissons Ratio (z) = 0.75645 0.42163
#
# Static dielectric constant tensor:
#      x y z
#    x 3.511820 -0.112190 0.060850 
#    y -0.112190 4.007350 -0.237780 
#    z 0.060850 -0.237780 3.821510 
# 
# 
# High freq. dielectric constant tensor:
#      x y z
#    x 1.816140 -0.004840 -0.006110 
#    y -0.004840 1.834230 -0.006810 
#    z -0.006110 -0.006810 1.813990 
# 
# From -- ./inp_files/553364.got.cif
#   From: 2010.06.25/outbox.cif.g09.slc.cpg/sg2_277_cif.got.tgz:553364.got - 2010.06.27 13:26:56.
