data_PCOD8013941
_publ_section_title
;
Structure prediction by ZEFSAII (Michael W. Deem and Ramdas Pophale) SiO2 
 PCOD8013941
Probable space group: P -1
;
_chemical_formula_sum "Si O2"
_cell_formula_units_Z 16
_cell_length_a 12.206580
_cell_length_b 14.758543
_cell_length_c 9.199827
_cell_angle_alpha 103.528165
_cell_angle_beta 63.148168
_cell_angle_gamma 149.770623
_cell_volume 697.902682
_symmetry_space_group_name_H-M "P -1"
_symmetry_group_IT_number 2
_symmetry_cell_setting 'triclinic'
loop_
_space_group_symop_operation_xyz
x,y,z
-x,-y,-z
loop_
_atom_site_type_symbol
_atom_site_label
_atom_site_fract_x
_atom_site_fract_y
_atom_site_fract_z
Si Si1 0.305762 0.896596 0.361404
Si Si2 0.236229 0.150902 0.580890
Si Si3 0.463987 0.389704 0.796849
Si Si4 0.252378 0.433385 0.025650
Si Si5 0.902382 0.784549 0.522433
Si Si6 0.836607 0.274992 0.311228
Si Si7 0.163446 0.655883 0.137939
Si Si8 0.663052 0.373990 0.193065
O O1 0.190200 0.765657 0.519068
O O2 0.340602 0.841188 0.195795
O O3 0.121573 0.853896 0.394300
O O4 0.571228 0.119638 0.331861
O O5 0.322551 0.217844 0.721438
O O6 0.161101 0.203459 0.585132
O O7 0.450454 0.239042 0.392811
O O8 0.992187 0.921635 0.637936
O O9 0.610130 0.439353 0.861193
O O10 0.653204 0.568783 0.644106
O O11 0.264220 0.330264 0.961735
O O12 0.959266 0.267094 0.153861
O O13 0.389477 0.573941 0.861537
O O14 0.024195 0.486487 0.258003
O O15 0.943454 0.571701 0.164906
O O16 0.341368 0.725806 0.934575
#
# Coordination Sequence:
#
# PCOD8013941 Si02
#       8
#     2   2   2   2   2   2   2   2
#     4  11  22  40  66  92 127 169 211 258 319 376
#     4  11  24  42  67  96 127 171 208 266 317 373
#     4  11  22  43  68  93 127 172 210 259 322 375
#     4  10  22  41  65  96 130 163 214 262 313 381
#     4  11  23  41  67  98 126 162 221 261 305 386
#     4  10  22  42  60  96 129 162 213 266 306 384
#     4  10  22  40  64  91 126 174 206 262 318 366
#     4  10  21  41  63  95 133 160 217 260 311 384
#
# _framework density 22.925832
#
# number of rings (size 3 to 8) (size 9 to 14) (size 15 to 20)
#    0.000    1.500    2.500    2.250    1.750    0.000 
#   13.500    8.750    0.000    0.000    0.000    0.000 
#    0.000    0.000    0.000    0.000    0.000    0.000 
#
# Total GULP energy -198397.520970 kJ/mol
# GULP energy per Si atom -12399.845061 kJ/mol
# Density = 2.287365 g / cm^3
# Si number density = 22.925832 Si / 1000 Ang^3
#
#
#
# Elastic Constant Matrix: (Units=GPa)
#
#
# Indices 1 2 3 4 5 6 
#
# 1 99.3158 4.1337 18.5910 3.9852 -15.9364 9.6102
# 2 4.1337 64.0544 11.3345 23.7904 -4.7440 1.8786
# 3 18.5910 11.3345 70.7112 25.3406 -10.7528 9.1413
# 4 3.9852 23.7904 25.3406 26.6255 3.5158 -2.7566
# 5 -15.9364 -4.7440 -10.7528 3.5158 32.0365 -4.2264
# 6 9.6102 1.8786 9.1413 -2.7566 -4.2264 21.8186
#
#
#
# Elastic Compliance Matrix: (Units=1/GPa)
#
#
# Indices 1 2 3 4 5 6 
#
# 1 0.011572 0.001113 -0.000667 -0.003258 0.005493 -0.004261
# 2 0.001113 0.030711 0.014103 -0.044005 0.013072 -0.012071
# 3 -0.000667 0.014103 0.034757 -0.049673 0.016423 -0.018577
# 4 -0.003258 -0.044005 -0.049673 0.132955 -0.034635 0.036124
# 5 0.005493 0.013072 0.016423 -0.034635 0.044377 -0.006205
# 6 -0.004261 -0.012071 -0.018577 0.036124 -0.006205 0.059894
#
#
# Mechanical properties :
#
#
# Convention : Reuss Voigt Hill
#
# Bulk Modulus (GPa) = 9.42174 33.57777 21.49975
# Shear Modulus (GPa) = 15.59839 29.43093 22.51466
#
# Velocity S-wave (km/s) = 2.61125 3.58683 3.13719
# Velocity P-wave (km/s) = 3.63457 5.64197 4.74562
#
# Compressibility (1/GPa) = 0.10613754
#
# Stress axis : x y z
#
# Youngs Moduli (GPa) = 86.41654 32.56213 28.77116
#
# Poissons Ratio (x) = -0.03625 0.01919
# Poissons Ratio (y) = -0.09620 -0.40576
# Poissons Ratio (z) = 0.05765 -0.45922
#
# Static dielectric constant tensor:
#      x y z
#    x 4.310390 0.125270 -0.024640 
#    y 0.125270 3.842090 0.047600 
#    z -0.024640 0.047600 4.082100 
# 
# 
# High freq. dielectric constant tensor:
#      x y z
#    x 1.922500 0.009080 -0.002650 
#    y 0.009080 1.881410 0.003790 
#    z -0.002650 0.003790 1.900380 
# 
# From -- ./inp_files/273368.got.cif
#   From: 2010.06.25/outbox.cif.g09.slc.cpg/sg2_137_cif.got.tgz:273368.got - 2010.06.27 13:26:56.
