data_PCOD8013029
_publ_section_title
;
Structure prediction by ZEFSAII (Michael W. Deem and Ramdas Pophale) SiO2 
 PCOD8013029
Probable space group: P -1
;
_chemical_formula_sum "Si O2"
_cell_formula_units_Z 14
_cell_length_a 21.273156
_cell_length_b 8.841482
_cell_length_c 6.792310
_cell_angle_alpha 122.075991
_cell_angle_beta 111.132796
_cell_angle_gamma 39.041413
_cell_volume 678.622950
_symmetry_space_group_name_H-M "P -1"
_symmetry_group_IT_number 2
_symmetry_cell_setting 'triclinic'
loop_
_space_group_symop_operation_xyz
x,y,z
-x,-y,-z
loop_
_atom_site_type_symbol
_atom_site_label
_atom_site_fract_x
_atom_site_fract_y
_atom_site_fract_z
Si Si1 0.986679 0.843414 0.269331
Si Si2 0.582711 0.372525 0.169783
Si Si3 0.484280 0.139030 0.381418
Si Si4 0.912738 0.584319 0.584262
Si Si5 0.195054 0.018156 0.935638
Si Si6 0.634041 0.881229 0.040996
Si Si7 0.848060 0.570117 0.110693
O O1 0.869832 0.031566 0.223680
O O2 0.035355 0.604619 0.301466
O O3 0.000000 0.000000 0.500000
O O4 0.049494 0.721301 0.052121
O O5 0.544790 0.597220 0.434628
O O6 0.600592 0.148075 0.137326
O O7 0.685890 0.249157 0.109501
O O8 0.500000 0.500000 0.000000
O O9 0.588201 0.926743 0.233124
O O10 0.500000 0.000000 0.500000
O O11 0.398356 0.204813 0.210389
O O12 0.853042 0.577564 0.358976
O O13 0.000000 0.500000 0.500000
O O14 0.833323 0.872163 0.796388
O O15 0.168971 0.209688 0.866896
O O16 0.753827 0.626970 0.003955
#
# Coordination Sequence:
#
# PCOD8013029 Si02
#       7
#     2   2   2   2   2   2   2
#     4  11  23  38  59  92 129 154 197 259 306 359
#     4  11  23  42  65  92 128 167 209 256 315 371
#     4  11  23  43  65  90 130 160 212 261 310 370
#     4  11  19  40  64  82 116 161 205 241 297 370
#     4  10  22  40  61  90 121 161 207 251 302 365
#     4  10  24  42  64  94 122 169 208 256 315 371
#     4  10  21  40  65  86 119 164 206 245 306 368
#
# _framework density 20.630013999999999
#
# number of rings (size 3 to 8) (size 9 to 14) (size 15 to 20)
#    0.000    1.429    4.286    1.286    4.000    1.714 
#    0.000    0.000    0.000    0.000    0.000    0.000 
#    0.000    0.000    0.000    0.000    0.000    0.000 
#
# Total GULP energy -173537.297402 kJ/mol
# GULP energy per Si atom -12395.521243 kJ/mol
# Density = 2.058306 g / cm^3
# Si number density = 20.630014 Si / 1000 Ang^3
#
#
#
# Elastic Constant Matrix: (Units=GPa)
#
#
# Indices 1 2 3 4 5 6 
#
# 1 122.7755 34.6806 54.9387 -7.9195 11.3950 -39.5222
# 2 34.6806 55.8263 29.5972 -7.6308 4.5359 -28.3500
# 3 54.9387 29.5972 151.9900 -6.9831 11.5759 -17.0287
# 4 -7.9195 -7.6308 -6.9831 26.9968 4.4103 3.9808
# 5 11.3950 4.5359 11.5759 4.4103 43.8504 -2.9848
# 6 -39.5222 -28.3500 -17.0287 3.9808 -2.9848 43.1726
#
#
#
# Elastic Compliance Matrix: (Units=1/GPa)
#
#
# Indices 1 2 3 4 5 6 
#
# 1 0.013439 -0.001168 -0.003290 0.001619 -0.001989 0.009952
# 2 -0.001168 0.029460 -0.003141 0.004951 -0.001290 0.016491
# 3 -0.003290 -0.003141 0.008289 0.000780 -0.001220 -0.001961
# 4 0.001619 0.004951 0.000780 0.039795 -0.005072 0.001020
# 5 -0.001989 -0.001290 -0.001220 -0.005072 0.024219 -0.001007
# 6 0.009952 0.016491 -0.001961 0.001020 -0.001007 0.042165
#
#
# Mechanical properties :
#
#
# Convention : Reuss Voigt Hill
#
# Bulk Modulus (GPa) = 27.78509 63.22498 45.50504
# Shear Modulus (GPa) = 27.09109 36.89565 31.99337
#
# Velocity S-wave (km/s) = 3.62772 4.23359 3.94231
# Velocity P-wave (km/s) = 5.57178 7.38995 6.54431
#
# Compressibility (1/GPa) = 0.03599053
#
# Stress axis : x y z
#
# Youngs Moduli (GPa) = 74.40806 33.94439 120.63915
#
# Poissons Ratio (x) = 0.03966 0.39685
# Poissons Ratio (y) = 0.08694 0.37894
# Poissons Ratio (z) = 0.24477 0.10662
#
# Static dielectric constant tensor:
#      x y z
#    x 3.999490 -0.263020 -0.120620 
#    y -0.263020 3.695740 -0.111770 
#    z -0.120620 -0.111770 4.380570 
# 
# 
# High freq. dielectric constant tensor:
#      x y z
#    x 1.817990 -0.020550 -0.000140 
#    y -0.020550 1.784130 -0.006210 
#    z -0.000140 -0.006210 1.822250 
# 
# From -- ./inp_files/37730.got.cif
#   From: 2010.06.25/outbox.cif.g09.slc.cpg/sg2_19_cif.got.tgz:37730.got - 2010.06.27 13:26:56.
