data_PCOD8013280
_publ_section_title
;
Structure prediction by ZEFSAII (Michael W. Deem and Ramdas Pophale) SiO2 
 PCOD8013280
Probable space group: P -1
;
_chemical_formula_sum "Si O2"
_cell_formula_units_Z 16
_cell_length_a 11.078816
_cell_length_b 11.501485
_cell_length_c 20.616062
_cell_angle_alpha 37.904795
_cell_angle_beta 147.634717
_cell_angle_gamma 120.415049
_cell_volume 754.504109
_symmetry_space_group_name_H-M "P -1"
_symmetry_group_IT_number 2
_symmetry_cell_setting 'triclinic'
loop_
_space_group_symop_operation_xyz
x,y,z
-x,-y,-z
loop_
_atom_site_type_symbol
_atom_site_label
_atom_site_fract_x
_atom_site_fract_y
_atom_site_fract_z
Si Si1 0.607836 0.192415 0.350195
Si Si2 0.925975 0.367344 0.347175
Si Si3 0.202407 0.691061 0.492244
Si Si4 0.739423 0.821027 0.026448
Si Si5 0.727370 0.743912 0.327745
Si Si6 0.747498 0.728653 0.587166
Si Si7 0.818130 0.132895 0.734337
Si Si8 0.863596 0.714941 0.984968
O O1 0.800607 0.222370 0.375888
O O2 0.610389 0.285248 0.381302
O O3 0.691285 0.940770 0.509085
O O4 0.325442 0.320132 0.133849
O O5 0.710176 0.619983 0.129544
O O6 0.131166 0.357277 0.496547
O O7 0.068849 0.278940 0.383524
O O8 0.335296 0.433307 0.654063
O O9 0.177375 0.828322 0.357016
O O10 0.911306 0.789234 0.343912
O O11 0.710188 0.828047 0.932348
O O12 0.029164 0.774006 0.195407
O O13 0.533432 0.035054 0.874932
O O14 0.480401 0.749906 0.429497
O O15 0.885495 0.516057 0.788086
O O16 0.952070 0.874936 0.921835
#
# Coordination Sequence:
#
# PCOD8013280 Si02
#       8
#     2   2   2   2   2   2   2   2
#     4  10  22  43  62  90 127 160 210 252 299 365
#     4  10  21  40  66  96 123 156 202 263 309 365
#     4  10  23  42  63  87 128 164 208 247 302 367
#     4  11  23  39  67  95 123 154 206 261 313 359
#     4  10  21  42  62  94 121 162 203 259 308 352
#     4  10  23  40  65  91 126 164 202 250 314 359
#     4  11  23  42  60  94 125 165 203 253 301 369
#     4  10  24  41  62  97 123 161 205 251 308 374
#
# _framework density 21.205981000000001
#
# number of rings (size 3 to 8) (size 9 to 14) (size 15 to 20)
#    0.000    1.750    1.250    2.250    1.750    9.500 
#    2.250    1.250    0.000    0.000    0.000    0.000 
#    0.000    0.000    0.000    0.000    0.000    0.000 
#
# Total GULP energy -198418.741040 kJ/mol
# GULP energy per Si atom -12401.171315 kJ/mol
# Density = 2.115772 g / cm^3
# Si number density = 21.205981 Si / 1000 Ang^3
#
#
#
# Elastic Constant Matrix: (Units=GPa)
#
#
# Indices 1 2 3 4 5 6 
#
# 1 47.7964 18.5200 32.8206 -9.1641 -17.0462 9.2066
# 2 18.5200 87.9339 36.1245 -2.7363 0.5030 -7.2128
# 3 32.8206 36.1245 103.5124 -20.9380 -6.5150 -1.1946
# 4 -9.1641 -2.7363 -20.9380 39.0826 -6.7568 -4.3446
# 5 -17.0462 0.5030 -6.5150 -6.7568 34.8294 -2.3028
# 6 9.2066 -7.2128 -1.1946 -4.3446 -2.3028 28.7615
#
#
#
# Elastic Compliance Matrix: (Units=1/GPa)
#
#
# Indices 1 2 3 4 5 6 
#
# 1 0.038346 -0.005677 -0.007959 0.006104 0.017772 -0.011684
# 2 -0.005677 0.014526 -0.003996 -0.002627 -0.003942 0.004581
# 3 -0.007959 -0.003996 0.014903 0.006251 0.000370 0.003138
# 4 0.006104 -0.002627 0.006251 0.032412 0.010707 0.003400
# 5 0.017772 -0.003942 0.000370 0.010707 0.039488 -0.001883
# 6 -0.011684 0.004581 0.003138 0.003400 -0.001883 0.040151
#
#
# Mechanical properties :
#
#
# Convention : Reuss Voigt Hill
#
# Bulk Modulus (GPa) = 30.75852 46.01923 38.38887
# Shear Modulus (GPa) = 22.13109 30.65322 26.39215
#
# Velocity S-wave (km/s) = 3.23402 3.80610 3.53166
# Velocity P-wave (km/s) = 5.33679 6.40807 5.89681
#
# Compressibility (1/GPa) = 0.03251132
#
# Stress axis : x y z
#
# Youngs Moduli (GPa) = 26.07831 68.84190 67.10176
#
# Poissons Ratio (x) = 0.39079 0.53406
# Poissons Ratio (y) = 0.14804 0.26815
# Poissons Ratio (z) = 0.20756 0.27510
#
# Static dielectric constant tensor:
#      x y z
#    x 3.785420 0.101580 -0.162420 
#    y 0.101580 3.886250 -0.006710 
#    z -0.162420 -0.006710 3.811890 
# 
# 
# High freq. dielectric constant tensor:
#      x y z
#    x 1.826650 0.008420 -0.015070 
#    y 0.008420 1.838520 -0.002000 
#    z -0.015070 -0.002000 1.829730 
# 
# From -- ./inp_files/438542.got.cif
#   From: 2010.06.25/outbox.cif.g09.slc.cpg/sg2_220_cif.got.tgz:438542.got - 2010.06.27 13:26:56.
