data_PCOD8013131
_publ_section_title
;
Structure prediction by ZEFSAII (Michael W. Deem and Ramdas Pophale) SiO2 
 PCOD8013131
Probable space group: P -1
;
_chemical_formula_sum "Si O2"
_cell_formula_units_Z 14
_cell_length_a 5.109929
_cell_length_b 9.876890
_cell_length_c 15.307526
_cell_angle_alpha 120.509211
_cell_angle_beta 103.610463
_cell_angle_gamma 57.070283
_cell_volume 557.787375
_symmetry_space_group_name_H-M "P -1"
_symmetry_group_IT_number 2
_symmetry_cell_setting 'triclinic'
loop_
_space_group_symop_operation_xyz
x,y,z
-x,-y,-z
loop_
_atom_site_type_symbol
_atom_site_label
_atom_site_fract_x
_atom_site_fract_y
_atom_site_fract_z
Si Si1 0.628391 0.704041 0.289999
Si Si2 0.268811 0.144713 0.811796
Si Si3 0.718181 0.285133 0.949407
Si Si4 0.066612 0.577905 0.445868
Si Si5 0.518467 0.742440 0.740459
Si Si6 0.158028 0.681346 0.842026
Si Si7 0.175525 0.031413 0.448061
O O1 0.829194 0.759714 0.260347
O O2 0.600866 0.536300 0.194503
O O3 0.788988 0.639160 0.375120
O O4 0.274100 0.879986 0.329256
O O5 0.555539 0.171407 0.872315
O O6 0.001772 0.239423 0.892677
O O7 0.381352 0.931608 0.739311
O O8 0.500000 0.500000 0.000000
O O9 0.847914 0.218674 0.036182
O O10 0.389759 0.423753 0.375753
O O11 0.000000 0.500000 0.500000
O O12 0.059960 0.762364 0.536544
O O13 0.261931 0.756362 0.793009
O O14 0.819319 0.707976 0.807205
O O15 0.500000 0.000000 0.500000
O O16 0.000000 0.000000 0.500000
#
# Coordination Sequence:
#
# PCOD8013131 Si02
#       7
#     2   2   2   2   2   2   2
#     4  10  23  42  68  98 134 179 227 273 333 396
#     4  12  26  43  69 101 137 178 226 278 328 405
#     4  12  26  43  72 101 135 175 231 274 334 395
#     4  10  22  43  69  97 135 175 221 278 336 398
#     4  11  25  44  67 101 138 176 221 276 341 391
#     4  11  24  44  69  97 138 178 222 278 333 394
#     4  10  21  40  65  95 127 169 219 268 322 390
#
# _framework density 25.099170000000001
#
# number of rings (size 3 to 8) (size 9 to 14) (size 15 to 20)
#    0.000    1.143    1.429    3.857    4.000    5.714 
#    0.000   20.000    0.000    0.000    0.000    0.000 
#    0.000    0.000    0.000    0.000    0.000    0.000 
#
# Total GULP energy -173574.174697 kJ/mol
# GULP energy per Si atom -12398.155335 kJ/mol
# Density = 2.504204 g / cm^3
# Si number density = 25.099170 Si / 1000 Ang^3
#
#
#
# Elastic Constant Matrix: (Units=GPa)
#
#
# Indices 1 2 3 4 5 6 
#
# 1 104.4120 26.6619 19.8004 -5.1783 -35.0950 21.8897
# 2 26.6619 168.9049 51.8376 3.7773 -17.8774 33.3431
# 3 19.8004 51.8376 106.0887 -12.3282 -39.9187 9.8236
# 4 -5.1783 3.7773 -12.3282 43.9413 13.5652 -5.3463
# 5 -35.0950 -17.8774 -39.9187 13.5652 36.8268 -8.2477
# 6 21.8897 33.3431 9.8236 -5.3463 -8.2477 42.0290
#
#
#
# Elastic Compliance Matrix: (Units=1/GPa)
#
#
# Indices 1 2 3 4 5 6 
#
# 1 0.017227 -0.000891 0.005689 -0.003876 0.022300 -0.005712
# 2 -0.000891 0.008403 -0.004438 -0.002135 -0.002104 -0.005849
# 3 0.005689 -0.004438 0.019896 -0.001121 0.025415 0.000752
# 4 -0.003876 -0.002135 -0.001121 0.027352 -0.015011 0.004508
# 5 0.022300 -0.002104 0.025415 -0.015011 0.079992 -0.002098
# 6 -0.005712 -0.005849 0.000752 0.004508 -0.002098 0.031395
#
#
# Mechanical properties :
#
#
# Convention : Reuss Voigt Hill
#
# Bulk Modulus (GPa) = 21.62277 64.00060 42.81169
# Shear Modulus (GPa) = 25.13091 43.29980 34.21536
#
# Velocity S-wave (km/s) = 3.16771 4.15800 3.69617
# Velocity P-wave (km/s) = 4.69178 6.97183 5.94219
#
# Compressibility (1/GPa) = 0.04624754
#
# Stress axis : x y z
#
# Youngs Moduli (GPa) = 58.04935 119.00799 50.26216
#
# Poissons Ratio (x) = 0.10601 -0.28597
# Poissons Ratio (y) = 0.05171 0.22304
# Poissons Ratio (z) = -0.33027 0.52810
#
# Static dielectric constant tensor:
#      x y z
#    x 4.392260 0.085770 -0.165240 
#    y 0.085770 5.202820 0.799520 
#    z -0.165240 0.799520 5.601630 
# 
# 
# High freq. dielectric constant tensor:
#      x y z
#    x 1.992440 0.007560 -0.008840 
#    y 0.007560 2.016790 0.008220 
#    z -0.008840 0.008220 2.018220 
# 
# From -- ./inp_files/89720.got.cif
#   From: 2010.06.25/outbox.cif.g09.slc.cpg/sg2_45_cif.got.tgz:89720.got - 2010.06.27 13:26:56.
