data_PCOD8013468
_publ_section_title
;
Structure prediction by ZEFSAII (Michael W. Deem and Ramdas Pophale) SiO2 
 PCOD8013468
Probable space group: P -1
;
_chemical_formula_sum "Si O2"
_cell_formula_units_Z 16
_cell_length_a 9.056500
_cell_length_b 7.368581
_cell_length_c 11.330464
_cell_angle_alpha 75.897130
_cell_angle_beta 87.173327
_cell_angle_gamma 68.324431
_cell_volume 680.784028
_symmetry_space_group_name_H-M "P -1"
_symmetry_group_IT_number 2
_symmetry_cell_setting 'triclinic'
loop_
_space_group_symop_operation_xyz
x,y,z
-x,-y,-z
loop_
_atom_site_type_symbol
_atom_site_label
_atom_site_fract_x
_atom_site_fract_y
_atom_site_fract_z
Si Si1 0.281858 0.921365 0.449694
Si Si2 0.623576 0.848223 0.411559
Si Si3 0.019354 0.245426 0.278235
Si Si4 0.633052 0.477575 0.620580
Si Si5 0.679882 0.547914 0.274016
Si Si6 0.640783 0.785627 0.013531
Si Si7 0.972066 0.814064 0.980031
Si Si8 0.775271 0.527156 0.838871
O O1 0.304613 0.983455 0.576007
O O2 0.108591 0.068830 0.393133
O O3 0.433349 0.952894 0.374304
O O4 0.285377 0.700021 0.449849
O O5 0.646491 0.683235 0.542002
O O6 0.711644 0.733600 0.308839
O O7 0.836076 0.347307 0.305651
O O8 0.105186 0.404369 0.253551
O O9 0.035089 0.152497 0.163576
O O10 0.448391 0.505914 0.634906
O O11 0.700663 0.424541 0.760183
O O12 0.620464 0.622797 0.132117
O O13 0.808572 0.803273 0.035624
O O14 0.642390 0.704976 0.891321
O O15 0.500000 0.000000 0.000000
O O16 0.121861 0.618270 0.040242
O O17 0.000000 0.000000 0.000000
#
# Coordination Sequence:
#
# PCOD8013468 Si02
#       8
#     2   2   2   2   2   2   2   2
#     4  10  21  40  68  90 122 169 217 256 328 381
#     4  10  23  43  67  94 127 172 218 268 321 380
#     4  11  21  42  62  93 128 171 209 266 326 384
#     4  11  24  43  69  95 127 173 220 266 321 383
#     4  11  23  41  65  92 134 163 216 272 318 378
#     4  11  25  40  63  99 128 171 215 265 325 387
#     4  11  23  41  63  93 133 175 215 259 324 395
#     4  11  22  43  67  88 135 172 213 261 331 387
#
# _framework density 23.502313999999998
#
# number of rings (size 3 to 8) (size 9 to 14) (size 15 to 20)
#    0.000    1.250    3.750    3.000    8.750    2.000 
#    0.000    3.750    0.000    0.000    0.000    0.000 
#    0.000    0.000    0.000    0.000    0.000    0.000 
#
# Total GULP energy -198285.825358 kJ/mol
# GULP energy per Si atom -12392.864085 kJ/mol
# Density = 2.344882 g / cm^3
# Si number density = 23.502314 Si / 1000 Ang^3
#
#
#
# Elastic Constant Matrix: (Units=GPa)
#
#
# Indices 1 2 3 4 5 6 
#
# 1 41.4379 42.7892 16.2428 6.9052 17.9469 -2.5372
# 2 42.7892 118.3786 15.2195 9.9361 15.0598 -9.1301
# 3 16.2428 15.2195 66.1494 10.0057 19.1199 -0.5167
# 4 6.9052 9.9361 10.0057 34.2468 1.8701 16.3136
# 5 17.9469 15.0598 19.1199 1.8701 43.2761 2.6462
# 6 -2.5372 -9.1301 -0.5167 16.3136 2.6462 46.7337
#
#
#
# Elastic Compliance Matrix: (Units=1/GPa)
#
#
# Indices 1 2 3 4 5 6 
#
# 1 0.046680 -0.014251 -0.003854 -0.004394 -0.012626 0.001956
# 2 -0.014251 0.013877 0.000505 -0.002696 0.000801 0.002839
# 3 -0.003854 0.000505 0.018782 -0.005656 -0.006782 0.002456
# 4 -0.004394 -0.002696 -0.005656 0.039332 0.004465 -0.014810
# 5 -0.012626 0.000801 -0.006782 0.004465 0.031108 -0.003924
# 6 0.001956 0.002839 0.002456 -0.014810 -0.003924 0.027478
#
#
# Mechanical properties :
#
#
# Convention : Reuss Voigt Hill
#
# Bulk Modulus (GPa) = 22.65574 41.60765 32.13169
# Shear Modulus (GPa) = 22.00992 34.96561 28.48777
#
# Velocity S-wave (km/s) = 3.06355 3.86132 3.48534
# Velocity P-wave (km/s) = 4.70898 6.13366 5.46792
#
# Compressibility (1/GPa) = 0.04413892
#
# Stress axis : x y z
#
# Youngs Moduli (GPa) = 21.42261 72.06020 53.24162
#
# Poissons Ratio (x) = 1.02697 0.20518
# Poissons Ratio (y) = 0.30530 -0.02689
# Poissons Ratio (z) = 0.08256 -0.03640
#
# Static dielectric constant tensor:
#      x y z
#    x 3.877790 0.131570 -0.048200 
#    y 0.131570 4.141610 0.366570 
#    z -0.048200 0.366570 3.771670 
# 
# 
# High freq. dielectric constant tensor:
#      x y z
#    x 1.909740 -0.005200 0.019160 
#    y -0.005200 1.942140 0.010030 
#    z 0.019160 0.010030 1.929220 
# 
# From -- ./inp_files/223765.got.cif
#   From: 2010.06.25/outbox.cif.g09.slc.cpg/sg2_112_cif.got.tgz:223765.got - 2010.06.27 13:26:56.
