data_PCOD8013766
_publ_section_title
;
Structure prediction by ZEFSAII (Michael W. Deem and Ramdas Pophale) SiO2 
 PCOD8013766
Probable space group: P -1
;
_chemical_formula_sum "Si O2"
_cell_formula_units_Z 16
_cell_length_a 17.273388
_cell_length_b 9.638507
_cell_length_c 6.953602
_cell_angle_alpha 62.877321
_cell_angle_beta 55.236081
_cell_angle_gamma 58.196435
_cell_volume 787.993944
_symmetry_space_group_name_H-M "P -1"
_symmetry_group_IT_number 2
_symmetry_cell_setting 'triclinic'
loop_
_space_group_symop_operation_xyz
x,y,z
-x,-y,-z
loop_
_atom_site_type_symbol
_atom_site_label
_atom_site_fract_x
_atom_site_fract_y
_atom_site_fract_z
Si Si1 0.896889 0.333045 0.117589
Si Si2 0.402857 0.157266 0.087886
Si Si3 0.401583 0.480219 0.737639
Si Si4 0.060333 0.820631 0.442420
Si Si5 0.776730 0.201591 0.091136
Si Si6 0.266334 0.328559 0.856097
Si Si7 0.256002 0.143618 0.601982
Si Si8 0.949684 0.687721 0.387219
O O1 0.904122 0.311555 0.350213
O O2 0.840473 0.218038 0.176318
O O3 0.841140 0.530399 0.021264
O O4 0.007411 0.278675 0.900489
O O5 0.431398 0.324576 0.945502
O O6 0.312094 0.184413 0.043781
O O7 0.364126 0.118702 0.371678
O O8 0.500000 0.000000 0.000000
O O9 0.500000 0.500000 0.500000
O O10 0.331163 0.644539 0.849680
O O11 0.342428 0.433417 0.670997
O O12 0.975015 0.794963 0.448478
O O13 0.160905 0.799919 0.190889
O O14 0.000000 0.000000 0.500000
O O15 0.755491 0.032025 0.236425
O O16 0.251852 0.241070 0.741130
O O17 0.169823 0.258495 0.506574
O O18 0.000000 0.500000 0.500000
#
# Coordination Sequence:
#
# PCOD8013766 Si02
#       8
#     2   2   2   2   2   2   2   2
#     4  10  21  41  61  89 132 174 214 256 309 377
#     4  10  23  42  67  90 126 157 205 268 322 375
#     4   9  20  45  67  86 125 163 204 261 322 380
#     4  11  23  39  61  91 133 171 223 256 304 375
#     4  10  23  39  63  92 129 170 212 262 317 374
#     4   9  23  38  66  92 123 160 210 256 318 378
#     4  12  23  39  64  94 129 163 211 261 319 371
#     4  11  24  37  62  93 130 174 214 259 313 371
#
# _framework density 20.304725000000001
#
# number of rings (size 3 to 8) (size 9 to 14) (size 15 to 20)
#    0.750    1.000    0.000    3.750    3.500    8.500 
#    0.000    0.625    0.000    0.000    0.000    0.000 
#    0.000    0.000    0.000    0.000    0.000    0.000 
#
# Total GULP energy -198298.610068 kJ/mol
# GULP energy per Si atom -12393.663129 kJ/mol
# Density = 2.025851 g / cm^3
# Si number density = 20.304725 Si / 1000 Ang^3
#
#
#
# Elastic Constant Matrix: (Units=GPa)
#
#
# Indices 1 2 3 4 5 6 
#
# 1 60.3668 42.6392 33.3810 11.4362 1.6417 6.0228
# 2 42.6392 141.3505 33.8529 11.9501 2.4186 2.6256
# 3 33.3810 33.8529 104.1819 11.8124 -0.7831 8.4958
# 4 11.4362 11.9501 11.8124 34.0316 -5.0036 0.9453
# 5 1.6417 2.4186 -0.7831 -5.0036 32.6510 -0.6111
# 6 6.0228 2.6256 8.4958 0.9453 -0.6111 39.9307
#
#
#
# Elastic Compliance Matrix: (Units=1/GPa)
#
#
# Indices 1 2 3 4 5 6 
#
# 1 0.024701 -0.005704 -0.005376 -0.004622 -0.001696 -0.002123
# 2 -0.005704 0.009138 -0.001072 -0.001017 -0.000562 0.000503
# 3 -0.005376 -0.001072 0.012020 -0.001897 0.000317 -0.001626
# 4 -0.004622 -0.001017 -0.001897 0.032717 0.005285 0.000474
# 5 -0.001696 -0.000562 0.000317 0.005285 0.031582 0.000584
# 6 -0.002123 0.000503 -0.001626 0.000474 0.000584 0.025674
#
#
# Mechanical properties :
#
#
# Convention : Reuss Voigt Hill
#
# Bulk Modulus (GPa) = 46.39501 58.40503 52.40002
# Shear Modulus (GPa) = 29.88245 34.39107 32.13676
#
# Velocity S-wave (km/s) = 3.84044 4.11998 3.98266
# Velocity P-wave (km/s) = 6.52413 7.17349 6.85650
#
# Compressibility (1/GPa) = 0.02155404
#
# Stress axis : x y z
#
# Youngs Moduli (GPa) = 40.48383 109.43019 83.19756
#
# Poissons Ratio (x) = 0.62423 0.44731
# Poissons Ratio (y) = 0.23094 0.08916
# Poissons Ratio (z) = 0.21766 0.11727
#
# Static dielectric constant tensor:
#      x y z
#    x 3.455020 0.002570 0.432280 
#    y 0.002570 3.778820 -0.006930 
#    z 0.432280 -0.006930 2.174900 
# 
# 
# High freq. dielectric constant tensor:
#      x y z
#    x 1.780730 -0.001960 -0.006980 
#    y -0.001960 1.808730 0.005190 
#    z -0.006980 0.005190 1.789690 
# 
# From -- ./inp_files/106467.got.cif
#   From: 2010.06.25/outbox.cif.g09.slc.cpg/sg2_54_cif.got.tgz:106467.got - 2010.06.27 13:26:56.
