data_PCOD8013553
_publ_section_title
;
Structure prediction by ZEFSAII (Michael W. Deem and Ramdas Pophale) SiO2 
 PCOD8013553
Probable space group: P -1
;
_chemical_formula_sum "Si O2"
_cell_formula_units_Z 16
_cell_length_a 9.329169
_cell_length_b 8.726708
_cell_length_c 24.429607
_cell_angle_alpha 128.211077
_cell_angle_beta 150.032940
_cell_angle_gamma 47.920563
_cell_volume 733.474945
_symmetry_space_group_name_H-M "P -1"
_symmetry_group_IT_number 2
_symmetry_cell_setting 'triclinic'
loop_
_space_group_symop_operation_xyz
x,y,z
-x,-y,-z
loop_
_atom_site_type_symbol
_atom_site_label
_atom_site_fract_x
_atom_site_fract_y
_atom_site_fract_z
Si Si1 0.709012 0.414339 0.291216
Si Si2 0.798959 0.071459 0.895978
Si Si3 0.805580 0.045881 0.102573
Si Si4 0.354108 0.504079 0.828572
Si Si5 0.769753 0.943711 0.662866
Si Si6 0.163968 0.277370 0.533743
Si Si7 0.683697 0.595339 0.621663
Si Si8 0.558526 0.242926 0.309906
O O1 0.533640 0.435974 0.180189
O O2 0.761554 0.637218 0.364493
O O3 0.506208 0.370618 0.263546
O O4 0.034640 0.218933 0.354392
O O5 0.595647 0.308651 0.893833
O O6 0.579322 0.939773 0.781946
O O7 0.008017 0.075594 0.914419
O O8 0.000000 0.000000 0.000000
O O9 0.718912 0.290557 0.113138
O O10 0.002215 0.974305 0.207645
O O11 0.500000 0.000000 0.000000
O O12 0.040472 0.459123 0.704160
O O13 0.620292 0.830377 0.632356
O O14 0.490370 0.129200 0.584035
O O15 0.000000 0.500000 0.500000
O O16 0.922344 0.154905 0.426307
O O17 0.500000 0.500000 0.500000
O O18 0.596871 0.598606 0.657565
#
# Coordination Sequence:
#
# PCOD8013553 Si02
#       8
#     2   2   2   2   2   2   2   2
#     4   9  21  41  67  95 134 173 226 262 330 402
#     4  12  27  45  66 101 137 172 229 286 331 394
#     4  10  23  47  69  94 130 174 232 279 333 402
#     4  10  23  46  67  95 134 178 224 269 338 413
#     4  10  21  41  65  95 130 175 220 265 331 408
#     4  10  22  39  61  96 138 173 214 265 325 403
#     4  10  21  40  69 102 134 173 215 272 343 399
#     4  11  22  42  63 103 139 169 223 283 329 389
#
# _framework density 21.813970999999999
#
# number of rings (size 3 to 8) (size 9 to 14) (size 15 to 20)
#    0.000    2.000    2.500    2.250    5.250    3.500 
#    9.000    0.000    0.000    0.000    0.000    0.000 
#    0.000    0.000    0.000    0.000    0.000    0.000 
#
# Total GULP energy -198235.916063 kJ/mol
# GULP energy per Si atom -12389.744754 kJ/mol
# Density = 2.176432 g / cm^3
# Si number density = 21.813971 Si / 1000 Ang^3
#
#
#
# Elastic Constant Matrix: (Units=GPa)
#
#
# Indices 1 2 3 4 5 6 
#
# 1 101.5926 17.3027 19.8813 -1.9162 7.8899 -2.0089
# 2 17.3027 118.8719 44.9609 -25.0698 4.0652 -11.6224
# 3 19.8813 44.9609 112.6706 -0.5429 25.6790 -2.0506
# 4 -1.9162 -25.0698 -0.5429 28.8017 0.8344 -6.2584
# 5 7.8899 4.0652 25.6790 0.8344 30.9281 2.6373
# 6 -2.0089 -11.6224 -2.0506 -6.2584 2.6373 23.8068
#
#
#
# Elastic Compliance Matrix: (Units=1/GPa)
#
#
# Indices 1 2 3 4 5 6 
#
# 1 0.010358 -0.001040 -0.001019 -0.000090 -0.001695 0.000443
# 2 -0.001040 0.014943 -0.005963 0.015034 0.001957 0.010429
# 3 -0.001019 -0.005963 0.013644 -0.005163 -0.009968 -0.002075
# 4 -0.000090 0.015034 -0.005163 0.052228 -0.000841 0.020710
# 5 -0.001695 0.001957 -0.009968 -0.000841 0.041220 -0.004834
# 6 0.000443 0.010429 -0.002075 0.020710 -0.004834 0.052935
#
#
# Mechanical properties :
#
#
# Convention : Reuss Voigt Hill
#
# Bulk Modulus (GPa) = 43.66615 55.26942 49.46778
# Shear Modulus (GPa) = 23.92285 33.44000 28.68143
#
# Velocity S-wave (km/s) = 3.31520 3.91955 3.62998
# Velocity P-wave (km/s) = 5.89195 6.77315 6.34786
#
# Compressibility (1/GPa) = 0.02290103
#
# Stress axis : x y z
#
# Youngs Moduli (GPa) = 96.53935 66.92229 73.29191
#
# Poissons Ratio (x) = 0.06961 0.07466
# Poissons Ratio (y) = 0.10042 0.43705
# Poissons Ratio (z) = 0.09835 0.39907
#
# Static dielectric constant tensor:
#      x y z
#    x 4.008680 -0.205570 -0.072880 
#    y -0.205570 3.829080 0.217030 
#    z -0.072880 0.217030 4.336900 
# 
# 
# High freq. dielectric constant tensor:
#      x y z
#    x 1.853570 -0.016710 -0.004660 
#    y -0.016710 1.840630 0.007120 
#    z -0.004660 0.007120 1.858880 
# 
# From -- ./inp_files/606830.got.cif
#   From: 2010.06.25/outbox.cif.g09.slc.cpg/sg2_304_cif.got.tgz:606830.got - 2010.06.27 13:26:56.
