data_PCOD8013978
_publ_section_title
;
Structure prediction by ZEFSAII (Michael W. Deem and Ramdas Pophale) SiO2 
 PCOD8013978
Probable space group: P -1
;
_chemical_formula_sum "Si O2"
_cell_formula_units_Z 16
_cell_length_a 18.658440
_cell_length_b 12.199345
_cell_length_c 22.396963
_cell_angle_alpha 151.696004
_cell_angle_beta 160.565738
_cell_angle_gamma 37.389176
_cell_volume 783.347178
_symmetry_space_group_name_H-M "P -1"
_symmetry_group_IT_number 2
_symmetry_cell_setting 'triclinic'
loop_
_space_group_symop_operation_xyz
x,y,z
-x,-y,-z
loop_
_atom_site_type_symbol
_atom_site_label
_atom_site_fract_x
_atom_site_fract_y
_atom_site_fract_z
Si Si1 0.436035 0.324031 0.652270
Si Si2 0.756688 0.203897 0.750664
Si Si3 0.828638 0.113063 0.455277
Si Si4 0.822450 0.492482 0.720295
Si Si5 0.527526 0.301097 0.843566
Si Si6 0.483547 0.765925 0.543278
Si Si7 0.692359 0.216303 0.275725
Si Si8 0.806633 0.717956 0.329523
O O1 0.635357 0.264831 0.743333
O O2 0.519650 0.418002 0.828553
O O3 0.341159 0.526426 0.643607
O O4 0.251320 0.077171 0.395133
O O5 0.658294 0.301044 0.660804
O O6 0.009938 0.336811 0.022260
O O7 0.937124 0.338545 0.690717
O O8 0.679825 0.200137 0.330131
O O9 0.697374 0.902349 0.293878
O O10 0.000000 0.000000 0.500000
O O11 0.688364 0.639750 0.644422
O O12 0.661905 0.307262 0.547526
O O13 0.289112 0.285614 0.680541
O O14 0.583808 0.046368 0.758165
O O15 0.728198 0.458405 0.114349
O O16 0.926843 0.195409 0.420788
O O17 0.500000 0.000000 0.000000
#
# Coordination Sequence:
#
# PCOD8013978 Si02
#       8
#     2   2   2   2   2   2   2   2
#     4  10  23  41  58  93 123 163 210 254 322 377
#     4  10  23  41  63  88 131 166 205 269 319 375
#     4  10  22  40  61  91 121 161 213 252 317 378
#     4  11  22  39  68  92 125 169 212 263 320 377
#     4  10  21  41  64  85 131 162 209 259 313 386
#     4  10  22  41  62  99 122 164 220 263 312 384
#     4  11  24  38  62  92 125 161 210 262 311 384
#     4  10  22  39  63  91 121 170 205 258 320 375
#
# _framework density 20.425172
#
# number of rings (size 3 to 8) (size 9 to 14) (size 15 to 20)
#    0.000    1.750    1.250    1.875    8.750    0.500 
#    0.000    5.000    0.000    0.000    0.000    0.000 
#    0.000    0.000    0.000    0.000    0.000    0.000 
#
# Total GULP energy -198350.493025 kJ/mol
# GULP energy per Si atom -12396.905814 kJ/mol
# Density = 2.037868 g / cm^3
# Si number density = 20.425172 Si / 1000 Ang^3
#
#
#
# Elastic Constant Matrix: (Units=GPa)
#
#
# Indices 1 2 3 4 5 6 
#
# 1 98.8341 43.8823 28.1655 -3.5387 -18.1998 0.9346
# 2 43.8823 126.5654 43.3121 3.1660 -9.9162 17.8934
# 3 28.1655 43.3121 107.9244 -1.5787 -9.9605 -1.0248
# 4 -3.5387 3.1660 -1.5787 23.8050 -1.2044 -4.1374
# 5 -18.1998 -9.9162 -9.9605 -1.2044 31.5255 -1.0219
# 6 0.9346 17.8934 -1.0248 -4.1374 -1.0219 36.4318
#
#
#
# Elastic Compliance Matrix: (Units=1/GPa)
#
#
# Indices 1 2 3 4 5 6 
#
# 1 0.013585 -0.004194 -0.001210 0.003203 0.006336 0.002219
# 2 -0.004194 0.011532 -0.003668 -0.003468 -0.000281 -0.006061
# 3 -0.001210 -0.003668 0.011269 0.001562 0.001845 0.002379
# 4 0.003203 -0.003468 0.001562 0.044390 0.003168 0.006795
# 5 0.006336 -0.000281 0.001845 0.003168 0.036039 0.001398
# 6 0.002219 -0.006061 0.002379 0.006795 0.001398 0.031246
#
#
# Mechanical properties :
#
#
# Convention : Reuss Voigt Hill
#
# Bulk Modulus (GPa) = 54.81311 62.67152 58.74232
# Shear Modulus (GPa) = 29.02173 32.88339 30.95256
#
# Velocity S-wave (km/s) = 3.77355 4.01676 3.89705
# Velocity P-wave (km/s) = 6.77352 7.22929 7.00511
#
# Compressibility (1/GPa) = 0.01824381
#
# Stress axis : x y z
#
# Youngs Moduli (GPa) = 73.61037 86.71688 88.73796
#
# Poissons Ratio (x) = 0.36365 0.10735
# Poissons Ratio (y) = 0.30869 0.32547
# Poissons Ratio (z) = 0.08905 0.31806
#
# Static dielectric constant tensor:
#      x y z
#    x 3.971950 0.318310 -0.108390 
#    y 0.318310 3.898680 0.179760 
#    z -0.108390 0.179760 3.566240 
# 
# 
# High freq. dielectric constant tensor:
#      x y z
#    x 1.810310 0.011750 -0.010380 
#    y 0.011750 1.801220 0.021220 
#    z -0.010380 0.021220 1.785700 
# 
# From -- ./inp_files/259665.got.cif
#   From: 2010.06.25/outbox.cif.g09.slc.cpg/sg2_130_cif.got.tgz:259665.got - 2010.06.27 13:26:56.
