data_PCOD8013133
_publ_section_title
;
Structure prediction by ZEFSAII (Michael W. Deem and Ramdas Pophale) SiO2 
 PCOD8013133
Probable space group: P -1
;
_chemical_formula_sum "Si O2"
_cell_formula_units_Z 16
_cell_length_a 11.133677
_cell_length_b 13.558941
_cell_length_c 14.448774
_cell_angle_alpha 131.040376
_cell_angle_beta 135.915702
_cell_angle_gamma 31.941568
_cell_volume 796.254993
_symmetry_space_group_name_H-M "P -1"
_symmetry_group_IT_number 2
_symmetry_cell_setting 'triclinic'
loop_
_space_group_symop_operation_xyz
x,y,z
-x,-y,-z
loop_
_atom_site_type_symbol
_atom_site_label
_atom_site_fract_x
_atom_site_fract_y
_atom_site_fract_z
Si Si1 0.823851 0.207756 0.763725
Si Si2 0.243857 0.954762 0.539611
Si Si3 0.171959 0.692700 0.855230
Si Si4 0.302198 0.709781 0.558241
Si Si5 0.456618 0.638097 0.806954
Si Si6 0.381647 0.029819 0.236706
Si Si7 0.575055 0.266201 0.843729
Si Si8 0.622221 0.032491 0.015632
O O1 0.804661 0.133194 0.615209
O O2 0.702734 0.416263 0.809912
O O3 0.678721 0.205130 0.759831
O O4 0.103619 0.080333 0.869314
O O5 0.347494 0.827843 0.611243
O O6 0.450285 0.944524 0.615473
O O7 0.985041 0.172346 0.550875
O O8 0.251280 0.694468 0.798460
O O9 0.327225 0.485596 0.850264
O O10 0.888162 0.803816 0.765958
O O11 0.208812 0.792649 0.007856
O O12 0.500000 0.500000 0.500000
O O13 0.326536 0.704899 0.677747
O O14 0.531214 0.747387 0.939307
O O15 0.500547 0.833952 0.222825
O O16 0.375507 0.034912 0.125255
O O17 0.500000 0.000000 0.000000
#
# Coordination Sequence:
#
# PCOD8013133 Si02
#       8
#     2   2   2   2   2   2   2   2
#     4  11  23  44  67  93 128 171 216 257 314 393
#     4  11  26  42  65  97 130 168 217 258 320 389
#     4  10  21  40  65  95 128 164 214 262 318 382
#     4  11  23  44  67  88 125 177 214 258 313 381
#     4  11  22  42  70  91 122 175 216 257 323 376
#     4  12  24  40  65  98 133 165 204 274 324 366
#     4  10  21  40  66  94 126 170 211 257 319 385
#     4  12  25  40  65  97 130 163 219 269 315 373
#
# _framework density 20.094063999999999
#
# number of rings (size 3 to 8) (size 9 to 14) (size 15 to 20)
#    0.000    1.000    5.000    1.875    1.750    2.000 
#    0.000    1.250    0.000    0.000    0.000    0.000 
#    0.000    0.000    0.000    0.000    0.000    0.000 
#
# Total GULP energy -198433.806792 kJ/mol
# GULP energy per Si atom -12402.112925 kJ/mol
# Density = 2.004833 g / cm^3
# Si number density = 20.094064 Si / 1000 Ang^3
#
#
#
# Elastic Constant Matrix: (Units=GPa)
#
#
# Indices 1 2 3 4 5 6 
#
# 1 99.9598 39.7993 26.7251 7.5668 -0.5265 14.1469
# 2 39.7993 122.5977 33.0415 6.8155 7.5528 4.5243
# 3 26.7251 33.0415 70.2763 5.5304 1.7691 4.1050
# 4 7.5668 6.8155 5.5304 14.8220 4.2301 -7.8164
# 5 -0.5265 7.5528 1.7691 4.2301 43.1932 -0.0290
# 6 14.1469 4.5243 4.1050 -7.8164 -0.0290 27.9826
#
#
#
# Elastic Compliance Matrix: (Units=1/GPa)
#
#
# Indices 1 2 3 4 5 6 
#
# 1 0.013948 -0.003050 -0.002606 -0.009981 0.001782 -0.008962
# 2 -0.003050 0.010269 -0.003519 -0.001408 -0.001551 0.000003
# 3 -0.002606 -0.003519 0.017347 -0.004649 0.000327 -0.001956
# 4 -0.009981 -0.001408 -0.004649 0.094556 -0.008924 0.032358
# 5 0.001782 -0.001551 0.000327 -0.008924 0.024303 -0.003165
# 6 -0.008962 0.000003 -0.001956 0.032358 -0.003165 0.049589
#
#
# Mechanical properties :
#
#
# Convention : Reuss Voigt Hill
#
# Bulk Modulus (GPa) = 43.07625 54.66284 48.86954
# Shear Modulus (GPa) = 21.17744 30.08408 25.63076
#
# Velocity S-wave (km/s) = 3.24993 3.87352 3.57534
# Velocity P-wave (km/s) = 5.96377 6.87518 6.43563
#
# Compressibility (1/GPa) = 0.02321465
#
# Stress axis : x y z
#
# Youngs Moduli (GPa) = 71.69236 97.38198 57.64705
#
# Poissons Ratio (x) = 0.29700 0.15025
# Poissons Ratio (y) = 0.21865 0.20284
# Poissons Ratio (z) = 0.18686 0.34265
#
# Static dielectric constant tensor:
#      x y z
#    x 3.770320 0.126030 -0.166190 
#    y 0.126030 3.967270 0.094970 
#    z -0.166190 0.094970 3.582380 
# 
# 
# High freq. dielectric constant tensor:
#      x y z
#    x 1.795830 0.005950 -0.020120 
#    y 0.005950 1.800980 -0.000270 
#    z -0.020120 -0.000270 1.766660 
# 
# From -- ./inp_files/521681.got.cif
#   From: 2010.06.25/outbox.cif.g09.slc.cpg/sg2_261_cif.got.tgz:521681.got - 2010.06.27 13:26:56.
