data_PCOD8013268
_publ_section_title
;
Structure prediction by ZEFSAII (Michael W. Deem and Ramdas Pophale) SiO2 
 PCOD8013268
Probable space group: P -1
;
_chemical_formula_sum "Si O2"
_cell_formula_units_Z 16
_cell_length_a 14.030463
_cell_length_b 14.059906
_cell_length_c 19.052003
_cell_angle_alpha 160.159126
_cell_angle_beta 139.413399
_cell_angle_gamma 49.966973
_cell_volume 785.693818
_symmetry_space_group_name_H-M "P -1"
_symmetry_group_IT_number 2
_symmetry_cell_setting 'triclinic'
loop_
_space_group_symop_operation_xyz
x,y,z
-x,-y,-z
loop_
_atom_site_type_symbol
_atom_site_label
_atom_site_fract_x
_atom_site_fract_y
_atom_site_fract_z
Si Si1 0.452269 0.595356 0.307178
Si Si2 0.629589 0.815722 0.300857
Si Si3 0.612633 0.815624 0.141416
Si Si4 0.258776 0.573922 0.651181
Si Si5 0.265758 0.543418 0.790455
Si Si6 0.596228 0.745037 0.820122
Si Si7 0.018478 0.334386 0.235377
Si Si8 0.712443 0.429636 0.549684
O O1 0.634580 0.637021 0.444480
O O2 0.362385 0.364562 0.157275
O O3 0.430273 0.912870 0.524297
O O4 0.389632 0.462627 0.102503
O O5 0.712572 0.858783 0.299894
O O6 0.733121 0.770104 0.392489
O O7 0.500000 0.500000 0.000000
O O8 0.680861 0.105135 0.335716
O O9 0.437690 0.784213 0.047773
O O10 0.193356 0.516786 0.653995
O O11 0.110502 0.505809 0.472643
O O12 0.369989 0.904602 0.923616
O O13 0.153631 0.645797 0.850691
O O14 0.703879 0.659058 0.763808
O O15 0.413822 0.579233 0.587551
O O16 0.114003 0.464398 0.309115
O O17 0.000000 0.000000 0.000000
#
# Coordination Sequence:
#
# PCOD8013268 Si02
#       8
#     2   2   2   2   2   2   2   2
#     4  11  20  36  65 100 122 156 217 267 320 355
#     4  10  23  39  63  90 130 168 212 269 302 368
#     4  10  21  40  66  95 120 166 219 267 301 369
#     4  11  22  38  65  94 127 164 211 262 320 383
#     4  10  23  42  58  89 132 164 209 249 323 372
#     4  11  20  36  67  97 125 157 213 277 311 365
#     4  12  26  38  59  95 133 168 198 259 333 389
#     4  11  21  36  65  94 127 165 209 262 322 371
#
# _framework density 20.364166000000001
#
# number of rings (size 3 to 8) (size 9 to 14) (size 15 to 20)
#    0.000    1.250    5.000    2.250    5.250    4.500 
#    0.000    0.625    0.000    1.500    0.000    0.000 
#    0.000    0.000    0.000    0.000    0.000    0.000 
#
# Total GULP energy -198267.177033 kJ/mol
# GULP energy per Si atom -12391.698565 kJ/mol
# Density = 2.031782 g / cm^3
# Si number density = 20.364166 Si / 1000 Ang^3
#
#
#
# Elastic Constant Matrix: (Units=GPa)
#
#
# Indices 1 2 3 4 5 6 
#
# 1 130.5721 45.4636 46.7862 19.8582 13.1171 -2.5773
# 2 45.4636 71.9560 28.8761 34.3224 5.6047 -1.3482
# 3 46.7862 28.8761 79.0044 24.2604 -3.6211 -6.5164
# 4 19.8582 34.3224 24.2604 31.1881 -4.0114 -6.0926
# 5 13.1171 5.6047 -3.6211 -4.0114 29.8419 8.1367
# 6 -2.5773 -1.3482 -6.5164 -6.0926 8.1367 27.1950
#
#
#
# Elastic Compliance Matrix: (Units=1/GPa)
#
#
# Indices 1 2 3 4 5 6 
#
# 1 0.012046 -0.006847 -0.006018 0.004284 -0.004628 0.001705
# 2 -0.006847 0.036875 0.002023 -0.039747 -0.007664 -0.004948
# 3 -0.006018 0.002023 0.019729 -0.013299 0.002747 0.000456
# 4 0.004284 -0.039747 -0.013299 0.087201 0.012694 0.010987
# 5 -0.004628 -0.007664 0.002747 0.012694 0.041693 -0.009791
# 6 0.001705 -0.004948 0.000456 0.010987 -0.009791 0.042188
#
#
# Mechanical properties :
#
#
# Convention : Reuss Voigt Hill
#
# Bulk Modulus (GPa) = 21.29202 58.19826 39.74514
# Shear Modulus (GPa) = 18.04588 28.33878 23.19233
#
# Velocity S-wave (km/s) = 2.98007 3.73446 3.37839
# Velocity P-wave (km/s) = 4.72434 6.87283 5.89725
#
# Compressibility (1/GPa) = 0.04696594
#
# Stress axis : x y z
#
# Youngs Moduli (GPa) = 83.01463 27.11875 50.68580
#
# Poissons Ratio (x) = 0.18568 0.30504
# Poissons Ratio (y) = 0.56840 -0.10254
# Poissons Ratio (z) = 0.49960 -0.05486
#
# Static dielectric constant tensor:
#      x y z
#    x 4.261380 0.246740 0.171750 
#    y 0.246740 4.315190 -0.239220 
#    z 0.171750 -0.239220 3.864000 
# 
# 
# High freq. dielectric constant tensor:
#      x y z
#    x 1.809390 0.027480 -0.014880 
#    y 0.027480 1.781930 0.021100 
#    z -0.014880 0.021100 1.772680 
# 
# From -- ./inp_files/598202.got.cif
#   From: 2010.06.25/outbox.cif.g09.slc.cpg/sg2_300_cif.got.tgz:598202.got - 2010.06.27 13:26:56.
