data_PCOD8013561
_publ_section_title
;
Structure prediction by ZEFSAII (Michael W. Deem and Ramdas Pophale) SiO2 
 PCOD8013561
Probable space group: P -1
;
_chemical_formula_sum "Si O2"
_cell_formula_units_Z 16
_cell_length_a 8.810030
_cell_length_b 19.853325
_cell_length_c 5.729682
_cell_angle_alpha 104.261832
_cell_angle_beta 53.597450
_cell_angle_gamma 118.041048
_cell_volume 711.174463
_symmetry_space_group_name_H-M "P -1"
_symmetry_group_IT_number 2
_symmetry_cell_setting 'triclinic'
loop_
_space_group_symop_operation_xyz
x,y,z
-x,-y,-z
loop_
_atom_site_type_symbol
_atom_site_label
_atom_site_fract_x
_atom_site_fract_y
_atom_site_fract_z
Si Si1 0.735182 0.255320 0.546327
Si Si2 0.347223 0.210837 0.560160
Si Si3 0.605363 0.332380 0.109143
Si Si4 0.045077 0.849360 0.833731
Si Si5 0.618096 0.010519 0.152797
Si Si6 0.135227 0.073899 0.293548
Si Si7 0.330250 0.530550 0.125230
Si Si8 0.911363 0.411847 0.272938
O O1 0.550812 0.211396 0.497272
O O2 0.863263 0.204483 0.421468
O O3 0.886685 0.340239 0.396711
O O4 0.632805 0.263809 0.889205
O O5 0.416617 0.291476 0.427801
O O6 0.269019 0.139970 0.400736
O O7 0.172081 0.205944 0.899862
O O8 0.825267 0.382591 0.071037
O O9 0.548871 0.388262 0.043939
O O10 0.197796 0.903906 0.939253
O O11 0.014172 0.902504 0.709011
O O12 0.500000 0.000000 0.500000
O O13 0.500000 0.000000 0.000000
O O14 0.709312 0.946511 0.028045
O O15 0.000000 0.000000 0.500000
O O16 0.220430 0.543390 0.467733
O O17 0.152334 0.468271 0.074620
O O18 0.500000 0.500000 0.000000
#
# Coordination Sequence:
#
# PCOD8013561 Si02
#       8
#     2   2   2   2   2   2   2   2
#     4  10  24  45  67 100 137 189 233 288 353 428
#     4  11  25  45  70  97 144 181 239 291 369 427
#     4  10  22  44  70  98 142 183 232 285 349 425
#     4  12  27  45  73 100 141 185 235 302 365 437
#     4  12  28  47  76 105 141 189 247 306 380 448
#     4  12  26  48  69 105 139 183 242 308 370 443
#     4  10  21  40  69 103 137 180 227 283 348 409
#     4   9  21  41  65  98 141 178 226 286 337 421
#
# _framework density 22.497995
#
# number of rings (size 3 to 8) (size 9 to 14) (size 15 to 20)
#    0.000    1.250    1.250    3.000    5.250    6.500 
#    0.000    6.250    0.000    0.000    0.000    0.000 
#    0.000    0.000    0.000    0.000    0.000    0.000 
#
# Total GULP energy -198408.437497 kJ/mol
# GULP energy per Si atom -12400.527344 kJ/mol
# Density = 2.244679 g / cm^3
# Si number density = 22.497995 Si / 1000 Ang^3
#
#
#
# Elastic Constant Matrix: (Units=GPa)
#
#
# Indices 1 2 3 4 5 6 
#
# 1 124.5689 81.7852 75.8249 9.9089 -10.2707 -15.7449
# 2 81.7852 124.1316 53.8741 2.1784 -9.4943 1.5566
# 3 75.8249 53.8741 106.5351 -7.2519 0.2773 -11.7348
# 4 9.9089 2.1784 -7.2519 44.9104 3.9094 -1.1488
# 5 -10.2707 -9.4943 0.2773 3.9094 37.3967 8.9904
# 6 -15.7449 1.5566 -11.7348 -1.1488 8.9904 46.5710
#
#
#
# Elastic Compliance Matrix: (Units=1/GPa)
#
#
# Indices 1 2 3 4 5 6 
#
# 1 0.022451 -0.009668 -0.011065 -0.006460 0.003435 0.004303
# 2 -0.009668 0.015166 -0.001228 0.000894 0.002189 -0.004485
# 3 -0.011065 -0.001228 0.018519 0.005942 -0.004590 0.001999
# 4 -0.006460 0.000894 0.005942 0.025009 -0.004385 0.000747
# 5 0.003435 0.002189 -0.004590 -0.004385 0.030175 -0.006002
# 6 0.004303 -0.004485 0.001999 0.000747 -0.006002 0.024758
#
#
# Mechanical properties :
#
#
# Convention : Reuss Voigt Hill
#
# Bulk Modulus (GPa) = 81.85890 86.46711 84.16301
# Shear Modulus (GPa) = 27.16326 35.35904 31.26115
#
# Velocity S-wave (km/s) = 3.47848 3.96871 3.73165
# Velocity P-wave (km/s) = 7.25239 7.71476 7.48714
#
# Compressibility (1/GPa) = 0.01221614
#
# Stress axis : x y z
#
# Youngs Moduli (GPa) = 44.54080 65.93503 53.99714
#
# Poissons Ratio (x) = 0.63744 0.59749
# Poissons Ratio (y) = 0.43061 0.06629
# Poissons Ratio (z) = 0.49285 0.08094
#
# Static dielectric constant tensor:
#      x y z
#    x 4.073350 0.196980 0.038410 
#    y 0.196980 3.656190 0.364780 
#    z 0.038410 0.364780 3.958520 
# 
# 
# High freq. dielectric constant tensor:
#      x y z
#    x 1.880510 0.012220 0.007060 
#    y 0.012220 1.904380 0.000660 
#    z 0.007060 0.000660 1.886610 
# 
# From -- ./inp_files/48517.got.cif
#   From: 2010.06.25/outbox.cif.g09.slc.cpg/sg2_25_cif.got.tgz:48517.got - 2010.06.27 13:26:56.
