data_PCOD8013544
_publ_section_title
;
Structure prediction by ZEFSAII (Michael W. Deem and Ramdas Pophale) SiO2 
 PCOD8013544
Probable space group: P -1
;
_chemical_formula_sum "Si O2"
_cell_formula_units_Z 14
_cell_length_a 11.623958
_cell_length_b 10.819610
_cell_length_c 17.579812
_cell_angle_alpha 145.676489
_cell_angle_beta 151.819800
_cell_angle_gamma 40.666201
_cell_volume 584.853788
_symmetry_space_group_name_H-M "P -1"
_symmetry_group_IT_number 2
_symmetry_cell_setting 'triclinic'
loop_
_space_group_symop_operation_xyz
x,y,z
-x,-y,-z
loop_
_atom_site_type_symbol
_atom_site_label
_atom_site_fract_x
_atom_site_fract_y
_atom_site_fract_z
Si Si1 0.525001 0.726172 0.196337
Si Si2 0.231002 0.341539 0.238260
Si Si3 0.488740 0.707411 0.939012
Si Si4 0.569897 0.799702 0.570731
Si Si5 0.711370 0.546001 0.836115
Si Si6 0.105361 0.228758 0.688068
Si Si7 0.887316 0.129082 0.089995
O O1 0.490559 0.541078 0.143288
O O2 0.785144 0.688694 0.285110
O O3 0.526331 0.945136 0.358361
O O4 0.309933 0.734452 0.011714
O O5 0.456355 0.300551 0.409462
O O6 0.334056 0.328885 0.206579
O O7 0.076157 0.573770 0.281798
O O8 0.071235 0.129117 0.044219
O O9 0.553455 0.698055 0.882680
O O10 0.223438 0.839739 0.872459
O O11 0.686438 0.838117 0.162327
O O12 0.408743 0.683438 0.357047
O O13 0.861205 0.761646 0.705020
O O14 0.000000 0.500000 0.000000
O O15 0.000000 0.000000 0.500000
#
# Coordination Sequence:
#
# PCOD8013544 Si02
#       7
#     2   2   2   2   2   2   2
#     4  10  21  40  69 100 129 169 222 274 316 390
#     4  11  22  45  68  97 132 168 221 271 324 387
#     4  11  23  43  63  96 139 170 217 269 329 386
#     4  11  23  42  71  99 124 174 223 266 329 387
#     4  12  27  42  65  94 140 176 210 274 330 387
#     4  11  21  38  68  99 130 171 219 265 321 394
#     4  10  22  41  70  96 127 170 219 276 325 378
#
# _framework density 23.937607
#
# number of rings (size 3 to 8) (size 9 to 14) (size 15 to 20)
#    0.000    1.143    1.429    7.286    0.000    4.000 
#    0.000    0.000    0.000    0.000    0.000    0.000 
#    0.000    0.000    0.000    0.000    0.000    0.000 
#
# Total GULP energy -173562.494179 kJ/mol
# GULP energy per Si atom -12397.321013 kJ/mol
# Density = 2.388312 g / cm^3
# Si number density = 23.937607 Si / 1000 Ang^3
#
#
#
# Elastic Constant Matrix: (Units=GPa)
#
#
# Indices 1 2 3 4 5 6 
#
# 1 126.0338 24.6801 39.3223 -6.9333 -5.6630 -11.5230
# 2 24.6801 71.6260 25.9849 12.1022 4.8307 -11.9514
# 3 39.3223 25.9849 158.7495 1.4876 4.2012 -8.1383
# 4 -6.9333 12.1022 1.4876 25.3639 0.0488 4.3891
# 5 -5.6630 4.8307 4.2012 0.0488 29.1572 2.2903
# 6 -11.5230 -11.9514 -8.1383 4.3891 2.2903 30.6198
#
#
#
# Elastic Compliance Matrix: (Units=1/GPa)
#
#
# Indices 1 2 3 4 5 6 
#
# 1 0.009616 -0.003332 -0.001892 0.004147 0.002605 0.001026
# 2 -0.003332 0.019209 -0.001707 -0.011304 -0.004171 0.007722
# 3 -0.001892 -0.001707 0.007112 -0.000227 -0.001159 0.000632
# 4 0.004147 -0.011304 -0.000227 0.047691 0.003417 -0.010004
# 5 0.002605 -0.004171 -0.001159 0.003417 0.035980 -0.004137
# 6 0.001026 0.007722 0.000632 -0.010004 -0.004137 0.037970
#
#
# Mechanical properties :
#
#
# Convention : Reuss Voigt Hill
#
# Bulk Modulus (GPa) = 45.29803 59.59819 52.44811
# Shear Modulus (GPa) = 27.96452 34.78965 31.37708
#
# Velocity S-wave (km/s) = 3.42164 3.81641 3.62441
# Velocity P-wave (km/s) = 5.88002 6.66118 6.28275
#
# Compressibility (1/GPa) = 0.02207601
#
# Stress axis : x y z
#
# Youngs Moduli (GPa) = 103.99247 52.06004 140.60145
#
# Poissons Ratio (x) = 0.17348 0.26597
# Poissons Ratio (y) = 0.34653 0.23994
# Poissons Ratio (z) = 0.19672 0.08884
#
# Static dielectric constant tensor:
#      x y z
#    x 4.604830 -0.183540 0.085940 
#    y -0.183540 4.061550 0.230630 
#    z 0.085940 0.230630 4.423300 
# 
# 
# High freq. dielectric constant tensor:
#      x y z
#    x 1.960360 -0.018930 0.012820 
#    y -0.018930 1.929090 0.028430 
#    z 0.012820 0.028430 1.950590 
# 
# From -- ./inp_files/569254.got.cif
#   From: 2010.06.25/outbox.cif.g09.slc.cpg/sg2_285_cif.got.tgz:569254.got - 2010.06.27 13:26:56.
