data_PCOD8013455
_publ_section_title
;
Structure prediction by ZEFSAII (Michael W. Deem and Ramdas Pophale) SiO2 
 PCOD8013455
Probable space group: P -1
;
_chemical_formula_sum "Si O2"
_cell_formula_units_Z 16
_cell_length_a 17.890131
_cell_length_b 11.408994
_cell_length_c 7.647005
_cell_angle_alpha 94.970669
_cell_angle_beta 45.421545
_cell_angle_gamma 128.565693
_cell_volume 675.013017
_symmetry_space_group_name_H-M "P -1"
_symmetry_group_IT_number 2
_symmetry_cell_setting 'triclinic'
loop_
_space_group_symop_operation_xyz
x,y,z
-x,-y,-z
loop_
_atom_site_type_symbol
_atom_site_label
_atom_site_fract_x
_atom_site_fract_y
_atom_site_fract_z
Si Si1 0.529484 0.999233 0.151465
Si Si2 0.171203 0.579989 0.274950
Si Si3 0.305116 0.098493 0.148783
Si Si4 0.766247 0.868260 0.379776
Si Si5 0.919183 0.758774 0.619306
Si Si6 0.885874 0.731062 0.254511
Si Si7 0.175196 0.588850 0.680217
Si Si8 0.350322 0.295457 0.803619
O O1 0.339851 0.805418 0.522886
O O2 0.651119 0.995478 0.971189
O O3 0.500000 0.000000 0.000000
O O4 0.649045 0.206628 0.073090
O O5 0.151615 0.429659 0.220944
O O6 0.198120 0.607220 0.439810
O O7 0.000000 0.500000 0.500000
O O8 0.348583 0.168888 0.288519
O O9 0.416732 0.279534 0.858274
O O10 0.107925 0.949891 0.407678
O O11 0.750809 0.714659 0.428712
O O12 0.705815 0.842026 0.278748
O O13 0.954780 0.093169 0.109345
O O14 0.926180 0.770000 0.399395
O O15 0.803307 0.756496 0.891413
O O16 0.824562 0.546431 0.270936
O O17 0.000000 0.500000 0.000000
O O18 0.500000 0.500000 0.500000
#
# Coordination Sequence:
#
# PCOD8013455 Si02
#       8
#     2   2   2   2   2   2   2   2
#     4  10  24  45  70 103 138 185 241 292 359 424
#     4  10  21  42  71  99 132 186 235 284 363 416
#     4  12  24  46  77  98 147 187 230 301 352 422
#     4  11  24  40  73 102 136 185 236 284 356 427
#     4  11  21  45  72  98 142 188 231 292 354 423
#     4  10  21  40  68 103 135 184 239 282 352 431
#     4  10  24  42  68  97 138 181 237 296 347 420
#     4  12  28  45  66 110 145 181 239 291 356 428
#
# _framework density 23.703247999999999
#
# number of rings (size 3 to 8) (size 9 to 14) (size 15 to 20)
#    0.000    1.250    3.750    1.875    5.250    4.500 
#    0.000    0.625    0.000    0.000    0.000    0.000 
#    0.000    0.000    0.000    0.000    0.000    0.000 
#
# Total GULP energy -198274.054195 kJ/mol
# GULP energy per Si atom -12392.128387 kJ/mol
# Density = 2.364930 g / cm^3
# Si number density = 23.703248 Si / 1000 Ang^3
#
#
#
# Elastic Constant Matrix: (Units=GPa)
#
#
# Indices 1 2 3 4 5 6 
#
# 1 71.1321 17.6495 27.3814 0.6130 14.7534 -16.0460
# 2 17.6495 99.3678 37.9770 -23.0189 17.9806 -16.7658
# 3 27.3814 37.9770 97.3127 -17.0205 8.7447 -4.1846
# 4 0.6130 -23.0189 -17.0205 45.9349 4.4903 8.5077
# 5 14.7534 17.9806 8.7447 4.4903 33.2246 0.8269
# 6 -16.0460 -16.7658 -4.1846 8.5077 0.8269 36.7844
#
#
#
# Elastic Compliance Matrix: (Units=1/GPa)
#
#
# Indices 1 2 3 4 5 6 
#
# 1 0.019510 0.000796 -0.005206 -0.002732 -0.007581 0.009083
# 2 0.000796 0.015404 -0.004185 0.005934 -0.008532 0.005711
# 3 -0.005206 -0.004185 0.013822 0.003685 0.000527 -0.003470
# 4 -0.002732 0.005934 0.003685 0.027586 -0.006589 -0.004300
# 5 -0.007581 -0.008532 0.000527 -0.006589 0.038995 -0.006488
# 6 0.009083 0.005711 -0.003470 -0.004300 -0.006488 0.034496
#
#
# Mechanical properties :
#
#
# Convention : Reuss Voigt Hill
#
# Bulk Modulus (GPa) = 31.70074 48.20316 39.95195
# Shear Modulus (GPa) = 28.16586 35.50910 31.83748
#
# Velocity S-wave (km/s) = 3.45087 3.87469 3.66890
# Velocity P-wave (km/s) = 5.41120 6.35593 5.90250
#
# Compressibility (1/GPa) = 0.03154501
#
# Stress axis : x y z
#
# Youngs Moduli (GPa) = 51.25648 64.91797 72.34693
#
# Poissons Ratio (x) = -0.05167 0.37665
# Poissons Ratio (y) = -0.04079 0.30279
# Poissons Ratio (z) = 0.26685 0.27170
#
# Static dielectric constant tensor:
#      x y z
#    x 3.877430 -0.332470 0.388900 
#    y -0.332470 4.527480 -0.430970 
#    z 0.388900 -0.430970 4.382940 
# 
# 
# High freq. dielectric constant tensor:
#      x y z
#    x 1.943600 -0.010390 0.011050 
#    y -0.010390 1.939450 -0.018420 
#    z 0.011050 -0.018420 1.932930 
# 
# From -- ./inp_files/346162.got.cif
#   From: 2010.06.25/outbox.cif.g09.slc.cpg/sg2_174_cif.got.tgz:346162.got - 2010.06.27 13:26:56.
