data_PCOD8013325
_publ_section_title
;
Structure prediction by ZEFSAII (Michael W. Deem and Ramdas Pophale) SiO2 
 PCOD8013325
Probable space group: P -1
;
_chemical_formula_sum "Si O2"
_cell_formula_units_Z 16
_cell_length_a 14.988753
_cell_length_b 7.478336
_cell_length_c 9.317582
_cell_angle_alpha 99.184921
_cell_angle_beta 128.359784
_cell_angle_gamma 58.304332
_cell_volume 674.778067
_symmetry_space_group_name_H-M "P -1"
_symmetry_group_IT_number 2
_symmetry_cell_setting 'triclinic'
loop_
_space_group_symop_operation_xyz
x,y,z
-x,-y,-z
loop_
_atom_site_type_symbol
_atom_site_label
_atom_site_fract_x
_atom_site_fract_y
_atom_site_fract_z
Si Si1 0.125866 0.738263 0.836385
Si Si2 0.286631 0.151919 0.130515
Si Si3 0.026260 0.193918 0.760819
Si Si4 0.555786 0.993925 0.210018
Si Si5 0.609635 0.359048 0.381008
Si Si6 0.330308 0.750607 0.252149
Si Si7 0.228316 0.501396 0.625390
Si Si8 0.918936 0.398912 0.959316
O O1 0.216041 0.544332 0.790279
O O2 0.051011 0.964624 0.703804
O O3 0.212313 0.747915 0.054122
O O4 0.031381 0.695256 0.839880
O O5 0.239273 0.391345 0.170955
O O6 0.435068 0.048817 0.202565
O O7 0.302933 0.990464 0.252652
O O8 0.170060 0.177706 0.906614
O O9 0.924926 0.385534 0.575283
O O10 0.952842 0.224968 0.846889
O O11 0.687231 0.755825 0.348126
O O12 0.596139 0.167910 0.283699
O O13 0.500000 0.000000 0.000000
O O14 0.465978 0.585391 0.278504
O O15 0.675597 0.305228 0.597067
O O16 0.701200 0.387530 0.363312
O O17 0.000000 0.500000 0.000000
#
# Coordination Sequence:
#
# PCOD8013325 Si02
#       8
#     2   2   2   2   2   2   2   2
#     4  11  23  45  71  97 143 193 233 291 365 422
#     4  10  22  44  71 101 143 188 234 291 359 420
#     4  10  24  44  72 100 138 189 239 298 350 421
#     4  12  27  45  73 106 148 191 231 289 365 431
#     4  11  25  43  71 108 144 183 242 295 353 415
#     4  10  22  43  70 102 140 188 236 296 347 422
#     4  12  26  46  72 110 148 183 240 295 356 431
#     4  10  21  40  67 100 135 182 241 287 349 421
#
# _framework density 23.711501999999999
#
# number of rings (size 3 to 8) (size 9 to 14) (size 15 to 20)
#    0.000    1.250    1.250    3.750    5.250    4.500 
#    2.250    3.125    0.000    0.000    0.000    0.000 
#    0.000    0.000    0.000    0.000    0.000    0.000 
#
# Total GULP energy -198298.761688 kJ/mol
# GULP energy per Si atom -12393.672606 kJ/mol
# Density = 2.365753 g / cm^3
# Si number density = 23.711502 Si / 1000 Ang^3
#
#
#
# Elastic Constant Matrix: (Units=GPa)
#
#
# Indices 1 2 3 4 5 6 
#
# 1 72.3382 -1.3036 14.0633 10.3791 -5.7915 2.9680
# 2 -1.3036 113.8397 21.2946 -10.4726 9.1926 -0.6574
# 3 14.0633 21.2946 73.2410 -8.9395 -0.0428 -1.7739
# 4 10.3791 -10.4726 -8.9395 41.3836 -9.7247 -4.1700
# 5 -5.7915 9.1926 -0.0428 -9.7247 31.4652 0.9982
# 6 2.9680 -0.6574 -1.7739 -4.1700 0.9982 38.8221
#
#
#
# Elastic Compliance Matrix: (Units=1/GPa)
#
#
# Indices 1 2 3 4 5 6 
#
# 1 0.015356 0.000323 -0.003624 -0.004403 0.001425 -0.001844
# 2 0.000323 0.009599 -0.002699 0.001228 -0.002376 0.000207
# 3 -0.003624 -0.002699 0.015664 0.004064 0.001356 0.001349
# 4 -0.004403 0.001228 0.004064 0.028578 0.007560 0.003418
# 5 0.001425 -0.002376 0.001356 0.007560 0.035082 -0.000177
# 6 -0.001844 0.000207 0.001349 0.003418 -0.000177 0.026336
#
#
# Mechanical properties :
#
#
# Convention : Reuss Voigt Hill
#
# Bulk Modulus (GPa) = 34.94302 36.39196 35.66749
# Shear Modulus (GPa) = 32.86146 37.35849 35.10998
#
# Velocity S-wave (km/s) = 3.72679 3.97362 3.85218
# Velocity P-wave (km/s) = 5.76952 6.03606 5.90429
#
# Compressibility (1/GPa) = 0.02861802
#
# Stress axis : x y z
#
# Youngs Moduli (GPa) = 65.12218 104.17866 63.84203
#
# Poissons Ratio (x) = -0.03364 0.23134
# Poissons Ratio (y) = -0.02103 0.17233
# Poissons Ratio (z) = 0.23598 0.28122
#
# Static dielectric constant tensor:
#      x y z
#    x 5.502850 -0.830460 -0.556890 
#    y -0.830460 5.647030 0.229160 
#    z -0.556890 0.229160 4.368950 
# 
# 
# High freq. dielectric constant tensor:
#      x y z
#    x 1.946030 -0.000340 -0.004660 
#    y -0.000340 1.962480 -0.012000 
#    z -0.004660 -0.012000 1.920110 
# 
# From -- ./inp_files/295597.got.cif
#   From: 2010.06.25/outbox.cif.g09.slc.cpg/sg2_148_cif.got.tgz:295597.got - 2010.06.27 13:26:56.
