data_PCOD8013761
_publ_section_title
;
Structure prediction by ZEFSAII (Michael W. Deem and Ramdas Pophale) SiO2 
 PCOD8013761
Probable space group: P -1
;
_chemical_formula_sum "Si O2"
_cell_formula_units_Z 14
_cell_length_a 25.720654
_cell_length_b 18.014518
_cell_length_c 6.885575
_cell_angle_alpha 124.048499
_cell_angle_beta 46.827739
_cell_angle_gamma 162.078753
_cell_volume 654.313641
_symmetry_space_group_name_H-M "P -1"
_symmetry_group_IT_number 2
_symmetry_cell_setting 'triclinic'
loop_
_space_group_symop_operation_xyz
x,y,z
-x,-y,-z
loop_
_atom_site_type_symbol
_atom_site_label
_atom_site_fract_x
_atom_site_fract_y
_atom_site_fract_z
Si Si1 0.232846 0.902636 0.949997
Si Si2 0.397105 0.688561 0.647962
Si Si3 0.220334 0.088422 0.143531
Si Si4 0.425930 0.431791 0.804792
Si Si5 0.895776 0.489645 0.915771
Si Si6 0.167273 0.271854 0.406365
Si Si7 0.721477 0.095973 0.729825
O O1 0.418172 0.063893 0.612204
O O2 0.278974 0.056597 0.983171
O O3 0.999955 0.599495 0.025511
O O4 0.256012 0.925213 0.152821
O O5 0.305109 0.480473 0.532149
O O6 0.497445 0.806857 0.781393
O O7 0.215503 0.547258 0.882729
O O8 0.363405 0.324385 0.249160
O O9 0.264540 0.166505 0.916711
O O10 0.978686 0.819896 0.435771
O O11 0.500000 0.500000 0.500000
O O12 0.320319 0.406622 0.054191
O O13 0.732135 0.216184 0.899871
O O14 0.086640 0.714405 0.606904
O O15 0.000000 0.000000 0.500000
#
# Coordination Sequence:
#
# PCOD8013761 Si02
#       7
#     2   2   2   2   2   2   2
#     4  11  22  40  63  96 128 165 204 260 320 378
#     4  11  22  41  65  92 128 165 213 263 308 376
#     4  10  21  41  61  88 128 159 205 259 316 370
#     4  10  22  40  64  89 120 162 213 263 311 367
#     4  10  22  43  66  92 128 167 208 266 313 372
#     4  10  21  42  63  88 126 167 205 257 314 364
#     4  10  24  41  65  96 126 164 214 258 320 378
#
# _framework density 21.396467000000001
#
# number of rings (size 3 to 8) (size 9 to 14) (size 15 to 20)
#    0.000    1.714    2.857    0.857    0.000    4.571 
#    0.000    0.000    0.000    0.000    0.000    0.000 
#    0.000    0.000    0.000    0.000    0.000    0.000 
#
# Total GULP energy -173494.461296 kJ/mol
# GULP energy per Si atom -12392.461521 kJ/mol
# Density = 2.134777 g / cm^3
# Si number density = 21.396467 Si / 1000 Ang^3
#
#
#
# Elastic Constant Matrix: (Units=GPa)
#
#
# Indices 1 2 3 4 5 6 
#
# 1 93.4378 34.2111 67.6712 8.0102 -1.2070 10.5078
# 2 34.2111 141.1569 48.3969 15.2215 -4.5574 13.2171
# 3 67.6712 48.3969 121.9768 14.2826 -3.0478 13.9401
# 4 8.0102 15.2215 14.2826 28.2887 5.4898 -4.5696
# 5 -1.2070 -4.5574 -3.0478 5.4898 35.1941 7.0617
# 6 10.5078 13.2171 13.9401 -4.5696 7.0617 38.0195
#
#
#
# Elastic Compliance Matrix: (Units=1/GPa)
#
#
# Indices 1 2 3 4 5 6 
#
# 1 0.018083 -0.001030 -0.009507 0.000077 -0.000124 -0.001121
# 2 -0.001030 0.008852 -0.002035 -0.004355 0.002212 -0.002981
# 3 -0.009507 -0.002035 0.015275 -0.004866 0.002144 -0.003249
# 4 0.000077 -0.004355 -0.004866 0.043720 -0.009883 0.010367
# 5 -0.000124 0.002212 0.002144 -0.009883 0.032166 -0.008683
# 6 -0.001121 -0.002981 -0.003249 0.010367 -0.008683 0.031699
#
#
# Mechanical properties :
#
#
# Convention : Reuss Voigt Hill
#
# Bulk Modulus (GPa) = 58.59999 73.01444 65.80721
# Shear Modulus (GPa) = 27.68132 34.05327 30.86729
#
# Velocity S-wave (km/s) = 3.60075 3.99374 3.80232
# Velocity P-wave (km/s) = 6.68838 7.44749 7.07812
#
# Compressibility (1/GPa) = 0.01706485
#
# Stress axis : x y z
#
# Youngs Moduli (GPa) = 55.30035 112.97239 65.46721
#
# Poissons Ratio (x) = 0.11639 0.62242
# Poissons Ratio (y) = 0.05697 0.13321
# Poissons Ratio (z) = 0.52576 0.22987
#
# Static dielectric constant tensor:
#      x y z
#    x 3.921090 0.221670 -0.365690 
#    y 0.221670 4.254260 -0.043280 
#    z -0.365690 -0.043280 3.968620 
# 
# 
# High freq. dielectric constant tensor:
#      x y z
#    x 1.823320 0.007140 -0.028270 
#    y 0.007140 1.857200 -0.000600 
#    z -0.028270 -0.000600 1.831160 
# 
# From -- ./inp_files/124574.got.cif
#   From: 2010.06.25/outbox.cif.g09.slc.cpg/sg2_63_cif.got.tgz:124574.got - 2010.06.27 13:26:56.
