data_PCOD8013918
_publ_section_title
;
Structure prediction by ZEFSAII (Michael W. Deem and Ramdas Pophale) SiO2 
 PCOD8013918
Probable space group: P -1
;
_chemical_formula_sum "Si O2"
_cell_formula_units_Z 16
_cell_length_a 15.681699
_cell_length_b 9.637015
_cell_length_c 9.469256
_cell_angle_alpha 73.831979
_cell_angle_beta 141.470391
_cell_angle_gamma 118.310827
_cell_volume 773.540782
_symmetry_space_group_name_H-M "P -1"
_symmetry_group_IT_number 2
_symmetry_cell_setting 'triclinic'
loop_
_space_group_symop_operation_xyz
x,y,z
-x,-y,-z
loop_
_atom_site_type_symbol
_atom_site_label
_atom_site_fract_x
_atom_site_fract_y
_atom_site_fract_z
Si Si1 0.658686 0.223937 0.091502
Si Si2 0.322499 0.714085 0.226244
Si Si3 0.316976 0.062845 0.684648
Si Si4 0.126329 0.434108 0.684987
Si Si5 0.079640 0.163987 0.475351
Si Si6 0.148556 0.351896 0.049701
Si Si7 0.120849 0.854572 0.043468
Si Si8 0.333221 0.164345 0.364757
O O1 0.719595 0.404613 0.175549
O O2 0.748663 0.124190 0.299157
O O3 0.673841 0.219014 0.944441
O O4 0.486050 0.146926 0.941718
O O5 0.207483 0.528835 0.136798
O O6 0.251936 0.794515 0.221413
O O7 0.493353 0.757221 0.487363
O O8 0.229615 0.161940 0.603431
O O9 0.316615 0.066759 0.514505
O O10 0.118541 0.317419 0.580697
O O11 0.000000 0.500000 0.500000
O O12 0.120955 0.342606 0.849106
O O13 0.000000 0.000000 0.500000
O O14 0.972244 0.177315 0.211641
O O15 0.284544 0.306900 0.280728
O O16 0.990457 0.232915 0.947441
O O17 0.211873 0.044128 0.131867
#
# Coordination Sequence:
#
# PCOD8013918 Si02
#       8
#     2   2   2   2   2   2   2   2
#     4   9  21  41  65  87 130 166 212 254 316 382
#     4  10  22  42  63  92 127 168 207 260 319 372
#     4  10  21  41  63  93 123 170 208 262 314 372
#     4  11  24  41  66  92 126 169 207 259 323 374
#     4  12  24  39  66  92 129 163 215 261 313 374
#     4  11  23  42  65  93 128 162 212 261 318 375
#     4  12  24  40  64  98 125 164 216 261 307 380
#     4  11  23  40  65  92 128 167 208 260 321 374
#
# _framework density 20.684107000000001
#
# number of rings (size 3 to 8) (size 9 to 14) (size 15 to 20)
#    0.000    1.250    1.250    5.250    3.500    0.500 
#    0.000    1.250    0.000    0.000    0.000    0.000 
#    0.000    0.000    0.000    0.000    0.000    0.000 
#
# Total GULP energy -198416.951584 kJ/mol
# GULP energy per Si atom -12401.059474 kJ/mol
# Density = 2.063703 g / cm^3
# Si number density = 20.684107 Si / 1000 Ang^3
#
#
#
# Elastic Constant Matrix: (Units=GPa)
#
#
# Indices 1 2 3 4 5 6 
#
# 1 75.2827 22.4249 41.8749 2.6830 19.6241 -22.7141
# 2 22.4249 74.1975 31.1048 1.4507 -5.8566 -14.0194
# 3 41.8749 31.1048 85.7410 0.3122 2.5290 2.7985
# 4 2.6830 1.4507 0.3122 38.9780 -6.2561 -1.3071
# 5 19.6241 -5.8566 2.5290 -6.2561 38.3603 -4.5883
# 6 -22.7141 -14.0194 2.7985 -1.3071 -4.5883 29.6688
#
#
#
# Elastic Compliance Matrix: (Units=1/GPa)
#
#
# Indices 1 2 3 4 5 6 
#
# 1 0.034356 0.000880 -0.017531 -0.003589 -0.013751 0.026087
# 2 0.000880 0.018883 -0.007768 0.000362 0.004321 0.011013
# 3 -0.017531 -0.007768 0.023520 0.001363 0.004230 -0.018597
# 4 -0.003589 0.000362 0.001363 0.026839 0.006110 -0.000578
# 5 -0.013751 0.004321 0.004230 0.006110 0.034080 -0.003345
# 6 0.026087 0.011013 -0.018597 -0.000578 -0.003345 0.060093
#
#
# Mechanical properties :
#
#
# Convention : Reuss Voigt Hill
#
# Bulk Modulus (GPa) = 35.81611 47.33672 41.57642
# Shear Modulus (GPa) = 19.53750 30.72250 25.13000
#
# Velocity S-wave (km/s) = 3.07671 3.85817 3.48938
# Velocity P-wave (km/s) = 5.47493 6.54083 6.03148
#
# Compressibility (1/GPa) = 0.02792039
#
# Stress axis : x y z
#
# Youngs Moduli (GPa) = 29.10713 52.95698 42.51643
#
# Poissons Ratio (x) = -0.04658 0.74535
# Poissons Ratio (y) = -0.02560 0.33028
# Poissons Ratio (z) = 0.51027 0.41138
#
# Static dielectric constant tensor:
#      x y z
#    x 3.740930 0.072760 0.134320 
#    y 0.072760 3.624100 0.117910 
#    z 0.134320 0.117910 3.805710 
# 
# 
# High freq. dielectric constant tensor:
#      x y z
#    x 1.805760 0.003020 0.011240 
#    y 0.003020 1.822130 -0.004440 
#    z 0.011240 -0.004440 1.816330 
# 
# From -- ./inp_files/206503.got.cif
#   From: 2010.06.25/outbox.cif.g09.slc.cpg/sg2_104_cif.got.tgz:206503.got - 2010.06.27 13:26:56.
