data_PCOD8013184
_publ_section_title
;
Structure prediction by ZEFSAII (Michael W. Deem and Ramdas Pophale) SiO2 
 PCOD8013184
Probable space group: P -1
;
_chemical_formula_sum "Si O2"
_cell_formula_units_Z 16
_cell_length_a 10.141731
_cell_length_b 13.919609
_cell_length_c 11.990156
_cell_angle_alpha 31.604427
_cell_angle_beta 61.601113
_cell_angle_gamma 77.390756
_cell_volume 713.374281
_symmetry_space_group_name_H-M "P -1"
_symmetry_group_IT_number 2
_symmetry_cell_setting 'triclinic'
loop_
_space_group_symop_operation_xyz
x,y,z
-x,-y,-z
loop_
_atom_site_type_symbol
_atom_site_label
_atom_site_fract_x
_atom_site_fract_y
_atom_site_fract_z
Si Si1 0.737727 0.254053 0.131487
Si Si2 0.684576 0.619582 0.847564
Si Si3 0.452360 0.981184 0.367396
Si Si4 0.979417 0.510875 0.365305
Si Si5 0.066459 0.147792 0.649251
Si Si6 0.597970 0.691537 0.042560
Si Si7 0.646092 0.738706 0.426019
Si Si8 0.774980 0.729113 0.161896
O O1 0.712162 0.127720 0.382899
O O2 0.570807 0.157685 0.224478
O O3 0.776406 0.474113 0.942955
O O4 0.885410 0.290095 0.948701
O O5 0.782201 0.807019 0.542412
O O6 0.500000 0.500000 0.000000
O O7 0.709999 0.702469 0.880230
O O8 0.531076 0.831386 0.440629
O O9 0.422426 0.097246 0.157416
O O10 0.978520 0.303000 0.524611
O O11 0.000000 0.500000 0.500000
O O12 0.812594 0.539655 0.377083
O O13 0.161285 0.161688 0.714787
O O14 0.936741 0.930284 0.886206
O O15 0.426987 0.498671 0.283478
O O16 0.685246 0.665098 0.144146
O O17 0.652129 0.767072 0.261684
#
# Coordination Sequence:
#
# PCOD8013184 Si02
#       8
#     2   2   2   2   2   2   2   2
#     4  10  21  40  66 105 126 166 237 286 322 393
#     4  11  19  42  71  97 135 173 229 283 334 398
#     4  11  23  38  72 100 130 173 228 285 332 388
#     4  11  24  43  69  96 136 181 225 276 334 403
#     4  11  24  43  71 101 129 179 233 281 331 402
#     4  12  26  44  67 102 141 180 219 285 348 396
#     4  12  24  45  71  97 137 179 233 279 330 410
#     4  12  29  44  65 104 142 181 224 275 347 411
#
# _framework density 22.428621
#
# number of rings (size 3 to 8) (size 9 to 14) (size 15 to 20)
#    0.000    0.750    5.000    2.250    5.250    2.000 
#    0.000    1.250    0.000    0.000    0.000    0.000 
#    0.000    0.000    0.000    0.000    0.000    0.000 
#
# Total GULP energy -198243.947832 kJ/mol
# GULP energy per Si atom -12390.246740 kJ/mol
# Density = 2.237757 g / cm^3
# Si number density = 22.428621 Si / 1000 Ang^3
#
#
#
# Elastic Constant Matrix: (Units=GPa)
#
#
# Indices 1 2 3 4 5 6 
#
# 1 65.6974 24.7501 20.9844 -4.8314 19.5732 4.9853
# 2 24.7501 101.8524 33.1232 12.8049 4.4619 -0.0573
# 3 20.9844 33.1232 98.9717 5.1194 4.8784 -8.7435
# 4 -4.8314 12.8049 5.1194 36.4516 0.2002 1.8802
# 5 19.5732 4.4619 4.8784 0.2002 34.7441 5.3887
# 6 4.9853 -0.0573 -8.7435 1.8802 5.3887 27.8804
#
#
#
# Elastic Compliance Matrix: (Units=1/GPa)
#
#
# Indices 1 2 3 4 5 6 
#
# 1 0.021709 -0.004428 -0.003131 0.005093 -0.010765 -0.003136
# 2 -0.004428 0.012394 -0.003052 -0.004514 0.001373 -0.000101
# 3 -0.003131 -0.003052 0.012271 -0.001299 -0.000264 0.004540
# 4 0.005093 -0.004514 -0.001299 0.030042 -0.001815 -0.003003
# 5 -0.010765 0.001373 -0.000264 -0.001815 0.035476 -0.004889
# 6 -0.003136 -0.000101 0.004540 -0.003003 -0.004889 0.038999
#
#
# Mechanical properties :
#
#
# Convention : Reuss Voigt Hill
#
# Bulk Modulus (GPa) = 39.75834 47.13744 43.44789
# Shear Modulus (GPa) = 27.70147 32.32612 30.01380
#
# Velocity S-wave (km/s) = 3.51820 3.80055 3.66210
# Velocity P-wave (km/s) = 5.85395 6.34990 6.10696
#
# Compressibility (1/GPa) = 0.02515195
#
# Stress axis : x y z
#
# Youngs Moduli (GPa) = 46.06392 80.68414 81.49616
#
# Poissons Ratio (x) = 0.35724 0.25516
# Poissons Ratio (y) = 0.20395 0.24875
# Poissons Ratio (z) = 0.14422 0.24627
#
# Static dielectric constant tensor:
#      x y z
#    x 3.634970 -0.209320 0.090710 
#    y -0.209320 4.255510 0.183750 
#    z 0.090710 0.183750 4.421590 
# 
# 
# High freq. dielectric constant tensor:
#      x y z
#    x 1.832640 -0.016340 0.007840 
#    y -0.016340 1.896220 0.010230 
#    z 0.007840 0.010230 1.906940 
# 
# From -- ./inp_files/398092.got.cif
#   From: 2010.06.25/outbox.cif.g09.slc.cpg/sg2_200_cif.got.tgz:398092.got - 2010.06.27 13:26:56.
