data_PCOD8013728
_publ_section_title
;
Structure prediction by ZEFSAII (Michael W. Deem and Ramdas Pophale) SiO2 
 PCOD8013728
Probable space group: P -1
;
_chemical_formula_sum "Si O2"
_cell_formula_units_Z 16
_cell_length_a 9.182320
_cell_length_b 13.745806
_cell_length_c 14.879662
_cell_angle_alpha 40.204496
_cell_angle_beta 38.564103
_cell_angle_gamma 60.227705
_cell_volume 731.748956
_symmetry_space_group_name_H-M "P -1"
_symmetry_group_IT_number 2
_symmetry_cell_setting 'triclinic'
loop_
_space_group_symop_operation_xyz
x,y,z
-x,-y,-z
loop_
_atom_site_type_symbol
_atom_site_label
_atom_site_fract_x
_atom_site_fract_y
_atom_site_fract_z
Si Si1 0.296922 0.204288 0.380390
Si Si2 0.574026 0.265364 0.391439
Si Si3 0.009137 0.137667 0.257894
Si Si4 0.056198 0.716975 0.392181
Si Si5 0.285127 0.043006 0.839993
Si Si6 0.719133 0.943460 0.974755
Si Si7 0.541501 0.770101 0.905195
Si Si8 0.359764 0.528859 0.311657
O O1 0.461947 0.223498 0.375952
O O2 0.451065 0.280869 0.166246
O O3 0.077516 0.288811 0.442643
O O4 0.189698 0.024470 0.534189
O O5 0.855951 0.266432 0.251116
O O6 0.425805 0.143203 0.620582
O O7 0.565608 0.441303 0.301530
O O8 0.188405 0.147892 0.248253
O O9 0.174980 0.165509 0.067550
O O10 0.083152 0.892563 0.220259
O O11 0.305714 0.657276 0.318756
O O12 0.883875 0.609099 0.479295
O O13 0.368315 0.883960 0.920520
O O14 0.347680 0.136588 0.839181
O O15 0.000000 0.000000 0.000000
O O16 0.500000 0.000000 0.000000
O O17 0.429727 0.612056 0.124034
#
# Coordination Sequence:
#
# PCOD8013728 Si02
#       8
#     2   2   2   2   2   2   2   2
#     4  10  22  39  63  94 121 166 210 261 306 370
#     4  11  25  40  63  95 132 163 201 267 322 361
#     4  11  22  40  64  96 128 160 206 271 317 362
#     4   9  19  36  63  83 121 165 206 250 303 368
#     4  12  24  39  62 100 120 163 214 261 310 361
#     4  11  21  40  66  97 121 161 218 262 306 370
#     4  12  24  39  67  92 124 169 214 250 313 383
#     4  10  21  41  59  89 127 171 207 246 314 382
#
# _framework density 21.865421999999999
#
# number of rings (size 3 to 8) (size 9 to 14) (size 15 to 20)
#    0.000    1.250    3.750    3.000    3.500    2.500 
#    0.000    1.250    0.000    5.250    0.000    0.000 
#    0.000    0.000    0.000    0.000    0.000    0.000 
#
# Total GULP energy -198257.874872 kJ/mol
# GULP energy per Si atom -12391.117179 kJ/mol
# Density = 2.181566 g / cm^3
# Si number density = 21.865422 Si / 1000 Ang^3
#
#
#
# Elastic Constant Matrix: (Units=GPa)
#
#
# Indices 1 2 3 4 5 6 
#
# 1 106.8992 37.7876 29.9003 25.7281 15.0183 -12.3263
# 2 37.7876 151.9650 21.8471 36.9366 10.3769 -37.9598
# 3 29.9003 21.8471 71.4412 26.2916 17.3184 -13.9042
# 4 25.7281 36.9366 26.2916 46.0730 2.6746 1.2416
# 5 15.0183 10.3769 17.3184 2.6746 28.5645 11.1464
# 6 -12.3263 -37.9598 -13.9042 1.2416 11.1464 40.5250
#
#
#
# Elastic Compliance Matrix: (Units=1/GPa)
#
#
# Indices 1 2 3 4 5 6 
#
# 1 0.013429 0.002824 0.003267 -0.011155 -0.013689 0.011958
# 2 0.002824 0.021061 0.016732 -0.027192 -0.030620 0.035583
# 3 0.003267 0.016732 0.041357 -0.037327 -0.046896 0.044899
# 4 -0.011155 -0.027192 -0.037327 0.069437 0.054851 -0.058885
# 5 -0.013689 -0.030620 -0.046896 0.054851 0.107966 -0.080312
# 6 0.011958 0.035583 0.044899 -0.058885 -0.080312 0.100943
#
#
# Mechanical properties :
#
#
# Convention : Reuss Voigt Hill
#
# Bulk Modulus (GPa) = 8.23082 56.59728 32.41405
# Shear Modulus (GPa) = 14.32480 39.08385 26.70433
#
# Velocity S-wave (km/s) = 2.56234 4.23244 3.49851
# Velocity P-wave (km/s) = 3.53929 7.05870 5.58354
#
# Compressibility (1/GPa) = 0.12149460
#
# Stress axis : x y z
#
# Youngs Moduli (GPa) = 74.46360 47.48059 24.17967
#
# Poissons Ratio (x) = -0.13409 -0.07899
# Poissons Ratio (y) = -0.21030 -0.40459
# Poissons Ratio (z) = -0.24326 -0.79447
#
# Static dielectric constant tensor:
#      x y z
#    x 3.842560 -0.082800 0.004960 
#    y -0.082800 4.582280 0.310880 
#    z 0.004960 0.310880 3.845560 
# 
# 
# High freq. dielectric constant tensor:
#      x y z
#    x 1.831710 -0.003660 -0.005390 
#    y -0.003660 1.876270 0.025750 
#    z -0.005390 0.025750 1.857540 
# 
# From -- ./inp_files/471760.got.cif
#   From: 2010.06.25/outbox.cif.g09.slc.cpg/sg2_236_cif.got.tgz:471760.got - 2010.06.27 13:26:56.
