data_PCOD8013986
_publ_section_title
;
Structure prediction by ZEFSAII (Michael W. Deem and Ramdas Pophale) SiO2 
 PCOD8013986
Probable space group: P -1
;
_chemical_formula_sum "Si O2"
_cell_formula_units_Z 14
_cell_length_a 19.215525
_cell_length_b 7.300655
_cell_length_c 8.793776
_cell_angle_alpha 143.603127
_cell_angle_beta 61.613409
_cell_angle_gamma 112.946395
_cell_volume 643.934366
_symmetry_space_group_name_H-M "P -1"
_symmetry_group_IT_number 2
_symmetry_cell_setting 'triclinic'
loop_
_space_group_symop_operation_xyz
x,y,z
-x,-y,-z
loop_
_atom_site_type_symbol
_atom_site_label
_atom_site_fract_x
_atom_site_fract_y
_atom_site_fract_z
Si Si1 0.038234 0.166306 0.427291
Si Si2 0.646630 0.102872 0.064877
Si Si3 0.629705 0.811303 0.567510
Si Si4 0.490053 0.137498 0.765733
Si Si5 0.194646 0.070346 0.578740
Si Si6 0.822301 0.219637 0.928723
Si Si7 0.066603 0.797353 0.722051
O O1 0.079795 0.505226 0.625573
O O2 0.968193 0.253345 0.444636
O O3 0.108646 0.941190 0.151246
O O4 0.000000 0.000000 0.500000
O O5 0.616836 0.451243 0.299372
O O6 0.598480 0.953047 0.152555
O O7 0.739149 0.115778 0.019864
O O8 0.633344 0.873530 0.784473
O O9 0.711400 0.934690 0.489228
O O10 0.555140 0.996192 0.712513
O O11 0.500000 0.000000 0.500000
O O12 0.500000 0.500000 0.000000
O O13 0.173782 0.878816 0.319218
O O14 0.152901 0.942187 0.690734
O O15 0.163872 0.417053 0.822293
O O16 0.000000 0.000000 0.000000
#
# Coordination Sequence:
#
# PCOD8013986 Si02
#       7
#     2   2   2   2   2   2   2
#     4  11  23  41  63  88 127 165 210 259 314 370
#     4  10  21  41  64  89 119 162 213 240 307 375
#     4  10  21  41  65  87 119 167 201 254 299 371
#     4  12  24  38  60  94 128 160 200 257 308 358
#     4  10  22  41  64  90 123 157 212 255 315 368
#     4  10  22  40  66  90 118 166 204 262 308 369
#     4  11  25  39  61  94 122 168 209 260 317 372
#
# _framework density 21.741346
#
# number of rings (size 3 to 8) (size 9 to 14) (size 15 to 20)
#    0.000    1.429    1.429    3.429    4.000    2.286 
#    2.571    0.000    0.000    0.000    0.000    0.000 
#    0.000    0.000    0.000    0.000    0.000    0.000 
#
# Total GULP energy -173493.549015 kJ/mol
# GULP energy per Si atom -12392.396358 kJ/mol
# Density = 2.169186 g / cm^3
# Si number density = 21.741346 Si / 1000 Ang^3
#
#
#
# Elastic Constant Matrix: (Units=GPa)
#
#
# Indices 1 2 3 4 5 6 
#
# 1 53.0197 40.4722 15.8809 3.4915 -17.9099 16.9646
# 2 40.4722 170.7063 49.5763 -6.6349 -16.6475 40.6177
# 3 15.8809 49.5763 121.9315 1.3913 -8.0421 18.9303
# 4 3.4915 -6.6349 1.3913 37.6838 -1.6166 -8.9245
# 5 -17.9099 -16.6475 -8.0421 -1.6166 39.9575 -3.6720
# 6 16.9646 40.6177 18.9303 -8.9245 -3.6720 35.5071
#
#
#
# Elastic Compliance Matrix: (Units=1/GPa)
#
#
# Indices 1 2 3 4 5 6 
#
# 1 0.028530 -0.003673 0.000009 -0.005146 0.010162 -0.009676
# 2 -0.003673 0.009232 -0.002037 0.000306 0.001110 -0.007528
# 3 0.000009 -0.002037 0.009567 -0.001403 0.000744 -0.003051
# 4 -0.005146 0.000306 -0.001403 0.029532 -0.000325 0.010246
# 5 0.010162 0.001110 0.000744 -0.000325 0.029857 -0.003516
# 6 -0.009676 -0.007528 -0.003051 0.010246 -0.003516 0.045236
#
#
# Mechanical properties :
#
#
# Convention : Reuss Voigt Hill
#
# Bulk Modulus (GPa) = 27.83457 61.94626 44.89041
# Shear Modulus (GPa) = 28.51744 38.61154 33.56449
#
# Velocity S-wave (km/s) = 3.62563 4.21877 3.93340
# Velocity P-wave (km/s) = 5.50974 7.23083 6.42815
#
# Compressibility (1/GPa) = 0.03592655
#
# Stress axis : x y z
#
# Youngs Moduli (GPa) = 35.05100 108.32192 104.52638
#
# Poissons Ratio (x) = 0.39790 -0.00093
# Poissons Ratio (y) = 0.12875 0.21288
# Poissons Ratio (z) = -0.00031 0.22061
#
# Static dielectric constant tensor:
#      x y z
#    x 4.192770 0.621120 -0.025400 
#    y 0.621120 3.791840 -0.000650 
#    z -0.025400 -0.000650 4.160640 
# 
# 
# High freq. dielectric constant tensor:
#      x y z
#    x 1.851540 0.025210 -0.008290 
#    y 0.025210 1.849940 -0.001010 
#    z -0.008290 -0.001010 1.872330 
# 
# From -- ./inp_files/7563.got.cif
#   From: 2010.06.25/outbox.cif.g09.slc.cpg/sg2_4_cif.got.tgz:7563.got - 2010.06.27 13:26:56.
