data_PCOD8013503
_publ_section_title
;
Structure prediction by ZEFSAII (Michael W. Deem and Ramdas Pophale) SiO2 
 PCOD8013503
Probable space group: P -1
;
_chemical_formula_sum "Si O2"
_cell_formula_units_Z 12
_cell_length_a 7.084724
_cell_length_b 8.824905
_cell_length_c 10.402344
_cell_angle_alpha 108.138638
_cell_angle_beta 55.579513
_cell_angle_gamma 103.735222
_cell_volume 508.271951
_symmetry_space_group_name_H-M "P -1"
_symmetry_group_IT_number 2
_symmetry_cell_setting 'triclinic'
loop_
_space_group_symop_operation_xyz
x,y,z
-x,-y,-z
loop_
_atom_site_type_symbol
_atom_site_label
_atom_site_fract_x
_atom_site_fract_y
_atom_site_fract_z
Si Si1 0.943936 0.876174 0.137552
Si Si2 0.137209 0.445009 0.079244
Si Si3 0.212626 0.557396 0.347843
Si Si4 0.141108 0.884910 0.331154
Si Si5 0.376666 0.936453 0.829623
Si Si6 0.352013 0.576076 0.792105
O O1 0.876390 0.495417 0.212448
O O2 0.743240 0.999919 0.237662
O O3 0.864500 0.725095 0.037163
O O4 0.187725 0.962388 0.019531
O O5 0.240290 0.442952 0.182146
O O6 0.978843 0.827684 0.258957
O O7 0.279255 0.579900 0.973538
O O8 0.196485 0.737468 0.359146
O O9 0.442815 0.539103 0.337926
O O10 0.000000 0.500000 0.500000
O O11 0.381934 0.967254 0.209539
O O12 0.000000 0.000000 0.500000
O O13 0.426805 0.750834 0.753746
#
# Coordination Sequence:
#
# PCOD8013503 Si02
#       6
#     2   2   2   2   2   2
#     4  10  23  43  68  95 124 165 211 257 309 370
#     4  10  22  43  67  94 125 163 213 258 306 369
#     4  12  26  42  64  93 128 168 209 259 313 369
#     4  12  26  43  63  92 131 168 206 257 316 374
#     4  10  22  40  67  96 126 163 208 258 311 373
#     4  10  21  40  68  96 124 162 210 260 310 368
#
# _framework density 23.609407999999998
#
# number of rings (size 3 to 8) (size 9 to 14) (size 15 to 20)
#    0.000    1.333    0.000    6.000    0.000   13.333 
#    0.000    3.333    0.000    0.000    0.000    0.000 
#    0.000    0.000    0.000    0.000    0.000    0.000 
#
# Total GULP energy -148728.196217 kJ/mol
# GULP energy per Si atom -12394.016351 kJ/mol
# Density = 2.355567 g / cm^3
# Si number density = 23.609408 Si / 1000 Ang^3
#
#
#
# Elastic Constant Matrix: (Units=GPa)
#
#
# Indices 1 2 3 4 5 6 
#
# 1 86.1055 51.9909 24.4728 19.1751 -30.3661 -19.6097
# 2 51.9909 161.2388 44.4961 5.4967 -18.0572 -17.9217
# 3 24.4728 44.4961 57.1498 11.9402 -19.4336 4.2335
# 4 19.1751 5.4967 11.9402 33.9667 1.3229 -9.1229
# 5 -30.3661 -18.0572 -19.4336 1.3229 34.0929 10.3977
# 6 -19.6097 -17.9217 4.2335 -9.1229 10.3977 42.2025
#
#
#
# Elastic Compliance Matrix: (Units=1/GPa)
#
#
# Indices 1 2 3 4 5 6 
#
# 1 0.026045 -0.006887 0.005912 -0.016847 0.023859 -0.000936
# 2 -0.006887 0.010772 -0.010458 0.007830 -0.008595 0.006234
# 3 0.005912 -0.010458 0.037853 -0.020470 0.027163 -0.016609
# 4 -0.016847 0.007830 -0.020470 0.050210 -0.029235 0.015607
# 5 0.023859 -0.008595 0.027163 -0.029235 0.068268 -0.018428
# 6 -0.000936 0.006234 -0.016609 0.015607 -0.018428 0.035488
#
#
# Mechanical properties :
#
#
# Convention : Reuss Voigt Hill
#
# Bulk Modulus (GPa) = 19.30440 60.71263 40.00851
# Shear Modulus (GPa) = 18.60324 34.28804 26.44564
#
# Velocity S-wave (km/s) = 2.81011 3.81505 3.35047
# Velocity P-wave (km/s) = 4.32704 6.72141 5.65246
#
# Compressibility (1/GPa) = 0.05180167
#
# Stress axis : x y z
#
# Youngs Moduli (GPa) = 38.39568 92.83121 26.41808
#
# Poissons Ratio (x) = 0.63934 -0.15617
# Poissons Ratio (y) = 0.26444 0.27629
# Poissons Ratio (z) = -0.22698 0.97088
#
# Static dielectric constant tensor:
#      x y z
#    x 4.518260 -0.333480 -0.281110 
#    y -0.333480 4.426390 -0.130000 
#    z -0.281110 -0.130000 4.031380 
# 
# 
# High freq. dielectric constant tensor:
#      x y z
#    x 1.942790 -0.020120 -0.027040 
#    y -0.020120 1.941660 -0.015100 
#    z -0.027040 -0.015100 1.909990 
# 
# From -- ./inp_files/250762.got.cif
#   From: 2010.06.25/outbox.cif.g09.slc.cpg/sg2_126_cif.got.tgz:250762.got - 2010.06.27 13:26:56.
