data_PCOD8013482
_publ_section_title
;
Structure prediction by ZEFSAII (Michael W. Deem and Ramdas Pophale) SiO2 
 PCOD8013482
Probable space group: P -1
;
_chemical_formula_sum "Si O2"
_cell_formula_units_Z 16
_cell_length_a 11.241759
_cell_length_b 13.708806
_cell_length_c 8.816829
_cell_angle_alpha 120.181485
_cell_angle_beta 61.162395
_cell_angle_gamma 70.907696
_cell_volume 678.014881
_symmetry_space_group_name_H-M "P -1"
_symmetry_group_IT_number 2
_symmetry_cell_setting 'triclinic'
loop_
_space_group_symop_operation_xyz
x,y,z
-x,-y,-z
loop_
_atom_site_type_symbol
_atom_site_label
_atom_site_fract_x
_atom_site_fract_y
_atom_site_fract_z
Si Si1 0.634398 0.894935 0.984982
Si Si2 0.228172 0.861510 0.009675
Si Si3 0.221751 0.464357 0.064436
Si Si4 0.883671 0.894945 0.242034
Si Si5 0.424081 0.325623 0.132704
Si Si6 0.990381 0.625335 0.771332
Si Si7 0.870958 0.857847 0.559689
Si Si8 0.450714 0.834801 0.580896
O O1 0.531190 0.836858 0.016671
O O2 0.865623 0.748097 0.797785
O O3 0.677784 0.904743 0.787969
O O4 0.507674 0.068917 0.293591
O O5 0.083043 0.847331 0.057323
O O6 0.093268 0.056661 0.286881
O O7 0.379314 0.737370 0.960840
O O8 0.357260 0.805060 0.734489
O O9 0.332286 0.350813 0.755644
O O10 0.390675 0.389997 0.031835
O O11 0.073840 0.462031 0.223530
O O12 0.084598 0.657672 0.259056
O O13 0.807818 0.939688 0.496263
O O14 0.696600 0.062255 0.392588
O O15 0.941342 0.732786 0.030052
O O16 0.230064 0.478759 0.474957
#
# Coordination Sequence:
#
# PCOD8013482 Si02
#       8
#     2   2   2   2   2   2   2   2
#     4   9  19  41  67  95 126 165 206 257 326 369
#     4  11  26  44  65  89 128 176 215 248 312 378
#     4  11  22  42  68 103 123 156 212 266 326 365
#     4  11  25  44  64  90 131 173 212 253 310 377
#     4  11  21  41  68  94 130 166 209 259 311 381
#     4  10  21  40  68  93 133 163 201 267 318 369
#     4  11  22  41  67  94 128 161 211 263 313 373
#     4  10  24  43  67  93 125 166 214 265 311 373
#
# _framework density 23.598303000000001
#
# number of rings (size 3 to 8) (size 9 to 14) (size 15 to 20)
#    0.000    1.500    2.500    2.250    1.750    9.500 
#    0.000    1.250    0.000    0.000    0.000    0.000 
#    0.000    0.000    0.000    0.000    0.000    0.000 
#
# Total GULP energy -198504.470432 kJ/mol
# GULP energy per Si atom -12406.529402 kJ/mol
# Density = 2.354459 g / cm^3
# Si number density = 23.598303 Si / 1000 Ang^3
#
#
#
# Elastic Constant Matrix: (Units=GPa)
#
#
# Indices 1 2 3 4 5 6 
#
# 1 57.5442 23.3641 3.5752 6.2691 0.5356 -15.4979
# 2 23.3641 84.9352 25.3360 -4.8374 4.0667 -20.2110
# 3 3.5752 25.3360 134.0866 6.8756 10.3389 -10.0418
# 4 6.2691 -4.8374 6.8756 39.7004 -8.0589 1.6284
# 5 0.5356 4.0667 10.3389 -8.0589 22.3232 -4.1243
# 6 -15.4979 -20.2110 -10.0418 1.6284 -4.1243 24.4807
#
#
#
# Elastic Compliance Matrix: (Units=1/GPa)
#
#
# Indices 1 2 3 4 5 6 
#
# 1 0.022660 -0.004077 0.001292 -0.004771 0.000065 0.011838
# 2 -0.004077 0.016025 -0.002428 0.002847 0.001114 0.009651
# 3 0.001292 -0.002428 0.008491 -0.002904 -0.004242 0.001775
# 4 -0.004771 0.002847 -0.002904 0.029124 0.011099 -0.001929
# 5 0.000065 0.001114 -0.004242 0.011099 0.051898 0.007226
# 6 0.011838 0.009651 0.001775 -0.001929 0.007226 0.058385
#
#
# Mechanical properties :
#
#
# Convention : Reuss Voigt Hill
#
# Bulk Modulus (GPa) = 27.21032 42.34629 34.77831
# Shear Modulus (GPa) = 23.89378 32.25358 28.07368
#
# Velocity S-wave (km/s) = 3.18547 3.70100 3.45287
# Velocity P-wave (km/s) = 5.00852 6.02053 5.53769
#
# Compressibility (1/GPa) = 0.03675076
#
# Stress axis : x y z
#
# Youngs Moduli (GPa) = 44.12986 62.40269 117.76919
#
# Poissons Ratio (x) = 0.25441 -0.15220
# Poissons Ratio (y) = 0.17991 0.28599
# Poissons Ratio (z) = -0.05703 0.15154
#
# Static dielectric constant tensor:
#      x y z
#    x 4.157200 -0.282850 0.130110 
#    y -0.282850 4.351360 0.106220 
#    z 0.130110 0.106220 4.247990 
# 
# 
# High freq. dielectric constant tensor:
#      x y z
#    x 1.922390 -0.025630 0.006870 
#    y -0.025630 1.936710 0.007730 
#    z 0.006870 0.007730 1.954210 
# 
# From -- ./inp_files/178804.got.cif
#   From: 2010.06.25/outbox.cif.g09.slc.cpg/sg2_90_cif.got.tgz:178804.got - 2010.06.27 13:26:56.
