data_PCOD8013492
_publ_section_title
;
Structure prediction by ZEFSAII (Michael W. Deem and Ramdas Pophale) SiO2 
 PCOD8013492
Probable space group: P -1
;
_chemical_formula_sum "Si O2"
_cell_formula_units_Z 16
_cell_length_a 8.304040
_cell_length_b 17.527430
_cell_length_c 7.716025
_cell_angle_alpha 77.114907
_cell_angle_beta 51.016320
_cell_angle_gamma 58.162110
_cell_volume 731.487562
_symmetry_space_group_name_H-M "P -1"
_symmetry_group_IT_number 2
_symmetry_cell_setting 'triclinic'
loop_
_space_group_symop_operation_xyz
x,y,z
-x,-y,-z
loop_
_atom_site_type_symbol
_atom_site_label
_atom_site_fract_x
_atom_site_fract_y
_atom_site_fract_z
Si Si1 0.471850 0.595281 0.420115
Si Si2 0.729472 0.953159 0.248031
Si Si3 0.944451 0.713567 0.817186
Si Si4 0.574216 0.900479 0.059111
Si Si5 0.751379 0.113449 0.961842
Si Si6 0.366774 0.452155 0.043933
Si Si7 0.869774 0.631128 0.254013
Si Si8 0.336116 0.299322 0.289765
O O1 0.500000 0.500000 0.500000
O O2 0.651514 0.614737 0.390533
O O3 0.218840 0.677940 0.611226
O O4 0.508768 0.600983 0.189076
O O5 0.663790 0.890665 0.202692
O O6 0.500000 0.000000 0.500000
O O7 0.759154 0.026079 0.082065
O O8 0.983538 0.896135 0.212144
O O9 0.846889 0.672865 0.760688
O O10 0.805907 0.823222 0.837279
O O11 0.900898 0.686345 0.050374
O O12 0.355823 0.880679 0.165958
O O13 0.500000 0.000000 0.000000
O O14 0.573156 0.200294 0.156139
O O15 0.404349 0.377755 0.199863
O O16 0.092370 0.529349 0.164028
O O17 0.500000 0.500000 0.000000
O O18 0.810404 0.691656 0.438986
#
# Coordination Sequence:
#
# PCOD8013492 Si02
#       8
#     2   2   2   2   2   2   2   2
#     4  12  23  42  67  93 130 171 218 274 323 391
#     4  10  21  40  68  95 125 172 214 264 336 396
#     4  11  24  45  68  97 132 174 221 274 332 393
#     4   9  21  43  65  95 135 168 217 277 329 397
#     4   9  22  43  62  94 134 165 213 278 320 395
#     4  12  24  43  65  94 134 177 217 273 334 386
#     4  12  25  42  68  95 129 176 220 270 327 395
#     4  11  24  44  64  96 137 167 223 274 324 396
#
# _framework density 21.873234
#
# number of rings (size 3 to 8) (size 9 to 14) (size 15 to 20)
#    0.000    1.250    2.500    3.000    3.500    0.500 
#    6.750    0.000    0.000    0.000    0.000    0.000 
#    0.000    0.000    0.000    0.000    0.000    0.000 
#
# Total GULP energy -198281.491895 kJ/mol
# GULP energy per Si atom -12392.593243 kJ/mol
# Density = 2.182345 g / cm^3
# Si number density = 21.873234 Si / 1000 Ang^3
#
#
#
# Elastic Constant Matrix: (Units=GPa)
#
#
# Indices 1 2 3 4 5 6 
#
# 1 158.9363 25.2781 78.7833 21.5354 -7.1289 4.2376
# 2 25.2781 86.9245 35.7576 30.2929 -4.5792 -0.2132
# 3 78.7833 35.7576 155.9058 23.9635 -4.6786 -4.0481
# 4 21.5354 30.2929 23.9635 26.1416 -7.3070 -0.3882
# 5 -7.1289 -4.5792 -4.6786 -7.3070 44.5672 7.1233
# 6 4.2376 -0.2132 -4.0481 -0.3882 7.1233 26.4484
#
#
#
# Elastic Compliance Matrix: (Units=1/GPa)
#
#
# Indices 1 2 3 4 5 6 
#
# 1 0.008833 0.000516 -0.003999 -0.004033 0.000750 -0.002284
# 2 0.000516 0.019634 -0.001372 -0.022399 -0.001716 -0.000001
# 3 -0.003999 -0.001372 0.009384 -0.003905 -0.000791 0.002222
# 4 -0.004033 -0.022399 -0.003905 0.073589 0.008942 -0.001460
# 5 0.000750 -0.001716 -0.000791 0.008942 0.024854 -0.006818
# 6 -0.002284 -0.000001 0.002222 -0.001460 -0.006818 0.040330
#
#
# Mechanical properties :
#
#
# Convention : Reuss Voigt Hill
#
# Bulk Modulus (GPa) = 35.53682 75.71163 55.62422
# Shear Modulus (GPa) = 25.54723 36.89459 31.22091
#
# Velocity S-wave (km/s) = 3.42126 4.11146 3.78214
# Velocity P-wave (km/s) = 5.64701 7.56490 6.67519
#
# Compressibility (1/GPa) = 0.02813983
#
# Stress axis : x y z
#
# Youngs Moduli (GPa) = 113.21276 50.93115 106.56653
#
# Poissons Ratio (x) = -0.02626 0.42613
# Poissons Ratio (y) = -0.05837 0.14626
# Poissons Ratio (z) = 0.45271 0.06990
#
# Static dielectric constant tensor:
#      x y z
#    x 3.642500 0.753920 -0.655420 
#    y 0.753920 3.371030 0.603180 
#    z -0.655420 0.603180 3.583660 
# 
# 
# High freq. dielectric constant tensor:
#      x y z
#    x 1.881540 0.003840 -0.001430 
#    y 0.003840 1.859550 0.020140 
#    z -0.001430 0.020140 1.849930 
# 
# From -- ./inp_files/217412.got.cif
#   From: 2010.06.25/outbox.cif.g09.slc.cpg/sg2_109_cif.got.tgz:217412.got - 2010.06.27 13:26:56.
