data_PCOD8013692
_publ_section_title
;
Structure prediction by ZEFSAII (Michael W. Deem and Ramdas Pophale) SiO2 
 PCOD8013692
Probable space group: P -1
;
_chemical_formula_sum "Si O2"
_cell_formula_units_Z 16
_cell_length_a 24.749426
_cell_length_b 5.154532
_cell_length_c 21.605809
_cell_angle_alpha 72.846469
_cell_angle_beta 164.203209
_cell_angle_gamma 101.339685
_cell_volume 675.501722
_symmetry_space_group_name_H-M "P -1"
_symmetry_group_IT_number 2
_symmetry_cell_setting 'triclinic'
loop_
_space_group_symop_operation_xyz
x,y,z
-x,-y,-z
loop_
_atom_site_type_symbol
_atom_site_label
_atom_site_fract_x
_atom_site_fract_y
_atom_site_fract_z
Si Si1 0.925847 0.264404 0.071190
Si Si2 0.278706 0.857564 0.034977
Si Si3 0.326068 0.737338 0.869571
Si Si4 0.671032 0.770481 0.540056
Si Si5 0.541063 0.798457 0.619636
Si Si6 0.221475 0.373719 0.679842
Si Si7 0.198354 0.486731 0.863811
Si Si8 0.144706 0.719397 0.145336
O O1 0.786346 0.598268 0.910193
O O2 0.834092 0.210040 0.907614
O O3 0.178689 0.178979 0.351973
O O4 0.887323 0.060689 0.096604
O O5 0.307019 0.146550 0.018813
O O6 0.196271 0.674908 0.908583
O O7 0.505923 0.657847 0.327273
O O8 0.190590 0.614984 0.681487
O O9 0.328445 0.590774 0.948457
O O10 0.217965 0.081377 0.729539
O O11 0.565492 0.662346 0.118878
O O12 0.868790 0.584017 0.819133
O O13 0.527233 0.040224 0.401676
O O14 0.383470 0.619013 0.445193
O O15 0.500000 0.000000 0.500000
O O16 0.038786 0.468618 0.421421
O O17 0.000000 0.000000 0.000000
#
# Coordination Sequence:
#
# PCOD8013692 Si02
#       8
#     2   2   2   2   2   2   2   2
#     4  12  25  47  68  99 132 183 235 306 371 432
#     4  12  29  45  66  98 140 198 237 281 343 441
#     4  10  21  40  72 108 141 176 225 292 338 393
#     4  12  26  47  66  97 135 177 239 301 371 430
#     4  12  22  41  69  96 133 163 224 301 374 448
#     4  10  21  40  72 109 139 175 231 284 343 395
#     4  12  25  45  68  99 145 190 234 273 347 410
#     4  12  23  41  71 100 125 167 233 309 385 421
#
# _framework density 23.686098000000001
#
# number of rings (size 3 to 8) (size 9 to 14) (size 15 to 20)
#    0.000    0.500    3.750    5.250    0.000    3.000 
#    0.000    0.000    0.000    0.000    0.000    0.000 
#    0.000    0.000    0.000    0.000    0.000    0.000 
#
# Total GULP energy -198304.849476 kJ/mol
# GULP energy per Si atom -12394.053092 kJ/mol
# Density = 2.363219 g / cm^3
# Si number density = 23.686098 Si / 1000 Ang^3
#
#
#
# Elastic Constant Matrix: (Units=GPa)
#
#
# Indices 1 2 3 4 5 6 
#
# 1 143.3048 57.6134 63.2490 3.4772 -3.4061 -1.4331
# 2 57.6134 105.2895 29.8955 -7.0369 -6.2843 -13.1417
# 3 63.2490 29.8955 95.7913 5.9065 -1.2391 -11.8187
# 4 3.4772 -7.0369 5.9065 41.6655 -5.9757 -4.4861
# 5 -3.4061 -6.2843 -1.2391 -5.9757 42.2610 -6.2777
# 6 -1.4331 -13.1417 -11.8187 -4.4861 -6.2777 36.6560
#
#
#
# Elastic Compliance Matrix: (Units=1/GPa)
#
#
# Indices 1 2 3 4 5 6 
#
# 1 0.012056 -0.005333 -0.006698 -0.001496 -0.000812 -0.003923
# 2 -0.005333 0.013607 -0.000235 0.003799 0.002950 0.005564
# 3 -0.006698 -0.000235 0.015579 -0.001135 0.000406 0.004608
# 4 -0.001496 0.003799 -0.001135 0.026158 0.004848 0.004969
# 5 -0.000812 0.002950 0.000406 0.004848 0.025646 0.006142
# 6 -0.003923 0.005564 0.004608 0.004969 0.006142 0.032268
#
#
# Mechanical properties :
#
#
# Convention : Reuss Voigt Hill
#
# Bulk Modulus (GPa) = 59.84473 71.76684 65.80579
# Shear Modulus (GPa) = 32.17144 37.02500 34.59822
#
# Velocity S-wave (km/s) = 3.68943 3.95796 3.82605
# Velocity P-wave (km/s) = 6.59316 7.15906 6.88193
#
# Compressibility (1/GPa) = 0.01670991
#
# Stress axis : x y z
#
# Youngs Moduli (GPa) = 82.94283 73.49102 64.18844
#
# Poissons Ratio (x) = 0.39195 0.42996
# Poissons Ratio (y) = 0.44236 0.01506
# Poissons Ratio (z) = 0.55558 0.01725
#
# Static dielectric constant tensor:
#      x y z
#    x 4.458350 0.241420 0.098290 
#    y 0.241420 4.674220 0.290680 
#    z 0.098290 0.290680 4.453700 
# 
# 
# High freq. dielectric constant tensor:
#      x y z
#    x 1.945770 0.011250 0.006040 
#    y 0.011250 1.950160 0.016140 
#    z 0.006040 0.016140 1.947420 
# 
# From -- ./inp_files/601730.got.cif
#   From: 2010.06.25/outbox.cif.g09.slc.cpg/sg2_301_cif.got.tgz:601730.got - 2010.06.27 13:26:56.
