data_PCOD8013435
_publ_section_title
;
Structure prediction by ZEFSAII (Michael W. Deem and Ramdas Pophale) SiO2 
 PCOD8013435
Probable space group: P -1
;
_chemical_formula_sum "Si O2"
_cell_formula_units_Z 16
_cell_length_a 14.483120
_cell_length_b 11.788038
_cell_length_c 8.949544
_cell_angle_alpha 65.235970
_cell_angle_beta 125.830331
_cell_angle_gamma 71.833745
_cell_volume 735.563819
_symmetry_space_group_name_H-M "P -1"
_symmetry_group_IT_number 2
_symmetry_cell_setting 'triclinic'
loop_
_space_group_symop_operation_xyz
x,y,z
-x,-y,-z
loop_
_atom_site_type_symbol
_atom_site_label
_atom_site_fract_x
_atom_site_fract_y
_atom_site_fract_z
Si Si1 0.705820 0.768643 0.452461
Si Si2 0.979979 0.433280 0.661984
Si Si3 0.418812 0.874511 0.955883
Si Si4 0.354460 0.662974 0.390392
Si Si5 0.296446 0.519921 0.675621
Si Si6 0.369583 0.457992 0.098704
Si Si7 0.182038 0.839288 0.846018
Si Si8 0.318798 0.219181 0.237219
O O1 0.858001 0.592731 0.587469
O O2 0.740120 0.710136 0.688325
O O3 0.701466 0.922494 0.348060
O O4 0.517281 0.860381 0.194772
O O5 0.901479 0.366202 0.571132
O O6 0.000000 0.500000 0.500000
O O7 0.173202 0.251883 0.007662
O O8 0.307101 0.846244 0.907186
O O9 0.569916 0.707343 0.078201
O O10 0.500000 0.500000 0.500000
O O11 0.308622 0.589697 0.498862
O O12 0.435561 0.702269 0.555342
O O13 0.185282 0.846293 0.029454
O O14 0.348692 0.542501 0.868983
O O15 0.309882 0.364857 0.076594
O O16 0.250014 0.643470 0.987141
O O17 0.000000 0.000000 0.500000
O O18 0.500000 0.000000 0.500000
#
# Coordination Sequence:
#
# PCOD8013435 Si02
#       8
#     2   2   2   2   2   2   2   2
#     4  10  24  41  72  97 135 189 227 286 348 402
#     4  11  25  44  66  99 138 178 231 290 340 406
#     4  10  21  40  67  99 134 174 231 275 341 411
#     4  10  21  41  67  98 125 175 227 272 337 418
#     4  11  21  42  70  96 136 177 231 285 349 404
#     4  11  23  42  71  94 134 181 221 279 354 395
#     4  11  25  41  65 100 139 171 225 283 337 417
#     4  12  26  45  68 105 139 180 237 284 345 419
#
# _framework density 21.752020999999999
#
# number of rings (size 3 to 8) (size 9 to 14) (size 15 to 20)
#    0.000    1.250    3.750    2.250   10.500    1.000 
#    2.250    0.625    0.000    0.000    0.000    0.000 
#    0.000    0.000    0.000    0.000    0.000    0.000 
#
# Total GULP energy -198213.885723 kJ/mol
# GULP energy per Si atom -12388.367858 kJ/mol
# Density = 2.170251 g / cm^3
# Si number density = 21.752021 Si / 1000 Ang^3
#
#
#
# Elastic Constant Matrix: (Units=GPa)
#
#
# Indices 1 2 3 4 5 6 
#
# 1 120.9474 31.3030 54.6983 17.7584 -2.1679 -6.8919
# 2 31.3030 63.0357 38.4054 12.5305 2.1534 0.4338
# 3 54.6983 38.4054 169.6678 31.1446 2.6880 -5.3094
# 4 17.7584 12.5305 31.1446 43.3833 -3.6869 -8.9861
# 5 -2.1679 2.1534 2.6880 -3.6869 33.8498 9.4045
# 6 -6.8919 0.4338 -5.3094 -8.9861 9.4045 39.0739
#
#
#
# Elastic Compliance Matrix: (Units=1/GPa)
#
#
# Indices 1 2 3 4 5 6 
#
# 1 0.010508 -0.003577 -0.002310 -0.001324 0.000628 0.001124
# 2 -0.003577 0.019993 -0.002920 -0.002638 -0.001115 -0.001588
# 3 -0.002310 -0.002920 0.008067 -0.004085 -0.001058 0.000036
# 4 -0.001324 -0.002638 -0.004085 0.028562 0.002041 0.005318
# 5 0.000628 -0.001115 -0.001058 0.002041 0.031973 -0.007247
# 6 0.001124 -0.001588 0.000036 0.005318 -0.007247 0.028780
#
#
# Mechanical properties :
#
#
# Convention : Reuss Voigt Hill
#
# Bulk Modulus (GPa) = 47.72271 66.94048 57.33159
# Shear Modulus (GPa) = 32.79079 38.54435 35.66757
#
# Velocity S-wave (km/s) = 3.88684 4.21407 4.05376
# Velocity P-wave (km/s) = 6.49080 7.38370 6.95160
#
# Compressibility (1/GPa) = 0.02095438
#
# Stress axis : x y z
#
# Youngs Moduli (GPa) = 95.16487 50.01784 123.95855
#
# Poissons Ratio (x) = 0.17891 0.28631
# Poissons Ratio (y) = 0.34040 0.36198
# Poissons Ratio (z) = 0.21980 0.14606
#
# Static dielectric constant tensor:
#      x y z
#    x 3.968000 0.029560 -0.051160 
#    y 0.029560 3.952300 0.554860 
#    z -0.051160 0.554860 4.630390 
# 
# 
# High freq. dielectric constant tensor:
#      x y z
#    x 1.857190 0.003430 -0.007730 
#    y 0.003430 1.842950 0.030540 
#    z -0.007730 0.030540 1.859340 
# 
# From -- ./inp_files/307165.got.cif
#   From: 2010.06.25/outbox.cif.g09.slc.cpg/sg2_154_cif.got.tgz:307165.got - 2010.06.27 13:26:56.
