data_PCOD8013361
_publ_section_title
;
Structure prediction by ZEFSAII (Michael W. Deem and Ramdas Pophale) SiO2 
 PCOD8013361
Probable space group: P -1
;
_chemical_formula_sum "Si O2"
_cell_formula_units_Z 16
_cell_length_a 14.558979
_cell_length_b 9.420032
_cell_length_c 11.516588
_cell_angle_alpha 124.175191
_cell_angle_beta 75.349915
_cell_angle_gamma 60.464689
_cell_volume 769.602607
_symmetry_space_group_name_H-M "P -1"
_symmetry_group_IT_number 2
_symmetry_cell_setting 'triclinic'
loop_
_space_group_symop_operation_xyz
x,y,z
-x,-y,-z
loop_
_atom_site_type_symbol
_atom_site_label
_atom_site_fract_x
_atom_site_fract_y
_atom_site_fract_z
Si Si1 0.093534 0.370502 0.792996
Si Si2 0.881423 0.851400 0.734053
Si Si3 0.578062 0.865208 0.034489
Si Si4 0.087012 0.704713 0.802321
Si Si5 0.081767 0.537473 0.325901
Si Si6 0.386746 0.723120 0.466687
Si Si7 0.595648 0.606261 0.519811
Si Si8 0.530371 0.349174 0.031737
O O1 0.116532 0.535628 0.824124
O O2 0.000896 0.412453 0.738982
O O3 0.252883 0.045054 0.619240
O O4 0.000000 0.500000 0.000000
O O5 0.875976 0.655195 0.671657
O O6 0.969921 0.797090 0.790000
O O7 0.953674 0.823997 0.576280
O O8 0.700994 0.155035 0.931618
O O9 0.535011 0.089507 0.233295
O O10 0.764911 0.583889 0.824249
O O11 0.507170 0.788410 0.066718
O O12 0.500000 0.000000 0.000000
O O13 0.255093 0.491180 0.594066
O O14 0.000000 0.000000 0.000000
O O15 0.526524 0.640021 0.434632
O O16 0.343745 0.646647 0.544583
O O17 0.421873 0.557567 0.268217
O O18 0.500000 0.500000 0.000000
#
# Coordination Sequence:
#
# PCOD8013361 Si02
#       8
#     2   2   2   2   2   2   2   2
#     4  11  24  43  66  94 136 171 213 272 336 386
#     4  10  21  40  67  92 131 169 216 266 327 381
#     4  12  22  42  70  98 129 174 229 266 320 399
#     4  11  24  42  68  97 128 172 223 269 324 398
#     4  10  21  40  67  96 125 173 217 265 322 388
#     4  11  24  45  67  95 135 175 218 275 332 387
#     4  11  24  43  71  96 129 177 228 268 324 394
#     4  12  26  43  65  99 139 173 214 276 336 387
#
# _framework density 20.789950000000001
#
# number of rings (size 3 to 8) (size 9 to 14) (size 15 to 20)
#    0.000    1.000    2.500    3.750    5.250    4.500 
#    9.000    1.250    0.000    0.000    0.000    0.000 
#    0.000    0.000    0.000    0.000    0.000    0.000 
#
# Total GULP energy -198230.378164 kJ/mol
# GULP energy per Si atom -12389.398635 kJ/mol
# Density = 2.074263 g / cm^3
# Si number density = 20.789950 Si / 1000 Ang^3
#
#
#
# Elastic Constant Matrix: (Units=GPa)
#
#
# Indices 1 2 3 4 5 6 
#
# 1 96.5481 49.1088 29.2040 8.2310 -10.7558 9.3504
# 2 49.1088 139.1356 40.7401 7.6701 -7.9899 1.4518
# 3 29.2040 40.7401 104.0036 4.5762 -8.8795 7.5406
# 4 8.2310 7.6701 4.5762 33.8114 -2.5783 2.6103
# 5 -10.7558 -7.9899 -8.8795 -2.5783 45.3110 -1.3401
# 6 9.3504 1.4518 7.5406 2.6103 -1.3401 32.1895
#
#
#
# Elastic Compliance Matrix: (Units=1/GPa)
#
#
# Indices 1 2 3 4 5 6 
#
# 1 0.013626 -0.004048 -0.001766 -0.001767 0.001981 -0.003136
# 2 -0.004048 0.009423 -0.002604 -0.000897 0.000182 0.001441
# 3 -0.001766 -0.002604 0.011395 -0.000272 0.001281 -0.001963
# 4 -0.001767 -0.000897 -0.000272 0.030466 0.001049 -0.001809
# 5 0.001981 0.000182 0.001281 0.001049 0.022882 -0.000016
# 6 -0.003136 0.001441 -0.001963 -0.001809 -0.000016 0.032518
#
#
# Mechanical properties :
#
#
# Convention : Reuss Voigt Hill
#
# Bulk Modulus (GPa) = 56.79506 64.19921 60.49714
# Shear Modulus (GPa) = 34.96100 36.97134 35.96617
#
# Velocity S-wave (km/s) = 4.10522 4.22160 4.16381
# Velocity P-wave (km/s) = 7.06033 7.39659 7.23041
#
# Compressibility (1/GPa) = 0.01760716
#
# Stress axis : x y z
#
# Youngs Moduli (GPa) = 73.38932 106.11780 87.75993
#
# Poissons Ratio (x) = 0.42960 0.15499
# Poissons Ratio (y) = 0.29711 0.22853
# Poissons Ratio (z) = 0.12961 0.27634
#
# Static dielectric constant tensor:
#      x y z
#    x 3.355990 -0.324780 -0.679150 
#    y -0.324780 3.473620 -0.645410 
#    z -0.679150 -0.645410 3.139500 
# 
# 
# High freq. dielectric constant tensor:
#      x y z
#    x 1.818010 -0.008870 -0.004180 
#    y -0.008870 1.818730 -0.003910 
#    z -0.004180 -0.003910 1.822770 
# 
# From -- ./inp_files/186508.got.cif
#   From: 2010.06.25/outbox.cif.g09.slc.cpg/sg2_94_cif.got.tgz:186508.got - 2010.06.27 13:26:56.
