data_PCOD8013469
_publ_section_title
;
Structure prediction by ZEFSAII (Michael W. Deem and Ramdas Pophale) SiO2 
 PCOD8013469
Probable space group: P -1
;
_chemical_formula_sum "Si O2"
_cell_formula_units_Z 14
_cell_length_a 12.482566
_cell_length_b 13.391338
_cell_length_c 7.046512
_cell_angle_alpha 130.018733
_cell_angle_beta 131.511645
_cell_angle_gamma 58.409929
_cell_volume 665.618798
_symmetry_space_group_name_H-M "P -1"
_symmetry_group_IT_number 2
_symmetry_cell_setting 'triclinic'
loop_
_space_group_symop_operation_xyz
x,y,z
-x,-y,-z
loop_
_atom_site_type_symbol
_atom_site_label
_atom_site_fract_x
_atom_site_fract_y
_atom_site_fract_z
Si Si1 0.625897 0.564333 0.131868
Si Si2 0.578720 0.177135 0.835208
Si Si3 0.163462 0.844891 0.633280
Si Si4 0.826365 0.428950 0.877101
Si Si5 0.163536 0.106515 0.718004
Si Si6 0.840601 0.613797 0.771061
Si Si7 0.434274 0.002591 0.717952
O O1 0.542354 0.698190 0.104889
O O2 0.744706 0.593769 0.454889
O O3 0.500000 0.500000 0.000000
O O4 0.709351 0.472673 0.956065
O O5 0.541664 0.059742 0.776055
O O6 0.580035 0.140180 0.566802
O O7 0.740419 0.193023 0.111321
O O8 0.192972 0.719984 0.375209
O O9 0.996012 0.870359 0.532469
O O10 0.197454 0.974646 0.724995
O O11 0.792220 0.526837 0.778395
O O12 0.990641 0.433196 0.142873
O O13 0.273148 0.089316 0.647194
O O14 0.189608 0.231198 0.025076
O O15 0.500000 0.000000 0.000000
#
# Coordination Sequence:
#
# PCOD8013469 Si02
#       7
#     2   2   2   2   2   2   2
#     4  12  26  39  63  98 130 169 212 266 319 382
#     4  11  25  39  61  95 126 165 216 254 315 390
#     4  10  22  41  63  96 124 161 214 261 318 376
#     4  10  23  44  67  90 127 172 214 265 319 382
#     4  10  21  40  68  90 124 166 206 268 319 366
#     4  10  22  44  68  91 124 170 220 262 318 385
#     4  11  22  40  64  89 126 168 205 259 319 375
#
# _framework density 21.033058
#
# number of rings (size 3 to 8) (size 9 to 14) (size 15 to 20)
#    0.000    1.429    1.429    3.000    4.000    4.000 
#    0.000    1.429    0.000    0.000    0.000    0.000 
#    0.000    0.000    0.000    0.000    0.000    0.000 
#
# Total GULP energy -173568.054080 kJ/mol
# GULP energy per Si atom -12397.718149 kJ/mol
# Density = 2.098519 g / cm^3
# Si number density = 21.033058 Si / 1000 Ang^3
#
#
#
# Elastic Constant Matrix: (Units=GPa)
#
#
# Indices 1 2 3 4 5 6 
#
# 1 112.9849 33.6198 44.3999 3.5307 -8.1909 -28.4630
# 2 33.6198 120.0850 59.4439 6.6448 0.5442 -12.5528
# 3 44.3999 59.4439 121.1092 -13.5491 1.8199 -17.1641
# 4 3.5307 6.6448 -13.5491 36.8005 -6.5007 3.1632
# 5 -8.1909 0.5442 1.8199 -6.5007 24.4958 2.2923
# 6 -28.4630 -12.5528 -17.1641 3.1632 2.2923 38.4234
#
#
#
# Elastic Compliance Matrix: (Units=1/GPa)
#
#
# Indices 1 2 3 4 5 6 
#
# 1 0.012693 -0.000944 -0.003434 -0.002401 0.003175 0.007569
# 2 -0.000944 0.011826 -0.005796 -0.004523 -0.001445 0.001033
# 3 -0.003434 -0.005796 0.013185 0.006061 -0.000483 0.000983
# 4 -0.002401 -0.004523 0.006061 0.032129 0.007716 -0.003654
# 5 0.003175 -0.001445 -0.000483 0.007716 0.044151 -0.001605
# 6 0.007569 0.001033 0.000983 -0.003654 -0.001605 0.032806
#
#
# Mechanical properties :
#
#
# Convention : Reuss Voigt Hill
#
# Bulk Modulus (GPa) = 57.61671 69.90067 63.75869
# Shear Modulus (GPa) = 28.91473 34.39164 31.65319
#
# Velocity S-wave (km/s) = 3.71175 4.04805 3.88355
# Velocity P-wave (km/s) = 6.76922 7.42663 7.10553
#
# Compressibility (1/GPa) = 0.01735608
#
# Stress axis : x y z
#
# Youngs Moduli (GPa) = 78.78446 84.56110 75.84240
#
# Poissons Ratio (x) = 0.07985 0.26041
# Poissons Ratio (y) = 0.07439 0.43959
# Poissons Ratio (z) = 0.27051 0.49012
#
# Static dielectric constant tensor:
#      x y z
#    x 4.020880 -0.229360 0.113110 
#    y -0.229360 3.185410 -0.102510 
#    z 0.113110 -0.102510 3.989990 
# 
# 
# High freq. dielectric constant tensor:
#      x y z
#    x 1.824800 -0.015250 0.017170 
#    y -0.015250 1.832250 0.006570 
#    z 0.017170 0.006570 1.830910 
# 
# From -- ./inp_files/78838.got.cif
#   From: 2010.06.25/outbox.cif.g09.slc.cpg/sg2_40_cif.got.tgz:78838.got - 2010.06.27 13:26:56.
