data_PCOD8013841
_publ_section_title
;
Structure prediction by ZEFSAII (Michael W. Deem and Ramdas Pophale) SiO2 
 PCOD8013841
Probable space group: P -1
;
_chemical_formula_sum "Si O2"
_cell_formula_units_Z 14
_cell_length_a 9.278516
_cell_length_b 13.035863
_cell_length_c 13.151993
_cell_angle_alpha 141.608697
_cell_angle_beta 112.486432
_cell_angle_gamma 94.253663
_cell_volume 692.357572
_symmetry_space_group_name_H-M "P -1"
_symmetry_group_IT_number 2
_symmetry_cell_setting 'triclinic'
loop_
_space_group_symop_operation_xyz
x,y,z
-x,-y,-z
loop_
_atom_site_type_symbol
_atom_site_label
_atom_site_fract_x
_atom_site_fract_y
_atom_site_fract_z
Si Si1 0.307163 0.741310 0.857370
Si Si2 0.108596 0.940117 0.551606
Si Si3 0.077157 0.531160 0.817778
Si Si4 0.660120 0.758696 0.975652
Si Si5 0.351983 0.606964 0.370771
Si Si6 0.503974 0.036024 0.647454
Si Si7 0.513860 0.788969 0.762071
O O1 0.097301 0.565355 0.726140
O O2 0.310031 0.701947 0.706585
O O3 0.468403 0.728336 0.946452
O O4 0.382836 0.979634 0.080304
O O5 0.318639 0.028533 0.623221
O O6 0.957485 0.682089 0.326949
O O7 0.144527 0.048477 0.756408
O O8 0.000000 0.000000 0.500000
O O9 0.886867 0.510987 0.784908
O O10 0.279172 0.734180 0.086524
O O11 0.623675 0.537822 0.805005
O O12 0.678962 0.815184 0.902908
O O13 0.487533 0.847240 0.549700
O O14 0.435643 0.621780 0.518688
O O15 0.500000 0.000000 0.500000
#
# Coordination Sequence:
#
# PCOD8013841 Si02
#       7
#     2   2   2   2   2   2   2
#     4   9  18  38  67  85 124 166 206 242 315 368
#     4  11  26  43  66  92 127 161 215 264 304 373
#     4  11  23  43  64  94 121 167 212 251 319 375
#     4  10  21  41  62  93 128 164 202 263 311 359
#     4  11  23  39  66  93 131 160 210 260 310 375
#     4  11  25  44  65  89 127 167 208 262 316 369
#     4   9  18  40  67  87 130 171 201 255 314 369
#
# _framework density 20.220763999999999
#
# number of rings (size 3 to 8) (size 9 to 14) (size 15 to 20)
#    0.857    0.857    2.857    1.286    4.000    3.429 
#    0.000    0.714    0.000    0.000    0.000    0.000 
#    0.000    0.000    0.000    0.000    0.000    0.000 
#
# Total GULP energy -173460.269810 kJ/mol
# GULP energy per Si atom -12390.019272 kJ/mol
# Density = 2.017474 g / cm^3
# Si number density = 20.220764 Si / 1000 Ang^3
#
#
#
# Elastic Constant Matrix: (Units=GPa)
#
#
# Indices 1 2 3 4 5 6 
#
# 1 36.9655 46.9779 48.3522 2.0938 -1.8677 -10.7553
# 2 46.9779 113.0091 72.3309 -3.6715 -0.9622 -5.2971
# 3 48.3522 72.3309 155.0334 -3.9210 -0.2813 -7.7474
# 4 2.0938 -3.6715 -3.9210 30.9155 0.9128 -5.8247
# 5 -1.8677 -0.9622 -0.2813 0.9128 24.9183 6.1019
# 6 -10.7553 -5.2971 -7.7474 -5.8247 6.1019 39.7854
#
#
#
# Elastic Compliance Matrix: (Units=1/GPa)
#
#
# Indices 1 2 3 4 5 6 
#
# 1 0.079630 -0.024377 -0.012920 -0.007250 0.001607 0.014457
# 2 -0.024377 0.020115 -0.001893 0.003094 -0.000258 -0.003788
# 3 -0.012920 -0.001893 0.011352 0.001894 -0.000701 -0.001149
# 4 -0.007250 0.003094 0.001894 0.034328 -0.002703 0.004261
# 5 0.001607 -0.000258 -0.000701 -0.002703 0.041940 -0.006565
# 6 0.014457 -0.003788 -0.001149 0.004261 -0.006565 0.029946
#
#
# Mechanical properties :
#
#
# Convention : Reuss Voigt Hill
#
# Bulk Modulus (GPa) = 30.56571 71.14776 50.85673
# Shear Modulus (GPa) = 16.30802 28.28030 22.29416
#
# Velocity S-wave (km/s) = 2.84297 3.74381 3.32405
# Velocity P-wave (km/s) = 5.09171 7.34507 6.31963
#
# Compressibility (1/GPa) = 0.03271640
#
# Stress axis : x y z
#
# Youngs Moduli (GPa) = 12.55805 49.71412 88.08737
#
# Poissons Ratio (x) = 1.21188 1.13810
# Poissons Ratio (y) = 0.30613 0.16679
# Poissons Ratio (z) = 0.16225 0.09413
#
# Static dielectric constant tensor:
#      x y z
#    x 3.501950 0.062020 -0.127300 
#    y 0.062020 3.750050 -0.051110 
#    z -0.127300 -0.051110 3.559810 
# 
# 
# High freq. dielectric constant tensor:
#      x y z
#    x 1.770660 -0.000880 -0.016710 
#    y -0.000880 1.796030 -0.003920 
#    z -0.016710 -0.003920 1.789990 
# 
# From -- ./inp_files/505914.got.cif
#   From: 2010.06.25/outbox.cif.g09.slc.cpg/sg2_253_cif.got.tgz:505914.got - 2010.06.27 13:26:56.
