data_PCOD8013600
_publ_section_title
;
Structure prediction by ZEFSAII (Michael W. Deem and Ramdas Pophale) SiO2 
 PCOD8013600
Probable space group: P -1
;
_chemical_formula_sum "Si O2"
_cell_formula_units_Z 16
_cell_length_a 8.209844
_cell_length_b 9.203003
_cell_length_c 17.942705
_cell_angle_alpha 90.919377
_cell_angle_beta 45.643473
_cell_angle_gamma 117.022186
_cell_volume 760.556839
_symmetry_space_group_name_H-M "P -1"
_symmetry_group_IT_number 2
_symmetry_cell_setting 'triclinic'
loop_
_space_group_symop_operation_xyz
x,y,z
-x,-y,-z
loop_
_atom_site_type_symbol
_atom_site_label
_atom_site_fract_x
_atom_site_fract_y
_atom_site_fract_z
Si Si1 0.183514 0.330521 0.626494
Si Si2 0.859811 0.979361 0.622507
Si Si3 0.105345 0.294744 0.819918
Si Si4 0.376711 0.749698 0.946954
Si Si5 0.343847 0.953088 0.822212
Si Si6 0.342504 0.675368 0.203374
Si Si7 0.809917 0.891696 0.933379
Si Si8 0.439047 0.403462 0.218127
O O1 0.500000 0.500000 0.500000
O O2 0.177602 0.274639 0.712953
O O3 0.981449 0.391837 0.692672
O O4 0.067712 0.159408 0.608163
O O5 0.555089 0.940965 0.702154
O O6 0.806933 0.808482 0.681951
O O7 0.000000 0.000000 0.500000
O O8 0.399327 0.474539 0.759998
O O9 0.989887 0.106919 0.898530
O O10 0.861657 0.323792 0.912154
O O11 0.356069 0.879835 0.898909
O O12 0.698170 0.860616 0.883076
O O13 0.332640 0.583760 0.912071
O O14 0.024440 0.840365 0.885036
O O15 0.472145 0.166954 0.791242
O O16 0.293358 0.485294 0.228705
O O17 0.514473 0.764444 0.072625
#
# Coordination Sequence:
#
# PCOD8013600 Si02
#       8
#     2   2   2   2   2   2   2   2
#     4  11  25  47  71  94 125 183 236 271 328 407
#     4  10  23  48  69  92 136 178 222 281 343 390
#     4  12  21  40  69  97 133 183 224 266 335 411
#     4  11  23  40  61  99 142 177 215 275 338 393
#     4  10  21  40  69  97 133 178 221 271 333 403
#     4  11  21  42  65  99 138 169 227 276 326 405
#     4  12  21  39  70 102 135 179 226 270 332 411
#     4  11  24  40  64 101 139 169 216 284 341 390
#
# _framework density 21.037217999999999
#
# number of rings (size 3 to 8) (size 9 to 14) (size 15 to 20)
#    0.000    1.000    3.750    4.875    0.000    1.500 
#    9.000    2.500    0.000    0.000    0.000    0.000 
#    0.000    0.000    0.000    0.000    0.000    0.000 
#
# Total GULP energy -198266.458093 kJ/mol
# GULP energy per Si atom -12391.653631 kJ/mol
# Density = 2.098934 g / cm^3
# Si number density = 21.037218 Si / 1000 Ang^3
#
#
#
# Elastic Constant Matrix: (Units=GPa)
#
#
# Indices 1 2 3 4 5 6 
#
# 1 127.8078 45.5133 57.0161 -1.6103 -4.5678 0.6424
# 2 45.5133 126.5048 56.3320 0.1823 12.0058 -13.7359
# 3 57.0161 56.3320 162.0684 8.8350 1.2459 -0.5074
# 4 -1.6103 0.1823 8.8350 34.9259 5.3685 4.2423
# 5 -4.5678 12.0058 1.2459 5.3685 17.0737 -1.0085
# 6 0.6424 -13.7359 -0.5074 4.2423 -1.0085 36.2735
#
#
#
# Elastic Compliance Matrix: (Units=1/GPa)
#
#
# Indices 1 2 3 4 5 6 
#
# 1 0.010298 -0.003162 -0.002596 0.000556 0.004914 -0.001344
# 2 -0.003162 0.011636 -0.002928 0.001436 -0.009029 0.004002
# 3 -0.002596 -0.002928 0.008215 -0.002330 0.001460 -0.000635
# 4 0.000556 0.001436 -0.002330 0.031311 -0.010740 -0.003459
# 5 0.004914 -0.009029 0.001460 -0.010740 0.069486 -0.000298
# 6 -0.001344 0.004002 -0.000635 -0.003459 -0.000298 0.029495
#
#
# Mechanical properties :
#
#
# Convention : Reuss Voigt Hill
#
# Bulk Modulus (GPa) = 78.27156 81.56710 79.91933
# Shear Modulus (GPa) = 27.46162 34.82259 31.14210
#
# Velocity S-wave (km/s) = 3.61693 4.07293 3.85168
# Velocity P-wave (km/s) = 7.39797 7.80867 7.60609
#
# Compressibility (1/GPa) = 0.01277603
#
# Stress axis : x y z
#
# Youngs Moduli (GPa) = 97.10875 85.94132 121.72620
#
# Poissons Ratio (x) = 0.27175 0.31600
# Poissons Ratio (y) = 0.30706 0.35646
# Poissons Ratio (z) = 0.25210 0.25167
#
# Static dielectric constant tensor:
#      x y z
#    x 3.835860 -0.123570 -0.103880 
#    y -0.123570 3.936680 0.168870 
#    z -0.103880 0.168870 3.796590 
# 
# 
# High freq. dielectric constant tensor:
#      x y z
#    x 1.820180 -0.000620 -0.004440 
#    y -0.000620 1.826920 0.009350 
#    z -0.004440 0.009350 1.811760 
# 
# From -- ./inp_files/177432.got.cif
#   From: 2010.06.25/outbox.cif.g09.slc.cpg/sg2_89_cif.got.tgz:177432.got - 2010.06.27 13:26:56.
