data_PCOD8013309
_publ_section_title
;
Structure prediction by ZEFSAII (Michael W. Deem and Ramdas Pophale) SiO2 
 PCOD8013309
Probable space group: P -1
;
_chemical_formula_sum "Si O2"
_cell_formula_units_Z 16
_cell_length_a 19.322516
_cell_length_b 6.172349
_cell_length_c 6.623666
_cell_angle_alpha 74.262231
_cell_angle_beta 106.497379
_cell_angle_gamma 109.953235
_cell_volume 698.538055
_symmetry_space_group_name_H-M "P -1"
_symmetry_group_IT_number 2
_symmetry_cell_setting 'triclinic'
loop_
_space_group_symop_operation_xyz
x,y,z
-x,-y,-z
loop_
_atom_site_type_symbol
_atom_site_label
_atom_site_fract_x
_atom_site_fract_y
_atom_site_fract_z
Si Si1 0.177164 0.519184 0.281840
Si Si2 0.954579 0.910000 0.681069
Si Si3 0.547290 0.967748 0.856071
Si Si4 0.231249 0.250655 0.070312
Si Si5 0.413392 0.719917 0.547818
Si Si6 0.330004 0.241130 0.796564
Si Si7 0.284716 0.917983 0.489723
Si Si8 0.913860 0.139375 0.945388
O O1 0.123722 0.280473 0.391033
O O2 0.231786 0.467442 0.164952
O O3 0.225768 0.660559 0.472486
O O4 0.124798 0.657850 0.098229
O O5 0.008084 0.797950 0.886818
O O6 0.000000 0.000000 0.500000
O O7 0.933897 0.121028 0.729362
O O8 0.494884 0.782022 0.704520
O O9 0.578529 0.219664 0.701337
O O10 0.613530 0.861704 0.003558
O O11 0.500000 0.000000 0.000000
O O12 0.271088 0.075507 0.255074
O O13 0.278722 0.340927 0.883191
O O14 0.144582 0.112184 0.977210
O O15 0.372203 0.446266 0.624067
O O16 0.368528 0.891432 0.562137
O O17 0.275228 0.033945 0.667822
#
# Coordination Sequence:
#
# PCOD8013309 Si02
#       8
#     2   2   2   2   2   2   2   2
#     4  10  22  42  68  97 139 180 224 284 341 403
#     4  10  21  40  66  97 133 176 224 281 342 399
#     4  11  24  47  70 102 139 179 230 288 348 413
#     4  10  23  43  66  96 138 180 229 287 343 409
#     4  11  25  43  70 102 135 178 232 285 344 417
#     4  12  25  44  74 101 137 187 231 282 354 411
#     4  11  23  44  64 101 138 173 235 285 334 424
#     4   9  21  40  64  95 133 171 227 280 333 407
#
# _framework density 22.904979999999998
#
# number of rings (size 3 to 8) (size 9 to 14) (size 15 to 20)
#    0.000    1.500    2.500    1.500    0.000    9.000 
#    0.000    6.250    0.000    0.000    0.000    0.000 
#    0.000    0.000    0.000    0.000    0.000    0.000 
#
# Total GULP energy -198380.520882 kJ/mol
# GULP energy per Si atom -12398.782555 kJ/mol
# Density = 2.285285 g / cm^3
# Si number density = 22.904980 Si / 1000 Ang^3
#
#
#
# Elastic Constant Matrix: (Units=GPa)
#
#
# Indices 1 2 3 4 5 6 
#
# 1 114.8976 47.9389 61.3620 11.0624 -18.3888 -0.2501
# 2 47.9389 110.5428 65.8409 16.2632 -11.7940 2.8853
# 3 61.3620 65.8409 119.1500 2.7761 -25.6052 9.1310
# 4 11.0624 16.2632 2.7761 30.1048 1.2772 1.2692
# 5 -18.3888 -11.7940 -25.6052 1.2772 49.2780 0.0360
# 6 -0.2501 2.8853 9.1310 1.2692 0.0360 33.7087
#
#
#
# Elastic Compliance Matrix: (Units=1/GPa)
#
#
# Indices 1 2 3 4 5 6 
#
# 1 0.012915 -0.001759 -0.005375 -0.003449 0.001693 0.001830
# 2 -0.001759 0.015241 -0.007600 -0.006895 -0.000780 0.001001
# 3 -0.005375 -0.007600 0.016569 0.004525 0.004671 -0.004053
# 4 -0.003449 -0.006895 0.004525 0.037947 -0.001568 -0.002088
# 5 0.001693 -0.000780 0.004671 -0.001568 0.023207 -0.001152
# 6 0.001830 0.001001 -0.004053 -0.002088 -0.001152 0.030772
#
#
# Mechanical properties :
#
#
# Convention : Reuss Voigt Hill
#
# Bulk Modulus (GPa) = 65.54161 77.20822 71.37491
# Shear Modulus (GPa) = 29.20504 33.91487 31.55996
#
# Velocity S-wave (km/s) = 3.57466 3.85213 3.71599
# Velocity P-wave (km/s) = 6.76123 7.31891 7.04559
#
# Compressibility (1/GPa) = 0.01525748
#
# Stress axis : x y z
#
# Youngs Moduli (GPa) = 77.42891 65.61425 60.35267
#
# Poissons Ratio (x) = 0.11541 0.32441
# Poissons Ratio (y) = 0.13620 0.45865
# Poissons Ratio (z) = 0.41620 0.49864
#
# Static dielectric constant tensor:
#      x y z
#    x 4.450880 0.001480 0.209000 
#    y 0.001480 4.062780 0.126490 
#    z 0.209000 0.126490 4.199140 
# 
# 
# High freq. dielectric constant tensor:
#      x y z
#    x 1.921690 -0.003130 0.010930 
#    y -0.003130 1.891990 0.007290 
#    z 0.010930 0.007290 1.894360 
# 
# From -- ./inp_files/11426.got.cif
#   From: 2010.06.25/outbox.cif.g09.slc.cpg/sg2_6_cif.got.tgz:11426.got - 2010.06.27 13:26:56.
