data_PCOD8013368
_publ_section_title
;
Structure prediction by ZEFSAII (Michael W. Deem and Ramdas Pophale) SiO2 
 PCOD8013368
Probable space group: P -1
;
_chemical_formula_sum "Si O2"
_cell_formula_units_Z 16
_cell_length_a 12.412116
_cell_length_b 8.725025
_cell_length_c 10.899889
_cell_angle_alpha 49.714917
_cell_angle_beta 114.719213
_cell_angle_gamma 87.370847
_cell_volume 727.792547
_symmetry_space_group_name_H-M "P -1"
_symmetry_group_IT_number 2
_symmetry_cell_setting 'triclinic'
loop_
_space_group_symop_operation_xyz
x,y,z
-x,-y,-z
loop_
_atom_site_type_symbol
_atom_site_label
_atom_site_fract_x
_atom_site_fract_y
_atom_site_fract_z
Si Si1 0.517188 0.814509 0.003833
Si Si2 0.060185 0.641007 0.027362
Si Si3 0.780559 0.433269 0.292371
Si Si4 0.395599 0.012349 0.274913
Si Si5 0.673295 0.768038 0.610748
Si Si6 0.859762 0.808844 0.057583
Si Si7 0.043368 0.084612 0.701677
Si Si8 0.259769 0.923826 0.699272
O O1 0.376459 0.812769 0.915612
O O2 0.560144 0.856183 0.869350
O O3 0.640307 0.574278 0.226685
O O4 0.500000 0.000000 0.000000
O O5 0.213859 0.487191 0.217010
O O6 0.985096 0.748462 0.061859
O O7 0.000000 0.500000 0.000000
O O8 0.046207 0.841549 0.827939
O O9 0.830802 0.594699 0.165068
O O10 0.759811 0.279156 0.261465
O O11 0.892223 0.280585 0.522560
O O12 0.530487 0.784049 0.490735
O O13 0.336534 0.164713 0.287431
O O14 0.273066 0.981148 0.173141
O O15 0.710477 0.935919 0.463100
O O16 0.885488 0.885400 0.160513
O O17 0.124881 0.096088 0.615383
#
# Coordination Sequence:
#
# PCOD8013368 Si02
#       8
#     2   2   2   2   2   2   2   2
#     4  10  22  41  67  97 130 167 209 270 330 378
#     4  12  23  41  65  93 128 170 215 261 319 382
#     4  11  23  41  66  95 128 172 217 262 317 384
#     4   9  20  39  67  88 123 162 219 249 324 370
#     4  10  21  40  67  93 124 169 212 268 307 379
#     4  11  23  43  64  89 133 170 208 272 325 375
#     4  12  26  41  63 100 131 166 217 266 325 385
#     4  11  22  41  66  99 127 167 224 260 315 386
#
# _framework density 21.984286999999998
#
# number of rings (size 3 to 8) (size 9 to 14) (size 15 to 20)
#    0.000    1.250    1.250    5.250    1.750    2.000 
#    2.250    0.625    0.000    0.000    0.000    0.000 
#    0.000    0.000    0.000    0.000    0.000    0.000 
#
# Total GULP energy -198349.343554 kJ/mol
# GULP energy per Si atom -12396.833972 kJ/mol
# Density = 2.193425 g / cm^3
# Si number density = 21.984287 Si / 1000 Ang^3
#
#
#
# Elastic Constant Matrix: (Units=GPa)
#
#
# Indices 1 2 3 4 5 6 
#
# 1 86.0862 37.9708 46.8228 0.5363 8.4749 -15.8359
# 2 37.9708 109.2722 44.4113 25.4183 11.0349 -14.2413
# 3 46.8228 44.4113 154.9977 7.2167 44.6580 -2.6847
# 4 0.5363 25.4183 7.2167 33.3861 0.0519 7.7472
# 5 8.4749 11.0349 44.6580 0.0519 49.7792 1.9442
# 6 -15.8359 -14.2413 -2.6847 7.7472 1.9442 26.9018
#
#
#
# Elastic Compliance Matrix: (Units=1/GPa)
#
#
# Indices 1 2 3 4 5 6 
#
# 1 0.016758 -0.003779 -0.004450 0.002008 0.001713 0.006718
# 2 -0.003779 0.016137 -0.002281 -0.014108 -0.001273 0.010245
# 3 -0.004450 -0.002281 0.010823 -0.000023 -0.008363 -0.002136
# 4 0.002008 -0.014108 -0.000023 0.045199 0.003523 -0.019559
# 5 0.001713 -0.001273 -0.008363 0.003523 0.027716 -0.003518
# 6 0.006718 0.010245 -0.002136 -0.019559 -0.003518 0.052224
#
#
# Mechanical properties :
#
#
# Convention : Reuss Voigt Hill
#
# Bulk Modulus (GPa) = 44.05717 67.64066 55.84891
# Shear Modulus (GPa) = 25.32356 36.75684 31.04020
#
# Velocity S-wave (km/s) = 3.39764 4.09340 3.76164
# Velocity P-wave (km/s) = 5.95615 7.29217 6.65776
#
# Compressibility (1/GPa) = 0.02269778
#
# Stress axis : x y z
#
# Youngs Moduli (GPa) = 59.67167 61.96874 92.39360
#
# Poissons Ratio (x) = 0.23420 0.41117
# Poissons Ratio (y) = 0.22551 0.21075
# Poissons Ratio (z) = 0.26555 0.14135
#
# Static dielectric constant tensor:
#      x y z
#    x 4.351120 -0.050870 0.582850 
#    y -0.050870 3.672240 0.126040 
#    z 0.582850 0.126040 4.561750 
# 
# 
# High freq. dielectric constant tensor:
#      x y z
#    x 1.873960 -0.012940 0.025900 
#    y -0.012940 1.847470 0.015670 
#    z 0.025900 0.015670 1.876550 
# 
# From -- ./inp_files/418965.got.cif
#   From: 2010.06.25/outbox.cif.g09.slc.cpg/sg2_210_cif.got.tgz:418965.got - 2010.06.27 13:26:56.
