data_PCOD8013211
_publ_section_title
;
Structure prediction by ZEFSAII (Michael W. Deem and Ramdas Pophale) SiO2 
 PCOD8013211
Probable space group: P -1
;
_chemical_formula_sum "Si O2"
_cell_formula_units_Z 16
_cell_length_a 9.988108
_cell_length_b 21.615495
_cell_length_c 14.855097
_cell_angle_alpha 19.195319
_cell_angle_beta 63.717059
_cell_angle_gamma 52.300260
_cell_volume 713.746598
_symmetry_space_group_name_H-M "P -1"
_symmetry_group_IT_number 2
_symmetry_cell_setting 'triclinic'
loop_
_space_group_symop_operation_xyz
x,y,z
-x,-y,-z
loop_
_atom_site_type_symbol
_atom_site_label
_atom_site_fract_x
_atom_site_fract_y
_atom_site_fract_z
Si Si1 0.437528 0.526561 0.378435
Si Si2 0.440749 0.935159 0.839902
Si Si3 0.977695 0.233988 0.210636
Si Si4 0.585915 0.172604 0.665582
Si Si5 0.820255 0.621116 0.568825
Si Si6 0.618710 0.433377 0.147297
Si Si7 0.587412 0.049166 0.482774
Si Si8 0.219467 0.359468 0.714605
O O1 0.500000 0.500000 0.500000
O O2 0.604454 0.290246 0.587965
O O3 0.251509 0.536496 0.413876
O O4 0.391587 0.780232 0.013507
O O5 0.470955 0.085591 0.557853
O O6 0.260021 0.131325 0.691925
O O7 0.647115 0.748296 0.087866
O O8 0.824109 0.369316 0.152757
O O9 0.178575 0.163878 0.281666
O O10 0.904146 0.398881 0.917414
O O11 0.000000 0.000000 0.500000
O O12 0.355118 0.321254 0.516505
O O13 0.663127 0.213480 0.496149
O O14 0.711043 0.875287 0.046576
O O15 0.989077 0.538040 0.561483
O O16 0.500000 0.500000 0.000000
O O17 0.471918 0.693384 0.886205
O O18 0.500000 0.000000 0.500000
#
# Coordination Sequence:
#
# PCOD8013211 Si02
#       8
#     2   2   2   2   2   2   2   2
#     4  10  23  43  65  89 125 172 212 263 328 379
#     4  10  21  41  61  87 129 169 210 260 322 382
#     4  12  22  37  65  95 129 172 218 256 318 383
#     4  11  22  40  66  96 129 161 217 271 314 381
#     4  11  21  38  66  92 125 166 213 265 319 378
#     4  12  21  39  64  97 129 172 211 260 322 382
#     4  12  24  39  61  92 136 174 209 263 320 385
#     4  10  21  40  66  91 119 165 215 269 320 368
#
# _framework density 22.416920999999999
#
# number of rings (size 3 to 8) (size 9 to 14) (size 15 to 20)
#    0.000    1.000    5.000    2.625    0.000    1.500 
#    0.000    2.500    0.000    0.000    0.000    0.000 
#    0.000    0.000    0.000    0.000    0.000    0.000 
#
# Total GULP energy -198266.294976 kJ/mol
# GULP energy per Si atom -12391.643436 kJ/mol
# Density = 2.236590 g / cm^3
# Si number density = 22.416921 Si / 1000 Ang^3
#
#
#
# Elastic Constant Matrix: (Units=GPa)
#
#
# Indices 1 2 3 4 5 6 
#
# 1 102.4093 54.2500 45.5172 -19.0194 -10.4023 -1.9069
# 2 54.2500 107.3681 12.3264 -17.8278 -1.3289 -11.4332
# 3 45.5172 12.3264 81.0031 -15.1194 -14.3259 -4.0894
# 4 -19.0194 -17.8278 -15.1194 37.9529 -1.0378 -6.0041
# 5 -10.4023 -1.3289 -14.3259 -1.0378 37.5488 -7.7600
# 6 -1.9069 -11.4332 -4.0894 -6.0041 -7.7600 48.4175
#
#
#
# Elastic Compliance Matrix: (Units=1/GPa)
#
#
# Indices 1 2 3 4 5 6 
#
# 1 0.018299 -0.008118 -0.008579 0.001735 0.001246 -0.001506
# 2 -0.008118 0.014217 0.003578 0.004686 0.000578 0.004014
# 3 -0.008579 0.003578 0.018912 0.005670 0.005898 0.003753
# 4 0.001735 0.004686 0.005670 0.032851 0.005070 0.006540
# 5 0.001246 0.000578 0.005898 0.005070 0.030675 0.006229
# 6 -0.001506 0.004014 0.003753 0.006540 0.006229 0.023668
#
#
# Mechanical properties :
#
#
# Convention : Reuss Voigt Hill
#
# Bulk Modulus (GPa) = 39.69788 57.21864 48.45826
# Shear Modulus (GPa) = 28.85857 36.69631 32.77744
#
# Velocity S-wave (km/s) = 3.59187 4.05036 3.82799
# Velocity P-wave (km/s) = 5.91180 6.88869 6.41886
#
# Compressibility (1/GPa) = 0.02519026
#
# Stress axis : x y z
#
# Youngs Moduli (GPa) = 54.64827 70.33634 52.87531
#
# Poissons Ratio (x) = 0.57098 0.45362
# Poissons Ratio (y) = 0.44363 -0.18917
# Poissons Ratio (z) = 0.46883 -0.25164
#
# Static dielectric constant tensor:
#      x y z
#    x 4.105830 -0.023840 -0.192330 
#    y -0.023840 4.028900 0.007180 
#    z -0.192330 0.007180 4.423110 
# 
# 
# High freq. dielectric constant tensor:
#      x y z
#    x 1.868910 -0.000350 -0.016950 
#    y -0.000350 1.891990 0.006020 
#    z -0.016950 0.006020 1.889360 
# 
# From -- ./inp_files/505095.got.cif
#   From: 2010.06.25/outbox.cif.g09.slc.cpg/sg2_253_cif.got.tgz:505095.got - 2010.06.27 13:26:56.
