data_PCOD8013811
_publ_section_title
;
Structure prediction by ZEFSAII (Michael W. Deem and Ramdas Pophale) SiO2 
 PCOD8013811
Probable space group: P -1
;
_chemical_formula_sum "Si O2"
_cell_formula_units_Z 16
_cell_length_a 18.638441
_cell_length_b 14.893642
_cell_length_c 23.821253
_cell_angle_alpha 19.872862
_cell_angle_beta 158.030747
_cell_angle_gamma 146.289013
_cell_volume 797.581311
_symmetry_space_group_name_H-M "P -1"
_symmetry_group_IT_number 2
_symmetry_cell_setting 'triclinic'
loop_
_space_group_symop_operation_xyz
x,y,z
-x,-y,-z
loop_
_atom_site_type_symbol
_atom_site_label
_atom_site_fract_x
_atom_site_fract_y
_atom_site_fract_z
Si Si1 0.969876 0.369847 0.997905
Si Si2 0.402853 0.233127 0.246569
Si Si3 0.416827 0.755596 0.246995
Si Si4 0.923501 0.270342 0.225570
Si Si5 0.187420 0.766295 0.483529
Si Si6 0.897372 0.764984 0.066272
Si Si7 0.853071 0.725490 0.188164
Si Si8 0.797845 0.788929 0.439038
O O1 0.762956 0.296410 0.888096
O O2 0.151906 0.083654 0.289804
O O3 0.000000 0.500000 0.000000
O O4 0.970178 0.621805 0.810246
O O5 0.573924 0.367731 0.273969
O O6 0.500000 0.000000 0.500000
O O7 0.227062 0.463663 0.012290
O O8 0.304363 0.139644 0.174786
O O9 0.500000 0.500000 0.500000
O O10 0.577040 0.775483 0.303671
O O11 0.334625 0.040152 0.056330
O O12 0.110300 0.134650 0.482070
O O13 0.805346 0.050323 0.251306
O O14 0.129682 0.584362 0.596910
O O15 0.062125 0.774034 0.330396
O O16 0.830491 0.733265 0.100199
O O17 0.066990 0.488559 0.330175
O O18 0.000000 0.000000 0.000000
#
# Coordination Sequence:
#
# PCOD8013811 Si02
#       8
#     2   2   2   2   2   2   2   2
#     4  11  24  39  62  89 126 162 206 248 306 367
#     4  11  21  39  64  89 121 162 201 246 309 368
#     4  11  21  41  66  88 122 165 205 248 311 370
#     4  10  21  41  62  89 125 161 197 255 312 364
#     4  10  22  42  63  86 125 166 199 252 315 359
#     4  11  24  39  64  93 123 157 210 255 300 365
#     4  10  23  41  64  91 124 160 206 258 303 365
#     4  10  22  40  65  92 121 160 204 257 307 360
#
# _framework density 20.060651
#
# number of rings (size 3 to 8) (size 9 to 14) (size 15 to 20)
#    0.000    1.500    2.500    2.250    5.250    2.500 
#    2.250    0.625    0.000    0.000    0.000    0.000 
#    0.000    0.000    0.000    0.000    0.000    0.000 
#
# Total GULP energy -198284.909157 kJ/mol
# GULP energy per Si atom -12392.806822 kJ/mol
# Density = 2.001499 g / cm^3
# Si number density = 20.060651 Si / 1000 Ang^3
#
#
#
# Elastic Constant Matrix: (Units=GPa)
#
#
# Indices 1 2 3 4 5 6 
#
# 1 111.5418 62.1975 39.3920 5.4957 -0.1946 -3.7000
# 2 62.1975 113.3013 33.2650 -2.2193 -5.1377 10.8118
# 3 39.3920 33.2650 68.9333 7.4703 -9.8436 0.6498
# 4 5.4957 -2.2193 7.4703 40.7792 8.5178 -1.7010
# 5 -0.1946 -5.1377 -9.8436 8.5178 27.7240 4.4575
# 6 -3.7000 10.8118 0.6498 -1.7010 4.4575 36.6726
#
#
#
# Elastic Compliance Matrix: (Units=1/GPa)
#
#
# Indices 1 2 3 4 5 6 
#
# 1 0.015171 -0.007232 -0.005718 -0.000419 -0.003812 0.004208
# 2 -0.007232 0.014139 -0.002530 0.001582 0.001993 -0.005022
# 3 -0.005718 -0.002530 0.020794 -0.005048 0.008664 -0.001487
# 4 -0.000419 0.001582 -0.005048 0.027852 -0.010403 0.002137
# 5 -0.003812 0.001993 0.008664 -0.010403 0.043799 -0.006932
# 6 0.004208 -0.005022 -0.001487 0.002137 -0.006932 0.030142
#
#
# Mechanical properties :
#
#
# Convention : Reuss Voigt Hill
#
# Bulk Modulus (GPa) = 52.23667 62.60950 57.42308
# Shear Modulus (GPa) = 26.42182 31.62996 29.02589
#
# Velocity S-wave (km/s) = 3.63312 3.97510 3.80795
# Velocity P-wave (km/s) = 6.61024 7.23508 6.92971
#
# Compressibility (1/GPa) = 0.01914364
#
# Stress axis : x y z
#
# Youngs Moduli (GPa) = 65.91591 70.72400 48.09181
#
# Poissons Ratio (x) = 0.51147 0.27499
# Poissons Ratio (y) = 0.47670 0.12168
# Poissons Ratio (z) = 0.37691 0.17894
#
# Static dielectric constant tensor:
#      x y z
#    x 3.532150 -0.005720 0.005390 
#    y -0.005720 3.820900 0.005430 
#    z 0.005390 0.005430 3.320490 
# 
# 
# High freq. dielectric constant tensor:
#      x y z
#    x 1.776930 0.015870 -0.000160 
#    y 0.015870 1.794780 -0.006560 
#    z -0.000160 -0.006560 1.788520 
# 
# From -- ./inp_files/260087.got.cif
#   From: 2010.06.25/outbox.cif.g09.slc.cpg/sg2_131_cif.got.tgz:260087.got - 2010.06.27 13:26:56.
