data_PCOD8013022
_publ_section_title
;
Structure prediction by ZEFSAII (Michael W. Deem and Ramdas Pophale) SiO2 
 PCOD8013022
Probable space group: P -1
;
_chemical_formula_sum "Si O2"
_cell_formula_units_Z 14
_cell_length_a 14.661407
_cell_length_b 12.594871
_cell_length_c 20.330798
_cell_angle_alpha 160.256387
_cell_angle_beta 149.466122
_cell_angle_gamma 31.398645
_cell_volume 623.898745
_symmetry_space_group_name_H-M "P -1"
_symmetry_group_IT_number 2
_symmetry_cell_setting 'triclinic'
loop_
_space_group_symop_operation_xyz
x,y,z
-x,-y,-z
loop_
_atom_site_type_symbol
_atom_site_label
_atom_site_fract_x
_atom_site_fract_y
_atom_site_fract_z
Si Si1 0.954544 0.233221 0.863847
Si Si2 0.981068 0.320001 0.582829
Si Si3 0.707216 0.832643 0.414694
Si Si4 0.997806 0.378325 0.771771
Si Si5 0.582026 0.654296 0.703078
Si Si6 0.679208 0.271409 0.164146
Si Si7 0.390652 0.404158 0.554659
O O1 0.787055 0.096604 0.656311
O O2 0.133996 0.937845 0.809283
O O3 0.000000 0.500000 0.000000
O O4 0.887346 0.405039 0.992141
O O5 0.996791 0.495181 0.763846
O O6 0.827231 0.535536 0.564476
O O7 0.182687 0.248101 0.632674
O O8 0.915749 0.000440 0.379940
O O9 0.729455 0.503643 0.276021
O O10 0.490035 0.020619 0.381034
O O11 0.794689 0.462752 0.727243
O O12 0.500000 0.500000 0.500000
O O13 0.481433 0.608397 0.680473
O O14 0.567094 0.044025 0.922629
O O15 0.574788 0.483385 0.284165
#
# Coordination Sequence:
#
# PCOD8013022 Si02
#       7
#     2   2   2   2   2   2   2
#     4  11  20  41  69  97 129 175 226 270 323 398
#     4  11  22  40  70  96 135 175 219 279 333 384
#     4  12  24  44  66 100 141 172 221 280 329 403
#     4  10  21  40  65 102 127 171 230 272 328 387
#     4  11  22  43  69  98 131 171 228 282 320 405
#     4  11  25  42  67 100 135 178 219 278 346 382
#     4  12  23  42  69  97 133 180 225 267 332 402
#
# _framework density 22.439537999999999
#
# number of rings (size 3 to 8) (size 9 to 14) (size 15 to 20)
#    0.000    0.857    5.714    2.143    0.000    1.143 
#    0.000    5.000    0.000    0.000    0.000    0.000 
#    0.000    0.000    0.000    0.000    0.000    0.000 
#
# Total GULP energy -173518.019899 kJ/mol
# GULP energy per Si atom -12394.144278 kJ/mol
# Density = 2.238846 g / cm^3
# Si number density = 22.439538 Si / 1000 Ang^3
#
#
#
# Elastic Constant Matrix: (Units=GPa)
#
#
# Indices 1 2 3 4 5 6 
#
# 1 140.2194 23.2956 49.1449 1.5459 -21.5187 11.2673
# 2 23.2956 98.4407 22.0852 20.1794 -1.1384 -1.4480
# 3 49.1449 22.0852 85.3035 6.9605 -2.9430 21.2325
# 4 1.5459 20.1794 6.9605 31.7209 14.3512 -5.0516
# 5 -21.5187 -1.1384 -2.9430 14.3512 34.1939 6.1725
# 6 11.2673 -1.4480 21.2325 -5.0516 6.1725 32.0920
#
#
#
# Elastic Compliance Matrix: (Units=1/GPa)
#
#
# Indices 1 2 3 4 5 6 
#
# 1 0.010293 -0.000754 -0.004591 -0.002929 0.007749 -0.002562
# 2 -0.000754 0.012727 -0.001966 -0.009304 0.003692 -0.000035
# 3 -0.004591 -0.001966 0.018586 -0.006148 0.003465 -0.012408
# 4 -0.002929 -0.009304 -0.006148 0.055209 -0.029283 0.018999
# 5 0.007749 0.003692 0.003465 -0.029283 0.050286 -0.019128
# 6 -0.002562 -0.000035 -0.012408 0.018999 -0.019128 0.046937
#
#
# Mechanical properties :
#
#
# Convention : Reuss Voigt Hill
#
# Bulk Modulus (GPa) = 37.05571 57.00168 47.02869
# Shear Modulus (GPa) = 22.97210 34.89721 28.93466
#
# Velocity S-wave (km/s) = 3.20305 3.94784 3.59479
# Velocity P-wave (km/s) = 5.49808 6.79986 6.18332
#
# Compressibility (1/GPa) = 0.02698640
#
# Stress axis : x y z
#
# Youngs Moduli (GPa) = 97.15001 78.57217 53.80275
#
# Poissons Ratio (x) = 0.05921 0.24701
# Poissons Ratio (y) = 0.07321 0.10575
# Poissons Ratio (z) = 0.44603 0.15444
#
# Static dielectric constant tensor:
#      x y z
#    x 4.155200 0.007420 -0.356520 
#    y 0.007420 4.189890 -0.051790 
#    z -0.356520 -0.051790 4.199480 
# 
# 
# High freq. dielectric constant tensor:
#      x y z
#    x 1.893820 -0.001390 -0.022690 
#    y -0.001390 1.886310 0.006550 
#    z -0.022690 0.006550 1.863870 
# 
# From -- ./inp_files/357438.got.cif
#   From: 2010.06.25/outbox.cif.g09.slc.cpg/sg2_179_cif.got.tgz:357438.got - 2010.06.27 13:26:56.
