data_PCOD8013079
_publ_section_title
;
Structure prediction by ZEFSAII (Michael W. Deem and Ramdas Pophale) SiO2 
 PCOD8013079
Probable space group: P -1
;
_chemical_formula_sum "Si O2"
_cell_formula_units_Z 16
_cell_length_a 7.111149
_cell_length_b 28.300409
_cell_length_c 5.200236
_cell_angle_alpha 98.249220
_cell_angle_beta 92.245108
_cell_angle_gamma 135.195239
_cell_volume 714.791411
_symmetry_space_group_name_H-M "P -1"
_symmetry_group_IT_number 2
_symmetry_cell_setting 'triclinic'
loop_
_space_group_symop_operation_xyz
x,y,z
-x,-y,-z
loop_
_atom_site_type_symbol
_atom_site_label
_atom_site_fract_x
_atom_site_fract_y
_atom_site_fract_z
Si Si1 0.712266 0.175574 0.943649
Si Si2 0.159542 0.418536 0.653731
Si Si3 0.460784 0.706792 0.404233
Si Si4 0.412999 0.423446 0.173483
Si Si5 0.093916 0.963487 0.502762
Si Si6 0.562485 0.835365 0.577662
Si Si7 0.321171 0.300714 0.095009
Si Si8 0.343160 0.941677 0.154596
O O1 0.553485 0.152540 0.648082
O O2 0.770081 0.130887 0.988127
O O3 0.537083 0.166621 0.152351
O O4 0.003774 0.254578 0.998116
O O5 0.208401 0.401668 0.371501
O O6 0.302324 0.496413 0.725332
O O7 0.841209 0.368876 0.632595
O O8 0.274766 0.406881 0.878200
O O9 0.463303 0.763992 0.465395
O O10 0.650249 0.719453 0.644431
O O11 0.567726 0.712500 0.134097
O O12 0.482433 0.380333 0.165648
O O13 0.086506 0.926546 0.226502
O O14 0.893824 0.901355 0.650711
O O15 0.416070 0.025625 0.608006
O O16 0.000000 0.000000 0.500000
O O17 0.500000 0.000000 0.000000
#
# Coordination Sequence:
#
# PCOD8013079 Si02
#       8
#     2   2   2   2   2   2   2   2
#     4  12  26  45  67  95 127 174 218 266 327 385
#     4  10  21  40  65  92 126 168 221 254 324 385
#     4  12  25  41  64  96 129 170 211 270 323 390
#     4  10  21  40  65  92 126 171 211 269 311 392
#     4  11  24  45  66  99 131 171 220 266 335 389
#     4  12  26  44  70  91 130 172 220 265 323 396
#     4  12  25  41  64  94 134 164 215 268 329 379
#     4  11  26  41  70  96 134 170 216 278 322 397
#
# _framework density 22.384153000000001
#
# number of rings (size 3 to 8) (size 9 to 14) (size 15 to 20)
#    0.000    0.750    1.250    6.000    5.250    2.000 
#    0.000    0.000    0.000    0.000    0.000    0.000 
#    0.000    0.000    0.000    0.000    0.000    0.000 
#
# Total GULP energy -198387.220426 kJ/mol
# GULP energy per Si atom -12399.201277 kJ/mol
# Density = 2.233321 g / cm^3
# Si number density = 22.384153 Si / 1000 Ang^3
#
#
#
# Elastic Constant Matrix: (Units=GPa)
#
#
# Indices 1 2 3 4 5 6 
#
# 1 101.8400 39.8324 15.3588 1.0851 -24.9977 -8.9465
# 2 39.8324 108.8220 19.4333 -2.3776 -14.5741 -1.8146
# 3 15.3588 19.4333 68.7348 -10.0117 -10.7909 -6.4435
# 4 1.0851 -2.3776 -10.0117 32.8321 -0.1082 -2.0551
# 5 -24.9977 -14.5741 -10.7909 -0.1082 38.4606 -2.8874
# 6 -8.9465 -1.8146 -6.4435 -2.0551 -2.8874 58.7117
#
#
#
# Elastic Compliance Matrix: (Units=1/GPa)
#
#
# Indices 1 2 3 4 5 6 
#
# 1 0.013378 -0.003786 -0.000692 -0.000767 0.007227 0.002174
# 2 -0.003786 0.011102 -0.002116 0.000262 0.001123 -0.000402
# 3 -0.000692 -0.002116 0.016810 0.005135 0.003632 0.002032
# 4 -0.000767 0.000262 0.005135 0.032175 0.001255 0.001643
# 5 0.007227 0.001123 0.003632 0.001255 0.032384 0.003171
# 6 0.002174 -0.000402 0.002032 0.001643 0.003171 0.017788
#
#
# Mechanical properties :
#
#
# Convention : Reuss Voigt Hill
#
# Bulk Modulus (GPa) = 35.58445 47.62731 41.60588
# Shear Modulus (GPa) = 34.20147 39.65236 36.92692
#
# Velocity S-wave (km/s) = 3.91312 4.21342 4.06604
# Velocity P-wave (km/s) = 6.02896 6.70776 6.37740
#
# Compressibility (1/GPa) = 0.02810216
#
# Stress axis : x y z
#
# Youngs Moduli (GPa) = 74.75236 90.07095 59.48751
#
# Poissons Ratio (x) = 0.34097 0.04118
# Poissons Ratio (y) = 0.28298 0.12588
# Poissons Ratio (z) = 0.05175 0.19060
#
# Static dielectric constant tensor:
#      x y z
#    x 3.840080 -0.109340 -0.229900 
#    y -0.109340 4.350910 0.106680 
#    z -0.229900 0.106680 4.186930 
# 
# 
# High freq. dielectric constant tensor:
#      x y z
#    x 1.882210 -0.001990 -0.009920 
#    y -0.001990 1.902350 -0.001030 
#    z -0.009920 -0.001030 1.886950 
# 
# From -- ./inp_files/14495.got.cif
#   From: 2010.06.25/outbox.cif.g09.slc.cpg/sg2_8_cif.got.tgz:14495.got - 2010.06.27 13:26:56.
