data_PCOD8013490
_publ_section_title
;
Structure prediction by ZEFSAII (Michael W. Deem and Ramdas Pophale) SiO2 
 PCOD8013490
Probable space group: P -1
;
_chemical_formula_sum "Si O2"
_cell_formula_units_Z 14
_cell_length_a 17.955968
_cell_length_b 8.477974
_cell_length_c 23.290143
_cell_angle_alpha 31.118223
_cell_angle_beta 158.565962
_cell_angle_gamma 140.714268
_cell_volume 664.643940
_symmetry_space_group_name_H-M "P -1"
_symmetry_group_IT_number 2
_symmetry_cell_setting 'triclinic'
loop_
_space_group_symop_operation_xyz
x,y,z
-x,-y,-z
loop_
_atom_site_type_symbol
_atom_site_label
_atom_site_fract_x
_atom_site_fract_y
_atom_site_fract_z
Si Si1 0.730100 0.492599 0.566357
Si Si2 0.723903 0.314663 0.847761
Si Si3 0.781612 0.836394 0.138985
Si Si4 0.908175 0.333444 0.160591
Si Si5 0.861045 0.785099 0.886007
Si Si6 0.387646 0.886002 0.901722
Si Si7 0.900714 0.698945 0.507364
O O1 0.493627 0.637674 0.355905
O O2 0.811896 0.534510 0.548358
O O3 0.857147 0.663726 0.651371
O O4 0.756708 0.130516 0.710556
O O5 0.747988 0.624862 0.803641
O O6 0.896546 0.245636 0.944386
O O7 0.743909 0.026066 0.994467
O O8 0.931265 0.529943 0.332807
O O9 0.885706 0.028417 0.202826
O O10 0.563450 0.725592 0.035472
O O11 0.771859 0.342623 0.118916
O O12 0.831621 0.628624 0.975154
O O13 0.282605 0.197732 0.699891
O O14 0.500000 0.000000 0.000000
O O15 0.000000 0.000000 0.500000
#
# Coordination Sequence:
#
# PCOD8013490 Si02
#       7
#     2   2   2   2   2   2   2
#     4  12  22  41  65  98 127 161 215 269 308 369
#     4  10  21  40  68  95 120 169 217 255 313 379
#     4  10  22  44  67  90 130 172 206 262 319 374
#     4  10  23  42  63  95 134 166 208 261 319 378
#     4  10  22  42  64  92 131 167 209 257 317 377
#     4  10  22  43  64  94 129 166 211 254 320 378
#     4  12  24  42  66  97 127 163 217 266 311 377
#
# _framework density 21.06391
#
# number of rings (size 3 to 8) (size 9 to 14) (size 15 to 20)
#    0.000    1.429    4.286    0.857    0.000    3.429 
#    2.571    2.857    0.000    0.000    0.000    0.000 
#    0.000    0.000    0.000    0.000    0.000    0.000 
#
# Total GULP energy -173600.562695 kJ/mol
# GULP energy per Si atom -12400.040193 kJ/mol
# Density = 2.101597 g / cm^3
# Si number density = 21.063910 Si / 1000 Ang^3
#
#
#
# Elastic Constant Matrix: (Units=GPa)
#
#
# Indices 1 2 3 4 5 6 
#
# 1 80.8054 29.3799 43.3105 -16.8990 -2.2276 18.5787
# 2 29.3799 74.6373 40.0785 6.7566 -6.7057 -0.2019
# 3 43.3105 40.0785 138.2993 9.3329 -1.9028 -12.2124
# 4 -16.8990 6.7566 9.3329 33.0099 0.5557 0.3931
# 5 -2.2276 -6.7057 -1.9028 0.5557 33.3437 2.5757
# 6 18.5787 -0.2019 -12.2124 0.3931 2.5757 25.9280
#
#
#
# Elastic Compliance Matrix: (Units=1/GPa)
#
#
# Indices 1 2 3 4 5 6 
#
# 1 0.034345 -0.008843 -0.012483 0.023261 0.001818 -0.031092
# 2 -0.008843 0.018721 -0.001583 -0.008024 0.002786 0.005581
# 3 -0.012483 -0.001583 0.013642 -0.010086 -0.001415 0.015652
# 4 0.023261 -0.008024 -0.010086 0.046956 0.000299 -0.022223
# 5 0.001818 0.002786 -0.001415 0.000299 0.030975 -0.005029
# 6 -0.031092 0.005581 0.015652 -0.022223 -0.005029 0.069099
#
#
# Mechanical properties :
#
#
# Convention : Reuss Voigt Hill
#
# Bulk Modulus (GPa) = 47.87133 57.69776 52.78454
# Shear Modulus (GPa) = 18.76034 30.52120 24.64077
#
# Velocity S-wave (km/s) = 2.98760 3.81068 3.42396
# Velocity P-wave (km/s) = 5.88872 6.84200 6.38318
#
# Compressibility (1/GPa) = 0.02088933
#
# Stress axis : x y z
#
# Youngs Moduli (GPa) = 29.11657 53.41590 73.30214
#
# Poissons Ratio (x) = 0.47234 0.91505
# Poissons Ratio (y) = 0.25747 0.11607
# Poissons Ratio (z) = 0.36347 0.08458
#
# Static dielectric constant tensor:
#      x y z
#    x 4.817490 0.844100 0.258760 
#    y 0.844100 4.217980 0.561480 
#    z 0.258760 0.561480 3.899080 
# 
# 
# High freq. dielectric constant tensor:
#      x y z
#    x 1.832320 0.014960 -0.012440 
#    y 0.014960 1.822200 0.011890 
#    z -0.012440 0.011890 1.829010 
# 
# From -- ./inp_files/47140.got.cif
#   From: 2010.06.25/outbox.cif.g09.slc.cpg/sg2_24_cif.got.tgz:47140.got - 2010.06.27 13:26:56.
