data_PCOD8013456
_publ_section_title
;
Structure prediction by ZEFSAII (Michael W. Deem and Ramdas Pophale) SiO2 
 PCOD8013456
Probable space group: P -1
;
_chemical_formula_sum "Si O2"
_cell_formula_units_Z 16
_cell_length_a 5.468906
_cell_length_b 8.574054
_cell_length_c 25.069852
_cell_angle_alpha 50.647305
_cell_angle_beta 86.791968
_cell_angle_gamma 57.258511
_cell_volume 686.119175
_symmetry_space_group_name_H-M "P -1"
_symmetry_group_IT_number 2
_symmetry_cell_setting 'triclinic'
loop_
_space_group_symop_operation_xyz
x,y,z
-x,-y,-z
loop_
_atom_site_type_symbol
_atom_site_label
_atom_site_fract_x
_atom_site_fract_y
_atom_site_fract_z
Si Si1 0.261106 0.722719 0.325366
Si Si2 0.317144 0.285894 0.465934
Si Si3 0.352160 0.493877 0.949482
Si Si4 0.405606 0.260632 0.589946
Si Si5 0.703903 0.314129 0.877479
Si Si6 0.672471 0.960379 0.812272
Si Si7 0.544994 0.147552 0.258484
Si Si8 0.566806 0.974801 0.090820
O O1 0.369960 0.431559 0.389252
O O2 0.314504 0.779486 0.372167
O O3 0.438368 0.757578 0.269577
O O4 0.886175 0.953901 0.266169
O O5 0.472831 0.261022 0.526615
O O6 0.935131 0.461842 0.444545
O O7 0.500000 0.000000 0.500000
O O8 0.600330 0.417467 0.916387
O O9 0.009313 0.781247 0.879114
O O10 0.500000 0.500000 0.000000
O O11 0.310054 0.273814 0.005006
O O12 0.433709 0.005024 0.656360
O O13 0.556421 0.570703 0.785473
O O14 0.549981 0.183869 0.890702
O O15 0.090211 0.126598 0.912436
O O16 0.706876 0.798711 0.795044
O O17 0.407968 0.033488 0.843108
#
# Coordination Sequence:
#
# PCOD8013456 Si02
#       8
#     2   2   2   2   2   2   2   2
#     4  10  21  42  70  93 135 181 234 281 343 426
#     4  10  21  40  68 103 136 177 226 288 353 423
#     4  12  25  48  74  98 132 191 241 290 358 437
#     4   9  21  41  66 100 139 179 230 284 348 427
#     4  12  26  46  68 102 146 178 231 301 368 412
#     4  11  24  45  69  95 133 187 242 282 353 435
#     4  10  22  43  69  93 135 191 230 280 347 428
#     4  12  28  43  68 106 141 177 235 310 361 416
#
# _framework density 23.319562999999999
#
# number of rings (size 3 to 8) (size 9 to 14) (size 15 to 20)
#    0.000    1.250    1.250    3.750    3.500    3.500 
#    4.500    0.000    0.000    0.000    0.000    0.000 
#    0.000    0.000    0.000    0.000    0.000    0.000 
#
# Total GULP energy -198314.379185 kJ/mol
# GULP energy per Si atom -12394.648699 kJ/mol
# Density = 2.326649 g / cm^3
# Si number density = 23.319563 Si / 1000 Ang^3
#
#
#
# Elastic Constant Matrix: (Units=GPa)
#
#
# Indices 1 2 3 4 5 6 
#
# 1 87.8628 21.8073 26.6296 -9.1491 -3.2533 9.6109
# 2 21.8073 87.5162 39.7172 -12.5971 -5.2545 1.5772
# 3 26.6296 39.7172 128.4857 -15.9319 -6.6523 5.3746
# 4 -9.1491 -12.5971 -15.9319 39.2296 11.7945 -18.7207
# 5 -3.2533 -5.2545 -6.6523 11.7945 40.3223 3.6297
# 6 9.6109 1.5772 5.3746 -18.7207 3.6297 26.1633
#
#
#
# Elastic Compliance Matrix: (Units=1/GPa)
#
#
# Indices 1 2 3 4 5 6 
#
# 1 0.013047 -0.002462 -0.001833 -0.001580 0.001395 -0.005592
# 2 -0.002462 0.014205 -0.003498 0.004865 -0.000739 0.004350
# 3 -0.001833 -0.003498 0.009549 0.002693 0.000109 0.000834
# 4 -0.001580 0.004865 0.002693 0.051886 -0.017766 0.039325
# 5 0.001395 -0.000739 0.000109 -0.017766 0.031614 -0.017588
# 6 -0.005592 0.004350 0.000834 0.039325 -0.017588 0.070420
#
#
# Mechanical properties :
#
#
# Convention : Reuss Voigt Hill
#
# Bulk Modulus (GPa) = 47.13636 53.35255 50.24445
# Shear Modulus (GPa) = 23.43270 35.52375 29.47822
#
# Velocity S-wave (km/s) = 3.17338 3.90724 3.55927
# Velocity P-wave (km/s) = 5.80381 6.57905 6.20355
#
# Compressibility (1/GPa) = 0.02121505
#
# Stress axis : x y z
#
# Youngs Moduli (GPa) = 76.64762 70.39883 104.72712
#
# Poissons Ratio (x) = 0.17333 0.19194
# Poissons Ratio (y) = 0.18872 0.36630
# Poissons Ratio (z) = 0.14047 0.24623
#
# Static dielectric constant tensor:
#      x y z
#    x 4.214380 0.027490 -0.289930 
#    y 0.027490 3.998350 -0.062770 
#    z -0.289930 -0.062770 4.661210 
# 
# 
# High freq. dielectric constant tensor:
#      x y z
#    x 1.923190 0.005920 -0.014090 
#    y 0.005920 1.891220 -0.002300 
#    z -0.014090 -0.002300 1.950370 
# 
# From -- ./inp_files/603983.got.cif
#   From: 2010.06.25/outbox.cif.g09.slc.cpg/sg2_302_cif.got.tgz:603983.got - 2010.06.27 13:26:56.
