data_PCOD8013743
_publ_section_title
;
Structure prediction by ZEFSAII (Michael W. Deem and Ramdas Pophale) SiO2 
 PCOD8013743
Probable space group: P -1
;
_chemical_formula_sum "Si O2"
_cell_formula_units_Z 16
_cell_length_a 8.007575
_cell_length_b 16.796977
_cell_length_c 11.715384
_cell_angle_alpha 135.519445
_cell_angle_beta 96.020318
_cell_angle_gamma 117.831319
_cell_volume 690.629471
_symmetry_space_group_name_H-M "P -1"
_symmetry_group_IT_number 2
_symmetry_cell_setting 'triclinic'
loop_
_space_group_symop_operation_xyz
x,y,z
-x,-y,-z
loop_
_atom_site_type_symbol
_atom_site_label
_atom_site_fract_x
_atom_site_fract_y
_atom_site_fract_z
Si Si1 0.457907 0.160049 0.014094
Si Si2 0.066667 0.227257 0.370407
Si Si3 0.503476 0.306124 0.400362
Si Si4 0.006432 0.653601 0.201016
Si Si5 0.172219 0.194020 0.668038
Si Si6 0.596711 0.427200 0.121199
Si Si7 0.978400 0.358721 0.313981
Si Si8 0.377193 0.668394 0.310111
O O1 0.467500 0.193783 0.184294
O O2 0.493803 0.288471 0.068931
O O3 0.712511 0.209710 0.062561
O O4 0.173055 0.952307 0.754220
O O5 0.213925 0.212070 0.287824
O O6 0.301277 0.401109 0.643247
O O7 0.935995 0.255610 0.312990
O O8 0.742413 0.521878 0.607950
O O9 0.587531 0.294038 0.513974
O O10 0.010265 0.792264 0.362387
O O11 0.834604 0.502607 0.136782
O O12 0.302273 0.753636 0.337019
O O13 0.866353 0.544699 0.959906
O O14 0.343629 0.235426 0.617328
O O15 0.357643 0.336700 0.928973
O O16 0.000000 0.000000 0.500000
O O17 0.000000 0.500000 0.500000
#
# Coordination Sequence:
#
# PCOD8013743 Si02
#       8
#     2   2   2   2   2   2   2   2
#     4  11  25  41  65 103 132 178 229 269 340 416
#     4  12  23  41  68  94 139 182 220 281 338 401
#     4  11  22  41  66 100 138 171 226 279 341 407
#     4  10  22  44  69  99 132 180 231 276 350 402
#     4  11  25  45  69 102 136 177 234 285 340 417
#     4  11  23  42  72  93 136 179 223 278 344 403
#     4  10  21  41  60  92 137 178 223 265 327 406
#     4  10  22  42  71  97 131 183 223 286 342 409
#
# _framework density 23.167269999999998
#
# number of rings (size 3 to 8) (size 9 to 14) (size 15 to 20)
#    0.000    1.250    2.500    4.875    5.250    0.500 
#    0.000    0.000    0.000    0.000    0.000    0.000 
#    0.000    0.000    0.000    0.000    0.000    0.000 
#
# Total GULP energy -198284.112785 kJ/mol
# GULP energy per Si atom -12392.757049 kJ/mol
# Density = 2.311454 g / cm^3
# Si number density = 23.167270 Si / 1000 Ang^3
#
#
#
# Elastic Constant Matrix: (Units=GPa)
#
#
# Indices 1 2 3 4 5 6 
#
# 1 116.3116 25.5504 13.0712 12.5903 5.7315 -17.1984
# 2 25.5504 110.9345 45.6790 6.7104 -6.2280 -14.1666
# 3 13.0712 45.6790 76.8886 13.8243 0.9817 -2.9957
# 4 12.5903 6.7104 13.8243 49.5068 6.3144 0.8835
# 5 5.7315 -6.2280 0.9817 6.3144 23.6734 6.9721
# 6 -17.1984 -14.1666 -2.9957 0.8835 6.9721 25.8824
#
#
#
# Elastic Compliance Matrix: (Units=1/GPa)
#
#
# Indices 1 2 3 4 5 6 
#
# 1 0.010489 -0.001539 -0.000169 -0.001957 -0.004599 0.007414
# 2 -0.001539 0.013163 -0.007462 0.000261 0.002728 0.004574
# 3 -0.000169 -0.007462 0.018105 -0.003823 -0.001165 -0.001657
# 4 -0.001957 0.000261 -0.003823 0.022381 -0.004966 -0.001026
# 5 -0.004599 0.002728 -0.001165 -0.004966 0.049850 -0.014957
# 6 0.007414 0.004574 -0.001657 -0.001026 -0.014957 0.049939
#
#
# Mechanical properties :
#
#
# Convention : Reuss Voigt Hill
#
# Bulk Modulus (GPa) = 42.70424 52.52620 47.61522
# Shear Modulus (GPa) = 26.30552 34.46812 30.38682
#
# Velocity S-wave (km/s) = 3.37331 3.86138 3.62557
# Velocity P-wave (km/s) = 5.80046 6.52703 6.17444
#
# Compressibility (1/GPa) = 0.02341688
#
# Stress axis : x y z
#
# Youngs Moduli (GPa) = 95.33373 75.97092 55.23219
#
# Poissons Ratio (x) = 0.11694 0.00935
# Poissons Ratio (y) = 0.14674 0.41214
# Poissons Ratio (z) = 0.01614 0.56689
#
# Static dielectric constant tensor:
#      x y z
#    x 4.318210 0.265040 0.292830 
#    y 0.265040 4.263710 0.063970 
#    z 0.292830 0.063970 4.412430 
# 
# 
# High freq. dielectric constant tensor:
#      x y z
#    x 1.917450 -0.000760 0.019780 
#    y -0.000760 1.909460 -0.011200 
#    z 0.019780 -0.011200 1.906130 
# 
# From -- ./inp_files/402228.got.cif
#   From: 2010.06.25/outbox.cif.g09.slc.cpg/sg2_202_cif.got.tgz:402228.got - 2010.06.27 13:26:56.
