data_PCOD8013725
_publ_section_title
;
Structure prediction by ZEFSAII (Michael W. Deem and Ramdas Pophale) SiO2 
 PCOD8013725
Probable space group: P -1
;
_chemical_formula_sum "Si O2"
_cell_formula_units_Z 16
_cell_length_a 9.535472
_cell_length_b 13.718595
_cell_length_c 13.721338
_cell_angle_alpha 40.529852
_cell_angle_beta 104.914358
_cell_angle_gamma 75.100747
_cell_volume 781.049351
_symmetry_space_group_name_H-M "P -1"
_symmetry_group_IT_number 2
_symmetry_cell_setting 'triclinic'
loop_
_space_group_symop_operation_xyz
x,y,z
-x,-y,-z
loop_
_atom_site_type_symbol
_atom_site_label
_atom_site_fract_x
_atom_site_fract_y
_atom_site_fract_z
Si Si1 0.160709 0.381235 0.738275
Si Si2 0.160736 0.761558 0.118827
Si Si3 0.265356 0.972899 0.081148
Si Si4 0.354901 0.392076 0.945264
Si Si5 0.441539 0.882820 0.617271
Si Si6 0.265412 0.418675 0.527163
Si Si7 0.354590 0.554868 0.107602
Si Si8 0.970591 0.186127 0.314046
O O1 0.273846 0.336491 0.892831
O O2 0.237981 0.436536 0.626013
O O3 0.905785 0.569019 0.560224
O O4 0.226177 0.165062 0.882118
O O5 0.238198 0.873680 0.063668
O O6 0.226504 0.617494 0.335124
O O7 0.273386 0.607296 0.163127
O O8 0.905797 0.939740 0.931131
O O9 0.499943 0.798871 0.298489
O O10 0.500650 0.409443 0.910855
O O11 0.150941 0.623546 0.774667
O O12 0.478632 0.207639 0.190124
O O13 0.520662 0.690422 0.707437
O O14 0.500000 0.000000 0.500000
O O15 0.195248 0.086838 0.413512
O O16 0.150667 0.724681 0.876650
O O17 0.000000 0.000000 0.500000
#
# Coordination Sequence:
#
# PCOD8013725 Si02
#       8
#     2   2   2   2   2   2   2   2
#     4  10  23  39  62  92 123 164 208 254 307 369
#     4  10  23  39  62  92 123 164 208 254 307 369
#     4  10  21  41  59  86 130 162 205 257 306 363
#     4  11  23  42  67  92 126 163 214 257 308 383
#     4  11  25  43  67  97 129 163 203 269 324 366
#     4  10  21  41  59  86 130 162 205 257 306 363
#     4  11  23  42  67  92 126 163 214 257 308 383
#     4  11  21  45  67  94 123 163 211 260 311 387
#
# _framework density 20.485261999999999
#
# number of rings (size 3 to 8) (size 9 to 14) (size 15 to 20)
#    0.000    1.500    2.500    2.250    0.000    9.000 
#    9.000    0.000    0.000    0.000    0.000    0.000 
#    0.000    0.000    0.000    0.000    0.000    0.000 
#
# Total GULP energy -198366.409015 kJ/mol
# GULP energy per Si atom -12397.900563 kJ/mol
# Density = 2.043864 g / cm^3
# Si number density = 20.485262 Si / 1000 Ang^3
#
#
#
# Elastic Constant Matrix: (Units=GPa)
#
#
# Indices 1 2 3 4 5 6 
#
# 1 155.2139 53.2439 69.7964 -2.7738 16.7459 -3.6855
# 2 53.2439 117.6450 44.9589 11.6848 0.3649 -3.5067
# 3 69.7964 44.9589 109.7262 -9.4158 10.4393 1.0033
# 4 -2.7738 11.6848 -9.4158 13.2410 -0.1687 7.9053
# 5 16.7459 0.3649 10.4393 -0.1687 51.7338 -5.2134
# 6 -3.6855 -3.5067 1.0033 7.9053 -5.2134 27.0579
#
#
#
# Elastic Compliance Matrix: (Units=1/GPa)
#
#
# Indices 1 2 3 4 5 6 
#
# 1 0.009796 -0.002536 -0.004974 0.000308 -0.002078 0.000700
# 2 -0.002536 0.015045 -0.007029 -0.024503 0.003021 0.009606
# 3 -0.004974 -0.007029 0.017507 0.023292 -0.002762 -0.009575
# 4 0.000308 -0.024503 0.023292 0.141807 -0.008915 -0.047146
# 5 -0.002078 0.003021 -0.002762 -0.008915 0.021205 0.006901
# 6 0.000700 0.009606 -0.009575 -0.047146 0.006901 0.053757
#
#
# Mechanical properties :
#
#
# Convention : Reuss Voigt Hill
#
# Bulk Modulus (GPa) = 75.36566 79.84260 77.60413
# Shear Modulus (GPa) = 17.08718 32.71227 24.89973
#
# Velocity S-wave (km/s) = 2.89125 4.00042 3.49018
# Velocity P-wave (km/s) = 6.92934 7.77162 7.36254
#
# Compressibility (1/GPa) = 0.01326864
#
# Stress axis : x y z
#
# Youngs Moduli (GPa) = 102.08599 66.46864 57.12029
#
# Poissons Ratio (x) = 0.16854 0.28413
# Poissons Ratio (y) = 0.25886 0.40152
# Poissons Ratio (z) = 0.50781 0.46723
#
# Static dielectric constant tensor:
#      x y z
#    x 3.908100 -0.027010 0.132710 
#    y -0.027010 3.472880 -0.067350 
#    z 0.132710 -0.067350 3.794110 
# 
# 
# High freq. dielectric constant tensor:
#      x y z
#    x 1.823920 -0.001530 0.007540 
#    y -0.001530 1.779600 -0.006470 
#    z 0.007540 -0.006470 1.811040 
# 
# From -- ./inp_files/505056.got.cif
#   From: 2010.06.25/outbox.cif.g09.slc.cpg/sg2_253_cif.got.tgz:505056.got - 2010.06.27 13:26:56.
