data_PCOD8013201
_publ_section_title
;
Structure prediction by ZEFSAII (Michael W. Deem and Ramdas Pophale) SiO2 
 PCOD8013201
Probable space group: P -1
;
_chemical_formula_sum "Si O2"
_cell_formula_units_Z 16
_cell_length_a 8.626105
_cell_length_b 13.555457
_cell_length_c 9.397925
_cell_angle_alpha 48.938084
_cell_angle_beta 99.715803
_cell_angle_gamma 80.862041
_cell_volume 761.031169
_symmetry_space_group_name_H-M "P -1"
_symmetry_group_IT_number 2
_symmetry_cell_setting 'triclinic'
loop_
_space_group_symop_operation_xyz
x,y,z
-x,-y,-z
loop_
_atom_site_type_symbol
_atom_site_label
_atom_site_fract_x
_atom_site_fract_y
_atom_site_fract_z
Si Si1 0.679607 0.793300 0.529731
Si Si2 0.007303 0.277733 0.180813
Si Si3 0.011035 0.939213 0.214769
Si Si4 0.322474 0.805338 0.548808
Si Si5 0.881926 0.608094 0.173265
Si Si6 0.125481 0.307242 0.600821
Si Si7 0.690067 0.460348 0.121092
Si Si8 0.181540 0.986564 0.612501
O O1 0.848222 0.690353 0.735596
O O2 0.517181 0.776646 0.585919
O O3 0.700511 0.750598 0.407315
O O4 0.668737 0.953016 0.396769
O O5 0.040014 0.299196 0.999550
O O6 0.826860 0.394727 0.079268
O O7 0.027328 0.113147 0.380791
O O8 0.979634 0.793319 0.346959
O O9 0.883318 0.042043 0.214376
O O10 0.201438 0.917931 0.314299
O O11 0.000000 0.000000 0.000000
O O12 0.288375 0.663477 0.645638
O O13 0.270581 0.847974 0.664713
O O14 0.817987 0.696313 0.223648
O O15 0.724872 0.586375 0.087953
O O16 0.019838 0.460405 0.379507
O O17 0.500000 0.500000 0.000000
#
# Coordination Sequence:
#
# PCOD8013201 Si02
#       8
#     2   2   2   2   2   2   2   2
#     4   9  20  40  63  90 123 163 202 261 307 369
#     4  10  21  40  66  90 121 164 216 245 318 365
#     4  11  23  40  63  91 125 165 203 261 323 360
#     4  12  21  39  64  94 127 155 212 270 306 358
#     4  11  21  40  64  88 121 174 208 243 307 389
#     4  10  22  42  61  85 129 168 206 245 312 385
#     4  12  24  37  62 100 127 156 210 268 305 361
#     4   9  21  41  63  91 122 159 210 254 310 375
#
# _framework density 21.024104000000001
#
# number of rings (size 3 to 8) (size 9 to 14) (size 15 to 20)
#    0.750    0.750    3.750    1.875    3.500    0.000 
#    0.000    6.875    0.000    0.000    0.000    0.000 
#    0.000    0.000    0.000    0.000    0.000    0.000 
#
# Total GULP energy -198226.369879 kJ/mol
# GULP energy per Si atom -12389.148117 kJ/mol
# Density = 2.097625 g / cm^3
# Si number density = 21.024104 Si / 1000 Ang^3
#
#
#
# Elastic Constant Matrix: (Units=GPa)
#
#
# Indices 1 2 3 4 5 6 
#
# 1 121.9264 41.5353 32.9503 14.2092 0.1003 -23.6250
# 2 41.5353 96.5008 29.9180 23.6062 2.7426 -16.7726
# 3 32.9503 29.9180 99.3818 23.9981 -15.4234 -16.1443
# 4 14.2092 23.6062 23.9981 32.9695 -1.1175 -6.1636
# 5 0.1003 2.7426 -15.4234 -1.1175 30.1748 4.9503
# 6 -23.6250 -16.7726 -16.1443 -6.1636 4.9503 24.6869
#
#
#
# Elastic Compliance Matrix: (Units=1/GPa)
#
#
# Indices 1 2 3 4 5 6 
#
# 1 0.011220 -0.002781 -0.001892 -0.000038 -0.002068 0.008015
# 2 -0.002781 0.014837 -0.001354 -0.007559 -0.003178 0.005283
# 3 -0.001892 -0.001354 0.014641 -0.007990 0.006743 0.003497
# 4 -0.000038 -0.007559 -0.007990 0.041579 -0.001917 0.000368
# 5 -0.002068 -0.003178 0.006743 -0.001917 0.038099 -0.007847
# 6 0.008015 0.005283 0.003497 0.000368 -0.007847 0.055720
#
#
# Mechanical properties :
#
#
# Convention : Reuss Voigt Hill
#
# Bulk Modulus (GPa) = 34.91269 58.51292 46.71280
# Shear Modulus (GPa) = 25.29097 31.79326 28.54212
#
# Velocity S-wave (km/s) = 3.47212 3.89296 3.68855
# Velocity P-wave (km/s) = 5.71981 6.93532 6.35668
#
# Compressibility (1/GPa) = 0.02864288
#
# Stress axis : x y z
#
# Youngs Moduli (GPa) = 89.12864 67.39794 68.30078
#
# Poissons Ratio (x) = 0.18745 0.12925
# Poissons Ratio (y) = 0.24788 0.09249
# Poissons Ratio (z) = 0.16866 0.09126
#
# Static dielectric constant tensor:
#      x y z
#    x 3.804070 0.176360 -0.241050 
#    y 0.176360 3.989070 0.121970 
#    z -0.241050 0.121970 3.789580 
# 
# 
# High freq. dielectric constant tensor:
#      x y z
#    x 1.824910 0.009460 -0.020450 
#    y 0.009460 1.824740 0.003140 
#    z -0.020450 0.003140 1.805130 
# 
# From -- ./inp_files/199589.got.cif
#   From: 2010.06.25/outbox.cif.g09.slc.cpg/sg2_100_cif.got.tgz:199589.got - 2010.06.27 13:26:56.
