data_PCOD8013203
_publ_section_title
;
Structure prediction by ZEFSAII (Michael W. Deem and Ramdas Pophale) SiO2 
 PCOD8013203
Probable space group: P -1
;
_chemical_formula_sum "Si O2"
_cell_formula_units_Z 16
_cell_length_a 8.991225
_cell_length_b 14.140115
_cell_length_c 13.328037
_cell_angle_alpha 130.174358
_cell_angle_beta 130.989046
_cell_angle_gamma 39.631625
_cell_volume 780.616871
_symmetry_space_group_name_H-M "P -1"
_symmetry_group_IT_number 2
_symmetry_cell_setting 'triclinic'
loop_
_space_group_symop_operation_xyz
x,y,z
-x,-y,-z
loop_
_atom_site_type_symbol
_atom_site_label
_atom_site_fract_x
_atom_site_fract_y
_atom_site_fract_z
Si Si1 0.600539 0.995894 0.649496
Si Si2 0.833956 0.897489 0.323595
Si Si3 0.765624 0.415427 0.185158
Si Si4 0.077011 0.406202 0.869383
Si Si5 0.549489 0.295496 0.882948
Si Si6 0.176758 0.447804 0.343662
Si Si7 0.887933 0.301314 0.370338
Si Si8 0.259373 0.814863 0.603084
O O1 0.411128 0.012899 0.656820
O O2 0.641201 0.127721 0.771280
O O3 0.500000 0.000000 0.500000
O O4 0.859062 0.830047 0.662972
O O5 0.874871 0.753427 0.187040
O O6 0.072938 0.826658 0.449408
O O7 0.794189 0.017848 0.304288
O O8 0.544290 0.591396 0.177046
O O9 0.711608 0.404725 0.270659
O O10 0.031232 0.379190 0.262708
O O11 0.764485 0.290703 0.031519
O O12 0.325935 0.371703 0.914456
O O13 0.866046 0.499528 0.755204
O O14 0.000000 0.500000 0.000000
O O15 0.073852 0.599000 0.469072
O O16 0.465198 0.319941 0.403547
O O17 0.782601 0.223344 0.330621
#
# Coordination Sequence:
#
# PCOD8013203 Si02
#       8
#     2   2   2   2   2   2   2   2
#     4  11  20  41  67  91 126 160 209 259 311 373
#     4  10  22  42  62  92 127 163 204 260 314 369
#     4  10  22  41  63  91 125 163 210 255 318 365
#     4  10  21  40  66  90 123 171 206 255 317 372
#     4   9  22  42  63  93 126 161 211 258 308 383
#     4  11  23  42  61  96 130 158 214 265 307 375
#     4  12  23  39  65  97 123 167 210 260 318 367
#     4  11  23  40  61  93 129 160 205 263 310 369
#
# _framework density 20.496611000000001
#
# number of rings (size 3 to 8) (size 9 to 14) (size 15 to 20)
#    0.000    1.500    2.500    3.000    1.750    1.500 
#    6.750    0.625    0.000    0.000    0.000    0.000 
#    0.000    0.000    0.000    0.000    0.000    0.000 
#
# Total GULP energy -198414.798299 kJ/mol
# GULP energy per Si atom -12400.924894 kJ/mol
# Density = 2.044996 g / cm^3
# Si number density = 20.496611 Si / 1000 Ang^3
#
#
#
# Elastic Constant Matrix: (Units=GPa)
#
#
# Indices 1 2 3 4 5 6 
#
# 1 116.1875 68.1374 67.1304 2.7835 4.9568 21.7435
# 2 68.1374 116.7989 68.4178 10.7710 -2.0923 4.8797
# 3 67.1304 68.4178 136.6943 16.0828 -8.5735 15.3150
# 4 2.7835 10.7710 16.0828 29.8010 2.1766 -1.6768
# 5 4.9568 -2.0923 -8.5735 2.1766 36.2238 -2.6877
# 6 21.7435 4.8797 15.3150 -1.6768 -2.6877 42.5117
#
#
#
# Elastic Compliance Matrix: (Units=1/GPa)
#
#
# Indices 1 2 3 4 5 6 
#
# 1 0.016795 -0.007233 -0.004624 0.003517 -0.004485 -0.006239
# 2 -0.007233 0.015303 -0.004108 -0.002543 0.001307 0.003405
# 3 -0.004624 -0.004108 0.012681 -0.005286 0.003587 -0.001714
# 4 0.003517 -0.002543 -0.005286 0.037382 -0.004005 0.001618
# 5 -0.004485 0.001307 0.003587 -0.004005 0.029575 0.002563
# 6 -0.006239 0.003405 -0.001714 0.001618 0.002563 0.027166
#
#
# Mechanical properties :
#
#
# Convention : Reuss Voigt Hill
#
# Bulk Modulus (GPa) = 77.82156 86.33911 82.08034
# Shear Modulus (GPa) = 28.55262 32.77363 30.66312
#
# Velocity S-wave (km/s) = 3.73640 4.00306 3.87202
# Velocity P-wave (km/s) = 7.52759 7.97377 7.75389
#
# Compressibility (1/GPa) = 0.01284991
#
# Stress axis : x y z
#
# Youngs Moduli (GPa) = 59.54261 65.34586 78.85763
#
# Poissons Ratio (x) = 0.47266 0.36461
# Poissons Ratio (y) = 0.43069 0.32392
# Poissons Ratio (z) = 0.27530 0.26842
#
# Static dielectric constant tensor:
#      x y z
#    x 3.877730 0.180910 0.214620 
#    y 0.180910 3.787170 -0.034700 
#    z 0.214620 -0.034700 3.615880 
# 
# 
# High freq. dielectric constant tensor:
#      x y z
#    x 1.806630 0.013530 0.011650 
#    y 0.013530 1.805130 -0.000320 
#    z 0.011650 -0.000320 1.793470 
# 
# From -- ./inp_files/239566.got.cif
#   From: 2010.06.25/outbox.cif.g09.slc.cpg/sg2_120_cif.got.tgz:239566.got - 2010.06.27 13:26:56.
