data_PCOD8013136
_publ_section_title
;
Structure prediction by ZEFSAII (Michael W. Deem and Ramdas Pophale) SiO2 
 PCOD8013136
Probable space group: P -1
;
_chemical_formula_sum "Si O2"
_cell_formula_units_Z 16
_cell_length_a 8.729356
_cell_length_b 5.094938
_cell_length_c 16.024720
_cell_angle_alpha 97.779228
_cell_angle_beta 98.540611
_cell_angle_gamma 66.771028
_cell_volume 645.354254
_symmetry_space_group_name_H-M "P -1"
_symmetry_group_IT_number 2
_symmetry_cell_setting 'triclinic'
loop_
_space_group_symop_operation_xyz
x,y,z
-x,-y,-z
loop_
_atom_site_type_symbol
_atom_site_label
_atom_site_fract_x
_atom_site_fract_y
_atom_site_fract_z
Si Si1 0.471794 0.740275 0.442216
Si Si2 0.270167 0.543743 0.817173
Si Si3 0.155936 0.209712 0.394657
Si Si4 0.708967 0.024329 0.289028
Si Si5 0.650232 0.330034 0.858064
Si Si6 0.326053 0.248786 0.247585
Si Si7 0.106796 0.676400 0.983791
Si Si8 0.190827 0.397456 0.586788
O O1 0.500000 0.500000 0.500000
O O2 0.621558 0.599385 0.378602
O O3 0.500000 0.000000 0.500000
O O4 0.281439 0.869264 0.394233
O O5 0.262865 0.245562 0.778702
O O6 0.453646 0.513907 0.859860
O O7 0.142716 0.639840 0.887198
O O8 0.216205 0.769553 0.744974
O O9 0.199300 0.332048 0.318487
O O10 0.182626 0.375109 0.485367
O O11 0.953575 0.301345 0.381456
O O12 0.811076 0.888146 0.377840
O O13 0.510277 0.174343 0.298606
O O14 0.728243 0.462913 0.797966
O O15 0.689049 0.000902 0.823035
O O16 0.723907 0.383379 0.953492
O O17 0.000000 0.500000 0.000000
O O18 0.000000 0.000000 0.000000
#
# Coordination Sequence:
#
# PCOD8013136 Si02
#       8
#     2   2   2   2   2   2   2   2
#     4  10  22  40  62  86 122 165 216 275 322 386
#     4  10  23  43  68  95 131 174 222 269 329 404
#     4  10  22  41  65  96 134 177 227 277 343 394
#     4  10  21  40  65  95 128 172 224 278 332 390
#     4  10  23  43  68  95 130 174 221 267 331 401
#     4  10  21  40  65  95 128 171 222 278 330 393
#     4  12  25  42  67 100 136 170 213 269 336 399
#     4  10  22  41  65  96 133 178 227 280 340 396
#
# _framework density 24.792580999999998
#
# number of rings (size 3 to 8) (size 9 to 14) (size 15 to 20)
#    0.000    1.750    1.250    1.875    0.000    7.500 
#    0.000   10.000    0.000    0.000    0.000    0.000 
#    0.000    0.000    0.000    0.000    0.000    0.000 
#
# Total GULP energy -198252.398026 kJ/mol
# GULP energy per Si atom -12390.774877 kJ/mol
# Density = 2.473615 g / cm^3
# Si number density = 24.792581 Si / 1000 Ang^3
#
#
#
# Elastic Constant Matrix: (Units=GPa)
#
#
# Indices 1 2 3 4 5 6 
#
# 1 111.7556 62.3662 37.6250 -0.0742 -29.2969 -21.7394
# 2 62.3662 95.2674 3.7165 -21.5675 -15.9828 -11.7739
# 3 37.6250 3.7165 93.4259 -0.8708 -24.7022 -2.5499
# 4 -0.0742 -21.5675 -0.8708 34.5968 -0.9294 -0.0391
# 5 -29.2969 -15.9828 -24.7022 -0.9294 52.5527 8.5333
# 6 -21.7394 -11.7739 -2.5499 -0.0391 8.5333 49.5994
#
#
#
# Elastic Compliance Matrix: (Units=1/GPa)
#
#
# Indices 1 2 3 4 5 6 
#
# 1 0.021230 -0.014552 -0.007099 -0.009116 0.003109 0.004944
# 2 -0.014552 0.023371 0.005578 0.014732 0.002021 -0.000880
# 3 -0.007099 0.005578 0.014648 0.003963 0.005002 -0.001892
# 4 -0.009116 0.014732 0.003963 0.038222 0.002037 -0.000615
# 5 0.003109 0.002021 0.005002 0.002037 0.024095 -0.002045
# 6 0.004944 -0.000880 -0.001892 -0.000615 -0.002045 0.022374
#
#
# Mechanical properties :
#
#
# Convention : Reuss Voigt Hill
#
# Bulk Modulus (GPa) = 36.89513 56.42937 46.66225
# Shear Modulus (GPa) = 27.00951 40.46585 33.73768
#
# Velocity S-wave (km/s) = 3.30422 4.04440 3.69290
# Velocity P-wave (km/s) = 5.42872 6.67979 6.08648
#
# Compressibility (1/GPa) = 0.02710385
#
# Stress axis : x y z
#
# Youngs Moduli (GPa) = 47.10417 42.78800 68.26642
#
# Poissons Ratio (x) = 0.62265 0.48462
# Poissons Ratio (y) = 0.68546 -0.38082
# Poissons Ratio (z) = 0.33439 -0.23869
#
# Static dielectric constant tensor:
#      x y z
#    x 5.043260 -0.531130 -0.130470 
#    y -0.531130 4.895070 -0.156330 
#    z -0.130470 -0.156330 4.065910 
# 
# 
# High freq. dielectric constant tensor:
#      x y z
#    x 1.984950 -0.009520 -0.006800 
#    y -0.009520 1.991550 -0.006770 
#    z -0.006800 -0.006770 1.991410 
# 
# From -- ./inp_files/488433.got.cif
#   From: 2010.06.25/outbox.cif.g09.slc.cpg/sg2_245_cif.got.tgz:488433.got - 2010.06.27 13:26:56.
