data_PCOD8013067
_publ_section_title
;
Structure prediction by ZEFSAII (Michael W. Deem and Ramdas Pophale) SiO2 
 PCOD8013067
Probable space group: P -1
;
_chemical_formula_sum "Si O2"
_cell_formula_units_Z 10
_cell_length_a 6.999679
_cell_length_b 10.581474
_cell_length_c 15.667399
_cell_angle_alpha 37.565261
_cell_angle_beta 110.438348
_cell_angle_gamma 132.901623
_cell_volume 468.785974
_symmetry_space_group_name_H-M "P -1"
_symmetry_group_IT_number 2
_symmetry_cell_setting 'triclinic'
loop_
_space_group_symop_operation_xyz
x,y,z
-x,-y,-z
loop_
_atom_site_type_symbol
_atom_site_label
_atom_site_fract_x
_atom_site_fract_y
_atom_site_fract_z
Si Si1 0.089256 0.995899 0.921032
Si Si2 0.922054 0.437120 0.119030
Si Si3 0.267397 0.423887 0.302935
Si Si4 0.744073 0.003944 0.548855
Si Si5 0.343931 0.177101 0.179061
O O1 0.429957 0.240958 0.825235
O O2 0.935212 0.048121 0.804464
O O3 0.000000 0.000000 0.000000
O O4 0.993190 0.692905 0.048965
O O5 0.574766 0.156320 0.216666
O O6 0.088128 0.364477 0.223553
O O7 0.000000 0.500000 0.000000
O O8 0.064466 0.326410 0.405941
O O9 0.326494 0.221722 0.411911
O O10 0.500000 0.000000 0.500000
O O11 0.754310 0.898302 0.698088
O O12 0.500000 0.500000 0.000000
#
# Coordination Sequence:
#
# PCOD8013067 Si02
#       5
#     2   2   2   2   2
#     4  11  23  40  67 102 136 169 224 281 326 387
#     4  11  21  40  67  98 131 173 226 271 326 398
#     4  11  23  39  69  95 131 180 222 270 337 391
#     4  11  23  44  66  94 139 179 217 272 341 401
#     4  10  21  40  65  91 130 175 216 267 326 393
#
# _framework density 21.331696999999998
#
# number of rings (size 3 to 8) (size 9 to 14) (size 15 to 20)
#    0.000    1.200    2.000    6.600    0.000    0.800 
#    0.000    1.000    0.000    0.000    0.000    0.000 
#    0.000    0.000    0.000    0.000    0.000    0.000 
#
# Total GULP energy -123925.792250 kJ/mol
# GULP energy per Si atom -12392.579225 kJ/mol
# Density = 2.128315 g / cm^3
# Si number density = 21.331697 Si / 1000 Ang^3
#
#
#
# Elastic Constant Matrix: (Units=GPa)
#
#
# Indices 1 2 3 4 5 6 
#
# 1 155.8524 54.8336 49.5700 7.6218 -14.1364 17.7890
# 2 54.8336 83.3594 40.4883 30.1357 -5.3309 5.9936
# 3 49.5700 40.4883 111.0222 31.8072 -24.3914 5.2385
# 4 7.6218 30.1357 31.8072 32.6685 -6.1584 0.4596
# 5 -14.1364 -5.3309 -24.3914 -6.1584 51.0921 2.9571
# 6 17.7890 5.9936 5.2385 0.4596 2.9571 52.9516
#
#
#
# Elastic Compliance Matrix: (Units=1/GPa)
#
#
# Indices 1 2 3 4 5 6 
#
# 1 0.010414 -0.007946 -0.003911 0.009007 0.001408 -0.002369
# 2 -0.007946 0.024786 0.000237 -0.021643 -0.002116 0.000147
# 3 -0.003911 0.000237 0.015643 -0.013628 0.004792 -0.000410
# 4 0.009007 -0.021643 -0.013628 0.061965 0.001187 0.000168
# 5 0.001408 -0.002116 0.004792 0.001187 0.022285 -0.001962
# 6 -0.002369 0.000147 -0.000410 0.000168 -0.001962 0.019813
#
#
# Mechanical properties :
#
#
# Convention : Reuss Voigt Hill
#
# Bulk Modulus (GPa) = 36.22756 71.11309 53.67033
# Shear Modulus (GPa) = 26.68830 41.03192 33.86011
#
# Velocity S-wave (km/s) = 3.54094 4.39055 3.98843
# Velocity P-wave (km/s) = 5.80840 7.68842 6.81356
#
# Compressibility (1/GPa) = 0.02760329
#
# Stress axis : x y z
#
# Youngs Moduli (GPa) = 96.02779 40.34461 63.92445
#
# Poissons Ratio (x) = 0.32059 0.25002
# Poissons Ratio (y) = 0.76307 -0.01517
# Poissons Ratio (z) = 0.37558 -0.00958
#
# Static dielectric constant tensor:
#      x y z
#    x 2.313040 2.021800 -2.470470 
#    y 2.021800 2.727830 1.913940 
#    z -2.470470 1.913940 1.358710 
# 
# 
# High freq. dielectric constant tensor:
#      x y z
#    x 1.867520 0.015520 -0.010660 
#    y 0.015520 1.813330 0.023100 
#    z -0.010660 0.023100 1.832020 
# 
# From -- ./inp_files/18181.got.cif
#   From: 2010.06.25/outbox.cif.g09.slc.cpg/sg2_10_cif.got.tgz:18181.got - 2010.06.27 13:26:56.
