data_PCOD8013686
_publ_section_title
;
Structure prediction by ZEFSAII (Michael W. Deem and Ramdas Pophale) SiO2 
 PCOD8013686
Probable space group: P -1
;
_chemical_formula_sum "Si O2"
_cell_formula_units_Z 16
_cell_length_a 9.041028
_cell_length_b 20.872709
_cell_length_c 8.308659
_cell_angle_alpha 146.704986
_cell_angle_beta 56.475038
_cell_angle_gamma 124.728091
_cell_volume 697.249790
_symmetry_space_group_name_H-M "P -1"
_symmetry_group_IT_number 2
_symmetry_cell_setting 'triclinic'
loop_
_space_group_symop_operation_xyz
x,y,z
-x,-y,-z
loop_
_atom_site_type_symbol
_atom_site_label
_atom_site_fract_x
_atom_site_fract_y
_atom_site_fract_z
Si Si1 0.743780 0.470803 0.246495
Si Si2 0.411786 0.317543 0.285647
Si Si3 0.285745 0.050436 0.664957
Si Si4 0.099204 0.503764 0.279832
Si Si5 0.371918 0.929242 0.670899
Si Si6 0.706519 0.703923 0.329538
Si Si7 0.912849 0.959953 0.794399
Si Si8 0.352113 0.684635 0.319609
O O1 0.622025 0.379473 0.254067
O O2 0.715555 0.606019 0.565657
O O3 0.952733 0.471212 0.155339
O O4 0.682702 0.430179 0.017501
O O5 0.394353 0.319595 0.490416
O O6 0.362281 0.183177 0.966592
O O7 0.404171 0.035175 0.401465
O O8 0.305296 0.949440 0.572729
O O9 0.066695 0.027108 0.713060
O O10 0.224491 0.637944 0.453191
O O11 0.000000 0.500000 0.500000
O O12 0.223639 0.409137 0.009559
O O13 0.295658 0.792098 0.483284
O O14 0.285533 0.005371 0.014606
O O15 0.876162 0.818989 0.484567
O O16 0.563301 0.726860 0.330914
O O17 0.000000 0.000000 0.000000
#
# Coordination Sequence:
#
# PCOD8013686 Si02
#       8
#     2   2   2   2   2   2   2   2
#     4  11  26  41  76 105 134 183 242 290 353 438
#     4  11  22  43  72 102 140 185 237 289 367 410
#     4  10  21  40  72 100 141 185 237 293 348 432
#     4  12  29  47  71 106 141 185 239 293 361 429
#     4  10  22  40  68 101 139 181 239 285 356 414
#     4  12  26  46  70  99 148 186 229 302 363 412
#     4  10  22  41  69  99 133 189 237 287 339 425
#     4  12  26  45  70 104 147 182 233 300 353 428
#
# _framework density 22.947301
#
# number of rings (size 3 to 8) (size 9 to 14) (size 15 to 20)
#    0.000    1.000    5.000    1.500    8.750    0.500 
#    2.250    0.625    0.000    0.000    0.000    0.000 
#    0.000    0.000    0.000    0.000    0.000    0.000 
#
# Total GULP energy -198333.765239 kJ/mol
# GULP energy per Si atom -12395.860327 kJ/mol
# Density = 2.289507 g / cm^3
# Si number density = 22.947301 Si / 1000 Ang^3
#
#
#
# Elastic Constant Matrix: (Units=GPa)
#
#
# Indices 1 2 3 4 5 6 
#
# 1 82.7494 36.9889 30.6316 5.4518 -1.2026 10.4926
# 2 36.9889 139.2431 67.9040 7.5725 -20.7529 23.1035
# 3 30.6316 67.9040 85.2564 10.2958 -17.1135 2.9572
# 4 5.4518 7.5725 10.2958 50.0454 5.0942 -10.9104
# 5 -1.2026 -20.7529 -17.1135 5.0942 32.5773 -4.7824
# 6 10.4926 23.1035 2.9572 -10.9104 -4.7824 36.4260
#
#
#
# Elastic Compliance Matrix: (Units=1/GPa)
#
#
# Indices 1 2 3 4 5 6 
#
# 1 0.014940 -0.001603 -0.004501 -0.000920 -0.003222 -0.003620
# 2 -0.001603 0.014161 -0.009558 -0.002050 0.003094 -0.007952
# 3 -0.004501 -0.009558 0.022345 -0.002074 0.006659 0.005798
# 4 -0.000920 -0.002050 -0.002074 0.023058 -0.004861 0.008002
# 5 -0.003222 0.003094 0.006659 -0.004861 0.037076 0.001837
# 6 -0.003620 -0.007952 0.005798 0.008002 0.001837 0.035706
#
#
# Mechanical properties :
#
#
# Convention : Reuss Voigt Hill
#
# Bulk Modulus (GPa) = 49.69788 64.25531 56.97660
# Shear Modulus (GPa) = 26.98061 35.25805 31.11933
#
# Velocity S-wave (km/s) = 3.43266 3.92405 3.68655
# Velocity P-wave (km/s) = 6.11680 6.97086 6.55775
#
# Compressibility (1/GPa) = 0.02012158
#
# Stress axis : x y z
#
# Youngs Moduli (GPa) = 66.93313 70.61816 44.75253
#
# Poissons Ratio (x) = 0.11323 0.20142
# Poissons Ratio (y) = 0.10732 0.42775
# Poissons Ratio (z) = 0.30125 0.67497
#
# Static dielectric constant tensor:
#      x y z
#    x 4.088280 0.431380 -0.441390 
#    y 0.431380 4.655090 -0.245180 
#    z -0.441390 -0.245180 4.386600 
# 
# 
# High freq. dielectric constant tensor:
#      x y z
#    x 1.883600 0.016760 -0.020020 
#    y 0.016760 1.927370 0.001210 
#    z -0.020020 0.001210 1.898850 
# 
# From -- ./inp_files/224339.got.cif
#   From: 2010.06.25/outbox.cif.g09.slc.cpg/sg2_113_cif.got.tgz:224339.got - 2010.06.27 13:26:56.
