data_PCOD8013689
_publ_section_title
;
Structure prediction by ZEFSAII (Michael W. Deem and Ramdas Pophale) SiO2 
 PCOD8013689
Probable space group: P -1
;
_chemical_formula_sum "Si O2"
_cell_formula_units_Z 12
_cell_length_a 11.655880
_cell_length_b 11.991411
_cell_length_c 6.687137
_cell_angle_alpha 51.805627
_cell_angle_beta 133.592111
_cell_angle_gamma 131.951406
_cell_volume 481.482462
_symmetry_space_group_name_H-M "P -1"
_symmetry_group_IT_number 2
_symmetry_cell_setting 'triclinic'
loop_
_space_group_symop_operation_xyz
x,y,z
-x,-y,-z
loop_
_atom_site_type_symbol
_atom_site_label
_atom_site_fract_x
_atom_site_fract_y
_atom_site_fract_z
Si Si1 0.609611 0.119545 0.668949
Si Si2 0.888202 0.680678 0.199298
Si Si3 0.957609 0.128061 0.193254
Si Si4 0.751921 0.639237 0.492852
Si Si5 0.222360 0.644559 0.714154
Si Si6 0.531885 0.286269 0.724168
O O1 0.723057 0.285785 0.518186
O O2 0.488568 0.149942 0.656828
O O3 0.500000 0.000000 0.500000
O O4 0.747642 0.067232 0.002360
O O5 0.765275 0.694497 0.213956
O O6 0.782076 0.529691 0.096666
O O7 0.035047 0.643915 0.533500
O O8 0.966205 0.837161 0.982851
O O9 0.053595 0.290237 0.253957
O O10 0.000000 0.000000 0.500000
O O11 0.656988 0.452791 0.593460
O O12 0.647816 0.718942 0.404282
O O13 0.363428 0.749993 0.929759
#
# Coordination Sequence:
#
# PCOD8013689 Si02
#       6
#     2   2   2   2   2   2
#     4  11  26  48  74 104 146 192 242 298 359 432
#     4  10  21  42  72 104 140 186 244 298 355 425
#     4  11  26  48  70 105 145 195 238 296 363 426
#     4  11  24  43  71 109 147 184 237 303 360 429
#     4  10  21  40  72 105 137 186 244 298 356 422
#     4  11  24  43  74 108 143 188 240 299 362 425
#
# _framework density 24.923027000000001
#
# number of rings (size 3 to 8) (size 9 to 14) (size 15 to 20)
#    0.000    1.333    3.333    1.000    2.333    4.667 
#    6.000    0.000    0.000    0.000    0.000    0.000 
#    0.000    0.000    0.000    0.000    0.000    0.000 
#
# Total GULP energy -148781.723372 kJ/mol
# GULP energy per Si atom -12398.476948 kJ/mol
# Density = 2.486630 g / cm^3
# Si number density = 24.923027 Si / 1000 Ang^3
#
#
#
# Elastic Constant Matrix: (Units=GPa)
#
#
# Indices 1 2 3 4 5 6 
#
# 1 136.2834 45.2642 52.1598 5.4570 -17.0176 -26.6048
# 2 45.2642 75.2251 46.0033 18.6131 7.5233 -19.0963
# 3 52.1598 46.0033 124.1255 3.7683 -2.0468 -11.9085
# 4 5.4570 18.6131 3.7683 56.4675 6.5903 -9.9734
# 5 -17.0176 7.5233 -2.0468 6.5903 35.3757 5.2648
# 6 -26.6048 -19.0963 -11.9085 -9.9734 5.2648 32.5349
#
#
#
# Elastic Compliance Matrix: (Units=1/GPa)
#
#
# Indices 1 2 3 4 5 6 
#
# 1 0.011570 -0.004951 -0.002481 0.000919 0.005555 0.005030
# 2 -0.004951 0.023856 -0.006021 -0.004698 -0.008062 0.007614
# 3 -0.002481 -0.006021 0.011189 0.001181 0.000695 -0.001217
# 4 0.000919 -0.004698 0.001181 0.020358 -0.003051 0.005161
# 5 0.005555 -0.008062 0.000695 -0.003051 0.034217 -0.006407
# 6 0.005030 0.007614 -0.001217 0.005161 -0.006407 0.041492
#
#
# Mechanical properties :
#
#
# Convention : Reuss Voigt Hill
#
# Bulk Modulus (GPa) = 50.73535 69.16540 59.95038
# Shear Modulus (GPa) = 28.38357 37.68938 33.03648
#
# Velocity S-wave (km/s) = 3.37835 3.89296 3.64475
# Velocity P-wave (km/s) = 5.96813 6.92955 6.46674
#
# Compressibility (1/GPa) = 0.01971012
#
# Stress axis : x y z
#
# Youngs Moduli (GPa) = 86.42688 41.91792 89.37287
#
# Poissons Ratio (x) = 0.20754 0.22172
# Poissons Ratio (y) = 0.42791 0.53810
# Poissons Ratio (z) = 0.21441 0.25238
#
# Static dielectric constant tensor:
#      x y z
#    x 4.423630 0.232840 -0.205280 
#    y 0.232840 4.352050 0.073510 
#    z -0.205280 0.073510 4.482610 
# 
# 
# High freq. dielectric constant tensor:
#      x y z
#    x 1.985110 0.014020 -0.019050 
#    y 0.014020 1.984970 0.004560 
#    z -0.019050 0.004560 1.997460 
# 
# From -- ./inp_files/63055.got.cif
#   From: 2010.06.25/outbox.cif.g09.slc.cpg/sg2_32_cif.got.tgz:63055.got - 2010.06.27 13:26:56.
