data_PCOD8013170
_publ_section_title
;
Structure prediction by ZEFSAII (Michael W. Deem and Ramdas Pophale) SiO2 
 PCOD8013170
Probable space group: P -1
;
_chemical_formula_sum "Si O2"
_cell_formula_units_Z 16
_cell_length_a 6.582872
_cell_length_b 26.040702
_cell_length_c 12.066504
_cell_angle_alpha 153.698953
_cell_angle_beta 116.322793
_cell_angle_gamma 54.599251
_cell_volume 730.388686
_symmetry_space_group_name_H-M "P -1"
_symmetry_group_IT_number 2
_symmetry_cell_setting 'triclinic'
loop_
_space_group_symop_operation_xyz
x,y,z
-x,-y,-z
loop_
_atom_site_type_symbol
_atom_site_label
_atom_site_fract_x
_atom_site_fract_y
_atom_site_fract_z
Si Si1 0.069573 0.023518 0.325176
Si Si2 0.778640 0.676929 0.579455
Si Si3 0.518164 0.124122 0.287978
Si Si4 0.238608 0.362933 0.263397
Si Si5 0.219044 0.732348 0.847957
Si Si6 0.079862 0.620403 0.976183
Si Si7 0.220659 0.786396 0.199989
Si Si8 0.294964 0.185761 0.588451
O O1 0.272356 0.059001 0.381362
O O2 0.805390 0.086928 0.316762
O O3 0.010362 0.083002 0.550863
O O4 0.187897 0.868868 0.057316
O O5 0.565026 0.769485 0.622940
O O6 0.685874 0.722794 0.771770
O O7 0.810907 0.533126 0.286333
O O8 0.044037 0.684337 0.643297
O O9 0.326916 0.181786 0.456684
O O10 0.500000 0.000000 0.000000
O O11 0.488623 0.375891 0.309736
O O12 0.000000 0.500000 0.500000
O O13 0.149384 0.307175 0.029745
O O14 0.141165 0.748519 0.989996
O O15 0.287697 0.665949 0.071089
O O16 0.963524 0.684404 0.190448
O O17 0.465324 0.809628 0.285488
#
# Coordination Sequence:
#
# PCOD8013170 Si02
#       8
#     2   2   2   2   2   2   2   2
#     4  10  24  41  66  99 131 173 223 271 325 391
#     4  11  25  41  65 100 134 176 218 270 330 388
#     4  11  24  45  67  94 138 171 221 277 318 394
#     4  10  23  39  60  96 133 167 214 268 321 388
#     4  12  22  38  69  99 132 181 211 265 344 392
#     4  10  21  43  64  95 134 167 222 269 329 393
#     4  10  21  40  65  98 135 169 214 277 327 396
#     4  10  23  43  67  91 133 179 215 276 325 375
#
# _framework density 21.906144999999999
#
# number of rings (size 3 to 8) (size 9 to 14) (size 15 to 20)
#    0.000    1.500    3.750    0.375    1.750    6.500 
#    0.000    5.625    0.000    0.000    0.000    0.000 
#    0.000    0.000    0.000    0.000    0.000    0.000 
#
# Total GULP energy -198347.848214 kJ/mol
# GULP energy per Si atom -12396.740513 kJ/mol
# Density = 2.185629 g / cm^3
# Si number density = 21.906145 Si / 1000 Ang^3
#
#
#
# Elastic Constant Matrix: (Units=GPa)
#
#
# Indices 1 2 3 4 5 6 
#
# 1 112.4840 27.2051 33.9978 5.3285 9.0871 4.2626
# 2 27.2051 93.8804 25.0476 -0.3017 -12.6055 15.9861
# 3 33.9978 25.0476 102.9426 8.2410 10.4672 7.8118
# 4 5.3285 -0.3017 8.2410 32.6567 8.4159 3.8280
# 5 9.0871 -12.6055 10.4672 8.4159 37.5914 0.3803
# 6 4.2626 15.9861 7.8118 3.8280 0.3803 30.2412
#
#
#
# Elastic Compliance Matrix: (Units=1/GPa)
#
#
# Indices 1 2 3 4 5 6 
#
# 1 0.010566 -0.002887 -0.002531 -0.000506 -0.002712 0.000789
# 2 -0.002887 0.014130 -0.002651 0.000452 0.006139 -0.006512
# 3 -0.002531 -0.002651 0.011725 -0.001635 -0.003166 -0.001024
# 4 -0.000506 0.000452 -0.001635 0.033298 -0.006687 -0.003876
# 5 -0.002712 0.006139 -0.003166 -0.006687 0.031711 -0.001597
# 6 0.000789 -0.006512 -0.001024 -0.003876 -0.001597 0.037174
#
#
# Mechanical properties :
#
#
# Convention : Reuss Voigt Hill
#
# Bulk Modulus (GPa) = 49.29742 53.53424 51.41583
# Shear Modulus (GPa) = 30.95887 34.96829 32.96358
#
# Velocity S-wave (km/s) = 3.76340 3.99968 3.88334
# Velocity P-wave (km/s) = 6.43716 6.76912 6.60522
#
# Compressibility (1/GPa) = 0.02028504
#
# Stress axis : x y z
#
# Youngs Moduli (GPa) = 94.63881 70.76953 85.28441
#
# Poissons Ratio (x) = 0.20430 0.21584
# Poissons Ratio (y) = 0.27321 0.22608
# Poissons Ratio (z) = 0.23952 0.18761
#
# Static dielectric constant tensor:
#      x y z
#    x 4.063600 0.167910 0.073280 
#    y 0.167910 4.048450 -0.286290 
#    z 0.073280 -0.286290 3.987730 
# 
# 
# High freq. dielectric constant tensor:
#      x y z
#    x 1.873370 0.014100 0.009410 
#    y 0.014100 1.835960 -0.012160 
#    z 0.009410 -0.012160 1.867210 
# 
# From -- ./inp_files/71785.got.cif
#   From: 2010.06.25/outbox.cif.g09.slc.cpg/sg2_36_cif.got.tgz:71785.got - 2010.06.27 13:26:56.
