data_PCOD8013648
_publ_section_title
;
Structure prediction by ZEFSAII (Michael W. Deem and Ramdas Pophale) SiO2 
 PCOD8013648
Probable space group: P -1
;
_chemical_formula_sum "Si O2"
_cell_formula_units_Z 16
_cell_length_a 5.226898
_cell_length_b 20.050317
_cell_length_c 16.271906
_cell_angle_alpha 22.451243
_cell_angle_beta 82.334818
_cell_angle_gamma 83.633122
_cell_volume 645.088813
_symmetry_space_group_name_H-M "P -1"
_symmetry_group_IT_number 2
_symmetry_cell_setting 'triclinic'
loop_
_space_group_symop_operation_xyz
x,y,z
-x,-y,-z
loop_
_atom_site_type_symbol
_atom_site_label
_atom_site_fract_x
_atom_site_fract_y
_atom_site_fract_z
Si Si1 0.214124 0.217086 0.199014
Si Si2 0.474090 0.837933 0.971458
Si Si3 0.565203 0.421935 0.242265
Si Si4 0.812015 0.855561 0.407043
Si Si5 0.017426 0.702709 0.045908
Si Si6 0.115816 0.862106 0.539821
Si Si7 0.742586 0.383695 0.622279
Si Si8 0.840265 0.337443 0.490587
O O1 0.086402 0.199324 0.312942
O O2 0.301750 0.023647 0.383200
O O3 0.434955 0.372900 0.017216
O O4 0.008130 0.286959 0.062976
O O5 0.770066 0.785885 0.010020
O O6 0.318377 0.769761 0.135449
O O7 0.298964 0.780798 0.966292
O O8 0.441553 0.048817 0.726463
O O9 0.276019 0.340543 0.336297
O O10 0.631628 0.399320 0.361843
O O11 0.739798 0.307115 0.304596
O O12 0.956044 0.948788 0.372526
O O13 0.018543 0.835938 0.347669
O O14 0.035776 0.504235 0.302073
O O15 0.500000 0.500000 0.500000
O O16 0.737981 0.292197 0.637200
O O17 0.000000 0.500000 0.500000
#
# Coordination Sequence:
#
# PCOD8013648 Si02
#       8
#     2   2   2   2   2   2   2   2
#     4  10  21  40  70  95 137 187 241 288 358 422
#     4  12  24  44  70 100 138 184 227 296 353 420
#     4  10  23  42  64  96 142 183 234 294 356 427
#     4  11  25  42  68  98 145 181 234 293 365 418
#     4  11  23  43  69 100 134 182 238 279 354 419
#     4  10  21  44  61 102 138 183 236 302 345 430
#     4  12  24  43  71 105 137 177 240 298 346 428
#     4  10  24  42  67  97 135 180 231 288 355 423
#
# _framework density 24.802788
#
# number of rings (size 3 to 8) (size 9 to 14) (size 15 to 20)
#    0.000    1.250    3.750    1.125    7.000    1.000 
#    2.250    2.500    0.000    0.000    0.000    0.000 
#    0.000    0.000    0.000    0.000    0.000    0.000 
#
# Total GULP energy -198216.098600 kJ/mol
# GULP energy per Si atom -12388.506163 kJ/mol
# Density = 2.474634 g / cm^3
# Si number density = 24.802788 Si / 1000 Ang^3
#
#
#
# Elastic Constant Matrix: (Units=GPa)
#
#
# Indices 1 2 3 4 5 6 
#
# 1 68.8626 21.7958 10.8229 -12.7965 -3.3889 -7.9939
# 2 21.7958 167.0851 41.0084 4.2045 1.1134 -11.8937
# 3 10.8229 41.0084 115.2049 -6.7501 -13.2358 -4.6195
# 4 -12.7965 4.2045 -6.7501 32.4966 0.9543 0.3787
# 5 -3.3889 1.1134 -13.2358 0.9543 39.7028 -7.9445
# 6 -7.9939 -11.8937 -4.6195 0.3787 -7.9445 13.3160
#
#
#
# Elastic Compliance Matrix: (Units=1/GPa)
#
#
# Indices 1 2 3 4 5 6 
#
# 1 0.017852 -0.001795 0.000256 0.007074 0.003737 0.011230
# 2 -0.001795 0.007170 -0.002355 -0.002170 -0.000196 0.004455
# 3 0.000256 -0.002355 0.010290 0.002369 0.004283 0.004108
# 4 0.007074 -0.002170 0.002369 0.034262 0.001207 0.002876
# 5 0.003737 -0.000196 0.004283 0.001207 0.031358 0.022229
# 6 0.011230 0.004455 0.004108 0.002876 0.022229 0.100424
#
#
# Mechanical properties :
#
#
# Convention : Reuss Voigt Hill
#
# Bulk Modulus (GPa) = 36.33130 55.37854 45.85492
# Shear Modulus (GPa) = 22.90236 35.60480 29.25358
#
# Velocity S-wave (km/s) = 3.04201 3.79293 3.43803
# Velocity P-wave (km/s) = 5.19791 6.44653 5.85560
#
# Compressibility (1/GPa) = 0.02752448
#
# Stress axis : x y z
#
# Youngs Moduli (GPa) = 56.01683 139.46929 97.18204
#
# Poissons Ratio (x) = 0.25036 -0.02488
# Poissons Ratio (y) = 0.10055 0.22883
# Poissons Ratio (z) = -0.01434 0.32840
#
# Static dielectric constant tensor:
#      x y z
#    x 4.347110 -0.685740 -0.711710 
#    y -0.685740 7.512990 2.009790 
#    z -0.711710 2.009790 6.564160 
# 
# 
# High freq. dielectric constant tensor:
#      x y z
#    x 1.968560 -0.003620 -0.014670 
#    y -0.003620 1.995560 -0.007360 
#    z -0.014670 -0.007360 1.996440 
# 
# From -- ./inp_files/550965.got.cif
#   From: 2010.06.25/outbox.cif.g09.slc.cpg/sg2_276_cif.got.tgz:550965.got - 2010.06.27 13:26:56.
