data_PCOD8013411
_publ_section_title
;
Structure prediction by ZEFSAII (Michael W. Deem and Ramdas Pophale) SiO2 
 PCOD8013411
Probable space group: P -1
;
_chemical_formula_sum "Si O2"
_cell_formula_units_Z 12
_cell_length_a 8.804384
_cell_length_b 10.193832
_cell_length_c 9.083403
_cell_angle_alpha 121.334068
_cell_angle_beta 105.709811
_cell_angle_gamma 54.422374
_cell_volume 565.756597
_symmetry_space_group_name_H-M "P -1"
_symmetry_group_IT_number 2
_symmetry_cell_setting 'triclinic'
loop_
_space_group_symop_operation_xyz
x,y,z
-x,-y,-z
loop_
_atom_site_type_symbol
_atom_site_label
_atom_site_fract_x
_atom_site_fract_y
_atom_site_fract_z
Si Si1 0.876078 0.193765 0.500265
Si Si2 0.701970 0.819572 0.972052
Si Si3 0.310034 0.391657 0.882289
Si Si4 0.337858 0.698724 0.224147
Si Si5 0.036475 0.504952 0.339195
Si Si6 0.961459 0.971489 0.136330
O O1 0.682681 0.303698 0.605397
O O2 0.973590 0.309517 0.592610
O O3 0.834849 0.162853 0.303048
O O4 0.000000 0.000000 0.500000
O O5 0.765994 0.671927 0.769104
O O6 0.697197 0.743277 0.084804
O O7 0.500000 0.000000 0.000000
O O8 0.862159 0.861610 0.051824
O O9 0.484155 0.286949 0.754788
O O10 0.123230 0.497042 0.798246
O O11 0.349474 0.522771 0.061363
O O12 0.159620 0.873591 0.210322
O O13 0.000000 0.500000 0.500000
O O14 0.000000 0.000000 0.000000
#
# Coordination Sequence:
#
# PCOD8013411 Si02
#       6
#     2   2   2   2   2   2
#     4  10  22  41  66  97 132 176 222 278 340 402
#     4  12  25  44  69 101 135 182 229 280 344 411
#     4  11  22  42  70  94 134 176 225 279 336 406
#     4  10  21  40  67  97 126 177 222 271 344 396
#     4  12  25  45  70 103 136 181 233 284 340 407
#     4  11  22  41  65  97 138 173 217 279 343 409
#
# _framework density 21.210536000000001
#
# number of rings (size 3 to 8) (size 9 to 14) (size 15 to 20)
#    0.000    1.000    3.333    4.500    0.000    2.667 
#    0.000    6.667    0.000    0.000    0.000    0.000 
#    0.000    0.000    0.000    0.000    0.000    0.000 
#
# Total GULP energy -148728.337915 kJ/mol
# GULP energy per Si atom -12394.028160 kJ/mol
# Density = 2.116226 g / cm^3
# Si number density = 21.210536 Si / 1000 Ang^3
#
#
#
# Elastic Constant Matrix: (Units=GPa)
#
#
# Indices 1 2 3 4 5 6 
#
# 1 141.1411 55.4063 69.9232 -0.6207 -33.1913 23.8319
# 2 55.4063 96.4488 48.3453 0.3865 -13.3838 1.8817
# 3 69.9232 48.3453 154.3221 1.0050 -36.6274 8.9176
# 4 -0.6207 0.3865 1.0050 33.0995 9.4736 0.3474
# 5 -33.1913 -13.3838 -36.6274 9.4736 41.8081 0.1255
# 6 23.8319 1.8817 8.9176 0.3474 0.1255 35.8774
#
#
#
# Elastic Compliance Matrix: (Units=1/GPa)
#
#
# Indices 1 2 3 4 5 6 
#
# 1 0.013364 -0.005421 -0.002119 -0.001660 0.007418 -0.008076
# 2 -0.005421 0.014520 -0.002832 0.000420 -0.002243 0.003547
# 3 -0.002119 -0.002832 0.009974 -0.002203 0.006651 -0.000925
# 4 -0.001660 0.000420 -0.002203 0.033280 -0.010659 0.001344
# 5 0.007418 -0.002243 0.006651 -0.010659 0.037352 -0.006491
# 6 -0.008076 0.003547 -0.000925 0.001344 -0.006491 0.033291
#
#
# Mechanical properties :
#
#
# Convention : Reuss Voigt Hill
#
# Bulk Modulus (GPa) = 58.43590 82.14019 70.28804
# Shear Modulus (GPa) = 29.72138 36.70615 33.21377
#
# Velocity S-wave (km/s) = 3.74740 4.16452 3.96145
# Velocity P-wave (km/s) = 6.80692 7.86984 7.35760
#
# Compressibility (1/GPa) = 0.01711277
#
# Stress axis : x y z
#
# Youngs Moduli (GPa) = 74.82921 68.86927 100.26463
#
# Poissons Ratio (x) = 0.37337 0.21241
# Poissons Ratio (y) = 0.40568 0.28400
# Poissons Ratio (z) = 0.15853 0.19507
#
# Static dielectric constant tensor:
#      x y z
#    x 2.298420 -1.434660 3.005790 
#    y -1.434660 2.496650 3.081470 
#    z 3.005790 3.081470 -2.332410 
# 
# 
# High freq. dielectric constant tensor:
#      x y z
#    x 1.840680 0.017000 -0.022800 
#    y 0.017000 1.818400 0.011040 
#    z -0.022800 0.011040 1.848920 
# 
# From -- ./inp_files/146300.got.cif
#   From: 2010.06.25/outbox.cif.g09.slc.cpg/sg2_74_cif.got.tgz:146300.got - 2010.06.27 13:26:56.
