data_PCOD8013687
_publ_section_title
;
Structure prediction by ZEFSAII (Michael W. Deem and Ramdas Pophale) SiO2 
 PCOD8013687
Probable space group: P -1
;
_chemical_formula_sum "Si O2"
_cell_formula_units_Z 16
_cell_length_a 9.982311
_cell_length_b 5.300349
_cell_length_c 18.027866
_cell_angle_alpha 55.678972
_cell_angle_beta 67.791011
_cell_angle_gamma 67.553262
_cell_volume 711.358089
_symmetry_space_group_name_H-M "P -1"
_symmetry_group_IT_number 2
_symmetry_cell_setting 'triclinic'
loop_
_space_group_symop_operation_xyz
x,y,z
-x,-y,-z
loop_
_atom_site_type_symbol
_atom_site_label
_atom_site_fract_x
_atom_site_fract_y
_atom_site_fract_z
Si Si1 0.354912 0.768138 0.477191
Si Si2 0.908823 0.493576 0.447457
Si Si3 0.451021 0.383962 0.783790
Si Si4 0.622583 0.848827 0.727716
Si Si5 0.951401 0.575350 0.715722
Si Si6 0.776377 0.170240 0.343678
Si Si7 0.007734 0.950042 0.883057
Si Si8 0.166946 0.269014 0.920933
O O1 0.500000 0.500000 0.500000
O O2 0.227442 0.654473 0.476767
O O3 0.288986 0.871326 0.554276
O O4 0.390302 0.045077 0.373722
O O5 0.000000 0.500000 0.500000
O O6 0.025136 0.316045 0.391774
O O7 0.842928 0.816630 0.363798
O O8 0.557453 0.533637 0.790492
O O9 0.353650 0.665901 0.709741
O O10 0.343852 0.230778 0.883615
O O11 0.534602 0.117577 0.754963
O O12 0.788930 0.772694 0.738810
O O13 0.089606 0.649611 0.719947
O O14 0.949398 0.211585 0.789823
O O15 0.090695 0.639723 0.873744
O O16 0.114744 0.076403 0.896901
O O17 0.867867 0.876565 0.969346
#
# Coordination Sequence:
#
# PCOD8013687 Si02
#       8
#     2   2   2   2   2   2   2   2
#     4  11  23  40  58  91 124 171 224 267 323 378
#     4  11  24  39  65  90 129 171 221 281 320 380
#     4  12  25  43  65  97 130 172 215 274 324 383
#     4  12  28  41  63  94 137 175 213 271 331 391
#     4  11  25  42  63  98 131 171 222 266 338 386
#     4  11  23  39  68  88 125 172 227 277 313 386
#     4  10  21  40  72 102 126 170 209 278 317 395
#     4  10  21  41  70 102 131 158 224 266 327 380
#
# _framework density 22.492187000000001
#
# number of rings (size 3 to 8) (size 9 to 14) (size 15 to 20)
#    0.000    1.000    2.500    3.750    7.000    3.000 
#    0.000    1.250    0.000    0.000    0.000    0.000 
#    0.000    0.000    0.000    0.000    0.000    0.000 
#
# Total GULP energy -198346.774135 kJ/mol
# GULP energy per Si atom -12396.673383 kJ/mol
# Density = 2.244099 g / cm^3
# Si number density = 22.492187 Si / 1000 Ang^3
#
#
#
# Elastic Constant Matrix: (Units=GPa)
#
#
# Indices 1 2 3 4 5 6 
#
# 1 84.5864 34.2228 19.9014 12.4991 -19.9511 -7.6251
# 2 34.2228 88.7602 19.1182 7.8080 -18.5317 -2.1793
# 3 19.9014 19.1182 89.8083 7.4750 -28.4732 -11.3651
# 4 12.4991 7.8080 7.4750 30.4503 -0.2619 -5.6403
# 5 -19.9511 -18.5317 -28.4732 -0.2619 33.5693 2.7143
# 6 -7.6251 -2.1793 -11.3651 -5.6403 2.7143 37.6306
#
#
#
# Elastic Compliance Matrix: (Units=1/GPa)
#
#
# Indices 1 2 3 4 5 6 
#
# 1 0.016128 -0.004256 0.000313 -0.005208 0.007315 0.001808
# 2 -0.004256 0.014189 -0.000446 -0.001890 0.004977 -0.000818
# 3 0.000313 -0.000446 0.016070 -0.003205 0.013267 0.003454
# 4 -0.005208 -0.001890 -0.003205 0.036912 -0.006885 0.003896
# 5 0.007315 0.004977 0.013267 -0.006885 0.047979 0.001285
# 6 0.001808 -0.000818 0.003454 0.003896 0.001285 0.028428
#
#
# Mechanical properties :
#
#
# Convention : Reuss Voigt Hill
#
# Bulk Modulus (GPa) = 26.58842 45.51554 36.05198
# Shear Modulus (GPa) = 27.62132 32.99089 30.30611
#
# Velocity S-wave (km/s) = 3.50814 3.83400 3.67468
# Velocity P-wave (km/s) = 5.31566 6.31502 5.83677
#
# Compressibility (1/GPa) = 0.03761036
#
# Stress axis : x y z
#
# Youngs Moduli (GPa) = 62.00226 70.47915 62.22698
#
# Poissons Ratio (x) = 0.29998 -0.01951
# Poissons Ratio (y) = 0.26390 0.02773
# Poissons Ratio (z) = -0.01944 0.03141
#
# Static dielectric constant tensor:
#      x y z
#    x 3.906160 -0.111980 -0.401290 
#    y -0.111980 3.893180 -0.039980 
#    z -0.401290 -0.039980 4.220540 
# 
# 
# High freq. dielectric constant tensor:
#      x y z
#    x 1.876320 -0.000890 -0.022740 
#    y -0.000890 1.893070 0.005210 
#    z -0.022740 0.005210 1.892440 
# 
# From -- ./inp_files/37904.got.cif
#   From: 2010.06.25/outbox.cif.g09.slc.cpg/sg2_19_cif.got.tgz:37904.got - 2010.06.27 13:26:56.
