data_PCOD8013169
_publ_section_title
;
Structure prediction by ZEFSAII (Michael W. Deem and Ramdas Pophale) SiO2 
 PCOD8013169
Probable space group: P -1
;
_chemical_formula_sum "Si O2"
_cell_formula_units_Z 16
_cell_length_a 22.432133
_cell_length_b 11.385157
_cell_length_c 5.715308
_cell_angle_alpha 118.790218
_cell_angle_beta 114.047260
_cell_angle_gamma 33.693729
_cell_volume 709.583846
_symmetry_space_group_name_H-M "P -1"
_symmetry_group_IT_number 2
_symmetry_cell_setting 'triclinic'
loop_
_space_group_symop_operation_xyz
x,y,z
-x,-y,-z
loop_
_atom_site_type_symbol
_atom_site_label
_atom_site_fract_x
_atom_site_fract_y
_atom_site_fract_z
Si Si1 0.299430 0.117255 0.838690
Si Si2 0.091936 0.457232 0.112792
Si Si3 0.608977 0.502662 0.152518
Si Si4 0.035338 0.816801 0.126640
Si Si5 0.177550 0.477131 0.647823
Si Si6 0.825130 0.268652 0.388882
Si Si7 0.434084 0.683373 0.376135
Si Si8 0.505212 0.072314 0.825290
O O1 0.276233 0.282305 0.790465
O O2 0.342884 0.920828 0.576298
O O3 0.187027 0.254056 0.900280
O O4 0.380461 0.036762 0.090832
O O5 0.041012 0.682511 0.181246
O O6 0.139652 0.399577 0.393764
O O7 0.000000 0.500000 0.000000
O O8 0.721028 0.344058 0.317074
O O9 0.512023 0.655444 0.330083
O O10 0.584502 0.662602 0.079856
O O11 0.621886 0.336575 0.894768
O O12 0.113410 0.808688 0.340911
O O13 0.074218 0.710740 0.832461
O O14 0.911834 0.065473 0.150314
O O15 0.220710 0.513477 0.564325
O O16 0.500000 0.500000 0.500000
O O17 0.500000 0.000000 0.500000
O O18 0.500000 0.000000 0.000000
#
# Coordination Sequence:
#
# PCOD8013169 Si02
#       8
#     2   2   2   2   2   2   2   2
#     4  11  25  44  68  97 137 184 230 298 354 427
#     4  10  24  41  65  98 131 175 234 289 351 433
#     4  11  26  42  70 100 138 186 243 292 357 438
#     4   9  21  40  63  96 132 171 220 282 360 421
#     4  10  22  40  68  93 136 173 226 287 362 425
#     4  10  21  40  65  98 132 172 223 291 352 425
#     4  11  25  47  63  95 141 191 238 290 354 428
#     4  12  27  44  75 110 146 189 243 302 371 435
#
# _framework density 22.548428999999999
#
# number of rings (size 3 to 8) (size 9 to 14) (size 15 to 20)
#    0.000    1.500    1.250    1.875    8.750    6.000 
#    0.000    0.000    0.000    0.000    0.000    0.000 
#    0.000    0.000    0.000    0.000    0.000    0.000 
#
# Total GULP energy -198339.548939 kJ/mol
# GULP energy per Si atom -12396.221809 kJ/mol
# Density = 2.249711 g / cm^3
# Si number density = 22.548429 Si / 1000 Ang^3
#
#
#
# Elastic Constant Matrix: (Units=GPa)
#
#
# Indices 1 2 3 4 5 6 
#
# 1 100.7279 49.5465 55.0479 -7.3632 18.9227 -11.8071
# 2 49.5465 120.2947 48.7647 14.2232 8.2812 -16.9513
# 3 55.0479 48.7647 136.4992 11.2089 9.8769 -16.3194
# 4 -7.3632 14.2232 11.2089 40.3592 -3.1735 4.3754
# 5 18.9227 8.2812 9.8769 -3.1735 38.4454 -14.2080
# 6 -11.8071 -16.9513 -16.3194 4.3754 -14.2080 28.7578
#
#
#
# Elastic Compliance Matrix: (Units=1/GPa)
#
#
# Indices 1 2 3 4 5 6 
#
# 1 0.016838 -0.005611 -0.005266 0.006387 -0.006520 -0.003576
# 2 -0.005611 0.012495 -0.001139 -0.005626 0.002259 0.006387
# 3 -0.005266 -0.001139 0.010607 -0.003878 0.001453 0.004494
# 4 0.006387 -0.005626 -0.003878 0.029770 -0.001495 -0.008162
# 5 -0.006520 0.002259 0.001453 -0.001495 0.034411 0.016707
# 6 -0.003576 0.006387 0.004494 -0.008162 0.016707 0.049116
#
#
# Mechanical properties :
#
#
# Convention : Reuss Voigt Hill
#
# Bulk Modulus (GPa) = 62.85821 73.80445 68.33133
# Shear Modulus (GPa) = 27.38624 35.12333 31.25478
#
# Velocity S-wave (km/s) = 3.48882 3.95103 3.72710
# Velocity P-wave (km/s) = 6.64580 7.32235 6.99226
#
# Compressibility (1/GPa) = 0.01590882
#
# Stress axis : x y z
#
# Youngs Moduli (GPa) = 59.38884 80.03031 94.27339
#
# Poissons Ratio (x) = 0.44901 0.49647
# Poissons Ratio (y) = 0.33320 0.10739
# Poissons Ratio (z) = 0.31276 0.09117
#
# Static dielectric constant tensor:
#      x y z
#    x 3.905950 0.064220 0.009400 
#    y 0.064220 3.948390 -0.278610 
#    z 0.009400 -0.278610 4.056970 
# 
# 
# High freq. dielectric constant tensor:
#      x y z
#    x 1.870450 0.002430 0.003650 
#    y 0.002430 1.899160 0.000000 
#    z 0.003650 0.000000 1.896980 
# 
# From -- ./inp_files/123794.got.cif
#   From: 2010.06.25/outbox.cif.g09.slc.cpg/sg2_62_cif.got.tgz:123794.got - 2010.06.27 13:26:56.
