data_PCOD8013149
_publ_section_title
;
Structure prediction by ZEFSAII (Michael W. Deem and Ramdas Pophale) SiO2 
 PCOD8013149
Probable space group: P -1
;
_chemical_formula_sum "Si O2"
_cell_formula_units_Z 12
_cell_length_a 14.934548
_cell_length_b 11.483780
_cell_length_c 8.961510
_cell_angle_alpha 141.806163
_cell_angle_beta 140.121763
_cell_angle_gamma 42.073346
_cell_volume 570.537656
_symmetry_space_group_name_H-M "P -1"
_symmetry_group_IT_number 2
_symmetry_cell_setting 'triclinic'
loop_
_space_group_symop_operation_xyz
x,y,z
-x,-y,-z
loop_
_atom_site_type_symbol
_atom_site_label
_atom_site_fract_x
_atom_site_fract_y
_atom_site_fract_z
Si Si1 0.858319 0.944049 0.308943
Si Si2 0.957853 0.269367 0.136009
Si Si3 0.886453 0.676791 0.337177
Si Si4 0.276497 0.901591 0.419770
Si Si5 0.728301 0.903857 0.792425
Si Si6 0.491916 0.714398 0.266332
O O1 0.919372 0.731755 0.265476
O O2 0.747733 0.118445 0.453042
O O3 0.758068 0.921374 0.022604
O O4 0.000000 0.000000 0.500000
O O5 0.970639 0.341112 0.393264
O O6 0.864072 0.463381 0.107942
O O7 0.117588 0.158429 0.157823
O O8 0.864881 0.122033 0.871165
O O9 0.740559 0.863857 0.398538
O O10 0.428937 0.749238 0.392409
O O11 0.653914 0.734173 0.499158
O O12 0.619731 0.119424 0.815259
O O13 0.500000 0.500000 0.000000
#
# Coordination Sequence:
#
# PCOD8013149 Si02
#       6
#     2   2   2   2   2   2
#     4  10  21  40  65  96 131 160 195 267 323 361
#     4  11  20  37  69  92 123 165 206 259 305 370
#     4   9  22  35  62  96 124 159 206 252 322 359
#     4  10  22  41  60  92 128 159 208 259 302 368
#     4  11  23  43  61  93 129 160 211 259 308 372
#     4  11  27  42  64  87 123 175 216 251 303 372
#
# _framework density 21.032793999999999
#
# number of rings (size 3 to 8) (size 9 to 14) (size 15 to 20)
#    1.000    0.667    3.333    0.500    7.000    1.333 
#    3.000    0.833    0.000    0.000    0.000    0.000 
#    0.000    0.000    0.000    0.000    0.000    0.000 
#
# Total GULP energy -148665.926110 kJ/mol
# GULP energy per Si atom -12388.827176 kJ/mol
# Density = 2.098492 g / cm^3
# Si number density = 21.032794 Si / 1000 Ang^3
#
#
#
# Elastic Constant Matrix: (Units=GPa)
#
#
# Indices 1 2 3 4 5 6 
#
# 1 97.3807 32.8040 28.2079 2.2546 -8.3938 3.8285
# 2 32.8040 85.3975 37.2628 14.7253 -1.9685 4.6501
# 3 28.2079 37.2628 103.5231 4.3436 -4.5416 7.0955
# 4 2.2546 14.7253 4.3436 24.9044 5.0621 -4.5641
# 5 -8.3938 -1.9685 -4.5416 5.0621 35.7682 -10.2096
# 6 3.8285 4.6501 7.0955 -4.5641 -10.2096 28.1509
#
#
#
# Elastic Compliance Matrix: (Units=1/GPa)
#
#
# Indices 1 2 3 4 5 6 
#
# 1 0.012356 -0.004122 -0.001867 0.001254 0.002415 0.000551
# 2 -0.004122 0.016981 -0.004414 -0.009380 -0.000026 -0.002662
# 3 -0.001867 -0.004414 0.011883 0.000313 0.000249 -0.001871
# 4 0.001254 -0.009380 0.000313 0.047859 -0.004874 0.007292
# 5 0.002415 -0.000026 0.000249 -0.004874 0.032247 0.010518
# 6 0.000551 -0.002662 -0.001871 0.007292 0.010518 0.041356
#
#
# Mechanical properties :
#
#
# Convention : Reuss Voigt Hill
#
# Bulk Modulus (GPa) = 48.98800 53.65010 51.31905
# Shear Modulus (GPa) = 26.27507 30.29981 28.28744
#
# Velocity S-wave (km/s) = 3.53830 3.79964 3.67129
# Velocity P-wave (km/s) = 6.32729 6.69424 6.51335
#
# Compressibility (1/GPa) = 0.02041316
#
# Stress axis : x y z
#
# Youngs Moduli (GPa) = 80.93244 58.88810 84.15054
#
# Poissons Ratio (x) = 0.24274 0.15714
# Poissons Ratio (y) = 0.33361 0.37147
# Poissons Ratio (z) = 0.15113 0.25995
#
# Static dielectric constant tensor:
#      x y z
#    x 3.859180 0.169770 -0.148810 
#    y 0.169770 3.684640 0.085630 
#    z -0.148810 0.085630 3.844110 
# 
# 
# High freq. dielectric constant tensor:
#      x y z
#    x 1.824960 0.011420 -0.008790 
#    y 0.011420 1.804680 0.012640 
#    z -0.008790 0.012640 1.818780 
# 
# From -- ./inp_files/301964.got.cif
#   From: 2010.06.25/outbox.cif.g09.slc.cpg/sg2_151_cif.got.tgz:301964.got - 2010.06.27 13:26:56.
