data_PCOD8013240
_publ_section_title
;
Structure prediction by ZEFSAII (Michael W. Deem and Ramdas Pophale) SiO2 
 PCOD8013240
Probable space group: P -1
;
_chemical_formula_sum "Si O2"
_cell_formula_units_Z 16
_cell_length_a 19.018202
_cell_length_b 8.975492
_cell_length_c 16.994033
_cell_angle_alpha 41.378188
_cell_angle_beta 156.705987
_cell_angle_gamma 145.256118
_cell_volume 653.640983
_symmetry_space_group_name_H-M "P -1"
_symmetry_group_IT_number 2
_symmetry_cell_setting 'triclinic'
loop_
_space_group_symop_operation_xyz
x,y,z
-x,-y,-z
loop_
_atom_site_type_symbol
_atom_site_label
_atom_site_fract_x
_atom_site_fract_y
_atom_site_fract_z
Si Si1 0.678518 0.011142 0.624184
Si Si2 0.438095 0.334609 0.080868
Si Si3 0.883333 0.579469 0.463028
Si Si4 0.592719 0.468240 0.761177
Si Si5 0.937551 0.415538 0.200545
Si Si6 0.598279 0.191371 0.721123
Si Si7 0.831370 0.653058 0.666487
Si Si8 0.013861 0.198750 0.686543
O O1 0.724348 0.780857 0.783707
O O2 0.611608 0.971705 0.479652
O O3 0.500000 0.000000 0.500000
O O4 0.892170 0.278736 0.745593
O O5 0.647883 0.479965 0.290910
O O6 0.356125 0.024590 0.108388
O O7 0.500000 0.500000 0.000000
O O8 0.237327 0.339776 0.905576
O O9 0.039827 0.711093 0.644863
O O10 0.954504 0.779447 0.384791
O O11 0.880862 0.321102 0.530759
O O12 0.584084 0.371382 0.701680
O O13 0.354512 0.378732 0.569356
O O14 0.703223 0.359402 0.975586
O O15 0.976298 0.284742 0.216389
O O16 0.771706 0.390621 0.758634
O O17 0.893178 0.887951 0.699051
#
# Coordination Sequence:
#
# PCOD8013240 Si02
#       8
#     2   2   2   2   2   2   2   2
#     4  11  21  42  62  93 134 167 210 268 319 375
#     4  10  21  40  66  93 123 162 213 263 312 374
#     4  10  23  42  65  93 127 168 220 265 308 385
#     4  11  25  40  62  96 130 173 207 259 325 382
#     4  12  24  40  63  94 133 169 212 261 325 377
#     4  11  22  41  68  92 129 170 212 265 321 373
#     4  11  24  42  61  94 136 162 210 271 318 380
#     4  10  23  42  66  94 124 171 217 261 321 379
#
# _framework density 24.478270999999999
#
# number of rings (size 3 to 8) (size 9 to 14) (size 15 to 20)
#    0.000    1.250    3.750    3.375    1.750    4.500 
#    0.000    0.625    0.000    0.000    0.000    0.000 
#    0.000    0.000    0.000    0.000    0.000    0.000 
#
# Total GULP energy -198224.202205 kJ/mol
# GULP energy per Si atom -12389.012638 kJ/mol
# Density = 2.442256 g / cm^3
# Si number density = 24.478271 Si / 1000 Ang^3
#
#
#
# Elastic Constant Matrix: (Units=GPa)
#
#
# Indices 1 2 3 4 5 6 
#
# 1 54.8819 9.2195 18.6788 -5.6312 -14.1803 0.2696
# 2 9.2195 71.1324 17.3543 -12.8701 -3.4799 -3.4860
# 3 18.6788 17.3543 153.0051 4.5810 0.2805 11.7749
# 4 -5.6312 -12.8701 4.5810 37.7856 1.2867 -0.8492
# 5 -14.1803 -3.4799 0.2805 1.2867 23.9667 3.7276
# 6 0.2696 -3.4860 11.7749 -0.8492 3.7276 33.7344
#
#
#
# Elastic Compliance Matrix: (Units=1/GPa)
#
#
# Indices 1 2 3 4 5 6 
#
# 1 0.023149 -0.001182 -0.002744 0.002902 0.013521 -0.000770
# 2 -0.001182 0.015857 -0.002003 0.005488 0.000962 0.002379
# 3 -0.002744 -0.002003 0.007364 -0.001993 -0.001483 -0.002642
# 4 0.002902 0.005488 -0.001993 0.029028 0.000684 0.001895
# 5 0.013521 0.000962 -0.001483 0.000684 0.050633 -0.005069
# 6 -0.000770 0.002379 -0.002642 0.001895 -0.005069 0.031425
#
#
# Mechanical properties :
#
#
# Convention : Reuss Voigt Hill
#
# Bulk Modulus (GPa) = 28.97726 41.05827 35.01777
# Shear Modulus (GPa) = 27.65212 34.68181 31.16697
#
# Velocity S-wave (km/s) = 3.36469 3.76818 3.57213
# Velocity P-wave (km/s) = 5.19216 5.97846 5.59913
#
# Compressibility (1/GPa) = 0.03450981
#
# Stress axis : x y z
#
# Youngs Moduli (GPa) = 43.19924 63.06387 135.80173
#
# Poissons Ratio (x) = 0.07454 0.37268
# Poissons Ratio (y) = 0.05106 0.27207
# Poissons Ratio (z) = 0.11855 0.12634
#
# Static dielectric constant tensor:
#      x y z
#    x 4.212100 0.041400 0.040440 
#    y 0.041400 4.389510 -0.029360 
#    z 0.040440 -0.029360 4.786780 
# 
# 
# High freq. dielectric constant tensor:
#      x y z
#    x 1.945610 0.000810 0.005650 
#    y 0.000810 1.968800 -0.004530 
#    z 0.005650 -0.004530 1.983680 
# 
# From -- ./inp_files/577561.got.cif
#   From: 2010.06.25/outbox.cif.g09.slc.cpg/sg2_289_cif.got.tgz:577561.got - 2010.06.27 13:26:56.
