data_PCOD8013101
_publ_section_title
;
Structure prediction by ZEFSAII (Michael W. Deem and Ramdas Pophale) SiO2 
 PCOD8013101
Probable space group: P -1
;
_chemical_formula_sum "Si O2"
_cell_formula_units_Z 16
_cell_length_a 12.272629
_cell_length_b 8.842397
_cell_length_c 8.240553
_cell_angle_alpha 61.436986
_cell_angle_beta 70.775085
_cell_angle_gamma 59.087569
_cell_volume 669.690059
_symmetry_space_group_name_H-M "P -1"
_symmetry_group_IT_number 2
_symmetry_cell_setting 'triclinic'
loop_
_space_group_symop_operation_xyz
x,y,z
-x,-y,-z
loop_
_atom_site_type_symbol
_atom_site_label
_atom_site_fract_x
_atom_site_fract_y
_atom_site_fract_z
Si Si1 0.742411 0.153802 0.256450
Si Si2 0.449699 0.918009 0.416338
Si Si3 0.510930 0.720184 0.841457
Si Si4 0.080476 0.497676 0.620008
Si Si5 0.850392 0.897423 0.046527
Si Si6 0.659196 0.507052 0.614604
Si Si7 0.394288 0.841201 0.150224
Si Si8 0.965498 0.170932 0.304877
O O1 0.689494 0.036901 0.461983
O O2 0.616545 0.303074 0.144259
O O3 0.816803 0.249437 0.278385
O O4 0.849415 0.015035 0.148871
O O5 0.550254 0.695530 0.491467
O O6 0.430253 0.950902 0.215994
O O7 0.496758 0.086043 0.350141
O O8 0.635652 0.540225 0.805428
O O9 0.515361 0.729544 0.028168
O O10 0.117148 0.314047 0.805719
O O11 0.202121 0.519947 0.483542
O O12 0.007594 0.669555 0.693487
O O13 0.000000 0.500000 0.500000
O O14 0.947555 0.900295 0.861107
O O15 0.708826 0.995634 0.993144
O O16 0.650112 0.312174 0.670627
O O17 0.000000 0.000000 0.500000
#
# Coordination Sequence:
#
# PCOD8013101 Si02
#       8
#     2   2   2   2   2   2   2   2
#     4  10  21  40  65  93 128 170 215 265 320 383
#     4  11  21  40  66  95 131 172 214 266 326 389
#     4  10  22  39  62  94 129 170 213 265 326 386
#     4  12  27  46  68  96 129 173 223 275 330 389
#     4  11  24  45  67  96 133 172 220 274 326 389
#     4  11  22  41  64  92 128 171 215 265 326 389
#     4  11  23  40  64  99 132 168 216 270 326 389
#     4  12  25  43  68  97 128 172 221 272 330 390
#
# _framework density 23.891649000000001
#
# number of rings (size 3 to 8) (size 9 to 14) (size 15 to 20)
#    0.000    1.000    0.000    8.625    0.000    4.000 
#    0.000    3.750    0.000    0.000    0.000    0.000 
#    0.000    0.000    0.000    0.000    0.000    0.000 
#
# Total GULP energy -198302.141838 kJ/mol
# GULP energy per Si atom -12393.883865 kJ/mol
# Density = 2.383727 g / cm^3
# Si number density = 23.891649 Si / 1000 Ang^3
#
#
#
# Elastic Constant Matrix: (Units=GPa)
#
#
# Indices 1 2 3 4 5 6 
#
# 1 69.4786 15.6972 16.8354 13.1953 -0.0327 17.0277
# 2 15.6972 81.3385 26.6939 1.9322 3.5046 9.3802
# 3 16.8354 26.6939 101.6812 10.9079 -2.6617 3.2238
# 4 13.1953 1.9322 10.9079 60.1786 -2.0394 -6.6273
# 5 -0.0327 3.5046 -2.6617 -2.0394 35.6969 7.5275
# 6 17.0277 9.3802 3.2238 -6.6273 7.5275 31.2256
#
#
#
# Elastic Compliance Matrix: (Units=1/GPa)
#
#
# Indices 1 2 3 4 5 6 
#
# 1 0.018878 -0.001767 -0.001724 -0.004925 0.002131 -0.011144
# 2 -0.001767 0.014085 -0.003374 0.000223 -0.001072 -0.002614
# 3 -0.001724 -0.003374 0.011184 -0.001480 0.001029 0.000237
# 4 -0.004925 0.000223 -0.001480 0.018697 -0.000516 0.006864
# 5 0.002131 -0.001072 0.001029 -0.000516 0.029911 -0.008266
# 6 -0.011144 -0.002614 0.000237 0.006864 -0.008266 0.042312
#
#
# Mechanical properties :
#
#
# Convention : Reuss Voigt Hill
#
# Bulk Modulus (GPa) = 32.87745 41.21680 37.04712
# Shear Modulus (GPa) = 31.45919 38.30502 34.88210
#
# Velocity S-wave (km/s) = 3.63263 4.00844 3.82516
# Velocity P-wave (km/s) = 5.60229 6.22194 5.92022
#
# Compressibility (1/GPa) = 0.03041599
#
# Stress axis : x y z
#
# Youngs Moduli (GPa) = 52.97305 70.99782 89.41243
#
# Poissons Ratio (x) = 0.12544 0.15417
# Poissons Ratio (y) = 0.09359 0.30170
# Poissons Ratio (z) = 0.09134 0.23956
#
# Static dielectric constant tensor:
#      x y z
#    x 4.178810 0.181330 0.037480 
#    y 0.181330 4.498390 0.401750 
#    z 0.037480 0.401750 4.728970 
# 
# 
# High freq. dielectric constant tensor:
#      x y z
#    x 1.930320 0.014390 -0.001130 
#    y 0.014390 1.948480 0.018750 
#    z -0.001130 0.018750 1.977870 
# 
# From -- ./inp_files/242510.got.cif
#   From: 2010.06.25/outbox.cif.g09.slc.cpg/sg2_122_cif.got.tgz:242510.got - 2010.06.27 13:26:56.
