data_PCOD8013499
_publ_section_title
;
Structure prediction by ZEFSAII (Michael W. Deem and Ramdas Pophale) SiO2 
 PCOD8013499
Probable space group: P -1
;
_chemical_formula_sum "Si O2"
_cell_formula_units_Z 16
_cell_length_a 5.422032
_cell_length_b 11.305414
_cell_length_c 17.715620
_cell_angle_alpha 44.857484
_cell_angle_beta 92.898330
_cell_angle_gamma 74.386788
_cell_volume 689.570377
_symmetry_space_group_name_H-M "P -1"
_symmetry_group_IT_number 2
_symmetry_cell_setting 'triclinic'
loop_
_space_group_symop_operation_xyz
x,y,z
-x,-y,-z
loop_
_atom_site_type_symbol
_atom_site_label
_atom_site_fract_x
_atom_site_fract_y
_atom_site_fract_z
Si Si1 0.383819 0.189035 0.959345
Si Si2 0.870302 0.914069 0.597965
Si Si3 0.146022 0.782618 0.112548
Si Si4 0.890666 0.370038 0.516296
Si Si5 0.667961 0.402647 0.650890
Si Si6 0.612628 0.728613 0.917297
Si Si7 0.118193 0.698627 0.845130
Si Si8 0.316839 0.222919 0.479889
O O1 0.432980 0.137483 0.072032
O O2 0.559449 0.304109 0.886839
O O3 0.057138 0.303488 0.883696
O O4 0.500000 0.000000 0.000000
O O5 0.744741 0.799448 0.598340
O O6 0.082540 0.773577 0.724564
O O7 0.631343 0.081222 0.565283
O O8 0.000000 0.000000 0.500000
O O9 0.200126 0.757117 0.213792
O O10 0.000000 0.000000 0.000000
O O11 0.759800 0.304566 0.614025
O O12 0.660668 0.498195 0.395440
O O13 0.000000 0.500000 0.500000
O O14 0.115151 0.192891 0.552886
O O15 0.760305 0.562847 0.602109
O O16 0.320669 0.773003 0.854448
O O17 0.818261 0.766738 0.847536
O O18 0.743091 0.523681 0.049315
#
# Coordination Sequence:
#
# PCOD8013499 Si02
#       8
#     2   2   2   2   2   2   2   2
#     4  10  22  42  62  96 137 171 218 273 336 407
#     4  11  25  43  65  99 136 173 231 289 346 401
#     4  10  23  40  64  99 136 173 219 272 334 402
#     4   9  20  40  63  95 130 172 223 269 329 408
#     4  10  21  40  68  95 132 178 221 275 336 412
#     4  10  22  45  69 100 131 178 231 277 341 412
#     4  10  24  43  71  97 132 179 230 283 339 405
#     4  10  23  41  63  98 129 177 224 279 343 398
#
# _framework density 23.202853999999999
#
# number of rings (size 3 to 8) (size 9 to 14) (size 15 to 20)
#    0.000    2.000    0.000    1.500    8.750    1.000 
#    4.500   10.000    0.000    0.000    0.000    0.000 
#    0.000    0.000    0.000    0.000    0.000    0.000 
#
# Total GULP energy -198254.503469 kJ/mol
# GULP energy per Si atom -12390.906467 kJ/mol
# Density = 2.315004 g / cm^3
# Si number density = 23.202854 Si / 1000 Ang^3
#
#
#
# Elastic Constant Matrix: (Units=GPa)
#
#
# Indices 1 2 3 4 5 6 
#
# 1 187.6281 28.0916 51.3501 20.2204 11.0344 -14.7135
# 2 28.0916 96.4848 34.0249 22.0885 0.1858 -17.9150
# 3 51.3501 34.0249 150.5180 21.3799 15.3521 -2.4785
# 4 20.2204 22.0885 21.3799 28.5401 3.1688 1.1992
# 5 11.0344 0.1858 15.3521 3.1688 30.0863 12.1904
# 6 -14.7135 -17.9150 -2.4785 1.1992 12.1904 36.8792
#
#
#
# Elastic Compliance Matrix: (Units=1/GPa)
#
#
# Indices 1 2 3 4 5 6 
#
# 1 0.006519 0.000053 -0.001407 -0.003450 -0.002750 0.003553
# 2 0.000053 0.014773 -0.001602 -0.010449 -0.001389 0.007889
# 3 -0.001407 -0.001602 0.008380 -0.003666 -0.003577 0.000525
# 4 -0.003450 -0.010449 -0.003666 0.048501 0.001669 -0.008827
# 5 -0.002750 -0.001389 -0.003577 0.001669 0.042423 -0.016089
# 6 0.003553 0.007889 0.000525 -0.008827 -0.016089 0.038006
#
#
# Mechanical properties :
#
#
# Convention : Reuss Voigt Hill
#
# Bulk Modulus (GPa) = 42.08697 73.50711 57.79704
# Shear Modulus (GPa) = 28.99652 40.51206 34.75429
#
# Velocity S-wave (km/s) = 3.53894 4.18304 3.87440
# Velocity P-wave (km/s) = 5.90566 7.42155 6.70658
#
# Compressibility (1/GPa) = 0.02376032
#
# Stress axis : x y z
#
# Youngs Moduli (GPa) = 153.39978 67.68978 119.33145
#
# Poissons Ratio (x) = -0.00358 0.16790
# Poissons Ratio (y) = -0.00812 0.19115
# Poissons Ratio (z) = 0.21583 0.10843
#
# Static dielectric constant tensor:
#      x y z
#    x 9.937620 -0.311300 0.155310 
#    y -0.311300 4.298910 0.532170 
#    z 0.155310 0.532170 4.130180 
# 
# 
# High freq. dielectric constant tensor:
#      x y z
#    x 1.943510 -0.003610 0.007170 
#    y -0.003610 1.904670 0.028040 
#    z 0.007170 0.028040 1.895040 
# 
# From -- ./inp_files/482637.got.cif
#   From: 2010.06.25/outbox.cif.g09.slc.cpg/sg2_242_cif.got.tgz:482637.got - 2010.06.27 13:26:56.
