data_PCOD8013963
_publ_section_title
;
Structure prediction by ZEFSAII (Michael W. Deem and Ramdas Pophale) SiO2 
 PCOD8013963
Probable space group: P -1
;
_chemical_formula_sum "Si O2"
_cell_formula_units_Z 16
_cell_length_a 9.111644
_cell_length_b 14.786273
_cell_length_c 5.709479
_cell_angle_alpha 72.862315
_cell_angle_beta 92.532834
_cell_angle_gamma 111.495176
_cell_volume 682.181342
_symmetry_space_group_name_H-M "P -1"
_symmetry_group_IT_number 2
_symmetry_cell_setting 'triclinic'
loop_
_space_group_symop_operation_xyz
x,y,z
-x,-y,-z
loop_
_atom_site_type_symbol
_atom_site_label
_atom_site_fract_x
_atom_site_fract_y
_atom_site_fract_z
Si Si1 0.655557 0.754209 0.897334
Si Si2 0.539137 0.457981 0.784315
Si Si3 0.173306 0.074178 0.881535
Si Si4 0.848667 0.426657 0.910050
Si Si5 0.075920 0.209413 0.429528
Si Si6 0.208740 0.891811 0.816815
Si Si7 0.639322 0.230902 0.328473
Si Si8 0.877489 0.275581 0.687018
O O1 0.795234 0.727822 0.802582
O O2 0.534613 0.766658 0.684821
O O3 0.564226 0.662991 0.138470
O O4 0.726913 0.863925 0.940952
O O5 0.500000 0.500000 0.500000
O O6 0.726299 0.479624 0.784171
O O7 0.500000 0.500000 0.000000
O O8 0.166860 0.156847 0.634958
O O9 0.267474 0.006631 0.831592
O O10 0.000000 0.000000 0.000000
O O11 0.911303 0.385795 0.716716
O O12 0.762464 0.330941 0.140532
O O13 0.000000 0.500000 0.000000
O O14 0.922699 0.120356 0.381917
O O15 0.017275 0.289737 0.498354
O O16 0.355417 0.867738 0.737710
O O17 0.116111 0.809963 0.068935
O O18 0.700785 0.232560 0.595837
#
# Coordination Sequence:
#
# PCOD8013963 Si02
#       8
#     2   2   2   2   2   2   2   2
#     4  11  26  44  70 107 139 194 240 300 377 439
#     4  11  29  54  79 110 155 195 254 318 384 455
#     4  12  23  40  68 103 144 186 240 302 362 434
#     4  10  24  47  73 106 138 185 252 307 381 445
#     4  11  22  39  69 101 141 184 242 290 365 429
#     4  10  21  41  63  99 135 183 236 290 351 432
#     4   9  23  43  65  95 141 185 236 295 363 442
#     4  10  21  42  71  92 141 185 232 301 355 438
#
# _framework density 23.454173000000001
#
# number of rings (size 3 to 8) (size 9 to 14) (size 15 to 20)
#    0.000    1.500    2.500    0.375    5.250    7.000 
#    2.250    1.250    0.000    0.000    0.000    0.000 
#    0.000    0.000    0.000    0.000    0.000    0.000 
#
# Total GULP energy -198357.729336 kJ/mol
# GULP energy per Si atom -12397.358084 kJ/mol
# Density = 2.340079 g / cm^3
# Si number density = 23.454173 Si / 1000 Ang^3
#
#
#
# Elastic Constant Matrix: (Units=GPa)
#
#
# Indices 1 2 3 4 5 6 
#
# 1 136.3486 72.9814 45.2742 18.0753 5.7508 -13.4570
# 2 72.9814 136.7302 41.4797 36.3781 -0.8593 -7.0987
# 3 45.2742 41.4797 85.0770 26.1388 10.7877 -7.7238
# 4 18.0753 36.3781 26.1388 37.3455 -8.3376 -6.3377
# 5 5.7508 -0.8593 10.7877 -8.3376 34.1664 0.8241
# 6 -13.4570 -7.0987 -7.7238 -6.3377 0.8241 36.9368
#
#
#
# Elastic Compliance Matrix: (Units=1/GPa)
#
#
# Indices 1 2 3 4 5 6 
#
# 1 0.011583 -0.005646 -0.004152 0.003268 -0.000051 0.002829
# 2 -0.005646 0.013054 -0.000147 -0.010368 -0.001173 -0.001332
# 3 -0.004152 -0.000147 0.019193 -0.013126 -0.008578 0.000412
# 4 0.003268 -0.010368 -0.013126 0.048607 0.015088 0.004457
# 5 -0.000051 -0.001173 -0.008578 0.015088 0.035644 -0.000244
# 6 0.002829 -0.001332 0.000412 0.004457 -0.000244 0.028704
#
#
# Mechanical properties :
#
#
# Convention : Reuss Voigt Hill
#
# Bulk Modulus (GPa) = 41.76971 75.29183 58.53077
# Shear Modulus (GPa) = 27.07768 34.91776 30.99772
#
# Velocity S-wave (km/s) = 3.40147 3.86264 3.63937
# Velocity P-wave (km/s) = 5.76840 7.21558 6.53219
#
# Compressibility (1/GPa) = 0.02394079
#
# Stress axis : x y z
#
# Youngs Moduli (GPa) = 86.33416 76.60625 52.10233
#
# Poissons Ratio (x) = 0.43251 0.21633
# Poissons Ratio (y) = 0.48743 0.00763
# Poissons Ratio (z) = 0.35846 0.01123
#
# Static dielectric constant tensor:
#      x y z
#    x 4.374720 -0.268470 0.078360 
#    y -0.268470 4.257960 0.209070 
#    z 0.078360 0.209070 4.291960 
# 
# 
# High freq. dielectric constant tensor:
#      x y z
#    x 1.933110 -0.014510 0.008900 
#    y -0.014510 1.919990 0.013650 
#    z 0.008900 0.013650 1.928520 
# 
# From -- ./inp_files/38040.got.cif
#   From: 2010.06.25/outbox.cif.g09.slc.cpg/sg2_20_cif.got.tgz:38040.got - 2010.06.27 13:26:56.
