data_PCOD8013419
_publ_section_title
;
Structure prediction by ZEFSAII (Michael W. Deem and Ramdas Pophale) SiO2 
 PCOD8013419
Probable space group: P -1
;
_chemical_formula_sum "Si O2"
_cell_formula_units_Z 16
_cell_length_a 11.588238
_cell_length_b 11.909155
_cell_length_c 9.620941
_cell_angle_alpha 99.449351
_cell_angle_beta 139.547711
_cell_angle_gamma 59.561181
_cell_volume 682.115876
_symmetry_space_group_name_H-M "P -1"
_symmetry_group_IT_number 2
_symmetry_cell_setting 'triclinic'
loop_
_space_group_symop_operation_xyz
x,y,z
-x,-y,-z
loop_
_atom_site_type_symbol
_atom_site_label
_atom_site_fract_x
_atom_site_fract_y
_atom_site_fract_z
Si Si1 0.995978 0.219816 0.170144
Si Si2 0.973926 0.693450 0.485053
Si Si3 0.131804 0.737179 0.375589
Si Si4 0.547888 0.220288 0.441124
Si Si5 0.664829 0.166165 0.853111
Si Si6 0.274433 0.114378 0.149257
Si Si7 0.651613 0.622018 0.168019
Si Si8 0.401004 0.466228 0.191364
O O1 0.063707 0.237723 0.385661
O O2 0.916388 0.118926 0.073164
O O3 0.796050 0.368997 0.948215
O O4 0.219856 0.140527 0.269192
O O5 0.018152 0.777286 0.431966
O O6 0.173529 0.528178 0.631301
O O7 0.754555 0.706532 0.245781
O O8 0.216813 0.831932 0.425946
O O9 0.357520 0.572687 0.550429
O O10 0.950219 0.758913 0.107012
O O11 0.553227 0.224946 0.613076
O O12 0.355248 0.379447 0.239685
O O13 0.481531 0.118303 0.310473
O O14 0.544531 0.289966 0.882849
O O15 0.663467 0.035858 0.873262
O O16 0.559356 0.600273 0.939769
#
# Coordination Sequence:
#
# PCOD8013419 Si02
#       8
#     2   2   2   2   2   2   2   2
#     4  11  22  39  68  95 127 167 212 262 321 376
#     4  10  21  40  68  99 125 164 214 269 319 374
#     4  10  22  42  64  94 128 165 210 265 318 370
#     4  10  24  42  65  94 128 167 211 267 317 370
#     4  12  24  42  64  93 130 173 211 259 314 382
#     4  12  25  44  65  91 132 173 215 256 309 389
#     4  10  21  40  67  97 130 165 213 262 320 377
#     4   9  21  41  65  97 124 162 206 273 321 364
#
# _framework density 23.456427000000001
#
# number of rings (size 3 to 8) (size 9 to 14) (size 15 to 20)
#    0.750    0.750    1.250    3.750    0.000    5.500 
#    0.000    6.250    0.000    0.000    0.000    0.000 
#    0.000    0.000    0.000    0.000    0.000    0.000 
#
# Total GULP energy -198289.337649 kJ/mol
# GULP energy per Si atom -12393.083603 kJ/mol
# Density = 2.340304 g / cm^3
# Si number density = 23.456427 Si / 1000 Ang^3
#
#
#
# Elastic Constant Matrix: (Units=GPa)
#
#
# Indices 1 2 3 4 5 6 
#
# 1 106.6587 17.3388 18.9905 10.2307 3.9537 16.0108
# 2 17.3388 66.4757 8.3472 17.3052 -11.1956 5.8319
# 3 18.9905 8.3472 53.9753 12.5508 1.3520 7.6940
# 4 10.2307 17.3052 12.5508 23.1513 11.6091 4.7724
# 5 3.9537 -11.1956 1.3520 11.6091 24.4906 13.0517
# 6 16.0108 5.8319 7.6940 4.7724 13.0517 33.9893
#
#
#
# Elastic Compliance Matrix: (Units=1/GPa)
#
#
# Indices 1 2 3 4 5 6 
#
# 1 0.010876 -0.001492 -0.002562 -0.001860 0.000919 -0.004379
# 2 -0.001492 0.043559 0.010613 -0.064217 0.062979 -0.024341
# 3 -0.002562 0.010613 0.026006 -0.030867 0.024663 -0.011637
# 4 -0.001860 -0.064217 -0.030867 0.164302 -0.129504 0.045542
# 5 0.000919 0.062979 0.024663 -0.129504 0.161907 -0.060810
# 6 -0.004379 -0.024341 -0.011637 0.045542 -0.060810 0.055251
#
#
# Mechanical properties :
#
#
# Convention : Reuss Voigt Hill
#
# Bulk Modulus (GPa) = 10.68846 35.16253 22.92549
# Shear Modulus (GPa) = 10.41734 28.48844 19.45289
#
# Velocity S-wave (km/s) = 2.10969 3.48879 2.88292
# Velocity P-wave (km/s) = 3.24053 5.59034 4.56908
#
# Compressibility (1/GPa) = 0.09355889
#
# Stress axis : x y z
#
# Youngs Moduli (GPa) = 91.94449 22.95750 38.45288
#
# Poissons Ratio (x) = 0.03425 0.09852
# Poissons Ratio (y) = 0.13716 -0.40810
# Poissons Ratio (z) = 0.23557 -0.24365
#
# Static dielectric constant tensor:
#      x y z
#    x 4.291830 0.282300 -0.014600 
#    y 0.282300 3.876200 0.010400 
#    z -0.014600 0.010400 4.253160 
# 
# 
# High freq. dielectric constant tensor:
#      x y z
#    x 1.931960 0.014390 -0.002380 
#    y 0.014390 1.898760 0.003420 
#    z -0.002380 0.003420 1.936340 
# 
# From -- ./inp_files/262741.got.cif
#   From: 2010.06.25/outbox.cif.g09.slc.cpg/sg2_132_cif.got.tgz:262741.got - 2010.06.27 13:26:56.
