data_PCOD8013383
_publ_section_title
;
Structure prediction by ZEFSAII (Michael W. Deem and Ramdas Pophale) SiO2 
 PCOD8013383
Probable space group: P -1
;
_chemical_formula_sum "Si O2"
_cell_formula_units_Z 16
_cell_length_a 8.531269
_cell_length_b 13.166509
_cell_length_c 16.364329
_cell_angle_alpha 155.560885
_cell_angle_beta 98.618270
_cell_angle_gamma 91.105274
_cell_volume 695.296734
_symmetry_space_group_name_H-M "P -1"
_symmetry_group_IT_number 2
_symmetry_cell_setting 'triclinic'
loop_
_space_group_symop_operation_xyz
x,y,z
-x,-y,-z
loop_
_atom_site_type_symbol
_atom_site_label
_atom_site_fract_x
_atom_site_fract_y
_atom_site_fract_z
Si Si1 0.722418 0.831633 0.465750
Si Si2 0.443931 0.412136 0.022819
Si Si3 0.290763 0.926663 0.032613
Si Si4 0.694942 0.184831 0.390806
Si Si5 0.013308 0.397392 0.688939
Si Si6 0.328302 0.848284 0.808674
Si Si7 0.857826 0.415126 0.858371
Si Si8 0.376761 0.316430 0.466886
O O1 0.575607 0.597815 0.235141
O O2 0.911013 0.831165 0.461739
O O3 0.693957 0.820930 0.552927
O O4 0.727723 0.110251 0.635177
O O5 0.254631 0.406214 0.018055
O O6 0.500000 0.500000 0.000000
O O7 0.431434 0.112411 0.812723
O O8 0.486196 0.940758 0.052393
O O9 0.274352 0.137619 0.250613
O O10 0.167723 0.637174 0.837209
O O11 0.246652 0.966695 0.962263
O O12 0.783156 0.205153 0.322275
O O13 0.577482 0.360734 0.508836
O O14 0.846440 0.302287 0.551299
O O15 0.961364 0.480164 0.830735
O O16 0.353964 0.591414 0.658695
O O17 0.000000 0.500000 0.000000
#
# Coordination Sequence:
#
# PCOD8013383 Si02
#       8
#     2   2   2   2   2   2   2   2
#     4  12  23  42  72  94 133 183 227 275 329 411
#     4  12  25  45  69 101 131 181 232 273 331 405
#     4  10  21  40  67  94 133 173 227 269 330 397
#     4  11  24  41  67  97 140 171 220 288 336 397
#     4  12  24  43  63 101 138 178 218 276 353 395
#     4  10  22  44  69  97 134 178 235 276 327 394
#     4  12  25  43  66 100 140 174 220 282 344 400
#     4  11  22  44  70 101 129 179 233 275 330 398
#
# _framework density 23.011756999999999
#
# number of rings (size 3 to 8) (size 9 to 14) (size 15 to 20)
#    0.000    0.750    1.250    8.250    1.750    0.500 
#    2.250    2.500    0.000    0.000    0.000    0.000 
#    0.000    0.000    0.000    0.000    0.000    0.000 
#
# Total GULP energy -198364.782487 kJ/mol
# GULP energy per Si atom -12397.798905 kJ/mol
# Density = 2.295938 g / cm^3
# Si number density = 23.011757 Si / 1000 Ang^3
#
#
#
# Elastic Constant Matrix: (Units=GPa)
#
#
# Indices 1 2 3 4 5 6 
#
# 1 68.1024 24.8441 17.5774 -18.5356 -6.0797 10.0897
# 2 24.8441 130.2714 35.9978 -30.9133 -2.5040 29.1852
# 3 17.5774 35.9978 104.6955 -18.0680 11.3662 5.3204
# 4 -18.5356 -30.9133 -18.0680 58.4779 9.5894 -2.1975
# 5 -6.0797 -2.5040 11.3662 9.5894 31.0624 -8.4389
# 6 10.0897 29.1852 5.3204 -2.1975 -8.4389 45.6896
#
#
#
# Elastic Compliance Matrix: (Units=1/GPa)
#
#
# Indices 1 2 3 4 5 6 
#
# 1 0.017192 -0.001355 -0.001919 0.003693 0.002243 -0.002116
# 2 -0.001355 0.011160 -0.002235 0.004832 -0.001854 -0.006679
# 3 -0.001919 -0.002235 0.011784 0.002794 -0.005858 -0.000468
# 4 0.003693 0.004832 0.002794 0.022864 -0.008231 -0.004648
# 5 0.002243 -0.001854 -0.005858 -0.008231 0.039410 0.008254
# 6 -0.002116 -0.006679 -0.000468 -0.004648 0.008254 0.027976
#
#
# Mechanical properties :
#
#
# Convention : Reuss Voigt Hill
#
# Bulk Modulus (GPa) = 34.34344 51.10087 42.72216
# Shear Modulus (GPa) = 33.08849 42.02265 37.55557
#
# Velocity S-wave (km/s) = 3.79607 4.27797 4.04421
# Velocity P-wave (km/s) = 5.84553 6.83052 6.35713
#
# Compressibility (1/GPa) = 0.02911764
#
# Stress axis : x y z
#
# Youngs Moduli (GPa) = 58.16585 89.60832 84.86014
#
# Poissons Ratio (x) = 0.12142 0.16287
# Poissons Ratio (y) = 0.07882 0.18965
# Poissons Ratio (z) = 0.11164 0.20027
#
# Static dielectric constant tensor:
#      x y z
#    x 4.017540 0.118410 -0.088080 
#    y 0.118410 4.535640 -0.280490 
#    z -0.088080 -0.280490 4.353380 
# 
# 
# High freq. dielectric constant tensor:
#      x y z
#    x 1.886860 0.012870 -0.002900 
#    y 0.012870 1.932540 -0.016140 
#    z -0.002900 -0.016140 1.921050 
# 
# From -- ./inp_files/328465.got.cif
#   From: 2010.06.25/outbox.cif.g09.slc.cpg/sg2_165_cif.got.tgz:328465.got - 2010.06.27 13:26:56.
