data_PCOD8013833
_publ_section_title
;
Structure prediction by ZEFSAII (Michael W. Deem and Ramdas Pophale) SiO2 
 PCOD8013833
Probable space group: P -1
;
_chemical_formula_sum "Si O2"
_cell_formula_units_Z 16
_cell_length_a 8.130467
_cell_length_b 8.579933
_cell_length_c 15.813273
_cell_angle_alpha 115.395434
_cell_angle_beta 90.638811
_cell_angle_gamma 128.816498
_cell_volume 712.380812
_symmetry_space_group_name_H-M "P -1"
_symmetry_group_IT_number 2
_symmetry_cell_setting 'triclinic'
loop_
_space_group_symop_operation_xyz
x,y,z
-x,-y,-z
loop_
_atom_site_type_symbol
_atom_site_label
_atom_site_fract_x
_atom_site_fract_y
_atom_site_fract_z
Si Si1 0.020026 0.322888 0.424898
Si Si2 0.843310 0.095904 0.700554
Si Si3 0.320032 0.367622 0.316644
Si Si4 0.396445 0.891343 0.716671
Si Si5 0.535889 0.909404 0.062241
Si Si6 0.014774 0.972880 0.897674
Si Si7 0.828595 0.638498 0.390955
Si Si8 0.096497 0.407606 0.926599
O O1 0.230542 0.467139 0.392330
O O2 0.069149 0.238137 0.487129
O O3 0.000000 0.500000 0.500000
O O4 0.780012 0.097202 0.322443
O O5 0.970044 0.168868 0.628848
O O6 0.002759 0.339459 0.814660
O O7 0.797321 0.875380 0.688993
O O8 0.590604 0.998473 0.671404
O O9 0.595175 0.577149 0.360599
O O10 0.215499 0.283752 0.201732
O O11 0.242604 0.612772 0.673666
O O12 0.528223 0.037701 0.838724
O O13 0.787360 0.023556 0.110757
O O14 0.371464 0.626353 0.980077
O O15 0.500000 0.000000 0.000000
O O16 0.045737 0.182865 0.908332
O O17 0.000000 0.000000 0.000000
O O18 0.000000 0.500000 0.000000
#
# Coordination Sequence:
#
# PCOD8013833 Si02
#       8
#     2   2   2   2   2   2   2   2
#     4  10  21  42  66  90 124 165 214 270 327 381
#     4  10  22  39  63  93 126 168 214 262 323 387
#     4  10  22  43  64  91 132 164 210 271 324 383
#     4  10  21  41  62  91 130 167 210 273 321 382
#     4  12  23  39  66  90 131 178 219 268 328 388
#     4  11  25  40  62  98 132 172 219 265 325 399
#     4  10  22  39  67  92 120 166 217 262 329 390
#     4  11  22  40  62  91 132 172 216 265 319 391
#
# _framework density 22.459899
#
# number of rings (size 3 to 8) (size 9 to 14) (size 15 to 20)
#    0.000    1.500    2.500    2.250    5.250    1.000 
#    0.000    2.500    0.000    0.000    0.000    0.000 
#    0.000    0.000    0.000    0.000    0.000    0.000 
#
# Total GULP energy -198247.387866 kJ/mol
# GULP energy per Si atom -12390.461742 kJ/mol
# Density = 2.240878 g / cm^3
# Si number density = 22.459899 Si / 1000 Ang^3
#
#
#
# Elastic Constant Matrix: (Units=GPa)
#
#
# Indices 1 2 3 4 5 6 
#
# 1 137.1794 24.7244 37.9917 -13.5353 11.9755 18.5652
# 2 24.7244 62.2924 25.8840 -10.1984 3.5624 23.2878
# 3 37.9917 25.8840 127.2435 -22.4751 13.1913 7.1041
# 4 -13.5353 -10.1984 -22.4751 33.7929 3.5284 -8.6005
# 5 11.9755 3.5624 13.1913 3.5284 45.3378 0.9820
# 6 18.5652 23.2878 7.1041 -8.6005 0.9820 33.0150
#
#
#
# Elastic Compliance Matrix: (Units=1/GPa)
#
#
# Indices 1 2 3 4 5 6 
#
# 1 0.008718 -0.001180 -0.001771 0.001298 -0.001724 -0.003300
# 2 -0.001180 0.023764 -0.003517 0.000517 -0.000243 -0.015200
# 3 -0.001771 -0.003517 0.010311 0.006127 -0.002796 0.002937
# 4 0.001298 0.000517 0.006127 0.036745 -0.005184 0.007313
# 5 -0.001724 -0.000243 -0.002796 -0.005184 0.023755 -0.000314
# 6 -0.003300 -0.015200 0.002937 0.007313 -0.000314 0.044149
#
#
# Mechanical properties :
#
#
# Convention : Reuss Voigt Hill
#
# Bulk Modulus (GPa) = 33.49067 55.99061 44.74064
# Shear Modulus (GPa) = 29.35481 38.30350 33.82915
#
# Velocity S-wave (km/s) = 3.61915 4.13415 3.88519
# Velocity P-wave (km/s) = 5.69280 6.91169 6.33165
#
# Compressibility (1/GPa) = 0.02985906
#
# Stress axis : x y z
#
# Youngs Moduli (GPa) = 114.70592 42.08042 96.98317
#
# Poissons Ratio (x) = 0.04964 0.17172
# Poissons Ratio (y) = 0.13532 0.34105
# Poissons Ratio (z) = 0.20310 0.14798
#
# Static dielectric constant tensor:
#      x y z
#    x 4.403160 0.008670 0.640060 
#    y 0.008670 3.612310 0.242590 
#    z 0.640060 0.242590 4.168330 
# 
# 
# High freq. dielectric constant tensor:
#      x y z
#    x 1.898720 0.011610 0.004500 
#    y 0.011610 1.847870 0.002670 
#    z 0.004500 0.002670 1.909520 
# 
# From -- ./inp_files/327117.got.cif
#   From: 2010.06.25/outbox.cif.g09.slc.cpg/sg2_164_cif.got.tgz:327117.got - 2010.06.27 13:26:56.
