data_PCOD8013797
_publ_section_title
;
Structure prediction by ZEFSAII (Michael W. Deem and Ramdas Pophale) SiO2 
 PCOD8013797
Probable space group: P -1
;
_chemical_formula_sum "Si O2"
_cell_formula_units_Z 14
_cell_length_a 15.862756
_cell_length_b 25.308919
_cell_length_c 6.782774
_cell_angle_alpha 67.910092
_cell_angle_beta 78.185553
_cell_angle_gamma 17.804304
_cell_volume 648.802060
_symmetry_space_group_name_H-M "P -1"
_symmetry_group_IT_number 2
_symmetry_cell_setting 'triclinic'
loop_
_space_group_symop_operation_xyz
x,y,z
-x,-y,-z
loop_
_atom_site_type_symbol
_atom_site_label
_atom_site_fract_x
_atom_site_fract_y
_atom_site_fract_z
Si Si1 0.298021 0.735406 0.237452
Si Si2 0.172415 0.910509 0.345103
Si Si3 0.976994 0.282030 0.358626
Si Si4 0.869486 0.823928 0.988863
Si Si5 0.188775 0.050623 0.830536
Si Si6 0.157813 0.257999 0.576992
Si Si7 0.279228 0.360389 0.658362
O O1 0.350561 0.743639 0.386645
O O2 0.644036 0.489534 0.350185
O O3 0.082413 0.820345 0.292202
O O4 0.128150 0.876552 0.941820
O O5 0.444255 0.787937 0.413296
O O6 0.000000 0.000000 0.500000
O O7 0.893393 0.331027 0.097782
O O8 0.221767 0.075357 0.604374
O O9 0.150380 0.231088 0.406220
O O10 0.512039 0.056477 0.735381
O O11 0.922875 0.847135 0.055881
O O12 0.932167 0.728250 0.223528
O O13 0.535949 0.797090 0.049272
O O14 0.896004 0.475670 0.377973
O O15 0.000000 0.500000 0.500000
#
# Coordination Sequence:
#
# PCOD8013797 Si02
#       7
#     2   2   2   2   2   2   2
#     4  10  22  40  61  90 128 163 209 258 316 372
#     4  10  23  41  66  94 126 165 212 257 314 384
#     4  11  22  39  65  90 123 168 213 252 318 379
#     4  10  22  39  62  91 123 167 212 256 313 378
#     4  10  23  39  60  93 130 161 205 271 303 376
#     4  10  21  41  62  86 128 165 209 265 313 370
#     4  11  21  42  68  90 128 169 205 264 326 360
#
# _framework density 21.578227999999999
#
# number of rings (size 3 to 8) (size 9 to 14) (size 15 to 20)
#    0.000    1.714    2.857    0.857    2.000    2.857 
#    0.000    2.143    0.000    0.000    0.000    0.000 
#    0.000    0.000    0.000    0.000    0.000    0.000 
#
# Total GULP energy -173544.738747 kJ/mol
# GULP energy per Si atom -12396.052768 kJ/mol
# Density = 2.152911 g / cm^3
# Si number density = 21.578228 Si / 1000 Ang^3
#
#
#
# Elastic Constant Matrix: (Units=GPa)
#
#
# Indices 1 2 3 4 5 6 
#
# 1 122.2062 28.3069 35.0091 -1.7563 1.6060 -1.2718
# 2 28.3069 72.3043 29.7190 -7.1341 -6.6516 2.1785
# 3 35.0091 29.7190 63.4999 4.9256 1.4746 11.0351
# 4 -1.7563 -7.1341 4.9256 38.9839 3.8511 2.5148
# 5 1.6060 -6.6516 1.4746 3.8511 33.4844 -14.0719
# 6 -1.2718 2.1785 11.0351 2.5148 -14.0719 38.9043
#
#
#
# Elastic Compliance Matrix: (Units=1/GPa)
#
#
# Indices 1 2 3 4 5 6 
#
# 1 0.010092 -0.001854 -0.005070 0.000628 0.000081 0.001861
# 2 -0.001854 0.018898 -0.008743 0.003794 0.005024 0.002933
# 3 -0.005070 -0.008743 0.024531 -0.003822 -0.005682 -0.008443
# 4 0.000628 0.003794 -0.003822 0.027290 -0.003082 -0.001986
# 5 0.000081 0.005024 -0.005682 -0.003082 0.037863 0.015228
# 6 0.001861 0.002933 -0.008443 -0.001986 0.015228 0.033632
#
#
# Mechanical properties :
#
#
# Convention : Reuss Voigt Hill
#
# Bulk Modulus (GPa) = 45.07249 49.34227 47.20738
# Shear Modulus (GPa) = 26.17306 33.27289 29.72298
#
# Velocity S-wave (km/s) = 3.48650 3.93105 3.71543
# Velocity P-wave (km/s) = 6.09433 6.59701 6.35065
#
# Compressibility (1/GPa) = 0.02218648
#
# Stress axis : x y z
#
# Youngs Moduli (GPa) = 99.08700 52.91541 40.76443
#
# Poissons Ratio (x) = 0.09809 0.20669
# Poissons Ratio (y) = 0.18367 0.35642
# Poissons Ratio (z) = 0.50242 0.46266
#
# Static dielectric constant tensor:
#      x y z
#    x 4.155900 0.076350 0.021620 
#    y 0.076350 3.784230 -0.220540 
#    z 0.021620 -0.220540 3.987460 
# 
# 
# High freq. dielectric constant tensor:
#      x y z
#    x 1.860150 0.003730 -0.000750 
#    y 0.003730 1.834410 -0.023680 
#    z -0.000750 -0.023680 1.841610 
# 
# From -- ./inp_files/60353.got.cif
#   From: 2010.06.25/outbox.cif.g09.slc.cpg/sg2_31_cif.got.tgz:60353.got - 2010.06.27 13:26:56.
