data_PCOD8013652
_publ_section_title
;
Structure prediction by ZEFSAII (Michael W. Deem and Ramdas Pophale) SiO2 
 PCOD8013652
Probable space group: P -1
;
_chemical_formula_sum "Si O2"
_cell_formula_units_Z 16
_cell_length_a 17.405482
_cell_length_b 9.064851
_cell_length_c 10.807105
_cell_angle_alpha 59.249238
_cell_angle_beta 144.940279
_cell_angle_gamma 128.432192
_cell_volume 767.254014
_symmetry_space_group_name_H-M "P -1"
_symmetry_group_IT_number 2
_symmetry_cell_setting 'triclinic'
loop_
_space_group_symop_operation_xyz
x,y,z
-x,-y,-z
loop_
_atom_site_type_symbol
_atom_site_label
_atom_site_fract_x
_atom_site_fract_y
_atom_site_fract_z
Si Si1 0.912586 0.309267 0.034302
Si Si2 0.087964 0.032957 0.974811
Si Si3 0.376128 0.539630 0.886407
Si Si4 0.900583 0.214673 0.548211
Si Si5 0.425097 0.959630 0.786754
Si Si6 0.376264 0.383689 0.222234
Si Si7 0.943677 0.579754 0.565897
Si Si8 0.391448 0.692028 0.294143
O O1 0.917160 0.153091 0.015189
O O2 0.996008 0.316382 0.269964
O O3 0.745060 0.275279 0.847423
O O4 0.000000 0.500000 0.000000
O O5 0.017105 0.125699 0.745302
O O6 0.254791 0.172665 0.156159
O O7 0.000000 0.000000 0.000000
O O8 0.413450 0.756966 0.815560
O O9 0.212172 0.411408 0.674966
O O10 0.500000 0.500000 0.000000
O O11 0.388064 0.493338 0.064131
O O12 0.738087 0.049526 0.409993
O O13 0.921520 0.361468 0.626073
O O14 0.927573 0.318247 0.407554
O O15 0.507659 0.119627 0.727144
O O16 0.500000 0.000000 0.000000
O O17 0.335026 0.508520 0.212432
O O18 0.524257 0.356967 0.460665
#
# Coordination Sequence:
#
# PCOD8013652 Si02
#       8
#     2   2   2   2   2   2   2   2
#     4  12  28  44  69 101 135 177 227 286 335 407
#     4  12  25  45  69  98 134 176 226 277 346 406
#     4  11  25  42  69 100 143 180 224 280 338 405
#     4  10  21  40  70  96 134 176 220 272 336 401
#     4  11  22  40  67 103 133 181 225 275 337 406
#     4  11  24  47  69 100 137 184 223 282 344 403
#     4  10  22  43  69  99 132 180 223 279 333 400
#     4  11  25  44  72 101 139 175 232 283 338 408
#
# _framework density 20.853588999999999
#
# number of rings (size 3 to 8) (size 9 to 14) (size 15 to 20)
#    0.000    1.000    2.500    3.750    5.250    4.000 
#    0.000    0.000    0.000    0.000    0.000    0.000 
#    0.000    0.000    0.000    0.000    0.000    0.000 
#
# Total GULP energy -198395.728965 kJ/mol
# GULP energy per Si atom -12399.733060 kJ/mol
# Density = 2.080613 g / cm^3
# Si number density = 20.853589 Si / 1000 Ang^3
#
#
#
# Elastic Constant Matrix: (Units=GPa)
#
#
# Indices 1 2 3 4 5 6 
#
# 1 112.3566 55.6581 61.1311 6.9907 9.3576 -12.9714
# 2 55.6581 126.4188 47.6950 9.3877 -0.4679 -5.3615
# 3 61.1311 47.6950 135.3971 0.7639 8.1056 -11.0849
# 4 6.9907 9.3877 0.7639 35.4708 2.3094 1.7010
# 5 9.3576 -0.4679 8.1056 2.3094 38.6638 -0.0821
# 6 -12.9714 -5.3615 -11.0849 1.7010 -0.0821 40.3179
#
#
#
# Elastic Compliance Matrix: (Units=1/GPa)
#
#
# Indices 1 2 3 4 5 6 
#
# 1 0.014070 -0.004290 -0.004459 -0.001517 -0.002426 0.002789
# 2 -0.004290 0.010673 -0.001946 -0.002028 0.001696 -0.000407
# 3 -0.004459 -0.001946 0.010234 0.001198 -0.001159 0.001068
# 4 -0.001517 -0.002028 0.001198 0.029190 -0.001655 -0.001663
# 5 -0.002426 0.001696 -0.001159 -0.001655 0.026812 -0.000749
# 6 0.002789 -0.000407 0.001068 -0.001663 -0.000749 0.026008
#
#
# Mechanical properties :
#
#
# Convention : Reuss Voigt Hill
#
# Bulk Modulus (GPa) = 73.60164 78.12677 75.86421
# Shear Modulus (GPa) = 34.98776 36.86974 35.92875
#
# Velocity S-wave (km/s) = 4.10052 4.20935 4.15529
# Velocity P-wave (km/s) = 7.60198 7.82117 7.71235
#
# Compressibility (1/GPa) = 0.01358665
#
# Stress axis : x y z
#
# Youngs Moduli (GPa) = 71.07266 93.69539 97.70878
#
# Poissons Ratio (x) = 0.40198 0.43570
# Poissons Ratio (y) = 0.30492 0.19014
# Poissons Ratio (z) = 0.31692 0.18233
#
# Static dielectric constant tensor:
#      x y z
#    x 3.823910 -0.001340 0.068510 
#    y -0.001340 3.966030 0.070650 
#    z 0.068510 0.070650 3.843810 
# 
# 
# High freq. dielectric constant tensor:
#      x y z
#    x 1.814090 0.008070 0.002920 
#    y 0.008070 1.824770 0.000980 
#    z 0.002920 0.000980 1.834130 
# 
# From -- ./inp_files/279099.got.cif
#   From: 2010.06.25/outbox.cif.g09.slc.cpg/sg2_140_cif.got.tgz:279099.got - 2010.06.27 13:26:56.
