data_PCOD8013276
_publ_section_title
;
Structure prediction by ZEFSAII (Michael W. Deem and Ramdas Pophale) SiO2 
 PCOD8013276
Probable space group: P -1
;
_chemical_formula_sum "Si O2"
_cell_formula_units_Z 12
_cell_length_a 6.390928
_cell_length_b 16.201960
_cell_length_c 9.283871
_cell_angle_alpha 141.931684
_cell_angle_beta 99.164515
_cell_angle_gamma 95.070115
_cell_volume 547.906678
_symmetry_space_group_name_H-M "P -1"
_symmetry_group_IT_number 2
_symmetry_cell_setting 'triclinic'
loop_
_space_group_symop_operation_xyz
x,y,z
-x,-y,-z
loop_
_atom_site_type_symbol
_atom_site_label
_atom_site_fract_x
_atom_site_fract_y
_atom_site_fract_z
Si Si1 0.723491 0.554439 0.448025
Si Si2 0.663247 0.508005 0.895023
Si Si3 0.157138 0.709718 0.521600
Si Si4 0.487808 0.723844 0.810263
Si Si5 0.961975 0.813310 0.397690
Si Si6 0.682459 0.941212 0.388559
O O1 0.481144 0.484467 0.248437
O O2 0.701459 0.687067 0.719545
O O3 0.721090 0.420044 0.360840
O O4 0.934930 0.603785 0.432289
O O5 0.750941 0.375377 0.704370
O O6 0.500000 0.500000 0.000000
O O7 0.888174 0.647551 0.118914
O O8 0.361002 0.787283 0.762248
O O9 0.081122 0.828145 0.588895
O O10 0.591947 0.837081 0.101008
O O11 0.741306 0.860898 0.424417
O O12 0.117549 0.914185 0.433306
O O13 0.500000 0.000000 0.500000
#
# Coordination Sequence:
#
# PCOD8013276 Si02
#       6
#     2   2   2   2   2   2
#     4  10  21  40  66  95 132 167 211 275 319 377
#     4  11  22  38  68 101 131 161 214 278 320 377
#     4  11  24  38  70  98 126 170 212 274 331 366
#     4  10  23  42  62  97 130 167 217 263 324 380
#     4  11  25  42  63  99 125 171 223 253 322 386
#     4  11  27  45  67  89 132 179 212 264 314 393
#
# _framework density 21.901537999999999
#
# number of rings (size 3 to 8) (size 9 to 14) (size 15 to 20)
#    0.000    1.333    3.333    1.000    4.667    3.333 
#    0.000    1.667    0.000    0.000    0.000    0.000 
#    0.000    0.000    0.000    0.000    0.000    0.000 
#
# Total GULP energy -148671.820389 kJ/mol
# GULP energy per Si atom -12389.318366 kJ/mol
# Density = 2.185169 g / cm^3
# Si number density = 21.901538 Si / 1000 Ang^3
#
#
#
# Elastic Constant Matrix: (Units=GPa)
#
#
# Indices 1 2 3 4 5 6 
#
# 1 102.2723 45.5901 43.3559 -7.0122 -17.9402 -9.3311
# 2 45.5901 127.2248 34.5864 -8.6858 -5.6089 -30.3044
# 3 43.3559 34.5864 101.0171 -7.0769 -9.7414 -9.6906
# 4 -7.0122 -8.6858 -7.0769 22.2854 5.7036 8.4120
# 5 -17.9402 -5.6089 -9.7414 5.7036 33.8157 -7.6563
# 6 -9.3311 -30.3044 -9.6906 8.4120 -7.6563 50.6735
#
#
#
# Elastic Compliance Matrix: (Units=1/GPa)
#
#
# Indices 1 2 3 4 5 6 
#
# 1 0.014258 -0.003550 -0.004282 0.000029 0.005865 0.000565
# 2 -0.003550 0.010966 -0.001598 0.000339 0.000696 0.005647
# 3 -0.004282 -0.001598 0.012535 0.001571 0.000930 0.000533
# 4 0.000029 0.000339 0.001571 0.051825 -0.010406 -0.009666
# 5 0.005865 0.000696 0.000930 -0.010406 0.036853 0.008970
# 6 0.000565 0.005647 0.000533 -0.009666 0.008970 0.026277
#
#
# Mechanical properties :
#
#
# Convention : Reuss Voigt Hill
#
# Bulk Modulus (GPa) = 52.91500 64.17544 58.54522
# Shear Modulus (GPa) = 28.10982 35.15372 31.63177
#
# Velocity S-wave (km/s) = 3.58643 4.01069 3.80448
# Velocity P-wave (km/s) = 6.43140 7.12832 6.78881
#
# Compressibility (1/GPa) = 0.01889823
#
# Stress axis : x y z
#
# Youngs Moduli (GPa) = 70.13628 91.19296 79.77538
#
# Poissons Ratio (x) = 0.32374 0.34161
# Poissons Ratio (y) = 0.24899 0.12749
# Poissons Ratio (z) = 0.30034 0.14574
#
# Static dielectric constant tensor:
#      x y z
#    x 4.389020 -0.317690 -0.094570 
#    y -0.317690 4.241060 -0.111600 
#    z -0.094570 -0.111600 3.770370 
# 
# 
# High freq. dielectric constant tensor:
#      x y z
#    x 1.869760 -0.019340 0.008370 
#    y -0.019340 1.869280 -0.013320 
#    z 0.008370 -0.013320 1.839650 
# 
# From -- ./inp_files/59335.got.cif
#   From: 2010.06.25/outbox.cif.g09.slc.cpg/sg2_30_cif.got.tgz:59335.got - 2010.06.27 13:26:56.
