data_PCOD8013147
_publ_section_title
;
Structure prediction by ZEFSAII (Michael W. Deem and Ramdas Pophale) SiO2 
 PCOD8013147
Probable space group: P -1
;
_chemical_formula_sum "Si O2"
_cell_formula_units_Z 14
_cell_length_a 8.865088
_cell_length_b 11.974319
_cell_length_c 11.293839
_cell_angle_alpha 31.746035
_cell_angle_beta 80.993079
_cell_angle_gamma 80.640448
_cell_volume 622.013856
_symmetry_space_group_name_H-M "P -1"
_symmetry_group_IT_number 2
_symmetry_cell_setting 'triclinic'
loop_
_space_group_symop_operation_xyz
x,y,z
-x,-y,-z
loop_
_atom_site_type_symbol
_atom_site_label
_atom_site_fract_x
_atom_site_fract_y
_atom_site_fract_z
Si Si1 0.952485 0.963469 0.904130
Si Si2 0.264697 0.710482 0.483930
Si Si3 0.762190 0.103736 0.232244
Si Si4 0.672920 0.433132 0.144355
Si Si5 0.469640 0.990773 0.837372
Si Si6 0.328738 0.273503 0.782910
Si Si7 0.389238 0.210407 0.332847
O O1 0.887643 0.182027 0.653221
O O2 0.092620 0.871670 0.890701
O O3 0.825542 0.789762 0.075905
O O4 0.000000 0.000000 0.000000
O O5 0.235373 0.598372 0.715300
O O6 0.328354 0.529243 0.547088
O O7 0.385689 0.886464 0.335033
O O8 0.759256 0.286538 0.166612
O O9 0.606273 0.132529 0.148772
O O10 0.757143 0.866026 0.506166
O O11 0.493402 0.381470 0.230122
O O12 0.674994 0.680862 0.879536
O O13 0.342226 0.163283 0.751622
O O14 0.519984 0.811842 0.087933
O O15 0.500000 0.000000 0.500000
#
# Coordination Sequence:
#
# PCOD8013147 Si02
#       7
#     2   2   2   2   2   2   2
#     4  11  25  46  63  90 129 174 211 258 319 377
#     4  11  24  41  66  96 129 165 212 262 321 377
#     4  11  22  40  67  93 130 167 212 258 311 383
#     4  10  22  38  64  99 125 166 209 259 321 370
#     4  10  21  40  65  96 125 165 211 267 314 364
#     4  10  23  41  63  92 130 166 210 264 316 376
#     4   9  20  37  60  95 127 162 204 256 307 369
#
# _framework density 22.507538
#
# number of rings (size 3 to 8) (size 9 to 14) (size 15 to 20)
#    0.000    1.714    2.857    0.429    6.000    3.429 
#    2.571    1.429    0.000    0.000    0.000    0.000 
#    0.000    0.000    0.000    0.000    0.000    0.000 
#
# Total GULP energy -173514.125788 kJ/mol
# GULP energy per Si atom -12393.866128 kJ/mol
# Density = 2.245631 g / cm^3
# Si number density = 22.507538 Si / 1000 Ang^3
#
#
#
# Elastic Constant Matrix: (Units=GPa)
#
#
# Indices 1 2 3 4 5 6 
#
# 1 78.3788 31.0990 27.8221 7.4871 10.3544 -7.2402
# 2 31.0990 95.9551 28.6981 6.1965 13.0428 -5.4268
# 3 27.8221 28.6981 107.3900 11.5192 24.5505 3.9953
# 4 7.4871 6.1965 11.5192 40.1944 2.2306 1.4207
# 5 10.3544 13.0428 24.5505 2.2306 34.7796 12.4170
# 6 -7.2402 -5.4268 3.9953 1.4207 12.4170 32.5033
#
#
#
# Elastic Compliance Matrix: (Units=1/GPa)
#
#
# Indices 1 2 3 4 5 6 
#
# 1 0.016095 -0.003681 -0.002438 -0.001715 -0.003213 0.004573
# 2 -0.003681 0.012808 -0.001702 -0.000709 -0.003493 0.002893
# 3 -0.002438 -0.001702 0.012326 -0.002427 -0.007391 0.000587
# 4 -0.001715 -0.000709 -0.002427 0.025987 0.001506 -0.001914
# 5 -0.003213 -0.003493 -0.007391 0.001506 0.042036 -0.016515
# 6 0.004573 0.002893 0.000587 -0.001914 -0.016515 0.038588
#
#
# Mechanical properties :
#
#
# Convention : Reuss Voigt Hill
#
# Bulk Modulus (GPa) = 39.08133 50.77359 44.92746
# Shear Modulus (GPa) = 29.06773 34.43579 31.75176
#
# Velocity S-wave (km/s) = 3.59760 3.91572 3.76003
# Velocity P-wave (km/s) = 5.88713 6.56135 6.23336
#
# Compressibility (1/GPa) = 0.02558766
#
# Stress axis : x y z
#
# Youngs Moduli (GPa) = 62.13023 78.07689 81.12705
#
# Poissons Ratio (x) = 0.28742 0.19776
# Poissons Ratio (y) = 0.22872 0.13807
# Poissons Ratio (z) = 0.15146 0.13288
#
# Static dielectric constant tensor:
#      x y z
#    x 3.907570 -0.077600 -0.083260 
#    y -0.077600 3.998830 0.269550 
#    z -0.083260 0.269550 4.520620 
# 
# 
# High freq. dielectric constant tensor:
#      x y z
#    x 1.856330 0.001430 0.002210 
#    y 0.001430 1.884280 0.008630 
#    z 0.002210 0.008630 1.896420 
# 
# From -- ./inp_files/391790.got.cif
#   From: 2010.06.25/outbox.cif.g09.slc.cpg/sg2_196_cif.got.tgz:391790.got - 2010.06.27 13:26:56.
