data_PCOD8013785
_publ_section_title
;
Structure prediction by ZEFSAII (Michael W. Deem and Ramdas Pophale) SiO2 
 PCOD8013785
Probable space group: P -1
;
_chemical_formula_sum "Si O2"
_cell_formula_units_Z 16
_cell_length_a 12.144450
_cell_length_b 9.754725
_cell_length_c 8.416032
_cell_angle_alpha 106.068613
_cell_angle_beta 105.683934
_cell_angle_gamma 49.384810
_cell_volume 721.686478
_symmetry_space_group_name_H-M "P -1"
_symmetry_group_IT_number 2
_symmetry_cell_setting 'triclinic'
loop_
_space_group_symop_operation_xyz
x,y,z
-x,-y,-z
loop_
_atom_site_type_symbol
_atom_site_label
_atom_site_fract_x
_atom_site_fract_y
_atom_site_fract_z
Si Si1 0.444272 0.704055 0.696165
Si Si2 0.474876 0.123250 0.677290
Si Si3 0.384061 0.697517 0.316158
Si Si4 0.920205 0.735925 0.814161
Si Si5 0.840621 0.941273 0.180204
Si Si6 0.063145 0.979958 0.191860
Si Si7 0.339915 0.218076 0.179570
Si Si8 0.198497 0.324687 0.815700
O O1 0.365982 0.726252 0.507665
O O2 0.505817 0.517109 0.749963
O O3 0.583950 0.694754 0.709033
O O4 0.325023 0.871408 0.815650
O O5 0.551171 0.213575 0.710323
O O6 0.302844 0.277533 0.692347
O O7 0.500000 0.000000 0.500000
O O8 0.541915 0.000433 0.823764
O O9 0.224866 0.789262 0.210646
O O10 0.793997 0.715250 0.727998
O O11 0.071823 0.538862 0.832490
O O12 0.933568 0.849936 0.721196
O O13 0.868305 0.857751 0.990425
O O14 0.861074 0.792093 0.261940
O O15 0.955885 0.979848 0.273353
O O16 0.000000 0.000000 0.000000
O O17 0.285356 0.274221 0.997430
#
# Coordination Sequence:
#
# PCOD8013785 Si02
#       8
#     2   2   2   2   2   2   2   2
#     4  11  25  41  67  95 127 173 221 265 332 384
#     4  12  23  44  69  92 132 169 214 273 324 377
#     4  11  25  44  63  95 130 173 217 267 324 399
#     4  10  23  40  64  96 127 166 218 265 320 385
#     4  10  21  41  61  93 131 166 212 265 327 375
#     4  10  23  40  63  90 131 169 208 267 326 378
#     4  11  21  41  67  95 127 171 215 270 323 373
#     4  11  24  39  68  99 127 169 221 265 320 391
#
# _framework density 22.170290999999999
#
# number of rings (size 3 to 8) (size 9 to 14) (size 15 to 20)
#    0.000    1.250    3.750    1.875    8.750    0.500 
#    0.000    3.750    2.750    0.000    0.000    0.000 
#    0.000    0.000    0.000    0.000    0.000    0.000 
#
# Total GULP energy -198330.706019 kJ/mol
# GULP energy per Si atom -12395.669126 kJ/mol
# Density = 2.211983 g / cm^3
# Si number density = 22.170291 Si / 1000 Ang^3
#
#
#
# Elastic Constant Matrix: (Units=GPa)
#
#
# Indices 1 2 3 4 5 6 
#
# 1 153.4238 47.9253 28.3879 2.8814 14.2404 -5.0205
# 2 47.9253 166.7122 37.9777 5.8009 4.5098 -12.3918
# 3 28.3879 37.9777 42.7007 2.6988 3.4876 -15.4484
# 4 2.8814 5.8009 2.6988 24.6302 -1.5486 -4.8687
# 5 14.2404 4.5098 3.4876 -1.5486 14.4984 5.3750
# 6 -5.0205 -12.3918 -15.4484 -4.8687 5.3750 38.2112
#
#
#
# Elastic Compliance Matrix: (Units=1/GPa)
#
#
# Indices 1 2 3 4 5 6 
#
# 1 0.008271 -0.001321 -0.003698 -0.000676 -0.006914 0.000049
# 2 -0.001321 0.007774 -0.006109 -0.001045 0.000350 -0.000305
# 3 -0.003698 -0.006109 0.036936 -0.000007 -0.008413 0.013648
# 4 -0.000676 -0.001045 -0.000007 0.042035 0.003856 0.004383
# 5 -0.006914 0.000350 -0.008413 0.003856 0.083836 -0.015498
# 6 0.000049 -0.000305 0.013648 0.004383 -0.015498 0.034334
#
#
# Mechanical properties :
#
#
# Convention : Reuss Voigt Hill
#
# Bulk Modulus (GPa) = 32.54708 65.71318 49.13013
# Shear Modulus (GPa) = 20.35136 32.03769 26.19452
#
# Velocity S-wave (km/s) = 3.03307 3.80554 3.44105
# Velocity P-wave (km/s) = 5.19407 7.00100 6.16410
#
# Compressibility (1/GPa) = 0.03072473
#
# Stress axis : x y z
#
# Youngs Moduli (GPa) = 120.90649 128.63521 27.07390
#
# Poissons Ratio (x) = 0.16991 0.10013
# Poissons Ratio (y) = 0.15971 0.16538
# Poissons Ratio (z) = 0.44717 0.78579
#
# Static dielectric constant tensor:
#      x y z
#    x 5.138890 0.351070 0.052550 
#    y 0.351070 4.202140 -0.096640 
#    z 0.052550 -0.096640 3.543230 
# 
# 
# High freq. dielectric constant tensor:
#      x y z
#    x 1.899350 0.007660 0.001440 
#    y 0.007660 1.879890 -0.009320 
#    z 0.001440 -0.009320 1.831690 
# 
# From -- ./inp_files/244628.got.cif
#   From: 2010.06.25/outbox.cif.g09.slc.cpg/sg2_123_cif.got.tgz:244628.got - 2010.06.27 13:26:56.
