data_PCOD8013134
_publ_section_title
;
Structure prediction by ZEFSAII (Michael W. Deem and Ramdas Pophale) SiO2 
 PCOD8013134
Probable space group: P -1
;
_chemical_formula_sum "Si O2"
_cell_formula_units_Z 10
_cell_length_a 6.788469
_cell_length_b 9.856961
_cell_length_c 9.829100
_cell_angle_alpha 134.201843
_cell_angle_beta 84.761800
_cell_angle_gamma 70.467667
_cell_volume 389.795094
_symmetry_space_group_name_H-M "P -1"
_symmetry_group_IT_number 2
_symmetry_cell_setting 'triclinic'
loop_
_space_group_symop_operation_xyz
x,y,z
-x,-y,-z
loop_
_atom_site_type_symbol
_atom_site_label
_atom_site_fract_x
_atom_site_fract_y
_atom_site_fract_z
Si Si1 0.727639 0.835199 0.022519
Si Si2 0.389644 0.516703 0.872622
Si Si3 0.795549 0.997466 0.869930
Si Si4 0.865392 0.340018 0.602822
Si Si5 0.236982 0.194611 0.693920
O O1 0.812103 0.591455 0.783061
O O2 0.822777 0.952778 0.000362
O O3 0.440165 0.988544 0.155191
O O4 0.822431 0.824448 0.160280
O O5 0.617397 0.357634 0.648785
O O6 0.214146 0.432399 0.836240
O O7 0.500000 0.500000 0.000000
O O8 0.225459 0.770646 0.002057
O O9 0.022191 0.782561 0.632193
O O10 0.043987 0.190425 0.610707
O O11 0.500000 0.000000 0.500000
#
# Coordination Sequence:
#
# PCOD8013134 Si02
#       5
#     2   2   2   2   2
#     4  10  21  40  65  95 128 167 210 259 316 377
#     4  11  23  42  64  97 128 164 214 263 309 379
#     4  10  21  41  67  91 131 168 207 262 318 372
#     4  11  22  42  71  91 126 171 212 254 322 375
#     4  12  23  43  67  95 126 168 214 263 311 375
#
# _framework density 25.654509000000001
#
# number of rings (size 3 to 8) (size 9 to 14) (size 15 to 20)
#    0.000    1.200    6.000    1.200    0.000    3.200 
#    0.000    2.000    0.000    2.400    0.000    0.000 
#    0.000    0.000    0.000    0.000    0.000    0.000 
#
# Total GULP energy -124059.546355 kJ/mol
# GULP energy per Si atom -12405.954635 kJ/mol
# Density = 2.559612 g / cm^3
# Si number density = 25.654509 Si / 1000 Ang^3
#
#
#
# Elastic Constant Matrix: (Units=GPa)
#
#
# Indices 1 2 3 4 5 6 
#
# 1 49.8380 26.8192 14.5232 -9.3764 -12.6615 5.6725
# 2 26.8192 166.4925 55.0615 -26.9378 -5.5886 20.0937
# 3 14.5232 55.0615 147.9237 -15.2034 -33.7063 3.7466
# 4 -9.3764 -26.9378 -15.2034 38.1989 -4.6013 -11.3084
# 5 -12.6615 -5.5886 -33.7063 -4.6013 37.2257 2.7083
# 6 5.6725 20.0937 3.7466 -11.3084 2.7083 31.7515
#
#
#
# Elastic Compliance Matrix: (Units=1/GPa)
#
#
# Indices 1 2 3 4 5 6 
#
# 1 0.025118 -0.003188 0.001672 0.005343 0.010359 -0.001648
# 2 -0.003188 0.008208 -0.002794 0.002738 -0.001813 -0.003165
# 3 0.001672 -0.002794 0.010274 0.003964 0.009882 0.000826
# 4 0.005343 0.002738 0.003964 0.034618 0.009488 0.008365
# 5 0.010359 -0.001813 0.009882 0.009488 0.040376 -0.001934
# 6 -0.001648 -0.003165 0.000826 0.008365 -0.001934 0.036839
#
#
# Mechanical properties :
#
#
# Convention : Reuss Voigt Hill
#
# Bulk Modulus (GPa) = 28.58764 61.89579 45.24172
# Shear Modulus (GPa) = 28.45559 39.29190 33.87375
#
# Velocity S-wave (km/s) = 3.33406 3.91778 3.63765
# Velocity P-wave (km/s) = 5.09792 6.68165 5.94278
#
# Compressibility (1/GPa) = 0.03498015
#
# Stress axis : x y z
#
# Youngs Moduli (GPa) = 39.81256 121.83334 97.33027
#
# Poissons Ratio (x) = 0.38840 -0.16271
# Poissons Ratio (y) = 0.12692 0.27191
# Poissons Ratio (z) = -0.06656 0.34037
#
# Static dielectric constant tensor:
#      x y z
#    x 4.808870 0.214860 -0.388090 
#    y 0.214860 4.906360 0.019190 
#    z -0.388090 0.019190 4.601520 
# 
# 
# High freq. dielectric constant tensor:
#      x y z
#    x 2.028200 0.000290 -0.031140 
#    y 0.000290 2.031950 0.004850 
#    z -0.031140 0.004850 2.025670 
# 
# From -- ./inp_files/148434.got.cif
#   From: 2010.06.25/outbox.cif.g09.slc.cpg/sg2_75_cif.got.tgz:148434.got - 2010.06.27 13:26:56.
