data_PCOD8013047
_publ_section_title
;
Structure prediction by ZEFSAII (Michael W. Deem and Ramdas Pophale) SiO2 
 PCOD8013047
Probable space group: P -1
;
_chemical_formula_sum "Si O2"
_cell_formula_units_Z 16
_cell_length_a 12.124063
_cell_length_b 24.585631
_cell_length_c 9.823838
_cell_angle_alpha 130.772426
_cell_angle_beta 129.283119
_cell_angle_gamma 19.785224
_cell_volume 748.659864
_symmetry_space_group_name_H-M "P -1"
_symmetry_group_IT_number 2
_symmetry_cell_setting 'triclinic'
loop_
_space_group_symop_operation_xyz
x,y,z
-x,-y,-z
loop_
_atom_site_type_symbol
_atom_site_label
_atom_site_fract_x
_atom_site_fract_y
_atom_site_fract_z
Si Si1 0.719134 0.338484 0.341750
Si Si2 0.818413 0.277901 0.798614
Si Si3 0.752001 0.574243 0.828242
Si Si4 0.840201 0.921302 0.519177
Si Si5 0.834956 0.084226 0.155096
Si Si6 0.731447 0.733668 0.452581
Si Si7 0.140366 0.646605 0.793086
Si Si8 0.179805 0.874283 0.319814
O O1 0.500000 0.500000 0.500000
O O2 0.512500 0.358261 0.195919
O O3 0.851333 0.299099 0.232919
O O4 0.047115 0.178855 0.429709
O O5 0.492717 0.449839 0.749052
O O6 0.733513 0.243483 0.753975
O O7 0.100658 0.143509 0.686218
O O8 0.943415 0.279333 0.007476
O O9 0.556260 0.730370 0.863402
O O10 0.942147 0.438972 0.649683
O O11 0.000000 0.500000 0.000000
O O12 0.062209 0.890974 0.644198
O O13 0.464513 0.119346 0.554651
O O14 0.949195 0.969750 0.160607
O O15 0.000000 0.000000 0.000000
O O16 0.517305 0.761336 0.363789
O O17 0.856175 0.716929 0.659072
O O18 0.000000 0.000000 0.500000
#
# Coordination Sequence:
#
# PCOD8013047 Si02
#       8
#     2   2   2   2   2   2   2   2
#     4  11  21  43  68  87 126 174 210 255 336 381
#     4  11  23  44  64  90 134 173 216 257 330 391
#     4  11  23  40  64  99 132 157 215 276 315 383
#     4  10  21  40  65  89 129 167 209 270 318 386
#     4  10  21  40  65  93 129 166 205 262 332 379
#     4  11  23  41  63  97 128 164 220 273 317 376
#     4  11  25  42  65  95 127 176 215 265 318 391
#     4  11  23  43  67  93 125 177 212 263 334 381
#
# _framework density 21.371518999999999
#
# number of rings (size 3 to 8) (size 9 to 14) (size 15 to 20)
#    0.000    1.250    5.000    2.250    5.250    1.500 
#    0.000    0.000    0.000    0.000    0.000    0.000 
#    0.000    0.000    0.000    0.000    0.000    0.000 
#
# Total GULP energy -198346.161615 kJ/mol
# GULP energy per Si atom -12396.635101 kJ/mol
# Density = 2.132288 g / cm^3
# Si number density = 21.371519 Si / 1000 Ang^3
#
#
#
# Elastic Constant Matrix: (Units=GPa)
#
#
# Indices 1 2 3 4 5 6 
#
# 1 79.3908 35.8680 22.6603 -12.2204 -9.0267 18.8093
# 2 35.8680 133.1200 58.0742 -7.1175 -11.5734 13.1665
# 3 22.6603 58.0742 108.4976 -15.2351 -5.1756 7.7624
# 4 -12.2204 -7.1175 -15.2351 40.7059 -2.8206 -1.9530
# 5 -9.0267 -11.5734 -5.1756 -2.8206 38.5956 -5.6604
# 6 18.8093 13.1665 7.7624 -1.9530 -5.6604 30.4951
#
#
#
# Elastic Compliance Matrix: (Units=1/GPa)
#
#
# Indices 1 2 3 4 5 6 
#
# 1 0.017009 -0.003084 -0.000635 0.004070 0.002040 -0.008359
# 2 -0.003084 0.010771 -0.005084 -0.000894 0.001583 -0.001217
# 3 -0.000635 -0.005084 0.012618 0.003643 0.000234 -0.000349
# 4 0.004070 -0.000894 0.003643 0.027171 0.003048 -0.000745
# 5 0.002040 0.001583 0.000234 0.003048 0.027602 0.003318
# 6 -0.008359 -0.001217 -0.000349 -0.000745 0.003318 0.039130
#
#
# Mechanical properties :
#
#
# Convention : Reuss Voigt Hill
#
# Bulk Modulus (GPa) = 43.87450 61.57926 52.72688
# Shear Modulus (GPa) = 31.34674 35.58637 33.46655
#
# Velocity S-wave (km/s) = 3.83398 4.08503 3.96149
# Velocity P-wave (km/s) = 6.33823 7.15026 6.75645
#
# Compressibility (1/GPa) = 0.02279228
#
# Stress axis : x y z
#
# Youngs Moduli (GPa) = 58.79125 92.83916 79.24980
#
# Poissons Ratio (x) = 0.28636 0.05030
# Poissons Ratio (y) = 0.18134 0.40292
# Poissons Ratio (z) = 0.03731 0.47201
#
# Static dielectric constant tensor:
#      x y z
#    x 4.000200 0.398090 0.006960 
#    y 0.398090 4.418690 -0.111410 
#    z 0.006960 -0.111410 4.020500 
# 
# 
# High freq. dielectric constant tensor:
#      x y z
#    x 1.810640 0.020480 -0.001100 
#    y 0.020480 1.854530 -0.001710 
#    z -0.001100 -0.001710 1.849470 
# 
# From -- ./inp_files/285187.got.cif
#   From: 2010.06.25/outbox.cif.g09.slc.cpg/sg2_143_cif.got.tgz:285187.got - 2010.06.27 13:26:56.
