data_PCOD8013759
_publ_section_title
;
Structure prediction by ZEFSAII (Michael W. Deem and Ramdas Pophale) SiO2 
 PCOD8013759
Probable space group: P -1
;
_chemical_formula_sum "Si O2"
_cell_formula_units_Z 16
_cell_length_a 11.639306
_cell_length_b 7.681071
_cell_length_c 12.424886
_cell_angle_alpha 127.577739
_cell_angle_beta 54.767304
_cell_angle_gamma 107.735255
_cell_volume 717.169876
_symmetry_space_group_name_H-M "P -1"
_symmetry_group_IT_number 2
_symmetry_cell_setting 'triclinic'
loop_
_space_group_symop_operation_xyz
x,y,z
-x,-y,-z
loop_
_atom_site_type_symbol
_atom_site_label
_atom_site_fract_x
_atom_site_fract_y
_atom_site_fract_z
Si Si1 0.928273 0.305900 0.028503
Si Si2 0.624010 0.711879 0.830893
Si Si3 0.614617 0.245480 0.592082
Si Si4 0.528311 0.802049 0.565986
Si Si5 0.889970 0.994281 0.308271
Si Si6 0.362778 0.879498 0.895343
Si Si7 0.175107 0.373278 0.635999
Si Si8 0.918403 0.710620 0.569790
O O1 0.779369 0.232255 0.034802
O O2 0.893303 0.386017 0.199270
O O3 0.000000 0.500000 0.000000
O O4 0.040718 0.091251 0.875638
O O5 0.620433 0.448001 0.749002
O O6 0.479234 0.790378 0.882607
O O7 0.753991 0.744601 0.695151
O O8 0.649099 0.851982 0.979276
O O9 0.513182 0.299965 0.565258
O O10 0.767484 0.187655 0.430941
O O11 0.569722 0.049764 0.617284
O O12 0.402767 0.820294 0.728031
O O13 0.656056 0.638950 0.485400
O O14 0.010699 0.072660 0.350416
O O15 0.826110 0.790201 0.324026
O O16 0.074900 0.307705 0.569397
O O17 0.000000 0.500000 0.500000
#
# Coordination Sequence:
#
# PCOD8013759 Si02
#       8
#     2   2   2   2   2   2   2   2
#     4  10  22  40  63  94 125 160 208 260 312 368
#     4  11  23  39  62  94 127 165 207 261 313 362
#     4  10  22  41  63  93 129 162 204 262 314 366
#     4  10  22  41  66  92 124 165 210 256 312 375
#     4  10  21  41  61  87 128 164 203 253 312 374
#     4  11  23  40  66  92 124 167 213 257 306 379
#     4  10  22  40  64  90 119 168 210 250 311 375
#     4  12  22  39  62  92 124 163 208 259 310 366
#
# _framework density 22.309918
#
# number of rings (size 3 to 8) (size 9 to 14) (size 15 to 20)
#    0.000    1.500    3.750    1.125    1.750    2.500 
#    2.250    1.250    0.000    0.000    0.000    0.000 
#    0.000    0.000    0.000    0.000    0.000    0.000 
#
# Total GULP energy -198229.367935 kJ/mol
# GULP energy per Si atom -12389.335496 kJ/mol
# Density = 2.225914 g / cm^3
# Si number density = 22.309918 Si / 1000 Ang^3
#
#
#
# Elastic Constant Matrix: (Units=GPa)
#
#
# Indices 1 2 3 4 5 6 
#
# 1 76.3534 25.7495 27.2180 6.0513 -5.4075 16.1374
# 2 25.7495 61.8435 42.0759 10.5337 -6.2636 21.8117
# 3 27.2180 42.0759 137.6994 22.3860 -1.1406 7.4777
# 4 6.0513 10.5337 22.3860 34.7576 6.8117 0.2945
# 5 -5.4075 -6.2636 -1.1406 6.8117 36.4851 -1.3443
# 6 16.1374 21.8117 7.4777 0.2945 -1.3443 34.9795
#
#
#
# Elastic Compliance Matrix: (Units=1/GPa)
#
#
# Indices 1 2 3 4 5 6 
#
# 1 0.016096 -0.003540 -0.001671 -0.000951 0.001727 -0.004787
# 2 -0.003540 0.028321 -0.006383 -0.004608 0.004466 -0.014452
# 3 -0.001671 -0.006383 0.010094 -0.004272 -0.000134 0.002624
# 4 -0.000951 -0.004608 -0.004272 0.034498 -0.007372 0.003652
# 5 0.001727 0.004466 -0.000134 -0.007372 0.029717 -0.002349
# 6 -0.004787 -0.014452 0.002624 0.003652 -0.002349 0.039126
#
#
# Mechanical properties :
#
#
# Convention : Reuss Voigt Hill
#
# Bulk Modulus (GPa) = 31.92580 51.77589 41.85085
# Shear Modulus (GPa) = 26.11248 33.30129 29.70688
#
# Velocity S-wave (km/s) = 3.42488 3.86770 3.65301
# Velocity P-wave (km/s) = 5.47549 6.57293 6.04915
#
# Compressibility (1/GPa) = 0.03132262
#
# Stress axis : x y z
#
# Youngs Moduli (GPa) = 62.12809 35.30985 99.07072
#
# Poissons Ratio (x) = 0.12498 0.16556
# Poissons Ratio (y) = 0.21991 0.63239
# Poissons Ratio (z) = 0.10382 0.22539
#
# Static dielectric constant tensor:
#      x y z
#    x 3.974790 0.440390 -0.193460 
#    y 0.440390 3.946320 0.353850 
#    z -0.193460 0.353850 4.668450 
# 
# 
# High freq. dielectric constant tensor:
#      x y z
#    x 1.866860 0.033300 -0.012430 
#    y 0.033300 1.867820 0.019930 
#    z -0.012430 0.019930 1.894810 
# 
# From -- ./inp_files/278084.got.cif
#   From: 2010.06.25/outbox.cif.g09.slc.cpg/sg2_140_cif.got.tgz:278084.got - 2010.06.27 13:26:56.
