data_PCOD8013699
_publ_section_title
;
Structure prediction by ZEFSAII (Michael W. Deem and Ramdas Pophale) SiO2 
 PCOD8013699
Probable space group: P -1
;
_chemical_formula_sum "Si O2"
_cell_formula_units_Z 14
_cell_length_a 18.050769
_cell_length_b 7.356732
_cell_length_c 5.594036
_cell_angle_alpha 101.488392
_cell_angle_beta 71.907722
_cell_angle_gamma 130.827476
_cell_volume 534.307491
_symmetry_space_group_name_H-M "P -1"
_symmetry_group_IT_number 2
_symmetry_cell_setting 'triclinic'
loop_
_space_group_symop_operation_xyz
x,y,z
-x,-y,-z
loop_
_atom_site_type_symbol
_atom_site_label
_atom_site_fract_x
_atom_site_fract_y
_atom_site_fract_z
Si Si1 0.014926 0.302818 0.421262
Si Si2 0.396721 0.714632 0.898106
Si Si3 0.060711 0.782000 0.025013
Si Si4 0.271444 0.972997 0.737130
Si Si5 0.677906 0.625798 0.494352
Si Si6 0.761682 0.430273 0.627407
Si Si7 0.474611 0.193008 0.799640
O O1 0.132323 0.431147 0.309946
O O2 0.000000 0.500000 0.500000
O O3 0.961212 0.144635 0.189113
O O4 0.971816 0.155679 0.681639
O O5 0.313156 0.454401 0.797816
O O6 0.453039 0.938877 0.714463
O O7 0.332496 0.750609 0.150848
O O8 0.482463 0.723140 0.951102
O O9 0.179253 0.919210 0.963890
O O10 0.000000 0.500000 0.000000
O O11 0.288749 0.110819 0.504250
O O12 0.369889 0.143949 0.851218
O O13 0.247244 0.724396 0.627131
O O14 0.750838 0.628069 0.603268
O O15 0.558589 0.410849 0.603003
#
# Coordination Sequence:
#
# PCOD8013699 Si02
#       7
#     2   2   2   2   2   2   2
#     4  10  21  40  72  98 138 175 238 281 348 412
#     4  10  23  41  69  96 135 175 229 274 350 409
#     4  10  22  42  66 108 131 178 238 286 334 431
#     4  12  24  43  73  93 137 181 225 280 355 400
#     4  11  25  46  61 105 133 173 231 282 338 424
#     4  11  24  43  70  95 134 181 220 289 344 408
#     4  10  23  42  65  97 134 180 220 283 338 415
#
# _framework density 26.20214
#
# number of rings (size 3 to 8) (size 9 to 14) (size 15 to 20)
#    0.000    1.429    4.286    0.857   10.000    0.571 
#   10.286    1.429    0.000    0.000    0.000    0.000 
#    0.000    0.000    0.000    0.000    0.000    0.000 
#
# Total GULP energy -173475.182218 kJ/mol
# GULP energy per Si atom -12391.084444 kJ/mol
# Density = 2.614250 g / cm^3
# Si number density = 26.202140 Si / 1000 Ang^3
#
#
#
# Elastic Constant Matrix: (Units=GPa)
#
#
# Indices 1 2 3 4 5 6 
#
# 1 168.7089 35.6404 40.9866 -15.8817 12.5413 49.4530
# 2 35.6404 42.2813 10.6923 -21.2221 -3.2929 7.6454
# 3 40.9866 10.6923 134.8209 -13.7951 10.9428 15.5908
# 4 -15.8817 -21.2221 -13.7951 37.1388 2.0081 3.3829
# 5 12.5413 -3.2929 10.9428 2.0081 27.7247 -9.8162
# 6 49.4530 7.6454 15.5908 3.3829 -9.8162 42.5371
#
#
#
# Elastic Compliance Matrix: (Units=1/GPa)
#
#
# Indices 1 2 3 4 5 6 
#
# 1 0.014930 -0.007946 0.000059 0.004481 -0.015049 -0.019780
# 2 -0.007946 0.039981 0.000312 0.018952 0.007622 0.002190
# 3 0.000059 0.000312 0.008834 0.004238 -0.005546 -0.004979
# 4 0.004481 0.018952 0.004238 0.043255 -0.010237 -0.015972
# 5 -0.015049 0.007622 -0.005546 -0.010237 0.058183 0.032399
# 6 -0.019780 0.002190 -0.004979 -0.015972 0.032399 0.056683
#
#
# Mechanical properties :
#
#
# Convention : Reuss Voigt Hill
#
# Bulk Modulus (GPa) = 20.57836 57.82775 39.20305
# Shear Modulus (GPa) = 19.74597 38.71290 29.22944
#
# Velocity S-wave (km/s) = 2.74816 3.84796 3.34359
# Velocity P-wave (km/s) = 4.23563 6.46994 5.46812
#
# Compressibility (1/GPa) = 0.04859474
#
# Stress axis : x y z
#
# Youngs Moduli (GPa) = 66.97714 25.01199 113.19519
#
# Poissons Ratio (x) = 0.19875 -0.00663
# Poissons Ratio (y) = 0.53222 -0.03536
# Poissons Ratio (z) = -0.00392 -0.00781
#
# Static dielectric constant tensor:
#      x y z
#    x 4.742850 0.113720 0.401760 
#    y 0.113720 4.576500 -0.053490 
#    z 0.401760 -0.053490 5.490650 
# 
# 
# High freq. dielectric constant tensor:
#      x y z
#    x 2.048520 0.017310 0.015260 
#    y 0.017310 2.028030 -0.013460 
#    z 0.015260 -0.013460 2.047870 
# 
# From -- ./inp_files/105150.got.cif
#   From: 2010.06.25/outbox.cif.g09.slc.cpg/sg2_53_cif.got.tgz:105150.got - 2010.06.27 13:26:56.
