data_PCOD8013033
_publ_section_title
;
Structure prediction by ZEFSAII (Michael W. Deem and Ramdas Pophale) SiO2 
 PCOD8013033
Probable space group: P -1
;
_chemical_formula_sum "Si O2"
_cell_formula_units_Z 14
_cell_length_a 25.641788
_cell_length_b 8.720568
_cell_length_c 9.224885
_cell_angle_alpha 45.737222
_cell_angle_beta 147.904111
_cell_angle_gamma 143.289370
_cell_volume 654.031432
_symmetry_space_group_name_H-M "P -1"
_symmetry_group_IT_number 2
_symmetry_cell_setting 'triclinic'
loop_
_space_group_symop_operation_xyz
x,y,z
-x,-y,-z
loop_
_atom_site_type_symbol
_atom_site_label
_atom_site_fract_x
_atom_site_fract_y
_atom_site_fract_z
Si Si1 0.271504 0.930876 0.985037
Si Si2 0.475344 0.692375 0.741403
Si Si3 0.226389 0.770170 0.298040
Si Si4 0.691976 0.440875 0.822947
Si Si5 0.480297 0.052563 0.756835
Si Si6 0.149073 0.207540 0.559954
Si Si7 0.116452 0.052288 0.916338
O O1 0.219181 0.102600 0.709937
O O2 0.206970 0.761036 0.086196
O O3 0.254256 0.737039 0.942454
O O4 0.412844 0.111308 0.225787
O O5 0.360730 0.555546 0.460010
O O6 0.460127 0.832556 0.746029
O O7 0.500000 0.500000 0.000000
O O8 0.212470 0.509907 0.486897
O O9 0.354573 0.022498 0.477693
O O10 0.132056 0.813869 0.123796
O O11 0.590699 0.330631 0.781307
O O12 0.798301 0.727899 0.915529
O O13 0.500000 0.000000 0.000000
O O14 0.150820 0.169681 0.759750
O O15 0.017115 0.051877 0.289055
#
# Coordination Sequence:
#
# PCOD8013033 Si02
#       7
#     2   2   2   2   2   2   2
#     4  10  21  40  65  87 126 165 206 258 312 374
#     4  11  22  39  63  92 131 168 202 260 320 376
#     4  11  20  40  63  90 124 166 208 258 309 374
#     4  11  22  42  60  98 132 160 205 263 320 374
#     4  11  22  37  62  95 125 164 207 250 317 382
#     4  10  22  43  64  91 119 174 215 253 315 368
#     4  10  24  40  63  91 130 162 212 265 306 374
#
# _framework density 21.405698999999998
#
# number of rings (size 3 to 8) (size 9 to 14) (size 15 to 20)
#    0.000    1.429    2.857    3.000    2.000    2.286 
#    0.000    0.714    0.000    0.000    0.000    0.000 
#    0.000    0.000    0.000    0.000    0.000    0.000 
#
# Total GULP energy -173579.260349 kJ/mol
# GULP energy per Si atom -12398.518596 kJ/mol
# Density = 2.135698 g / cm^3
# Si number density = 21.405699 Si / 1000 Ang^3
#
#
#
# Elastic Constant Matrix: (Units=GPa)
#
#
# Indices 1 2 3 4 5 6 
#
# 1 75.6888 25.1117 49.7873 6.7661 7.6824 -6.8182
# 2 25.1117 95.4591 44.1258 -0.1907 6.4131 -12.2697
# 3 49.7873 44.1258 115.0443 3.0244 16.6237 -16.2974
# 4 6.7661 -0.1907 3.0244 45.1902 -1.1948 1.8670
# 5 7.6824 6.4131 16.6237 -1.1948 39.9648 -6.6201
# 6 -6.8182 -12.2697 -16.2974 1.8670 -6.6201 20.3617
#
#
#
# Elastic Compliance Matrix: (Units=1/GPa)
#
#
# Indices 1 2 3 4 5 6 
#
# 1 0.018879 -0.001528 -0.007543 -0.002316 -0.000408 -0.000557
# 2 -0.001528 0.013201 -0.003851 0.000371 0.000534 0.004500
# 3 -0.007543 -0.003851 0.014728 -0.000200 -0.003077 0.005960
# 4 -0.002316 0.000371 -0.000200 0.022615 0.000722 -0.002551
# 5 -0.000408 0.000534 -0.003077 0.000722 0.027404 0.006566
# 6 -0.000557 0.004500 0.005960 -0.002551 0.006566 0.058776
#
#
# Mechanical properties :
#
#
# Convention : Reuss Voigt Hill
#
# Bulk Modulus (GPa) = 47.70375 58.24907 52.97641
# Shear Modulus (GPa) = 26.53414 32.24783 29.39098
#
# Velocity S-wave (km/s) = 3.52459 3.88559 3.70948
# Velocity P-wave (km/s) = 6.23679 6.88487 6.56883
#
# Compressibility (1/GPa) = 0.02096271
#
# Stress axis : x y z
#
# Youngs Moduli (GPa) = 52.96859 75.74989 67.89758
#
# Poissons Ratio (x) = 0.11578 0.51216
# Poissons Ratio (y) = 0.08096 0.26150
# Poissons Ratio (z) = 0.39955 0.29174
#
# Static dielectric constant tensor:
#      x y z
#    x 3.909270 0.047360 0.430410 
#    y 0.047360 3.749410 -0.003730 
#    z 0.430410 -0.003730 4.642630 
# 
# 
# High freq. dielectric constant tensor:
#      x y z
#    x 1.835660 0.002340 0.015870 
#    y 0.002340 1.831160 -0.009330 
#    z 0.015870 -0.009330 1.842250 
# 
# From -- ./inp_files/175719.got.cif
#   From: 2010.06.25/outbox.cif.g09.slc.cpg/sg2_88_cif.got.tgz:175719.got - 2010.06.27 13:26:56.
