data_PCOD8013607
_publ_section_title
;
Structure prediction by ZEFSAII (Michael W. Deem and Ramdas Pophale) SiO2 
 PCOD8013607
Probable space group: P -1
;
_chemical_formula_sum "Si O2"
_cell_formula_units_Z 12
_cell_length_a 5.109782
_cell_length_b 16.518250
_cell_length_c 17.411021
_cell_angle_alpha 23.531933
_cell_angle_beta 72.819191
_cell_angle_gamma 79.257270
_cell_volume 546.657292
_symmetry_space_group_name_H-M "P -1"
_symmetry_group_IT_number 2
_symmetry_cell_setting 'triclinic'
loop_
_space_group_symop_operation_xyz
x,y,z
-x,-y,-z
loop_
_atom_site_type_symbol
_atom_site_label
_atom_site_fract_x
_atom_site_fract_y
_atom_site_fract_z
Si Si1 0.724438 0.457426 0.111444
Si Si2 0.489712 0.818010 0.759793
Si Si3 0.243343 0.783667 0.540438
Si Si4 0.639680 0.743561 0.274098
Si Si5 0.150705 0.055838 0.669952
Si Si6 0.849748 0.028546 0.872424
O O1 0.525217 0.252316 0.267014
O O2 0.802344 0.420775 0.224650
O O3 0.558114 0.639930 0.964278
O O4 0.000000 0.500000 0.000000
O O5 0.738461 0.021991 0.571223
O O6 0.194550 0.867284 0.774334
O O7 0.541990 0.812745 0.444178
O O8 0.993971 0.779561 0.505711
O O9 0.500000 0.500000 0.500000
O O10 0.412787 0.870540 0.210600
O O11 0.909215 0.797207 0.259499
O O12 0.749514 0.819224 0.113310
O O13 0.965142 0.959472 0.842412
#
# Coordination Sequence:
#
# PCOD8013607 Si02
#       6
#     2   2   2   2   2   2
#     4  11  22  38  62  86 119 162 217 266 299 367
#     4   9  23  38  59  88 115 163 210 254 314 357
#     4  10  23  40  60  84 123 162 207 253 318 365
#     4  10  21  40  69  99 121 168 210 247 307 381
#     4  10  22  42  60  89 127 166 194 260 318 364
#     4  10  21  41  66  93 134 161 206 259 307 374
#
# _framework density 21.951595999999999
#
# number of rings (size 3 to 8) (size 9 to 14) (size 15 to 20)
#    1.000    1.000    0.000    3.000    4.667    1.333 
#    3.000    3.333    0.000    0.000    0.000    0.000 
#    0.000    0.000    0.000    0.000    0.000    0.000 
#
# Total GULP energy -148713.095272 kJ/mol
# GULP energy per Si atom -12392.757939 kJ/mol
# Density = 2.190163 g / cm^3
# Si number density = 21.951596 Si / 1000 Ang^3
#
#
#
# Elastic Constant Matrix: (Units=GPa)
#
#
# Indices 1 2 3 4 5 6 
#
# 1 120.9891 13.4991 26.2375 12.1613 15.9125 -12.1814
# 2 13.4991 43.6840 28.3577 19.3792 13.5192 -16.7028
# 3 26.2375 28.3577 105.4881 15.0540 8.6464 -8.3584
# 4 12.1613 19.3792 15.0540 31.1193 7.1693 -11.1768
# 5 15.9125 13.5192 8.6464 7.1693 37.2929 1.0557
# 6 -12.1814 -16.7028 -8.3584 -11.1768 1.0557 29.4340
#
#
#
# Elastic Compliance Matrix: (Units=1/GPa)
#
#
# Indices 1 2 3 4 5 6 
#
# 1 0.009593 0.001811 -0.002002 -0.001527 -0.004105 0.003997
# 2 0.001811 0.045646 -0.007940 -0.015466 -0.013044 0.018992
# 3 -0.002002 -0.007940 0.011992 -0.001243 0.001260 -0.002446
# 4 -0.001527 -0.015466 -0.001243 0.046423 -0.002603 0.007960
# 5 -0.004105 -0.013044 0.001260 -0.002603 0.033813 -0.010944
# 6 0.003997 0.018992 -0.002446 0.007960 -0.010944 0.049126
#
#
# Mechanical properties :
#
#
# Convention : Reuss Voigt Hill
#
# Bulk Modulus (GPa) = 19.61931 45.14997 32.38464
# Shear Modulus (GPa) = 21.75383 33.04036 27.39710
#
# Velocity S-wave (km/s) = 3.15142 3.88383 3.53663
# Velocity P-wave (km/s) = 4.71156 6.38160 5.60908
#
# Compressibility (1/GPa) = 0.05097018
#
# Stress axis : x y z
#
# Youngs Moduli (GPa) = 104.24188 21.90776 83.38595
#
# Poissons Ratio (x) = -0.03968 0.16692
# Poissons Ratio (y) = -0.18881 0.66209
# Poissons Ratio (z) = 0.20867 0.17395
#
# Static dielectric constant tensor:
#      x y z
#    x 4.254260 0.059510 0.103550 
#    y 0.059510 3.644490 0.108840 
#    z 0.103550 0.108840 3.790790 
# 
# 
# High freq. dielectric constant tensor:
#      x y z
#    x 1.882770 -0.006070 0.007710 
#    y -0.006070 1.824050 0.011060 
#    z 0.007710 0.011060 1.856750 
# 
# From -- ./inp_files/484067.got.cif
#   From: 2010.06.25/outbox.cif.g09.slc.cpg/sg2_243_cif.got.tgz:484067.got - 2010.06.27 13:26:56.
