data_PCOD8013471
_publ_section_title
;
Structure prediction by ZEFSAII (Michael W. Deem and Ramdas Pophale) SiO2 
 PCOD8013471
Probable space group: P -1
;
_chemical_formula_sum "Si O2"
_cell_formula_units_Z 16
_cell_length_a 29.584326
_cell_length_b 16.008609
_cell_length_c 8.862211
_cell_angle_alpha 138.266400
_cell_angle_beta 144.627311
_cell_angle_gamma 17.713285
_cell_volume 728.083298
_symmetry_space_group_name_H-M "P -1"
_symmetry_group_IT_number 2
_symmetry_cell_setting 'triclinic'
loop_
_space_group_symop_operation_xyz
x,y,z
-x,-y,-z
loop_
_atom_site_type_symbol
_atom_site_label
_atom_site_fract_x
_atom_site_fract_y
_atom_site_fract_z
Si Si1 0.184228 0.568461 0.447372
Si Si2 0.462873 0.298866 0.689964
Si Si3 0.767550 0.424887 0.850848
Si Si4 0.512366 0.285861 0.331370
Si Si5 0.823046 0.678237 0.766286
Si Si6 0.313155 0.205732 0.768017
Si Si7 0.939158 0.040235 0.172259
Si Si8 0.404427 0.574593 0.146138
O O1 0.388136 0.300610 0.605561
O O2 0.147722 0.474233 0.238145
O O3 0.122649 0.730736 0.647746
O O4 0.091065 0.767665 0.322713
O O5 0.381093 0.400722 0.439182
O O6 0.670054 0.988897 0.824489
O O7 0.414740 0.503300 0.909154
O O8 0.683700 0.488335 0.863965
O O9 0.797772 0.533274 0.087592
O O10 0.960741 0.093800 0.896788
O O11 0.529944 0.315541 0.250486
O O12 0.546184 0.350304 0.629108
O O13 0.664295 0.963633 0.323707
O O14 0.771799 0.686879 0.481946
O O15 0.000000 0.500000 0.000000
O O16 0.500000 0.000000 0.000000
O O17 0.784034 0.164104 0.935534
#
# Coordination Sequence:
#
# PCOD8013471 Si02
#       8
#     2   2   2   2   2   2   2   2
#     4   9  21  38  62  90 129 159 210 258 311 378
#     4  10  21  41  66  95 119 174 214 252 317 383
#     4  10  21  40  68  91 120 172 215 249 316 380
#     4  10  22  41  61  89 129 171 204 261 322 379
#     4  12  25  40  63 101 127 164 215 272 315 363
#     4  10  22  42  65  87 129 169 211 253 318 382
#     4   9  20  38  61  92 119 165 206 261 306 365
#     4  10  23  39  64  92 129 164 208 261 322 373
#
# _framework density 21.975508000000001
#
# number of rings (size 3 to 8) (size 9 to 14) (size 15 to 20)
#    0.000    2.000    2.500    1.125    8.750    4.000 
#    4.500    0.625    0.000    0.000    0.000    0.000 
#    0.000    0.000    0.000    0.000    0.000    0.000 
#
# Total GULP energy -198276.584232 kJ/mol
# GULP energy per Si atom -12392.286515 kJ/mol
# Density = 2.192549 g / cm^3
# Si number density = 21.975508 Si / 1000 Ang^3
#
#
#
# Elastic Constant Matrix: (Units=GPa)
#
#
# Indices 1 2 3 4 5 6 
#
# 1 54.8848 25.7941 21.5564 8.6224 10.7994 -1.7324
# 2 25.7941 67.2277 24.3734 1.7704 12.3751 -22.7978
# 3 21.5564 24.3734 109.9690 12.4404 9.2551 -4.0647
# 4 8.6224 1.7704 12.4404 37.4491 -6.1949 10.4991
# 5 10.7994 12.3751 9.2551 -6.1949 36.6917 2.6352
# 6 -1.7324 -22.7978 -4.0647 10.4991 2.6352 31.5549
#
#
#
# Elastic Compliance Matrix: (Units=1/GPa)
#
#
# Indices 1 2 3 4 5 6 
#
# 1 0.024682 -0.009116 -0.002145 -0.004153 -0.004078 -0.003785
# 2 -0.009116 0.028850 -0.002247 -0.006488 -0.009227 0.022983
# 3 -0.002145 -0.002247 0.010609 -0.003515 -0.001949 0.000957
# 4 -0.004153 -0.006488 -0.003515 0.036235 0.011737 -0.018405
# 5 -0.004078 -0.009227 -0.001949 0.011737 0.035043 -0.013973
# 6 -0.003785 0.022983 0.000957 -0.018405 -0.013973 0.055502
#
#
# Mechanical properties :
#
#
# Convention : Reuss Voigt Hill
#
# Bulk Modulus (GPa) = 26.93559 41.72548 34.33053
# Shear Modulus (GPa) = 21.70962 31.82964 26.76963
#
# Velocity S-wave (km/s) = 3.14650 3.80993 3.49400
# Velocity P-wave (km/s) = 5.04820 6.19537 5.65097
#
# Compressibility (1/GPa) = 0.03712561
#
# Stress axis : x y z
#
# Youngs Moduli (GPa) = 40.51550 34.66159 94.25906
#
# Poissons Ratio (x) = 0.31597 0.20215
# Poissons Ratio (y) = 0.36933 0.21184
# Poissons Ratio (z) = 0.08689 0.07790
#
# Static dielectric constant tensor:
#      x y z
#    x 3.783600 -0.070480 -0.078840 
#    y -0.070480 4.368780 0.171080 
#    z -0.078840 0.171080 3.924940 
# 
# 
# High freq. dielectric constant tensor:
#      x y z
#    x 1.854460 0.000710 -0.007420 
#    y 0.000710 1.863740 0.005180 
#    z -0.007420 0.005180 1.859720 
# 
# From -- ./inp_files/357442.got.cif
#   From: 2010.06.25/outbox.cif.g09.slc.cpg/sg2_179_cif.got.tgz:357442.got - 2010.06.27 13:26:56.
