data_PCOD8013392
_publ_section_title
;
Structure prediction by ZEFSAII (Michael W. Deem and Ramdas Pophale) SiO2 
 PCOD8013392
Probable space group: P -1
;
_chemical_formula_sum "Si O2"
_cell_formula_units_Z 16
_cell_length_a 11.305436
_cell_length_b 9.465983
_cell_length_c 12.798261
_cell_angle_alpha 34.232910
_cell_angle_beta 101.050114
_cell_angle_gamma 101.459719
_cell_volume 754.204293
_symmetry_space_group_name_H-M "P -1"
_symmetry_group_IT_number 2
_symmetry_cell_setting 'triclinic'
loop_
_space_group_symop_operation_xyz
x,y,z
-x,-y,-z
loop_
_atom_site_type_symbol
_atom_site_label
_atom_site_fract_x
_atom_site_fract_y
_atom_site_fract_z
Si Si1 0.567100 0.951640 0.935309
Si Si2 0.598560 0.400797 0.004000
Si Si3 0.001128 0.793818 0.289503
Si Si4 0.731556 0.204113 0.652486
Si Si5 0.722597 0.862439 0.665377
Si Si6 0.780370 0.625263 0.238648
Si Si7 0.788425 0.251053 0.286945
Si Si8 0.004818 0.209410 0.211764
O O1 0.633716 0.191338 0.738767
O O2 0.456854 0.848851 0.906940
O O3 0.667630 0.757428 0.092610
O O4 0.500000 0.000000 0.000000
O O5 0.637414 0.607308 0.795503
O O6 0.500000 0.500000 0.000000
O O7 0.720483 0.366972 0.108347
O O8 0.897042 0.815660 0.170511
O O9 0.000000 0.500000 0.500000
O O10 0.139461 0.859639 0.235826
O O11 0.971120 0.996976 0.248259
O O12 0.737915 0.472504 0.430320
O O13 0.691727 0.987900 0.694043
O O14 0.863151 0.822555 0.703558
O O15 0.696750 0.035429 0.455420
O O16 0.826524 0.447707 0.264702
O O17 0.911031 0.149410 0.326472
O O18 0.000000 0.500000 0.000000
#
# Coordination Sequence:
#
# PCOD8013392 Si02
#       8
#     2   2   2   2   2   2   2   2
#     4  12  27  42  60  90 126 168 220 269 320 383
#     4  12  23  43  64  88 128 169 224 271 320 388
#     4   9  21  42  67  96 134 172 208 265 340 396
#     4   9  20  43  65  89 126 164 208 268 320 385
#     4  10  21  40  67  95 125 168 213 264 331 389
#     4  10  22  42  67  92 125 170 213 260 333 393
#     4  11  23  41  68  97 129 170 216 271 330 393
#     4  11  22  40  70 101 137 167 215 280 329 387
#
# _framework density 21.214411999999999
#
# number of rings (size 3 to 8) (size 9 to 14) (size 15 to 20)
#    0.000    1.500    3.750    1.125    3.500    2.500 
#    6.750    0.000    0.000    0.000    0.000    0.000 
#    0.000    0.000    0.000    0.000    0.000    0.000 
#
# Total GULP energy -198280.033137 kJ/mol
# GULP energy per Si atom -12392.502071 kJ/mol
# Density = 2.116613 g / cm^3
# Si number density = 21.214412 Si / 1000 Ang^3
#
#
#
# Elastic Constant Matrix: (Units=GPa)
#
#
# Indices 1 2 3 4 5 6 
#
# 1 84.7717 37.2804 11.2815 8.2391 -27.2957 -6.2012
# 2 37.2804 105.7741 24.0381 -2.8132 -17.5222 -2.8165
# 3 11.2815 24.0381 67.6013 -0.3697 -16.5359 -0.3152
# 4 8.2391 -2.8132 -0.3697 26.7326 -3.9680 -2.8407
# 5 -27.2957 -17.5222 -16.5359 -3.9680 37.6903 2.2780
# 6 -6.2012 -2.8165 -0.3152 -2.8407 2.2780 38.7950
#
#
#
# Elastic Compliance Matrix: (Units=1/GPa)
#
#
# Indices 1 2 3 4 5 6 
#
# 1 0.017691 -0.004855 0.001354 -0.004204 0.010612 0.001555
# 2 -0.004855 0.012153 -0.003250 0.002904 0.000999 0.000234
# 3 0.001354 -0.003250 0.017488 0.000525 0.007214 -0.000262
# 4 -0.004204 0.002904 0.000525 0.039641 0.002570 0.002295
# 5 0.010612 0.000999 0.007214 0.002570 0.038131 -0.000223
# 6 0.001555 0.000234 -0.000262 0.002295 -0.000223 0.026221
#
#
# Mechanical properties :
#
#
# Convention : Reuss Voigt Hill
#
# Bulk Modulus (GPa) = 29.55906 44.81633 37.18769
# Shear Modulus (GPa) = 28.39226 33.01338 30.70282
#
# Velocity S-wave (km/s) = 3.66231 3.94912 3.80842
# Velocity P-wave (km/s) = 5.64332 6.47807 6.07505
#
# Compressibility (1/GPa) = 0.03383058
#
# Stress axis : x y z
#
# Youngs Moduli (GPa) = 56.52650 82.28468 57.18079
#
# Poissons Ratio (x) = 0.39952 -0.07744
# Poissons Ratio (y) = 0.27446 0.18582
# Poissons Ratio (z) = -0.07655 0.26740
#
# Static dielectric constant tensor:
#      x y z
#    x 3.873390 -0.019740 -0.132550 
#    y -0.019740 3.719700 -0.243630 
#    z -0.132550 -0.243630 4.212480 
# 
# 
# High freq. dielectric constant tensor:
#      x y z
#    x 1.841070 0.007770 -0.008950 
#    y 0.007770 1.815320 0.001000 
#    z -0.008950 0.001000 1.833820 
# 
# From -- ./inp_files/416151.got.cif
#   From: 2010.06.25/outbox.cif.g09.slc.cpg/sg2_209_cif.got.tgz:416151.got - 2010.06.27 13:26:56.
