data_PCOD8013168
_publ_section_title
;
Structure prediction by ZEFSAII (Michael W. Deem and Ramdas Pophale) SiO2 
 PCOD8013168
Probable space group: P -1
;
_chemical_formula_sum "Si O2"
_cell_formula_units_Z 16
_cell_length_a 22.801909
_cell_length_b 19.822822
_cell_length_c 8.483960
_cell_angle_alpha 144.886472
_cell_angle_beta 135.164431
_cell_angle_gamma 20.124647
_cell_volume 724.477077
_symmetry_space_group_name_H-M "P -1"
_symmetry_group_IT_number 2
_symmetry_cell_setting 'triclinic'
loop_
_space_group_symop_operation_xyz
x,y,z
-x,-y,-z
loop_
_atom_site_type_symbol
_atom_site_label
_atom_site_fract_x
_atom_site_fract_y
_atom_site_fract_z
Si Si1 0.095695 0.994138 0.356316
Si Si2 0.204828 0.238200 0.846386
Si Si3 0.451413 0.867045 0.895399
Si Si4 0.896361 0.773503 0.651962
Si Si5 0.223143 0.276762 0.457392
Si Si6 0.542223 0.400592 0.562174
Si Si7 0.193273 0.472843 0.077943
Si Si8 0.840446 0.095883 0.062337
O O1 0.291944 0.731781 0.304358
O O2 0.120843 0.979882 0.190841
O O3 0.002199 0.228947 0.694359
O O4 0.971125 0.039246 0.252765
O O5 0.225497 0.114873 0.512980
O O6 0.343041 0.028722 0.840779
O O7 0.254473 0.303722 0.001894
O O8 0.000000 0.500000 0.000000
O O9 0.392150 0.814114 0.740858
O O10 0.664109 0.600778 0.768284
O O11 0.414290 0.014574 0.239254
O O12 0.834018 0.782666 0.708399
O O13 0.101196 0.472962 0.452311
O O14 0.889667 0.922775 0.935520
O O15 0.208549 0.394512 0.786324
O O16 0.500000 0.500000 0.500000
O O17 0.369558 0.618202 0.763698
#
# Coordination Sequence:
#
# PCOD8013168 Si02
#       8
#     2   2   2   2   2   2   2   2
#     4  11  26  46  72  99 138 181 235 286 336 404
#     4  11  21  39  68  96 129 172 220 277 339 397
#     4  12  23  43  65 102 137 174 228 279 340 411
#     4  10  21  40  65  98 128 176 227 275 340 404
#     4  10  23  38  67  96 136 174 223 276 344 408
#     4  12  27  44  72 102 141 184 229 279 346 412
#     4  11  24  43  65 101 137 176 224 281 343 404
#     4  11  24  48  70  99 137 181 235 280 341 403
#
# _framework density 22.084896000000001
#
# number of rings (size 3 to 8) (size 9 to 14) (size 15 to 20)
#    0.000    1.000    2.500    4.125    5.250    1.500 
#    0.000    1.250    0.000    0.000    0.000    0.000 
#    0.000    0.000    0.000    0.000    0.000    0.000 
#
# Total GULP energy -198302.816576 kJ/mol
# GULP energy per Si atom -12393.926036 kJ/mol
# Density = 2.203463 g / cm^3
# Si number density = 22.084896 Si / 1000 Ang^3
#
#
#
# Elastic Constant Matrix: (Units=GPa)
#
#
# Indices 1 2 3 4 5 6 
#
# 1 88.2833 61.1284 47.9624 -3.8989 14.9102 9.8476
# 2 61.1284 140.4091 46.3916 0.6987 0.9173 -7.8481
# 3 47.9624 46.3916 113.9957 4.1398 -0.2591 4.3256
# 4 -3.8989 0.6987 4.1398 27.7001 -5.6241 -2.1882
# 5 14.9102 0.9173 -0.2591 -5.6241 36.3025 3.9836
# 6 9.8476 -7.8481 4.3256 -2.1882 3.9836 43.8255
#
#
#
# Elastic Compliance Matrix: (Units=1/GPa)
#
#
# Indices 1 2 3 4 5 6 
#
# 1 0.021995 -0.007835 -0.005976 0.002173 -0.008002 -0.004920
# 2 -0.007835 0.011176 -0.001371 -0.000391 0.002464 0.003654
# 3 -0.005976 -0.001371 0.011943 -0.002159 0.002283 -0.000397
# 4 0.002173 -0.000391 -0.002159 0.037809 0.004838 0.001103
# 5 -0.008002 0.002464 0.002283 0.004838 0.031604 -0.000617
# 6 -0.004920 0.003654 -0.000397 0.001103 -0.000617 0.024728
#
#
# Mechanical properties :
#
#
# Convention : Reuss Voigt Hill
#
# Bulk Modulus (GPa) = 67.79202 72.62808 70.21005
# Shear Modulus (GPa) = 28.64767 34.04601 31.34684
#
# Velocity S-wave (km/s) = 3.60552 3.93058 3.77155
# Velocity P-wave (km/s) = 6.93511 7.31823 7.12925
#
# Compressibility (1/GPa) = 0.01475100
#
# Stress axis : x y z
#
# Youngs Moduli (GPa) = 45.46523 89.47876 83.73037
#
# Poissons Ratio (x) = 0.70103 0.50038
# Poissons Ratio (y) = 0.35620 0.11476
# Poissons Ratio (z) = 0.27171 0.12264
#
# Static dielectric constant tensor:
#      x y z
#    x 4.014580 -0.103760 -0.006180 
#    y -0.103760 4.040530 0.010680 
#    z -0.006180 0.010680 3.968720 
# 
# 
# High freq. dielectric constant tensor:
#      x y z
#    x 1.873620 -0.002530 0.001110 
#    y -0.002530 1.870650 0.004340 
#    z 0.001110 0.004340 1.872450 
# 
# From -- ./inp_files/182500.got.cif
#   From: 2010.06.25/outbox.cif.g09.slc.cpg/sg2_92_cif.got.tgz:182500.got - 2010.06.27 13:26:56.
