data_PCOD8013247
_publ_section_title
;
Structure prediction by ZEFSAII (Michael W. Deem and Ramdas Pophale) SiO2 
 PCOD8013247
Probable space group: P -1
;
_chemical_formula_sum "Si O2"
_cell_formula_units_Z 14
_cell_length_a 10.911124
_cell_length_b 13.817247
_cell_length_c 8.079238
_cell_angle_alpha 148.029243
_cell_angle_beta 112.310183
_cell_angle_gamma 69.776263
_cell_volume 595.961295
_symmetry_space_group_name_H-M "P -1"
_symmetry_group_IT_number 2
_symmetry_cell_setting 'triclinic'
loop_
_space_group_symop_operation_xyz
x,y,z
-x,-y,-z
loop_
_atom_site_type_symbol
_atom_site_label
_atom_site_fract_x
_atom_site_fract_y
_atom_site_fract_z
Si Si1 0.645829 0.518272 0.293517
Si Si2 0.654025 0.468517 0.578680
Si Si3 0.276474 0.853318 0.313081
Si Si4 0.104366 0.346492 0.522668
Si Si5 0.980722 0.727240 0.974411
Si Si6 0.805693 0.772749 0.263284
Si Si7 0.581152 0.177294 0.333966
O O1 0.723650 0.514359 0.506256
O O2 0.746264 0.585362 0.305314
O O3 0.512304 0.646045 0.401876
O O4 0.620224 0.304033 0.934765
O O5 0.500000 0.500000 0.500000
O O6 0.666852 0.255895 0.338193
O O7 0.713718 0.600163 0.938933
O O8 0.313783 0.887487 0.570748
O O9 0.289607 0.043999 0.497290
O O10 0.126220 0.798928 0.148601
O O11 0.083483 0.223637 0.168744
O O12 0.099538 0.247255 0.554877
O O13 0.991114 0.508705 0.697404
O O14 0.895841 0.813805 0.208094
O O15 0.500000 0.000000 0.000000
#
# Coordination Sequence:
#
# PCOD8013247 Si02
#       7
#     2   2   2   2   2   2   2
#     4  10  21  43  64  96 136 171 221 279 324 394
#     4  10  21  40  66  93 130 174 216 271 331 388
#     4  11  24  41  63 101 133 175 225 269 330 395
#     4  10  22  40  70  96 131 178 222 272 333 382
#     4  10  22  43  65  97 138 174 221 276 324 392
#     4  12  23  42  68 100 136 178 222 266 333 398
#     4  11  24  43  68  95 130 176 222 277 336 395
#
# _framework density 23.491458000000002
#
# number of rings (size 3 to 8) (size 9 to 14) (size 15 to 20)
#    0.000    1.429    1.429    4.714    0.000    2.857 
#    0.000    4.286    0.000    0.000    0.000    0.000 
#    0.000    0.000    0.000    0.000    0.000    0.000 
#
# Total GULP energy -173462.244363 kJ/mol
# GULP energy per Si atom -12390.160312 kJ/mol
# Density = 2.343799 g / cm^3
# Si number density = 23.491458 Si / 1000 Ang^3
#
#
#
# Elastic Constant Matrix: (Units=GPa)
#
#
# Indices 1 2 3 4 5 6 
#
# 1 44.4356 10.9791 17.7422 -0.7913 -1.3354 3.0798
# 2 10.9791 170.2045 67.2512 -22.7019 6.1007 10.7467
# 3 17.7422 67.2512 110.6096 0.9075 8.0626 10.7319
# 4 -0.7913 -22.7019 0.9075 51.4472 2.3220 -1.1652
# 5 -1.3354 6.1007 8.0626 2.3220 32.2308 -1.5438
# 6 3.0798 10.7467 10.7319 -1.1652 -1.5438 26.4495
#
#
#
# Elastic Compliance Matrix: (Units=1/GPa)
#
#
# Indices 1 2 3 4 5 6 
#
# 1 0.024209 0.000046 -0.003945 0.000351 0.001903 -0.001110
# 2 0.000046 0.008470 -0.005014 0.003828 -0.000684 -0.001284
# 3 -0.003945 -0.005014 0.013227 -0.002465 -0.002495 -0.003125
# 4 0.000351 0.003828 -0.002465 0.021254 -0.001613 0.000246
# 5 0.001903 -0.000684 -0.002495 -0.001613 0.032113 0.002872
# 6 -0.001110 -0.001284 -0.003125 0.000246 0.002872 0.039905
#
#
# Mechanical properties :
#
#
# Convention : Reuss Voigt Hill
#
# Bulk Modulus (GPa) = 35.61286 57.46606 46.53946
# Shear Modulus (GPa) = 30.05474 37.31063 33.68268
#
# Velocity S-wave (km/s) = 3.58074 3.98963 3.79070
# Velocity P-wave (km/s) = 5.68229 6.76302 6.24607
#
# Compressibility (1/GPa) = 0.02807974
#
# Stress axis : x y z
#
# Youngs Moduli (GPa) = 41.30750 118.06899 75.60081
#
# Poissons Ratio (x) = -0.00542 0.29824
# Poissons Ratio (y) = -0.00189 0.37906
# Poissons Ratio (z) = 0.16295 0.59199
#
# Static dielectric constant tensor:
#      x y z
#    x 4.285330 0.412470 -0.264220 
#    y 0.412470 4.691380 -0.083870 
#    z -0.264220 -0.083870 4.418960 
# 
# 
# High freq. dielectric constant tensor:
#      x y z
#    x 1.911590 0.001420 0.005250 
#    y 0.001420 1.942880 -0.011240 
#    z 0.005250 -0.011240 1.924080 
# 
# From -- ./inp_files/212999.got.cif
#   From: 2010.06.25/outbox.cif.g09.slc.cpg/sg2_107_cif.got.tgz:212999.got - 2010.06.27 13:26:56.
