data_PCOD8013385
_publ_section_title
;
Structure prediction by ZEFSAII (Michael W. Deem and Ramdas Pophale) SiO2 
 PCOD8013385
Probable space group: P -1
;
_chemical_formula_sum "Si O2"
_cell_formula_units_Z 14
_cell_length_a 16.397140
_cell_length_b 11.932953
_cell_length_c 16.939787
_cell_angle_alpha 33.277236
_cell_angle_beta 23.759438
_cell_angle_gamma 48.945065
_cell_volume 638.622020
_symmetry_space_group_name_H-M "P -1"
_symmetry_group_IT_number 2
_symmetry_cell_setting 'triclinic'
loop_
_space_group_symop_operation_xyz
x,y,z
-x,-y,-z
loop_
_atom_site_type_symbol
_atom_site_label
_atom_site_fract_x
_atom_site_fract_y
_atom_site_fract_z
Si Si1 0.305808 0.916927 0.787348
Si Si2 0.050565 0.373551 0.119498
Si Si3 0.489842 0.247988 0.157743
Si Si4 0.185814 0.288740 0.730294
Si Si5 0.032501 0.804510 0.865138
Si Si6 0.544780 0.997833 0.825509
Si Si7 0.388738 0.219198 0.951683
O O1 0.350728 0.778844 0.900442
O O2 0.500000 0.000000 0.500000
O O3 0.316300 0.159851 0.655841
O O4 0.045630 0.747075 0.087377
O O5 0.121261 0.340782 0.987482
O O6 0.145707 0.648598 0.890954
O O7 0.186663 0.283676 0.106352
O O8 0.771956 0.230998 0.457361
O O9 0.560508 0.188061 0.044389
O O10 0.223525 0.065337 0.520055
O O11 0.500000 0.500000 0.000000
O O12 0.356100 0.563201 0.413676
O O13 0.132598 0.187477 0.926150
O O14 0.354378 0.057608 0.998894
O O15 0.629923 0.901803 0.878047
#
# Coordination Sequence:
#
# PCOD8013385 Si02
#       7
#     2   2   2   2   2   2   2
#     4  11  25  45  69  94 134 183 227 274 328 400
#     4  10  21  40  67  94 135 168 215 279 331 392
#     4  11  25  45  69  96 138 180 221 279 336 400
#     4  11  24  41  69 100 131 173 235 272 331 403
#     4  10  21  41  64 100 126 169 226 269 331 400
#     4  10  24  43  62 102 133 170 229 266 341 400
#     4  11  23  40  68  98 133 175 216 282 337 394
#
# _framework density 21.922198999999999
#
# number of rings (size 3 to 8) (size 9 to 14) (size 15 to 20)
#    0.000    1.429    2.857    1.286    4.000    0.571 
#   10.286    1.429    0.000    0.000    0.000    0.000 
#    0.000    0.000    0.000    0.000    0.000    0.000 
#
# Total GULP energy -173486.424304 kJ/mol
# GULP energy per Si atom -12391.887450 kJ/mol
# Density = 2.187230 g / cm^3
# Si number density = 21.922199 Si / 1000 Ang^3
#
#
#
# Elastic Constant Matrix: (Units=GPa)
#
#
# Indices 1 2 3 4 5 6 
#
# 1 89.2647 47.0585 18.2997 4.8807 21.6184 13.2076
# 2 47.0585 124.7680 36.7892 -6.5729 3.0356 -0.4639
# 3 18.2997 36.7892 62.8692 -9.0876 11.8974 6.7776
# 4 4.8807 -6.5729 -9.0876 38.4614 0.3477 1.9254
# 5 21.6184 3.0356 11.8974 0.3477 29.1575 4.8834
# 6 13.2076 -0.4639 6.7776 1.9254 4.8834 40.5050
#
#
#
# Elastic Compliance Matrix: (Units=1/GPa)
#
#
# Indices 1 2 3 4 5 6 
#
# 1 0.018779 -0.007341 0.001350 -0.002965 -0.012881 -0.004739
# 2 -0.007341 0.012648 -0.006570 0.001343 0.006320 0.002812
# 3 0.001350 -0.006570 0.021976 0.004145 -0.008775 -0.003332
# 4 -0.002965 0.001343 0.004145 0.027636 0.000214 -0.001051
# 5 -0.012881 0.006320 -0.008775 0.000214 0.046751 0.000094
# 6 -0.004739 0.002812 -0.003332 -0.001051 0.000094 0.026862
#
#
# Mechanical properties :
#
#
# Convention : Reuss Voigt Hill
#
# Bulk Modulus (GPa) = 35.35893 53.46632 44.41263
# Shear Modulus (GPa) = 26.42681 33.27508 29.85095
#
# Velocity S-wave (km/s) = 3.47577 3.90021 3.69409
# Velocity P-wave (km/s) = 5.68087 6.68762 6.20470
#
# Compressibility (1/GPa) = 0.02828140
#
# Stress axis : x y z
#
# Youngs Moduli (GPa) = 53.25128 79.06211 45.50326
#
# Poissons Ratio (x) = 0.58041 -0.06141
# Poissons Ratio (y) = 0.39093 0.29894
# Poissons Ratio (z) = -0.07187 0.51940
#
# Static dielectric constant tensor:
#      x y z
#    x 4.139860 0.220720 0.161340 
#    y 0.220720 4.185100 0.015070 
#    z 0.161340 0.015070 3.727240 
# 
# 
# High freq. dielectric constant tensor:
#      x y z
#    x 1.865870 0.008810 0.015510 
#    y 0.008810 1.875500 0.000800 
#    z 0.015510 0.000800 1.850970 
# 
# From -- ./inp_files/83100.got.cif
#   From: 2010.06.25/outbox.cif.g09.slc.cpg/sg2_42_cif.got.tgz:83100.got - 2010.06.27 13:26:56.
