data_PCOD8013672
_publ_section_title
;
Structure prediction by ZEFSAII (Michael W. Deem and Ramdas Pophale) SiO2 
 PCOD8013672
Probable space group: P -1
;
_chemical_formula_sum "Si O2"
_cell_formula_units_Z 14
_cell_length_a 8.499135
_cell_length_b 9.890442
_cell_length_c 8.820211
_cell_angle_alpha 84.963937
_cell_angle_beta 88.779484
_cell_angle_gamma 124.314099
_cell_volume 607.764279
_symmetry_space_group_name_H-M "P -1"
_symmetry_group_IT_number 2
_symmetry_cell_setting 'triclinic'
loop_
_space_group_symop_operation_xyz
x,y,z
-x,-y,-z
loop_
_atom_site_type_symbol
_atom_site_label
_atom_site_fract_x
_atom_site_fract_y
_atom_site_fract_z
Si Si1 0.170370 0.444329 0.386954
Si Si2 0.663692 0.640467 0.877969
Si Si3 0.871980 0.067739 0.458150
Si Si4 0.702933 0.135447 0.194209
Si Si5 0.156803 0.534919 0.690468
Si Si6 0.997040 0.235911 0.933200
Si Si7 0.316011 0.047132 0.226676
O O1 0.311039 0.449670 0.257235
O O2 0.265542 0.530201 0.537995
O O3 0.008021 0.260750 0.456092
O O4 0.064781 0.527949 0.321138
O O5 0.606426 0.761437 0.811619
O O6 0.500000 0.500000 0.000000
O O7 0.861430 0.765492 0.950132
O O8 0.772453 0.033849 0.295890
O O9 0.704440 0.992627 0.591271
O O10 0.000000 0.000000 0.500000
O O11 0.716051 0.276288 0.282049
O O12 0.477853 0.020387 0.165366
O O13 0.830462 0.225189 0.035117
O O14 0.138077 0.408644 0.828253
O O15 0.888823 0.077686 0.839655
#
# Coordination Sequence:
#
# PCOD8013672 Si02
#       7
#     2   2   2   2   2   2   2
#     4  10  21  42  68  97 129 181 223 274 337 401
#     4  12  26  45  69 102 138 176 226 281 343 406
#     4  11  20  43  69  93 136 177 222 279 338 399
#     4  11  24  42  66 103 134 181 227 279 334 400
#     4  10  21  40  71  93 130 179 230 271 335 399
#     4  12  23  43  68  97 138 182 225 279 340 393
#     4  12  25  42  67  99 139 177 228 274 339 408
#
# _framework density 23.035245
#
# number of rings (size 3 to 8) (size 9 to 14) (size 15 to 20)
#    0.000    0.857    5.714    2.571    2.000    0.000 
#    0.000    4.286    0.000    0.000    0.000    0.000 
#    0.000    0.000    0.000    0.000    0.000    0.000 
#
# Total GULP energy -173477.169808 kJ/mol
# GULP energy per Si atom -12391.226415 kJ/mol
# Density = 2.298282 g / cm^3
# Si number density = 23.035245 Si / 1000 Ang^3
#
#
#
# Elastic Constant Matrix: (Units=GPa)
#
#
# Indices 1 2 3 4 5 6 
#
# 1 98.4975 8.7003 33.4788 -3.5219 -8.6340 -5.5876
# 2 8.7003 61.9448 30.5806 -12.4959 -6.0428 -6.1895
# 3 33.4788 30.5806 136.7529 -10.1249 -19.7114 -5.5122
# 4 -3.5219 -12.4959 -10.1249 35.1221 5.3809 -2.1184
# 5 -8.6340 -6.0428 -19.7114 5.3809 30.1917 -7.1689
# 6 -5.5876 -6.1895 -5.5122 -2.1184 -7.1689 32.7797
#
#
#
# Elastic Compliance Matrix: (Units=1/GPa)
#
#
# Indices 1 2 3 4 5 6 
#
# 1 0.011260 0.000044 -0.002361 0.000261 0.002119 0.002011
# 2 0.000044 0.019638 -0.003601 0.005963 0.001434 0.003809
# 3 -0.002361 -0.003601 0.009544 0.000548 0.005137 0.001682
# 4 0.000261 0.005963 0.000548 0.031449 -0.003372 0.002558
# 5 0.002119 0.001434 0.005137 -0.003372 0.040369 0.010107
# 6 0.002011 0.003809 0.001682 0.002558 0.010107 0.034227
#
#
# Mechanical properties :
#
#
# Convention : Reuss Voigt Hill
#
# Bulk Modulus (GPa) = 34.95459 49.19053 42.07256
# Shear Modulus (GPa) = 29.78705 34.58106 32.18405
#
# Velocity S-wave (km/s) = 3.59988 3.87877 3.74192
# Velocity P-wave (km/s) = 5.69967 6.43899 6.08058
#
# Compressibility (1/GPa) = 0.02860855
#
# Stress axis : x y z
#
# Youngs Moduli (GPa) = 88.80853 50.92122 104.77384
#
# Poissons Ratio (x) = -0.00225 0.24734
# Poissons Ratio (y) = -0.00392 0.37724
# Poissons Ratio (z) = 0.20965 0.18334
#
# Static dielectric constant tensor:
#      x y z
#    x 4.152380 0.039870 0.085290 
#    y 0.039870 3.619840 0.198310 
#    z 0.085290 0.198310 4.234030 
# 
# 
# High freq. dielectric constant tensor:
#      x y z
#    x 1.906140 -0.003200 0.004290 
#    y -0.003200 1.891250 -0.008770 
#    z 0.004290 -0.008770 1.925340 
# 
# From -- ./inp_files/157446.got.cif
#   From: 2010.06.25/outbox.cif.g09.slc.cpg/sg2_79_cif.got.tgz:157446.got - 2010.06.27 13:26:56.
