data_PCOD8013951
_publ_section_title
;
Structure prediction by ZEFSAII (Michael W. Deem and Ramdas Pophale) SiO2 
 PCOD8013951
Probable space group: P -1
;
_chemical_formula_sum "Si O2"
_cell_formula_units_Z 14
_cell_length_a 14.977331
_cell_length_b 14.324050
_cell_length_c 13.249509
_cell_angle_alpha 146.647980
_cell_angle_beta 27.225551
_cell_angle_gamma 151.717632
_cell_volume 597.998928
_symmetry_space_group_name_H-M "P -1"
_symmetry_group_IT_number 2
_symmetry_cell_setting 'triclinic'
loop_
_space_group_symop_operation_xyz
x,y,z
-x,-y,-z
loop_
_atom_site_type_symbol
_atom_site_label
_atom_site_fract_x
_atom_site_fract_y
_atom_site_fract_z
Si Si1 0.480473 0.689771 0.399609
Si Si2 0.785349 0.966159 0.624477
Si Si3 0.558622 0.947430 0.215294
Si Si4 0.306923 0.553267 0.245176
Si Si5 0.399026 0.420553 0.639615
Si Si6 0.609151 0.224811 0.984954
Si Si7 0.037449 0.181512 0.058700
O O1 0.280139 0.583169 0.418586
O O2 0.402340 0.546545 0.449119
O O3 0.544695 0.913967 0.561468
O O4 0.722108 0.713995 0.148480
O O5 0.768980 0.823811 0.420120
O O6 0.560386 0.859471 0.825231
O O7 0.000000 0.000000 0.500000
O O8 0.804411 0.168560 0.745226
O O9 0.402203 0.765856 0.285920
O O10 0.543222 0.859761 0.040286
O O11 0.825582 0.092697 0.113647
O O12 0.065145 0.364660 0.269114
O O13 0.500000 0.500000 0.000000
O O14 0.500000 0.500000 0.500000
O O15 0.270270 0.530464 0.909373
O O16 0.000000 0.000000 0.000000
#
# Coordination Sequence:
#
# PCOD8013951 Si02
#       7
#     2   2   2   2   2   2   2
#     4  11  23  43  66  95 139 174 226 283 333 404
#     4  10  22  42  64  95 126 167 222 275 326 403
#     4  12  23  42  67  99 138 176 218 283 338 401
#     4  10  21  41  63  96 135 175 219 273 334 400
#     4  10  22  43  67  95 132 175 222 276 338 396
#     4  10  22  40  66  90 131 172 212 273 341 384
#     4  11  24  41  66  98 132 180 226 270 338 403
#
# _framework density 23.411411999999999
#
# number of rings (size 3 to 8) (size 9 to 14) (size 15 to 20)
#    0.000    1.429    4.286    2.143    2.000    1.143 
#    0.000    5.714    0.000    0.000    0.000    0.000 
#    0.000    0.000    0.000    0.000    0.000    0.000 
#
# Total GULP energy -173440.842987 kJ/mol
# GULP energy per Si atom -12388.631642 kJ/mol
# Density = 2.335813 g / cm^3
# Si number density = 23.411412 Si / 1000 Ang^3
#
#
#
# Elastic Constant Matrix: (Units=GPa)
#
#
# Indices 1 2 3 4 5 6 
#
# 1 172.6588 54.3338 64.4203 31.6290 -5.2236 9.1896
# 2 54.3338 79.6682 51.4282 31.1711 -6.6052 13.6745
# 3 64.4203 51.4282 114.8771 59.1687 -8.5893 14.6077
# 4 31.6290 31.1711 59.1687 52.0784 2.5356 -1.3938
# 5 -5.2236 -6.6052 -8.5893 2.5356 45.0380 8.4598
# 6 9.1896 13.6745 14.6077 -1.3938 8.4598 44.2531
#
#
#
# Elastic Compliance Matrix: (Units=1/GPa)
#
#
# Indices 1 2 3 4 5 6 
#
# 1 0.008083 -0.003990 -0.004044 0.002139 -0.000746 0.001099
# 2 -0.003990 0.021142 -0.001660 -0.008705 0.003974 -0.006191
# 3 -0.004044 -0.001660 0.029893 -0.031243 0.008849 -0.011191
# 4 0.002139 -0.008705 -0.031243 0.059725 -0.013548 0.017030
# 5 -0.000746 0.003974 0.008849 -0.013548 0.026948 -0.009573
# 6 0.001099 -0.006191 -0.011191 0.017030 -0.009573 0.030342
#
#
# Mechanical properties :
#
#
# Convention : Reuss Voigt Hill
#
# Bulk Modulus (GPa) = 25.16907 78.61874 51.89391
# Shear Modulus (GPa) = 23.95034 41.40869 32.67952
#
# Velocity S-wave (km/s) = 3.20194 4.21020 3.74020
# Velocity P-wave (km/s) = 4.94409 7.56893 6.39268
#
# Compressibility (1/GPa) = 0.03973130
#
# Stress axis : x y z
#
# Youngs Moduli (GPa) = 123.71307 47.29813 33.45306
#
# Poissons Ratio (x) = 0.18870 0.13529
# Poissons Ratio (y) = 0.49357 0.05552
# Poissons Ratio (z) = 0.50032 0.07850
#
# Static dielectric constant tensor:
#      x y z
#    x 5.022720 0.085090 0.739060 
#    y 0.085090 4.409700 0.682170 
#    z 0.739060 0.682170 8.513510 
# 
# 
# High freq. dielectric constant tensor:
#      x y z
#    x 1.954780 -0.001380 0.002320 
#    y -0.001380 1.891120 0.047220 
#    z 0.002320 0.047220 1.933480 
# 
# From -- ./inp_files/534529.got.cif
#   From: 2010.06.25/outbox.cif.g09.slc.cpg/sg2_268_cif.got.tgz:534529.got - 2010.06.27 13:26:56.
