data_PCOD8013847
_publ_section_title
;
Structure prediction by ZEFSAII (Michael W. Deem and Ramdas Pophale) SiO2 
 PCOD8013847
Probable space group: P -1
;
_chemical_formula_sum "Si O2"
_cell_formula_units_Z 14
_cell_length_a 7.630458
_cell_length_b 14.700768
_cell_length_c 11.479712
_cell_angle_alpha 151.854580
_cell_angle_beta 98.750587
_cell_angle_gamma 73.657717
_cell_volume 569.639102
_symmetry_space_group_name_H-M "P -1"
_symmetry_group_IT_number 2
_symmetry_cell_setting 'triclinic'
loop_
_space_group_symop_operation_xyz
x,y,z
-x,-y,-z
loop_
_atom_site_type_symbol
_atom_site_label
_atom_site_fract_x
_atom_site_fract_y
_atom_site_fract_z
Si Si1 0.566718 0.120275 0.739832
Si Si2 0.813795 0.936262 0.960974
Si Si3 0.857799 0.304660 0.494899
Si Si4 0.044363 0.627220 0.799188
Si Si5 0.475199 0.053197 0.237368
Si Si6 0.460860 0.478791 0.727834
Si Si7 0.985453 0.993972 0.630679
O O1 0.779853 0.996044 0.643554
O O2 0.500000 0.000000 0.500000
O O3 0.463797 0.116415 0.847988
O O4 0.533156 0.361291 0.987197
O O5 0.913186 0.115206 0.191430
O O6 0.634862 0.007084 0.106795
O O7 0.944761 0.710931 0.759705
O O8 0.728800 0.931507 0.819156
O O9 0.989604 0.438559 0.631707
O O10 0.639732 0.440272 0.616139
O O11 0.884168 0.210731 0.523578
O O12 0.268102 0.568375 0.735775
O O13 0.971372 0.810151 0.091753
O O14 0.458660 0.266024 0.541426
O O15 0.000000 0.000000 0.500000
#
# Coordination Sequence:
#
# PCOD8013847 Si02
#       7
#     2   2   2   2   2   2   2
#     4  11  25  41  65  94 127 169 213 264 316 374
#     4   9  21  39  68  94 130 169 204 266 314 384
#     4  10  21  41  67  93 127 169 210 259 322 377
#     4  10  21  41  62  94 128 162 213 262 319 372
#     4  10  21  42  64  96 131 165 214 259 321 373
#     4  10  23  40  63  95 125 164 215 259 310 384
#     4  10  24  42  60  92 129 169 212 262 317 376
#
# _framework density 24.576967
#
# number of rings (size 3 to 8) (size 9 to 14) (size 15 to 20)
#    0.000    2.000    0.000    1.714    8.000    2.857 
#    2.571   14.286    0.000    0.000    0.000    0.000 
#    0.000    0.000    0.000    0.000    0.000    0.000 
#
# Total GULP energy -173539.635298 kJ/mol
# GULP energy per Si atom -12395.688236 kJ/mol
# Density = 2.452103 g / cm^3
# Si number density = 24.576967 Si / 1000 Ang^3
#
#
#
# Elastic Constant Matrix: (Units=GPa)
#
#
# Indices 1 2 3 4 5 6 
#
# 1 93.4631 29.5005 67.4831 12.5918 24.8573 -15.1286
# 2 29.5005 124.5615 55.4117 3.0124 14.6787 3.2525
# 3 67.4831 55.4117 126.9028 13.5990 21.0783 -3.6046
# 4 12.5918 3.0124 13.5990 36.2450 -4.2286 -1.5689
# 5 24.8573 14.6787 21.0783 -4.2286 44.2319 5.8994
# 6 -15.1286 3.2525 -3.6046 -1.5689 5.8994 32.0029
#
#
#
# Elastic Compliance Matrix: (Units=1/GPa)
#
#
# Indices 1 2 3 4 5 6 
#
# 1 0.022895 -0.000143 -0.009537 -0.005069 -0.010280 0.011410
# 2 -0.000143 0.010102 -0.004277 0.000641 -0.000990 -0.001362
# 3 -0.009537 -0.004277 0.015017 -0.002101 -0.000253 -0.002439
# 4 -0.005069 0.000641 -0.002101 0.030785 0.006909 -0.002462
# 5 -0.010280 -0.000990 -0.000253 0.006909 0.030847 -0.010135
# 6 0.011410 -0.001362 -0.002439 -0.002462 -0.010135 0.038252
#
#
# Mechanical properties :
#
#
# Convention : Reuss Voigt Hill
#
# Bulk Modulus (GPa) = 49.75784 72.19089 60.97437
# Shear Modulus (GPa) = 27.39522 35.33143 31.36332
#
# Velocity S-wave (km/s) = 3.34229 3.79566 3.57617
# Velocity P-wave (km/s) = 5.93163 6.97471 6.47421
#
# Compressibility (1/GPa) = 0.02009733
#
# Stress axis : x y z
#
# Youngs Moduli (GPa) = 43.67801 98.99253 66.59010
#
# Poissons Ratio (x) = 0.01420 0.63509
# Poissons Ratio (y) = 0.00627 0.28484
# Poissons Ratio (z) = 0.41657 0.42344
#
# Static dielectric constant tensor:
#      x y z
#    x 4.828560 -0.178370 0.119480 
#    y -0.178370 3.772930 0.291920 
#    z 0.119480 0.291920 4.574710 
# 
# 
# High freq. dielectric constant tensor:
#      x y z
#    x 2.008870 -0.007470 0.003690 
#    y -0.007470 1.946810 0.012310 
#    z 0.003690 0.012310 1.990890 
# 
# From -- ./inp_files/400062.got.cif
#   From: 2010.06.25/outbox.cif.g09.slc.cpg/sg2_201_cif.got.tgz:400062.got - 2010.06.27 13:26:56.
