data_PCOD8013196
_publ_section_title
;
Structure prediction by ZEFSAII (Michael W. Deem and Ramdas Pophale) SiO2 
 PCOD8013196
Probable space group: P -1
;
_chemical_formula_sum "Si O2"
_cell_formula_units_Z 10
_cell_length_a 11.601219
_cell_length_b 9.304070
_cell_length_c 14.620956
_cell_angle_alpha 141.753866
_cell_angle_beta 146.885822
_cell_angle_gamma 61.113128
_cell_volume 456.968778
_symmetry_space_group_name_H-M "P -1"
_symmetry_group_IT_number 2
_symmetry_cell_setting 'triclinic'
loop_
_space_group_symop_operation_xyz
x,y,z
-x,-y,-z
loop_
_atom_site_type_symbol
_atom_site_label
_atom_site_fract_x
_atom_site_fract_y
_atom_site_fract_z
Si Si1 0.871160 0.283257 0.084372
Si Si2 0.381576 0.330630 0.428749
Si Si3 0.321951 0.246048 0.026645
Si Si4 0.054365 0.819325 0.381684
Si Si5 0.556216 0.123893 0.956812
O O1 0.780642 0.338506 0.149397
O O2 0.142403 0.337227 0.303266
O O3 0.880155 0.499286 0.127208
O O4 0.681513 0.976436 0.773695
O O5 0.500000 0.500000 0.500000
O O6 0.570167 0.468837 0.707196
O O7 0.470290 0.274464 0.045094
O O8 0.036118 0.147847 0.763011
O O9 0.338840 0.037378 0.000340
O O10 0.000000 0.000000 0.500000
O O11 0.340544 0.920788 0.640009
#
# Coordination Sequence:
#
# PCOD8013196 Si02
#       5
#     2   2   2   2   2
#     4  11  22  40  67  88 127 168 199 259 308 360
#     4  11  22  42  64  90 128 164 207 254 307 367
#     4  10  21  40  66  89 126 168 195 259 312 354
#     4  10  22  41  61  95 128 157 204 261 305 360
#     4  10  21  43  62  93 128 156 211 255 301 367
#
# _framework density 21.883333
#
# number of rings (size 3 to 8) (size 9 to 14) (size 15 to 20)
#    0.000    1.600    4.000    0.000    0.000    4.800 
#    3.600    4.000    0.000    0.000    0.000    0.000 
#    0.000    0.000    0.000    0.000    0.000    0.000 
#
# Total GULP energy -123894.171258 kJ/mol
# GULP energy per Si atom -12389.417126 kJ/mol
# Density = 2.183353 g / cm^3
# Si number density = 21.883333 Si / 1000 Ang^3
#
#
#
# Elastic Constant Matrix: (Units=GPa)
#
#
# Indices 1 2 3 4 5 6 
#
# 1 95.6894 11.9131 43.3883 -14.2280 8.8882 5.6492
# 2 11.9131 109.1613 54.3534 -18.1434 -4.7687 1.7990
# 3 43.3883 54.3534 118.5764 -14.4233 -22.5878 15.8850
# 4 -14.2280 -18.1434 -14.4233 43.9009 5.7830 -14.8264
# 5 8.8882 -4.7687 -22.5878 5.7830 36.8364 1.6239
# 6 5.6492 1.7990 15.8850 -14.8264 1.6239 14.3734
#
#
#
# Elastic Compliance Matrix: (Units=1/GPa)
#
#
# Indices 1 2 3 4 5 6 
#
# 1 0.017932 0.006043 -0.013618 0.013560 -0.015035 0.022932
# 2 0.006043 0.017219 -0.014273 0.015606 -0.011695 0.028664
# 3 -0.013618 -0.014273 0.028563 -0.020416 0.024284 -0.048231
# 4 0.013560 0.015606 -0.020416 0.055978 -0.025907 0.075950
# 5 -0.015035 -0.011695 0.024284 -0.025907 0.050506 -0.051894
# 6 0.022932 0.028664 -0.048231 0.075950 -0.051894 0.194482
#
#
# Mechanical properties :
#
#
# Convention : Reuss Voigt Hill
#
# Bulk Modulus (GPa) = 49.95924 60.30408 55.13166
# Shear Modulus (GPa) = 12.04677 33.27362 22.66019
#
# Velocity S-wave (km/s) = 2.34882 3.90359 3.22141
# Velocity P-wave (km/s) = 5.49866 6.92346 6.25178
#
# Compressibility (1/GPa) = 0.02001632
#
# Stress axis : x y z
#
# Youngs Moduli (GPa) = 55.76648 58.07595 35.01056
#
# Poissons Ratio (x) = -0.35094 0.47678
# Poissons Ratio (y) = -0.33699 0.49972
# Poissons Ratio (z) = 0.75943 0.82894
#
# Static dielectric constant tensor:
#      x y z
#    x 4.000550 -0.199850 -0.049960 
#    y -0.199850 3.701740 -0.270540 
#    z -0.049960 -0.270540 4.492360 
# 
# 
# High freq. dielectric constant tensor:
#      x y z
#    x 1.853380 -0.012910 -0.006010 
#    y -0.012910 1.857640 -0.006210 
#    z -0.006010 -0.006210 1.857790 
# 
# From -- ./inp_files/15576.got.cif
#   From: 2010.06.25/outbox.cif.g09.slc.cpg/sg2_8_cif.got.tgz:15576.got - 2010.06.27 13:26:56.
