data_PCOD8013418
_publ_section_title
;
Structure prediction by ZEFSAII (Michael W. Deem and Ramdas Pophale) SiO2 
 PCOD8013418
Probable space group: P -1
;
_chemical_formula_sum "Si O2"
_cell_formula_units_Z 14
_cell_length_a 8.766038
_cell_length_b 9.534020
_cell_length_c 8.707942
_cell_angle_alpha 117.071485
_cell_angle_beta 71.471550
_cell_angle_gamma 113.656558
_cell_volume 585.372254
_symmetry_space_group_name_H-M "P -1"
_symmetry_group_IT_number 2
_symmetry_cell_setting 'triclinic'
loop_
_space_group_symop_operation_xyz
x,y,z
-x,-y,-z
loop_
_atom_site_type_symbol
_atom_site_label
_atom_site_fract_x
_atom_site_fract_y
_atom_site_fract_z
Si Si1 0.299061 0.589847 0.884030
Si Si2 0.215617 0.938353 0.378711
Si Si3 0.339834 0.397346 0.298042
Si Si4 0.839269 0.731794 0.399718
Si Si5 0.418723 0.707958 0.235072
Si Si6 0.147865 0.872296 0.029294
Si Si7 0.218317 0.171309 0.950920
O O1 0.483002 0.643811 0.773057
O O2 0.194773 0.398179 0.793838
O O3 0.318390 0.609849 0.071151
O O4 0.193946 0.703972 0.904986
O O5 0.362295 0.870732 0.365675
O O6 0.237033 0.964607 0.200976
O O7 0.037350 0.803589 0.408140
O O8 0.233738 0.115289 0.538863
O O9 0.253583 0.372703 0.477625
O O10 0.375516 0.589130 0.336484
O O11 0.215809 0.280854 0.156416
O O12 0.618220 0.754356 0.168166
O O13 0.946945 0.837270 0.100813
O O14 0.212579 0.988324 0.919122
#
# Coordination Sequence:
#
# PCOD8013418 Si02
#       7
#     2   2   2   2   2   2   2
#     4  10  23  41  69  94 124 169 217 260 314 376
#     4  10  24  43  67  92 126 180 204 259 320 381
#     4  11  23  42  64  98 128 171 201 275 310 380
#     4  11  24  43  65  91 137 164 214 255 322 386
#     4  10  24  42  69  95 124 167 221 260 314 366
#     4  10  22  40  70  97 120 173 215 263 313 369
#     4  10  21  40  67  97 130 155 221 271 306 372
#
# _framework density 23.916405000000001
#
# number of rings (size 3 to 8) (size 9 to 14) (size 15 to 20)
#    0.000    1.714    1.429    2.143    8.000    3.429 
#    0.000    0.714    0.000    0.000    0.000    0.000 
#    0.000    0.000    0.000    0.000    0.000    0.000 
#
# Total GULP energy -173684.642572 kJ/mol
# GULP energy per Si atom -12406.045898 kJ/mol
# Density = 2.386197 g / cm^3
# Si number density = 23.916405 Si / 1000 Ang^3
#
#
#
# Elastic Constant Matrix: (Units=GPa)
#
#
# Indices 1 2 3 4 5 6 
#
# 1 91.8447 46.8559 8.8349 5.4877 -2.1727 -30.1544
# 2 46.8559 128.1375 29.2736 2.9640 2.0156 -8.2820
# 3 8.8349 29.2736 47.9043 13.6721 -5.8160 -6.4968
# 4 5.4877 2.9640 13.6721 51.2302 6.7709 -6.9352
# 5 -2.1727 2.0156 -5.8160 6.7709 18.0298 5.9374
# 6 -30.1544 -8.2820 -6.4968 -6.9352 5.9374 39.9970
#
#
#
# Elastic Compliance Matrix: (Units=1/GPa)
#
#
# Indices 1 2 3 4 5 6 
#
# 1 0.018051 -0.006293 0.002306 -0.000419 -0.000391 0.012666
# 2 -0.006293 0.011679 -0.007507 0.002263 -0.004518 -0.002483
# 3 0.002306 -0.007507 0.029545 -0.009330 0.013714 0.001330
# 4 -0.000419 0.002263 -0.009330 0.024467 -0.014141 0.004979
# 5 -0.000391 -0.004518 0.013714 -0.014141 0.069534 -0.011777
# 6 0.012666 -0.002483 0.001330 0.004979 -0.011777 0.036864
#
#
# Mechanical properties :
#
#
# Convention : Reuss Voigt Hill
#
# Bulk Modulus (GPa) = 27.55809 48.64615 38.10212
# Shear Modulus (GPa) = 22.20025 34.04621 28.12323
#
# Velocity S-wave (km/s) = 3.05001 3.77709 3.43286
# Velocity P-wave (km/s) = 4.89399 6.27743 5.62838
#
# Compressibility (1/GPa) = 0.03628698
#
# Stress axis : x y z
#
# Youngs Moduli (GPa) = 55.39940 85.62707 33.84641
#
# Poissons Ratio (x) = 0.53885 -0.07806
# Poissons Ratio (y) = 0.34863 0.25409
# Poissons Ratio (z) = -0.12776 0.64280
#
# Static dielectric constant tensor:
#      x y z
#    x 4.312590 -0.064680 -0.048020 
#    y -0.064680 4.341680 0.122100 
#    z -0.048020 0.122100 4.134800 
# 
# 
# High freq. dielectric constant tensor:
#      x y z
#    x 1.946730 -0.002220 -0.000280 
#    y -0.002220 1.962820 0.000240 
#    z -0.000280 0.000240 1.932970 
# 
# From -- ./inp_files/159654.got.cif
#   From: 2010.06.25/outbox.cif.g09.slc.cpg/sg2_80_cif.got.tgz:159654.got - 2010.06.27 13:26:56.
