data_PCOD8013563
_publ_section_title
;
Structure prediction by ZEFSAII (Michael W. Deem and Ramdas Pophale) SiO2 
 PCOD8013563
Probable space group: P -1
;
_chemical_formula_sum "Si O2"
_cell_formula_units_Z 16
_cell_length_a 11.076714
_cell_length_b 11.155349
_cell_length_c 14.467850
_cell_angle_alpha 32.243687
_cell_angle_beta 84.523255
_cell_angle_gamma 63.739408
_cell_volume 695.149009
_symmetry_space_group_name_H-M "P -1"
_symmetry_group_IT_number 2
_symmetry_cell_setting 'triclinic'
loop_
_space_group_symop_operation_xyz
x,y,z
-x,-y,-z
loop_
_atom_site_type_symbol
_atom_site_label
_atom_site_fract_x
_atom_site_fract_y
_atom_site_fract_z
Si Si1 0.503522 0.690066 0.505927
Si Si2 0.424473 0.398341 0.829684
Si Si3 0.978097 0.689411 0.293537
Si Si4 0.282050 0.264250 0.438106
Si Si5 0.742184 0.092293 0.769495
Si Si6 0.672971 0.307891 0.162295
Si Si7 0.720565 0.791584 0.130049
Si Si8 0.873665 0.263687 0.014170
O O1 0.493321 0.542720 0.691637
O O2 0.545598 0.873078 0.436099
O O3 0.325935 0.908231 0.324839
O O4 0.646754 0.437413 0.586476
O O5 0.348371 0.518806 0.857545
O O6 0.285817 0.465582 0.726891
O O7 0.578688 0.027886 0.062288
O O8 0.897222 0.636398 0.255962
O O9 0.000000 0.500000 0.500000
O O10 0.149362 0.552450 0.326575
O O11 0.871940 0.042629 0.095005
O O12 0.245841 0.404047 0.245487
O O13 0.262153 0.021407 0.599786
O O14 0.688722 0.963361 0.925820
O O15 0.939870 0.881863 0.888341
O O16 0.500000 0.500000 0.000000
O O17 0.800544 0.284789 0.104636
#
# Coordination Sequence:
#
# PCOD8013563 Si02
#       8
#     2   2   2   2   2   2   2   2
#     4  10  22  39  69 102 140 181 227 296 352 416
#     4  10  24  44  68  97 139 183 235 289 353 423
#     4  12  23  39  75 109 136 179 240 295 356 413
#     4  12  25  44  72 104 143 188 237 296 355 418
#     4  10  21  40  69 106 137 176 234 293 357 413
#     4  12  28  47  70 104 146 195 239 287 358 435
#     4  10  22  43  71 101 135 177 231 306 352 410
#     4  12  24  46  74 108 145 185 238 297 355 424
#
# _framework density 23.016646999999999
#
# number of rings (size 3 to 8) (size 9 to 14) (size 15 to 20)
#    0.000    1.000    3.750    3.375    3.500    3.000 
#    0.000    3.125    0.000    0.000    0.000    0.000 
#    0.000    0.000    0.000    0.000    0.000    0.000 
#
# Total GULP energy -198338.677670 kJ/mol
# GULP energy per Si atom -12396.167354 kJ/mol
# Density = 2.296426 g / cm^3
# Si number density = 23.016647 Si / 1000 Ang^3
#
#
#
# Elastic Constant Matrix: (Units=GPa)
#
#
# Indices 1 2 3 4 5 6 
#
# 1 135.8253 48.5784 29.0783 8.1823 14.1185 7.1148
# 2 48.5784 137.6962 34.4017 7.9632 -7.0342 -3.8139
# 3 29.0783 34.4017 95.0339 17.4148 -1.7803 5.3210
# 4 8.1823 7.9632 17.4148 26.0001 1.2733 1.5518
# 5 14.1185 -7.0342 -1.7803 1.2733 39.5059 9.3213
# 6 7.1148 -3.8139 5.3210 1.5518 9.3213 35.8971
#
#
#
# Elastic Compliance Matrix: (Units=1/GPa)
#
#
# Indices 1 2 3 4 5 6 
#
# 1 0.009270 -0.003039 -0.001633 -0.000657 -0.003686 -0.000933
# 2 -0.003039 0.009093 -0.002306 -0.000476 0.002302 0.001333
# 3 -0.001633 -0.002306 0.013409 -0.007717 0.001489 -0.001962
# 4 -0.000657 -0.000476 -0.007717 0.044075 -0.001553 -0.000279
# 5 -0.003686 0.002302 0.001489 -0.001553 0.028723 -0.006637
# 6 -0.000933 0.001333 -0.001962 -0.000279 -0.006637 0.030210
#
#
# Mechanical properties :
#
#
# Convention : Reuss Voigt Hill
#
# Bulk Modulus (GPa) = 56.12789 65.85245 60.99017
# Shear Modulus (GPa) = 32.32596 37.38043 34.85319
#
# Velocity S-wave (km/s) = 3.75168 4.03434 3.89557
# Velocity P-wave (km/s) = 6.57309 7.09747 6.84031
#
# Compressibility (1/GPa) = 0.01781645
#
# Stress axis : x y z
#
# Youngs Moduli (GPa) = 107.86979 109.97993 74.57790
#
# Poissons Ratio (x) = 0.33420 0.12179
# Poissons Ratio (y) = 0.32779 0.17197
# Poissons Ratio (z) = 0.17616 0.25360
#
# Static dielectric constant tensor:
#      x y z
#    x 4.443270 0.147760 -0.012210 
#    y 0.147760 4.298730 0.146640 
#    z -0.012210 0.146640 4.023710 
# 
# 
# High freq. dielectric constant tensor:
#      x y z
#    x 1.925500 -0.001510 -0.004640 
#    y -0.001510 1.898310 0.017660 
#    z -0.004640 0.017660 1.893830 
# 
# From -- ./inp_files/519492.got.cif
#   From: 2010.06.25/outbox.cif.g09.slc.cpg/sg2_260_cif.got.tgz:519492.got - 2010.06.27 13:26:56.
