data_PCOD8013413
_publ_section_title
;
Structure prediction by ZEFSAII (Michael W. Deem and Ramdas Pophale) SiO2 
 PCOD8013413
Probable space group: P -1
;
_chemical_formula_sum "Si O2"
_cell_formula_units_Z 16
_cell_length_a 23.281170
_cell_length_b 28.829279
_cell_length_c 11.778140
_cell_angle_alpha 32.456144
_cell_angle_beta 147.975437
_cell_angle_gamma 169.454468
_cell_volume 762.875060
_symmetry_space_group_name_H-M "P -1"
_symmetry_group_IT_number 2
_symmetry_cell_setting 'triclinic'
loop_
_space_group_symop_operation_xyz
x,y,z
-x,-y,-z
loop_
_atom_site_type_symbol
_atom_site_label
_atom_site_fract_x
_atom_site_fract_y
_atom_site_fract_z
Si Si1 0.153391 0.149976 0.231014
Si Si2 0.346159 0.743553 0.623999
Si Si3 0.087664 0.727601 0.583125
Si Si4 0.578875 0.361171 0.676606
Si Si5 0.830912 0.569213 0.090781
Si Si6 0.474200 0.868774 0.842618
Si Si7 0.356875 0.498538 0.859916
Si Si8 0.545009 0.434035 0.695493
O O1 0.302047 0.196081 0.477827
O O2 0.301247 0.241374 0.166171
O O3 0.226187 0.304066 0.061473
O O4 0.777103 0.856278 0.206742
O O5 0.378393 0.666378 0.822084
O O6 0.398975 0.811849 0.701057
O O7 0.000000 0.500000 0.500000
O O8 0.591636 0.976784 0.471286
O O9 0.183146 0.701055 0.762457
O O10 0.900467 0.587012 0.678032
O O11 0.890071 0.627017 0.362143
O O12 0.651123 0.482853 0.647473
O O13 0.474108 0.189249 0.904419
O O14 0.605152 0.435468 0.087869
O O15 0.837343 0.635926 0.854450
O O16 0.196386 0.829843 0.207195
O O17 0.500000 0.500000 0.500000
#
# Coordination Sequence:
#
# PCOD8013413 Si02
#       8
#     2   2   2   2   2   2   2   2
#     4  10  22  42  66  93 132 173 225 277 329 380
#     4  12  23  41  67  98 130 171 222 267 320 393
#     4  11  23  42  68  97 135 175 219 271 332 388
#     4  11  24  43  67  97 134 180 218 272 333 393
#     4  12  23  39  68  98 130 173 219 271 332 387
#     4  12  23  45  67  96 140 173 220 269 330 399
#     4  10  21  40  67  97 127 173 221 279 328 381
#     4  12  24  40  62  95 133 174 221 268 328 397
#
# _framework density 20.973291
#
# number of rings (size 3 to 8) (size 9 to 14) (size 15 to 20)
#    0.000    0.750    3.750    4.875    0.000    1.500 
#    0.000    3.750    0.000    0.000    0.000    0.000 
#    0.000    0.000    0.000    0.000    0.000    0.000 
#
# Total GULP energy -198335.927254 kJ/mol
# GULP energy per Si atom -12395.995453 kJ/mol
# Density = 2.092555 g / cm^3
# Si number density = 20.973291 Si / 1000 Ang^3
#
#
#
# Elastic Constant Matrix: (Units=GPa)
#
#
# Indices 1 2 3 4 5 6 
#
# 1 159.8775 53.2302 26.9330 4.5835 3.7782 10.1979
# 2 53.2302 86.7101 16.3644 -0.4191 -10.7065 -0.1049
# 3 26.9330 16.3644 92.2925 4.9039 7.5580 -2.4823
# 4 4.5835 -0.4191 4.9039 29.3248 0.1007 -2.2233
# 5 3.7782 -10.7065 7.5580 0.1007 37.8161 1.0169
# 6 10.1979 -0.1049 -2.4823 -2.2233 1.0169 31.0374
#
#
#
# Elastic Compliance Matrix: (Units=1/GPa)
#
#
# Indices 1 2 3 4 5 6 
#
# 1 0.008499 -0.005205 -0.001403 -0.001386 -0.001959 -0.002957
# 2 -0.005205 0.015714 -0.001733 0.001428 0.005270 0.001554
# 3 -0.001403 -0.001733 0.011904 -0.001682 -0.002762 0.001377
# 4 -0.001386 0.001428 -0.001682 0.034829 0.000711 0.002797
# 5 -0.001959 0.005270 -0.002762 0.000711 0.028694 -0.000449
# 6 -0.002957 0.001554 0.001377 0.002797 -0.000449 0.033521
#
#
# Mechanical properties :
#
#
# Convention : Reuss Voigt Hill
#
# Bulk Modulus (GPa) = 51.44983 59.10391 55.27687
# Shear Modulus (GPa) = 31.98554 35.79250 33.88902
#
# Velocity S-wave (km/s) = 3.90944 4.13555 4.02408
# Velocity P-wave (km/s) = 6.70542 7.14461 6.92850
#
# Compressibility (1/GPa) = 0.01943641
#
# Stress axis : x y z
#
# Youngs Moduli (GPa) = 117.66666 63.63643 84.00256
#
# Poissons Ratio (x) = 0.33120 0.11783
# Poissons Ratio (y) = 0.61241 0.14558
# Poissons Ratio (z) = 0.16505 0.11029
#
# Static dielectric constant tensor:
#      x y z
#    x 4.494720 -0.244140 1.024630 
#    y -0.244140 3.854840 -0.819860 
#    z 1.024630 -0.819860 5.546780 
# 
# 
# High freq. dielectric constant tensor:
#      x y z
#    x 1.831930 0.005860 0.010480 
#    y 0.005860 1.811760 0.006030 
#    z 0.010480 0.006030 1.843210 
# 
# From -- ./inp_files/81408.got.cif
#   From: 2010.06.25/outbox.cif.g09.slc.cpg/sg2_41_cif.got.tgz:81408.got - 2010.06.27 13:26:56.
