data_PCOD8013275
_publ_section_title
;
Structure prediction by ZEFSAII (Michael W. Deem and Ramdas Pophale) SiO2 
 PCOD8013275
Probable space group: P -1
;
_chemical_formula_sum "Si O2"
_cell_formula_units_Z 12
_cell_length_a 10.225489
_cell_length_b 8.050953
_cell_length_c 11.838033
_cell_angle_alpha 48.196649
_cell_angle_beta 49.562740
_cell_angle_gamma 82.199640
_cell_volume 471.344628
_symmetry_space_group_name_H-M "P -1"
_symmetry_group_IT_number 2
_symmetry_cell_setting 'triclinic'
loop_
_space_group_symop_operation_xyz
x,y,z
-x,-y,-z
loop_
_atom_site_type_symbol
_atom_site_label
_atom_site_fract_x
_atom_site_fract_y
_atom_site_fract_z
Si Si1 0.109720 0.756549 0.948221
Si Si2 0.634877 0.678836 0.445183
Si Si3 0.254349 0.979103 0.326686
Si Si4 0.236611 0.623802 0.324826
Si Si5 0.284515 0.728065 0.638082
Si Si6 0.212857 0.436114 0.189618
O O1 0.163043 0.790093 0.769671
O O2 0.180179 0.041870 0.829259
O O3 0.224933 0.627020 0.998844
O O4 0.869553 0.569367 0.187097
O O5 0.500000 0.500000 0.500000
O O6 0.723070 0.548573 0.532991
O O7 0.484383 0.745379 0.568425
O O8 0.332175 0.913637 0.196123
O O9 0.350462 0.928221 0.405983
O O10 0.013837 0.784653 0.551516
O O11 0.321281 0.283510 0.154441
O O12 0.325336 0.620301 0.153266
O O13 0.000000 0.500000 0.500000
#
# Coordination Sequence:
#
# PCOD8013275 Si02
#       6
#     2   2   2   2   2   2
#     4  10  23  42  69 101 130 178 226 276 338 399
#     4  12  24  43  67  98 137 175 223 280 332 401
#     4   9  17  37  63  92 128 171 218 268 334 390
#     4  10  21  40  66  95 131 180 218 271 343 396
#     4  10  21  42  68  97 130 174 231 274 331 401
#     4   9  19  37  63  92 129 172 217 271 328 398
#
# _framework density 25.459078999999999
#
# number of rings (size 3 to 8) (size 9 to 14) (size 15 to 20)
#    0.000    2.000    1.667    1.500    0.000    4.667 
#    3.000    4.167    0.000    0.000    0.000    0.000 
#    0.000    0.000    0.000    0.000    0.000    0.000 
#
# Total GULP energy -148765.072358 kJ/mol
# GULP energy per Si atom -12397.089363 kJ/mol
# Density = 2.540113 g / cm^3
# Si number density = 25.459079 Si / 1000 Ang^3
#
#
#
# Elastic Constant Matrix: (Units=GPa)
#
#
# Indices 1 2 3 4 5 6 
#
# 1 146.3652 46.3000 27.4398 -12.7383 22.5276 -6.6254
# 2 46.3000 134.0939 16.4829 -22.2557 21.8914 9.5669
# 3 27.4398 16.4829 18.8846 -14.3199 6.5709 9.7644
# 4 -12.7383 -22.2557 -14.3199 45.1601 4.8668 -1.3775
# 5 22.5276 21.8914 6.5709 4.8668 39.7001 0.8486
# 6 -6.6254 9.5669 9.7644 -1.3775 0.8486 46.4855
#
#
#
# Elastic Compliance Matrix: (Units=1/GPa)
#
#
# Indices 1 2 3 4 5 6 
#
# 1 0.011631 -0.002359 -0.020742 -0.004102 -0.001500 0.006406
# 2 -0.002359 0.009923 0.001801 0.005260 -0.005022 -0.002509
# 3 -0.020742 0.001801 0.129591 0.036808 -0.014561 -0.029191
# 4 -0.004102 0.005260 0.036808 0.036180 -0.010927 -0.008127
# 5 -0.001500 -0.005022 -0.014561 -0.010927 0.032496 0.002961
# 6 0.006406 -0.002509 -0.029191 -0.008127 0.002961 0.028778
#
#
# Mechanical properties :
#
#
# Convention : Reuss Voigt Hill
#
# Bulk Modulus (GPa) = 9.21279 53.30991 31.26135
# Shear Modulus (GPa) = 15.27281 40.21054 27.74167
#
# Velocity S-wave (km/s) = 2.45194 3.97850 3.30458
# Velocity P-wave (km/s) = 3.41211 6.48765 5.18324
#
# Compressibility (1/GPa) = 0.10854475
#
# Stress axis : x y z
#
# Youngs Moduli (GPa) = 85.97771 100.77948 7.71660
#
# Poissons Ratio (x) = 0.23777 0.16005
# Poissons Ratio (y) = 0.20285 -0.01390
# Poissons Ratio (z) = 1.78331 -0.18152
#
# Static dielectric constant tensor:
#      x y z
#    x 4.876580 0.212180 -0.173870 
#    y 0.212180 5.308150 -0.150980 
#    z -0.173870 -0.150980 4.209700 
# 
# 
# High freq. dielectric constant tensor:
#      x y z
#    x 2.022970 0.006250 -0.016500 
#    y 0.006250 2.033000 -0.008680 
#    z -0.016500 -0.008680 1.998610 
# 
# From -- ./inp_files/166587.got.cif
#   From: 2010.06.25/outbox.cif.g09.slc.cpg/sg2_84_cif.got.tgz:166587.got - 2010.06.27 13:26:56.
