data_PCOD8013586
_publ_section_title
;
Structure prediction by ZEFSAII (Michael W. Deem and Ramdas Pophale) SiO2 
 PCOD8013586
Probable space group: P -1
;
_chemical_formula_sum "Si O2"
_cell_formula_units_Z 16
_cell_length_a 10.995373
_cell_length_b 9.533658
_cell_length_c 16.125017
_cell_angle_alpha 153.187354
_cell_angle_beta 102.180509
_cell_angle_gamma 86.023889
_cell_volume 717.655318
_symmetry_space_group_name_H-M "P -1"
_symmetry_group_IT_number 2
_symmetry_cell_setting 'triclinic'
loop_
_space_group_symop_operation_xyz
x,y,z
-x,-y,-z
loop_
_atom_site_type_symbol
_atom_site_label
_atom_site_fract_x
_atom_site_fract_y
_atom_site_fract_z
Si Si1 0.440352 0.450627 0.212730
Si Si2 0.106743 0.680668 0.298322
Si Si3 0.317647 0.725398 0.793468
Si Si4 0.361334 0.355880 0.448239
Si Si5 0.296992 0.698314 0.191915
Si Si6 0.169018 0.407972 0.746552
Si Si7 0.293366 0.597603 0.412807
Si Si8 0.351031 0.327629 0.865092
O O1 0.583361 0.411667 0.208255
O O2 0.415962 0.707563 0.277685
O O3 0.420533 0.568032 0.364903
O O4 0.342286 0.106752 0.995772
O O5 0.167541 0.685922 0.218203
O O6 0.175400 0.498856 0.278696
O O7 0.953493 0.513041 0.183496
O O8 0.134433 0.033949 0.524991
O O9 0.320363 0.598425 0.634235
O O10 0.187454 0.591639 0.757367
O O11 0.500000 0.500000 0.500000
O O12 0.263284 0.337719 0.346480
O O13 0.342946 0.009939 0.304455
O O14 0.270443 0.380039 0.962657
O O15 0.295930 0.501845 0.873394
O O16 0.326489 0.952102 0.645044
O O17 0.500000 0.500000 0.000000
#
# Coordination Sequence:
#
# PCOD8013586 Si02
#       8
#     2   2   2   2   2   2   2   2
#     4  10  23  40  64  94 133 168 216 261 328 397
#     4   9  21  44  67  93 126 177 223 262 317 383
#     4  11  22  39  65  96 130 170 214 266 328 381
#     4  12  23  37  62  97 131 163 211 269 330 382
#     4  11  23  40  64  94 130 172 213 266 324 385
#     4  10  21  40  69  95 129 172 222 267 314 386
#     4  10  22  42  63  93 134 167 211 270 317 390
#     4  11  23  37  65  98 132 165 214 261 336 378
#
# _framework density 22.294824999999999
#
# number of rings (size 3 to 8) (size 9 to 14) (size 15 to 20)
#    0.000    1.500    2.500    2.250    1.750    3.000 
#    0.000    3.125    2.750    0.000    0.000    0.000 
#    0.000    0.000    0.000    0.000    0.000    0.000 
#
# Total GULP energy -198282.057101 kJ/mol
# GULP energy per Si atom -12392.628569 kJ/mol
# Density = 2.224408 g / cm^3
# Si number density = 22.294825 Si / 1000 Ang^3
#
#
#
# Elastic Constant Matrix: (Units=GPa)
#
#
# Indices 1 2 3 4 5 6 
#
# 1 112.6401 52.8113 32.7131 -5.3320 -8.7567 16.0569
# 2 52.8113 177.2387 37.8756 -6.0182 -7.0313 13.0747
# 3 32.7131 37.8756 78.8181 -14.7232 -22.5184 6.6376
# 4 -5.3320 -6.0182 -14.7232 33.1524 3.9837 -9.5316
# 5 -8.7567 -7.0313 -22.5184 3.9837 33.3834 -10.2065
# 6 16.0569 13.0747 6.6376 -9.5316 -10.2065 31.8390
#
#
#
# Elastic Compliance Matrix: (Units=1/GPa)
#
#
# Indices 1 2 3 4 5 6 
#
# 1 0.011678 -0.002364 -0.004011 -0.001602 -0.001490 -0.005040
# 2 -0.002364 0.006990 -0.002779 -0.000678 -0.001485 -0.001778
# 3 -0.004011 -0.002779 0.020370 0.007908 0.012807 0.005390
# 4 -0.001602 -0.000678 0.007908 0.036131 0.003985 0.011532
# 5 -0.001490 -0.001485 0.012807 0.003985 0.041441 0.013169
# 6 -0.005040 -0.001778 0.005390 0.011532 0.013169 0.041230
#
#
# Mechanical properties :
#
#
# Convention : Reuss Voigt Hill
#
# Bulk Modulus (GPa) = 48.24241 68.38855 58.31548
# Shear Modulus (GPa) = 27.31373 36.02809 31.67091
#
# Velocity S-wave (km/s) = 3.50396 4.02429 3.77311
# Velocity P-wave (km/s) = 6.16893 7.23426 6.72273
#
# Compressibility (1/GPa) = 0.02072865
#
# Stress axis : x y z
#
# Youngs Moduli (GPa) = 85.63115 143.07013 49.09192
#
# Poissons Ratio (x) = 0.33824 0.19693
# Poissons Ratio (y) = 0.20245 0.13642
# Poissons Ratio (z) = 0.34351 0.39756
#
# Static dielectric constant tensor:
#      x y z
#    x 4.194050 -0.151920 -0.335780 
#    y -0.151920 4.353940 -0.268150 
#    z -0.335780 -0.268150 3.964110 
# 
# 
# High freq. dielectric constant tensor:
#      x y z
#    x 1.860010 0.001190 -0.033520 
#    y 0.001190 1.893540 -0.013900 
#    z -0.033520 -0.013900 1.866240 
# 
# From -- ./inp_files/308206.got.cif
#   From: 2010.06.25/outbox.cif.g09.slc.cpg/sg2_155_cif.got.tgz:308206.got - 2010.06.27 13:26:56.
