data_PCOD8013463
_publ_section_title
;
Structure prediction by ZEFSAII (Michael W. Deem and Ramdas Pophale) SiO2 
 PCOD8013463
Probable space group: P -1
;
_chemical_formula_sum "Si O2"
_cell_formula_units_Z 12
_cell_length_a 23.941935
_cell_length_b 7.041292
_cell_length_c 10.453987
_cell_angle_alpha 134.428213
_cell_angle_beta 31.262181
_cell_angle_gamma 138.745460
_cell_volume 594.540754
_symmetry_space_group_name_H-M "P -1"
_symmetry_group_IT_number 2
_symmetry_cell_setting 'triclinic'
loop_
_space_group_symop_operation_xyz
x,y,z
-x,-y,-z
loop_
_atom_site_type_symbol
_atom_site_label
_atom_site_fract_x
_atom_site_fract_y
_atom_site_fract_z
Si Si1 0.312472 0.889557 0.571907
Si Si2 0.384830 0.382106 0.837552
Si Si3 0.705455 0.165338 0.716790
Si Si4 0.960239 0.600995 0.497873
Si Si5 0.423672 0.483036 0.263984
Si Si6 0.862355 0.064583 0.893150
O O1 0.324763 0.843643 0.377978
O O2 0.355218 0.686936 0.477546
O O3 0.392269 0.233292 0.615802
O O4 0.176281 0.808449 0.844250
O O5 0.494661 0.410052 0.721195
O O6 0.374643 0.692065 0.988014
O O7 0.259492 0.160412 0.043908
O O8 0.843871 0.341950 0.549929
O O9 0.672039 0.846393 0.686924
O O10 0.000000 0.500000 0.500000
O O11 0.063909 0.675272 0.224998
O O12 0.940132 0.891816 0.703590
O O13 0.500000 0.500000 0.000000
#
# Coordination Sequence:
#
# PCOD8013463 Si02
#       6
#     2   2   2   2   2   2
#     4  10  23  43  63  95 127 163 207 256 307 375
#     4   9  21  44  62  88 130 165 200 256 309 363
#     4  11  24  41  63  96 122 165 211 257 312 361
#     4  10  21  40  68  89 122 164 207 258 309 372
#     4  12  24  39  66  95 128 167 207 253 309 373
#     4   8  21  41  63  91 122 164 203 251 319 353
#
# _framework density 20.183646
#
# number of rings (size 3 to 8) (size 9 to 14) (size 15 to 20)
#    1.000    1.000    1.667    1.000    2.333    4.000 
#    3.000    1.667    0.000    0.000    0.000    0.000 
#    0.000    0.000    0.000    0.000    0.000    0.000 
#
# Total GULP energy -148740.062899 kJ/mol
# GULP energy per Si atom -12395.005242 kJ/mol
# Density = 2.013771 g / cm^3
# Si number density = 20.183646 Si / 1000 Ang^3
#
#
#
# Elastic Constant Matrix: (Units=GPa)
#
#
# Indices 1 2 3 4 5 6 
#
# 1 87.0782 38.9345 2.9974 11.0996 5.5575 3.5049
# 2 38.9345 108.5369 24.7791 9.3233 1.4436 -4.4543
# 3 2.9974 24.7791 49.8154 23.8189 -2.3013 -3.3488
# 4 11.0996 9.3233 23.8189 33.3837 3.0853 -0.7879
# 5 5.5575 1.4436 -2.3013 3.0853 25.8782 2.6908
# 6 3.5049 -4.4543 -3.3488 -0.7879 2.6908 28.4126
#
#
#
# Elastic Compliance Matrix: (Units=1/GPa)
#
#
# Indices 1 2 3 4 5 6 
#
# 1 0.015094 -0.006086 0.005245 -0.006988 -0.001367 -0.002262
# 2 -0.006086 0.012956 -0.008011 0.004248 -0.000846 0.002036
# 3 0.005245 -0.008011 0.036540 -0.026064 0.005557 0.001155
# 4 -0.006988 0.004248 -0.026064 0.050358 -0.007113 0.000526
# 5 -0.001367 -0.000846 0.005557 -0.007113 0.040675 -0.003358
# 6 -0.002262 0.002036 0.001155 0.000526 -0.003358 0.036263
#
#
# Mechanical properties :
#
#
# Convention : Reuss Voigt Hill
#
# Bulk Modulus (GPa) = 21.32880 42.09471 31.71175
# Shear Modulus (GPa) = 22.20069 29.44954 25.82512
#
# Velocity S-wave (km/s) = 3.32012 3.82393 3.58090
# Velocity P-wave (km/s) = 5.02871 6.35592 5.73087
#
# Compressibility (1/GPa) = 0.04688497
#
# Stress axis : x y z
#
# Youngs Moduli (GPa) = 66.25241 77.18604 27.36709
#
# Poissons Ratio (x) = 0.46978 -0.14355
# Poissons Ratio (y) = 0.40324 0.21925
# Poissons Ratio (z) = -0.34752 0.61837
#
# Static dielectric constant tensor:
#      x y z
#    x 6.766660 1.486430 -2.884990 
#    y 1.486430 4.444900 -1.149570 
#    z -2.884990 -1.149570 5.997680 
# 
# 
# High freq. dielectric constant tensor:
#      x y z
#    x 1.776580 0.003400 -0.011820 
#    y 0.003400 1.791200 0.004330 
#    z -0.011820 0.004330 1.790170 
# 
# From -- ./inp_files/91241.got.cif
#   From: 2010.06.25/outbox.cif.g09.slc.cpg/sg2_46_cif.got.tgz:91241.got - 2010.06.27 13:26:56.
