data_PCOD8013656
_publ_section_title
;
Structure prediction by ZEFSAII (Michael W. Deem and Ramdas Pophale) SiO2 
 PCOD8013656
Probable space group: P -1
;
_chemical_formula_sum "Si O2"
_cell_formula_units_Z 14
_cell_length_a 8.728710
_cell_length_b 15.180625
_cell_length_c 6.509493
_cell_angle_alpha 134.484757
_cell_angle_beta 88.918358
_cell_angle_gamma 90.830391
_cell_volume 615.268059
_symmetry_space_group_name_H-M "P -1"
_symmetry_group_IT_number 2
_symmetry_cell_setting 'triclinic'
loop_
_space_group_symop_operation_xyz
x,y,z
-x,-y,-z
loop_
_atom_site_type_symbol
_atom_site_label
_atom_site_fract_x
_atom_site_fract_y
_atom_site_fract_z
Si Si1 0.120834 0.382366 0.968430
Si Si2 0.691215 0.787592 0.049379
Si Si3 0.854288 0.981895 0.624338
Si Si4 0.209623 0.626512 0.169747
Si Si5 0.863728 0.796049 0.670951
Si Si6 0.186999 0.764420 0.772236
Si Si7 0.587247 0.381624 0.215062
O O1 0.199606 0.327397 0.078444
O O2 0.187430 0.317748 0.655724
O O3 0.938483 0.354785 0.943052
O O4 0.164235 0.525100 0.177354
O O5 0.721482 0.903912 0.386986
O O6 0.723819 0.826870 0.877411
O O7 0.517909 0.740429 0.989921
O O8 0.909725 0.911634 0.714087
O O9 0.000000 0.000000 0.500000
O O10 0.772764 0.107506 0.905292
O O11 0.244188 0.749586 0.507357
O O12 0.356769 0.589539 0.971333
O O13 0.002856 0.757475 0.754407
O O14 0.263071 0.652457 0.713326
O O15 0.500000 0.500000 0.500000
#
# Coordination Sequence:
#
# PCOD8013656 Si02
#       7
#     2   2   2   2   2   2   2
#     4   9  20  39  66  99 121 171 220 279 318 384
#     4  11  23  40  65  96 135 170 218 263 328 391
#     4  11  24  42  73 100 126 163 224 281 329 380
#     4  10  22  41  66  93 134 168 225 271 326 373
#     4  10  21  40  70  98 125 165 219 278 331 376
#     4  11  24  40  68  97 127 174 216 269 326 384
#     4  12  27  43  64  96 140 182 214 260 325 398
#
# _framework density 22.754308000000002
#
# number of rings (size 3 to 8) (size 9 to 14) (size 15 to 20)
#    0.000    1.429    1.429    3.000    4.000    5.143 
#    0.000    7.143    0.000    0.000    0.000    0.000 
#    0.000    0.000    0.000    0.000    0.000    0.000 
#
# Total GULP energy -173522.610856 kJ/mol
# GULP energy per Si atom -12394.472204 kJ/mol
# Density = 2.270252 g / cm^3
# Si number density = 22.754308 Si / 1000 Ang^3
#
#
#
# Elastic Constant Matrix: (Units=GPa)
#
#
# Indices 1 2 3 4 5 6 
#
# 1 70.3065 42.3796 55.5075 -7.1629 -8.0971 15.5407
# 2 42.3796 89.3914 29.9221 -8.9631 -8.3318 0.2092
# 3 55.5075 29.9221 142.6305 3.7526 -19.5191 19.0047
# 4 -7.1629 -8.9631 3.7526 31.3706 0.1680 -7.8577
# 5 -8.0971 -8.3318 -19.5191 0.1680 37.6938 -0.2317
# 6 15.5407 0.2092 19.0047 -7.8577 -0.2317 36.1786
#
#
#
# Elastic Compliance Matrix: (Units=1/GPa)
#
#
# Indices 1 2 3 4 5 6 
#
# 1 0.029082 -0.010811 -0.008170 0.002635 -0.000431 -0.007569
# 2 -0.010811 0.016770 0.000085 0.003633 0.001445 0.005301
# 3 -0.008170 0.000085 0.011274 -0.004029 0.004100 -0.003262
# 4 0.002635 0.003633 -0.004029 0.036213 -0.000824 0.008823
# 5 -0.000431 0.001445 0.004100 -0.000824 0.028871 -0.001971
# 6 -0.007569 0.005301 -0.003262 0.008823 -0.001971 0.034479
#
#
# Mechanical properties :
#
#
# Convention : Reuss Voigt Hill
#
# Bulk Modulus (GPa) = 51.71892 61.99408 56.85650
# Shear Modulus (GPa) = 24.88476 32.68320 28.78398
#
# Velocity S-wave (km/s) = 3.31059 3.79404 3.56053
# Velocity P-wave (km/s) = 6.11490 6.81888 6.47646
#
# Compressibility (1/GPa) = 0.01933529
#
# Stress axis : x y z
#
# Youngs Moduli (GPa) = 34.38546 59.62937 88.69592
#
# Poissons Ratio (x) = 0.64466 0.72462
# Poissons Ratio (y) = 0.37175 -0.00755
# Poissons Ratio (z) = 0.28092 -0.00507
#
# Static dielectric constant tensor:
#      x y z
#    x 3.802710 -0.069530 0.037220 
#    y -0.069530 3.959960 0.012990 
#    z 0.037220 0.012990 4.346930 
# 
# 
# High freq. dielectric constant tensor:
#      x y z
#    x 1.870510 -0.003640 0.003690 
#    y -0.003640 1.886720 -0.005610 
#    z 0.003690 -0.005610 1.917070 
# 
# From -- ./inp_files/40430.got.cif
#   From: 2010.06.25/outbox.cif.g09.slc.cpg/sg2_21_cif.got.tgz:40430.got - 2010.06.27 13:26:56.
