data_PCOD8013720
_publ_section_title
;
Structure prediction by ZEFSAII (Michael W. Deem and Ramdas Pophale) SiO2 
 PCOD8013720
Probable space group: P -1
;
_chemical_formula_sum "Si O2"
_cell_formula_units_Z 16
_cell_length_a 21.480565
_cell_length_b 9.460688
_cell_length_c 21.812950
_cell_angle_alpha 143.509508
_cell_angle_beta 18.270596
_cell_angle_gamma 142.238004
_cell_volume 817.651214
_symmetry_space_group_name_H-M "P -1"
_symmetry_group_IT_number 2
_symmetry_cell_setting 'triclinic'
loop_
_space_group_symop_operation_xyz
x,y,z
-x,-y,-z
loop_
_atom_site_type_symbol
_atom_site_label
_atom_site_fract_x
_atom_site_fract_y
_atom_site_fract_z
Si Si1 0.046809 0.615007 0.676410
Si Si2 0.324980 0.376505 0.248242
Si Si3 0.406276 0.227887 0.494861
Si Si4 0.371330 0.853742 0.300572
Si Si5 0.661233 0.459564 0.056804
Si Si6 0.010019 0.987254 0.743062
Si Si7 0.548587 0.106666 0.557739
Si Si8 0.668041 0.036246 0.991281
O O1 0.136176 0.426951 0.483028
O O2 0.943468 0.795149 0.792295
O O3 0.226593 0.752144 0.597312
O O4 0.884194 0.480876 0.827951
O O5 0.408049 0.594779 0.200964
O O6 0.256247 0.134874 0.190305
O O7 0.506521 0.332293 0.107243
O O8 0.500000 0.500000 0.500000
O O9 0.487979 0.065322 0.308667
O O10 0.162893 0.205606 0.707037
O O11 0.474226 0.125302 0.459007
O O12 0.132423 0.864028 0.532311
O O13 0.454678 0.904101 0.171438
O O14 0.648020 0.293928 0.071823
O O15 0.611305 0.719426 0.213654
O O16 0.820875 0.076941 0.919813
O O17 0.500000 0.000000 0.500000
#
# Coordination Sequence:
#
# PCOD8013720 Si02
#       8
#     2   2   2   2   2   2   2   2
#     4   9  20  41  60  79 123 154 194 240 287 353
#     4  10  21  41  58  84 118 165 192 236 298 333
#     4   9  19  40  64  83 113 152 187 245 303 329
#     4   9  20  39  59  85 116 152 197 242 289 341
#     4  11  23  38  57  87 122 154 193 240 292 349
#     4   8  20  37  56  86 114 150 193 240 287 338
#     4  10  22  40  63  86 114 157 193 241 298 346
#     4  12  23  33  61  91 119 152 201 239 282 353
#
# _framework density 19.568245999999998
#
# number of rings (size 3 to 8) (size 9 to 14) (size 15 to 20)
#    0.750    1.500    2.500    1.500    1.750    7.000 
#    0.000    0.625    0.000    0.000    0.000    0.000 
#    0.000    0.000    0.000    0.000    0.000    0.000 
#
# Total GULP energy -198303.861387 kJ/mol
# GULP energy per Si atom -12393.991337 kJ/mol
# Density = 1.952371 g / cm^3
# Si number density = 19.568246 Si / 1000 Ang^3
#
#
#
# Elastic Constant Matrix: (Units=GPa)
#
#
# Indices 1 2 3 4 5 6 
#
# 1 91.9742 32.6951 30.0102 1.2933 0.7237 -13.2532
# 2 32.6951 86.5719 26.2525 8.3295 -2.4223 -11.5251
# 3 30.0102 26.2525 72.1206 -12.9239 3.9852 -13.5294
# 4 1.2933 8.3295 -12.9239 21.1437 -4.1080 9.6180
# 5 0.7237 -2.4223 3.9852 -4.1080 27.5564 4.9400
# 6 -13.2532 -11.5251 -13.5294 9.6180 4.9400 36.1577
#
#
#
# Elastic Compliance Matrix: (Units=1/GPa)
#
#
# Indices 1 2 3 4 5 6 
#
# 1 0.014133 -0.002939 -0.004855 -0.004682 -0.001316 0.003852
# 2 -0.002939 0.016334 -0.005927 -0.012347 -0.000412 0.005252
# 3 -0.004855 -0.005927 0.020858 0.014999 -0.001230 0.000314
# 4 -0.004682 -0.012347 0.014999 0.073507 0.011623 -0.021180
# 5 -0.001316 -0.000412 -0.001230 0.011623 0.039923 -0.009620
# 6 0.003852 0.005252 0.000314 -0.021180 -0.009620 0.037809
#
#
# Mechanical properties :
#
#
# Convention : Reuss Voigt Hill
#
# Bulk Modulus (GPa) = 41.87063 47.62024 44.74543
# Shear Modulus (GPa) = 21.01140 27.75216 24.38178
#
# Velocity S-wave (km/s) = 3.28037 3.77002 3.53368
# Velocity P-wave (km/s) = 5.98259 6.58324 6.29009
#
# Compressibility (1/GPa) = 0.02388309
#
# Stress axis : x y z
#
# Youngs Moduli (GPa) = 70.75851 61.22173 47.94282
#
# Poissons Ratio (x) = 0.17991 0.23275
# Poissons Ratio (y) = 0.20794 0.28418
# Poissons Ratio (z) = 0.34351 0.36289
#
# Static dielectric constant tensor:
#      x y z
#    x 3.507080 -0.088780 0.026440 
#    y -0.088780 3.340440 -0.015130 
#    z 0.026440 -0.015130 3.418020 
# 
# 
# High freq. dielectric constant tensor:
#      x y z
#    x 1.760720 -0.008330 -0.000080 
#    y -0.008330 1.750170 -0.001330 
#    z -0.000080 -0.001330 1.752570 
# 
# From -- ./inp_files/601287.got.cif
#   From: 2010.06.25/outbox.cif.g09.slc.cpg/sg2_301_cif.got.tgz:601287.got - 2010.06.27 13:26:56.
