data_PCOD8013550
_publ_section_title
;
Structure prediction by ZEFSAII (Michael W. Deem and Ramdas Pophale) SiO2 
 PCOD8013550
Probable space group: P -1
;
_chemical_formula_sum "Si O2"
_cell_formula_units_Z 16
_cell_length_a 8.846654
_cell_length_b 13.768046
_cell_length_c 14.440055
_cell_angle_alpha 110.878163
_cell_angle_beta 67.543968
_cell_angle_gamma 147.999441
_cell_volume 859.477321
_symmetry_space_group_name_H-M "P -1"
_symmetry_group_IT_number 2
_symmetry_cell_setting 'triclinic'
loop_
_space_group_symop_operation_xyz
x,y,z
-x,-y,-z
loop_
_atom_site_type_symbol
_atom_site_label
_atom_site_fract_x
_atom_site_fract_y
_atom_site_fract_z
Si Si1 0.661146 0.829457 0.038826
Si Si2 0.770811 0.798119 0.379129
Si Si3 0.208474 0.701441 0.990317
Si Si4 0.140429 0.609217 0.771046
Si Si5 0.382244 0.219845 0.395650
Si Si6 0.303648 0.476331 0.703798
Si Si7 0.485901 0.658510 0.202312
Si Si8 0.330697 0.469379 0.902564
O O1 0.603085 0.809611 0.156331
O O2 0.512916 0.849206 0.025069
O O3 0.502635 0.640363 0.982896
O O4 0.000000 0.000000 0.000000
O O5 0.583321 0.742084 0.490082
O O6 0.831653 0.707030 0.349937
O O7 0.598245 0.733430 0.304774
O O8 0.066901 0.014531 0.375450
O O9 0.267817 0.726783 0.875195
O O10 0.000000 0.500000 0.000000
O O11 0.021325 0.705874 0.061946
O O12 0.387020 0.746767 0.680485
O O13 0.067467 0.446938 0.747403
O O14 0.860210 0.522771 0.773347
O O15 0.440960 0.358301 0.372105
O O16 0.436103 0.543143 0.798056
O O17 0.588057 0.604420 0.113990
#
# Coordination Sequence:
#
# PCOD8013550 Si02
#       8
#     2   2   2   2   2   2   2   2
#     4  11  21  32  53  79 111 144 183 228 273 322
#     4  10  21  36  60  86 107 140 195 231 278 334
#     4  10  16  34  55  73 105 154 184 209 278 338
#     4  10  19  34  59  75 110 151 183 227 280 328
#     4   9  20  38  61  79 112 145 182 237 280 332
#     4   9  18  35  62  78 106 151 183 220 276 342
#     4  11  22  34  55  85 107 147 188 235 271 324
#     4  10  19  36  56  75 111 147 188 219 272 337
#
# _framework density 18.615964000000002
#
# number of rings (size 3 to 8) (size 9 to 14) (size 15 to 20)
#    0.750    1.250    5.000    0.750    3.500    0.500 
#    0.000    4.375    0.000    1.500    0.000    0.000 
#    0.000    0.000    0.000    0.000    0.000    0.000 
#
# Total GULP energy -198220.235525 kJ/mol
# GULP energy per Si atom -12388.764720 kJ/mol
# Density = 1.857359 g / cm^3
# Si number density = 18.615964 Si / 1000 Ang^3
#
#
#
# Elastic Constant Matrix: (Units=GPa)
#
#
# Indices 1 2 3 4 5 6 
#
# 1 106.1217 37.2577 51.9212 0.6461 1.0366 28.1126
# 2 37.2577 61.4875 40.7460 -8.0814 9.6245 15.8843
# 3 51.9212 40.7460 132.9067 -16.1618 13.8679 12.4705
# 4 0.6461 -8.0814 -16.1618 25.8577 5.9597 -6.4194
# 5 1.0366 9.6245 13.8679 5.9597 23.6078 -0.8713
# 6 28.1126 15.8843 12.4705 -6.4194 -0.8713 31.7045
#
#
#
# Elastic Compliance Matrix: (Units=1/GPa)
#
#
# Indices 1 2 3 4 5 6 
#
# 1 0.017819 -0.006268 -0.006015 -0.010976 0.007623 -0.012307
# 2 -0.006268 0.026040 -0.003021 0.007613 -0.010674 -0.005052
# 3 -0.006015 -0.003021 0.012503 0.009826 -0.008193 0.003694
# 4 -0.010976 0.007613 0.009826 0.055695 -0.021984 0.012726
# 5 0.007623 -0.010674 -0.008193 -0.021984 0.056699 -0.001082
# 6 -0.012307 -0.005052 0.003694 0.012726 -0.001082 0.046079
#
#
# Mechanical properties :
#
#
# Convention : Reuss Voigt Hill
#
# Bulk Modulus (GPa) = 38.82781 62.26285 50.54533
# Shear Modulus (GPa) = 19.68284 27.60672 23.64478
#
# Velocity S-wave (km/s) = 3.25516 3.85510 3.56776
# Velocity P-wave (km/s) = 5.91867 7.30303 6.64699
#
# Compressibility (1/GPa) = 0.02575474
#
# Stress axis : x y z
#
# Youngs Moduli (GPa) = 56.11923 38.40258 79.97843
#
# Poissons Ratio (x) = 0.24070 0.48107
# Poissons Ratio (y) = 0.35174 0.24162
# Poissons Ratio (z) = 0.33756 0.11602
#
# Static dielectric constant tensor:
#      x y z
#    x 3.718140 0.167920 -0.064850 
#    y 0.167920 3.144300 -0.153610 
#    z -0.064850 -0.153610 3.628670 
# 
# 
# High freq. dielectric constant tensor:
#      x y z
#    x 1.715860 0.006790 0.005860 
#    y 0.006790 1.689070 -0.014130 
#    z 0.005860 -0.014130 1.734070 
# 
# From -- ./inp_files/196303.got.cif
#   From: 2010.06.25/outbox.cif.g09.slc.cpg/sg2_99_cif.got.tgz:196303.got - 2010.06.27 13:26:56.
