data_PCOD8013204
_publ_section_title
;
Structure prediction by ZEFSAII (Michael W. Deem and Ramdas Pophale) SiO2 
 PCOD8013204
Probable space group: P -1
;
_chemical_formula_sum "Si O2"
_cell_formula_units_Z 16
_cell_length_a 12.345439
_cell_length_b 11.746435
_cell_length_c 10.399272
_cell_angle_alpha 119.454104
_cell_angle_beta 73.630960
_cell_angle_gamma 145.057613
_cell_volume 729.531305
_symmetry_space_group_name_H-M "P -1"
_symmetry_group_IT_number 2
_symmetry_cell_setting 'triclinic'
loop_
_space_group_symop_operation_xyz
x,y,z
-x,-y,-z
loop_
_atom_site_type_symbol
_atom_site_label
_atom_site_fract_x
_atom_site_fract_y
_atom_site_fract_z
Si Si1 0.715511 0.115546 0.097192
Si Si2 0.885766 0.991132 0.444574
Si Si3 0.469664 0.506388 0.661165
Si Si4 0.904935 0.883779 0.795141
Si Si5 0.356480 0.008440 0.432294
Si Si6 0.077995 0.284622 0.067151
Si Si7 0.556480 0.198651 0.745000
Si Si8 0.444731 0.768058 0.772603
O O1 0.593060 0.949481 0.168903
O O2 0.724077 0.282078 0.187132
O O3 0.627020 0.985503 0.919225
O O4 0.935041 0.272953 0.119748
O O5 0.670323 0.726432 0.347156
O O6 0.846658 0.101528 0.571845
O O7 0.000000 0.000000 0.500000
O O8 0.020734 0.134988 0.356270
O O9 0.500000 0.500000 0.500000
O O10 0.676581 0.700320 0.770450
O O11 0.372396 0.559129 0.730865
O O12 0.958683 0.844635 0.873671
O O13 0.021438 0.132946 0.885361
O O14 0.448838 0.125951 0.606581
O O15 0.496604 0.192128 0.374364
O O16 0.321189 0.820659 0.321126
O O17 0.296638 0.544690 0.128467
#
# Coordination Sequence:
#
# PCOD8013204 Si02
#       8
#     2   2   2   2   2   2   2   2
#     4  10  22  43  63  91 128 162 210 261 308 372
#     4  12  24  38  64  94 124 162 205 253 312 373
#     4  12  22  41  65  90 130 167 201 260 316 366
#     4  11  25  42  60  94 127 161 211 260 305 376
#     4  10  21  43  64  93 130 157 209 265 308 368
#     4  11  24  42  65  89 126 165 211 257 311 375
#     4  10  23  42  68  91 122 169 206 257 317 370
#     4  10  21  40  66  90 125 167 205 258 316 364
#
# _framework density 21.931891
#
# number of rings (size 3 to 8) (size 9 to 14) (size 15 to 20)
#    0.000    1.250    3.750    1.500    1.750    1.000 
#    0.000   15.000    0.000    0.000    0.000    0.000 
#    0.000    0.000    0.000    0.000    0.000    0.000 
#
# Total GULP energy -198323.375116 kJ/mol
# GULP energy per Si atom -12395.210945 kJ/mol
# Density = 2.188197 g / cm^3
# Si number density = 21.931891 Si / 1000 Ang^3
#
#
#
# Elastic Constant Matrix: (Units=GPa)
#
#
# Indices 1 2 3 4 5 6 
#
# 1 121.1940 -5.5203 9.3563 -8.3068 -12.5378 7.4313
# 2 -5.5203 45.3570 -2.8410 0.7450 0.7660 -2.0672
# 3 9.3563 -2.8410 45.4145 -2.8265 6.6978 2.2618
# 4 -8.3068 0.7450 -2.8265 33.8355 -2.0161 -1.3918
# 5 -12.5378 0.7660 6.6978 -2.0161 36.5569 -0.5358
# 6 7.4313 -2.0672 2.2618 -1.3918 -0.5358 26.5367
#
#
#
# Elastic Compliance Matrix: (Units=1/GPa)
#
#
# Indices 1 2 3 4 5 6 
#
# 1 0.009099 0.000782 -0.002113 0.002166 0.003580 -0.002121
# 2 0.000782 0.022292 0.001214 -0.000164 -0.000410 0.001397
# 3 -0.002113 0.001214 0.023401 0.001056 -0.004999 -0.001354
# 4 0.002166 -0.000164 0.001056 0.030350 0.002240 0.000928
# 5 0.003580 -0.000410 -0.004999 0.002240 0.029632 0.000107
# 6 -0.002121 0.001397 -0.001354 0.000928 0.000107 0.038553
#
#
# Mechanical properties :
#
#
# Convention : Reuss Voigt Hill
#
# Bulk Modulus (GPa) = 18.32904 23.77284 21.05094
# Shear Modulus (GPa) = 29.11274 33.45054 31.28164
#
# Velocity S-wave (km/s) = 3.64732 3.90962 3.78075
# Velocity P-wave (km/s) = 5.11006 5.58955 5.35517
#
# Compressibility (1/GPa) = 0.05455822
#
# Stress axis : x y z
#
# Youngs Moduli (GPa) = 109.90377 44.85947 42.73300
#
# Poissons Ratio (x) = -0.03509 0.09030
# Poissons Ratio (y) = -0.08598 -0.05188
# Poissons Ratio (z) = 0.23224 -0.05446
#
# Static dielectric constant tensor:
#      x y z
#    x 4.442970 -0.041770 -0.182660 
#    y -0.041770 3.588460 0.104620 
#    z -0.182660 0.104620 3.922220 
# 
# 
# High freq. dielectric constant tensor:
#      x y z
#    x 1.888870 -0.006920 -0.008790 
#    y -0.006920 1.834920 -0.008650 
#    z -0.008790 -0.008650 1.862410 
# 
# From -- ./inp_files/428708.got.cif
#   From: 2010.06.25/outbox.cif.g09.slc.cpg/sg2_215_cif.got.tgz:428708.got - 2010.06.27 13:26:56.
