data_PCOD8013379
_publ_section_title
;
Structure prediction by ZEFSAII (Michael W. Deem and Ramdas Pophale) SiO2 
 PCOD8013379
Probable space group: P -1
;
_chemical_formula_sum "Si O2"
_cell_formula_units_Z 14
_cell_length_a 11.767088
_cell_length_b 23.445187
_cell_length_c 5.170707
_cell_angle_alpha 115.568152
_cell_angle_beta 58.613746
_cell_angle_gamma 152.667531
_cell_volume 557.383126
_symmetry_space_group_name_H-M "P -1"
_symmetry_group_IT_number 2
_symmetry_cell_setting 'triclinic'
loop_
_space_group_symop_operation_xyz
x,y,z
-x,-y,-z
loop_
_atom_site_type_symbol
_atom_site_label
_atom_site_fract_x
_atom_site_fract_y
_atom_site_fract_z
Si Si1 0.326784 0.643574 0.612251
Si Si2 0.212464 0.003576 0.879956
Si Si3 0.220296 0.802874 0.503232
Si Si4 0.265268 0.353438 0.488003
Si Si5 0.099005 0.225863 0.943556
Si Si6 0.133233 0.628088 0.311282
Si Si7 0.142116 0.105229 0.346698
O O1 0.293563 0.651462 0.371460
O O2 0.637662 0.759969 0.516613
O O3 0.175265 0.515927 0.587403
O O4 0.225080 0.654036 0.958438
O O5 0.029712 0.898746 0.126463
O O6 0.047346 0.926973 0.659958
O O7 0.474544 0.068548 0.688479
O O8 0.283133 0.107458 0.009450
O O9 0.167035 0.713745 0.524839
O O10 0.017922 0.726628 0.351745
O O11 0.152565 0.829917 0.842893
O O12 0.500000 0.500000 0.500000
O O13 0.296850 0.320427 0.134927
O O14 0.261315 0.306956 0.651872
O O15 0.000000 0.000000 0.500000
#
# Coordination Sequence:
#
# PCOD8013379 Si02
#       7
#     2   2   2   2   2   2   2
#     4  10  22  41  63  95 128 174 217 277 324 394
#     4  11  24  45  62 104 133 185 228 280 334 405
#     4  10  23  40  73  94 136 175 220 284 335 402
#     4  10  24  45  68 100 133 177 220 279 343 401
#     4  10  25  43  71  99 134 174 227 278 339 408
#     4  10  21  40  67  94 129 165 226 268 336 393
#     4  11  25  40  69  92 144 181 227 279 333 396
#
# _framework density 25.117372
#
# number of rings (size 3 to 8) (size 9 to 14) (size 15 to 20)
#    0.857    0.857    1.429    1.714    6.000    2.857 
#    0.000    0.000    0.000    0.000    0.000    0.000 
#    0.000    0.000    0.000    0.000    0.000    0.000 
#
# Total GULP energy -173495.323434 kJ/mol
# GULP energy per Si atom -12392.523102 kJ/mol
# Density = 2.506020 g / cm^3
# Si number density = 25.117372 Si / 1000 Ang^3
#
#
#
# Elastic Constant Matrix: (Units=GPa)
#
#
# Indices 1 2 3 4 5 6 
#
# 1 90.1734 62.1333 37.6677 -16.4328 12.9564 1.5202
# 2 62.1333 178.7687 25.9796 -10.2649 8.6428 4.5694
# 3 37.6677 25.9796 72.3563 -7.8679 22.2605 1.4111
# 4 -16.4328 -10.2649 -7.8679 36.0202 -3.4592 -5.2704
# 5 12.9564 8.6428 22.2605 -3.4592 48.6700 1.0794
# 6 1.5202 4.5694 1.4111 -5.2704 1.0794 57.9246
#
#
#
# Elastic Compliance Matrix: (Units=1/GPa)
#
#
# Indices 1 2 3 4 5 6 
#
# 1 0.018673 -0.005126 -0.007165 0.005542 -0.000403 0.000601
# 2 -0.005126 0.007370 -0.000018 -0.000307 0.000053 -0.000475
# 3 -0.007165 -0.000018 0.019785 0.000346 -0.007111 -0.000129
# 4 0.005542 -0.000307 0.000346 0.030719 0.000545 0.002655
# 5 -0.000403 0.000053 -0.007111 0.000545 0.023940 -0.000217
# 6 0.000601 -0.000475 -0.000129 0.002655 -0.000217 0.017534
#
#
# Mechanical properties :
#
#
# Convention : Reuss Voigt Hill
#
# Bulk Modulus (GPa) = 47.15051 65.87329 56.51190
# Shear Modulus (GPa) = 33.39768 42.89083 38.14426
#
# Velocity S-wave (km/s) = 3.65041 4.13681 3.90120
# Velocity P-wave (km/s) = 6.04815 7.00719 6.54526
#
# Compressibility (1/GPa) = 0.02120868
#
# Stress axis : x y z
#
# Youngs Moduli (GPa) = 53.55366 135.68302 50.54332
#
# Poissons Ratio (x) = 0.69556 0.36217
# Poissons Ratio (y) = 0.27453 0.00090
# Poissons Ratio (z) = 0.38374 0.00243
#
# Static dielectric constant tensor:
#      x y z
#    x 4.632720 -0.346560 -0.480680 
#    y -0.346560 5.000460 0.486170 
#    z -0.480680 0.486170 4.916230 
# 
# 
# High freq. dielectric constant tensor:
#      x y z
#    x 1.996240 -0.008790 -0.001780 
#    y -0.008790 2.017390 -0.000970 
#    z -0.001780 -0.000970 1.999980 
# 
# From -- ./inp_files/84411.got.cif
#   From: 2010.06.25/outbox.cif.g09.slc.cpg/sg2_43_cif.got.tgz:84411.got - 2010.06.27 13:26:56.
