data_PCOD8013308
_publ_section_title
;
Structure prediction by ZEFSAII (Michael W. Deem and Ramdas Pophale) SiO2 
 PCOD8013308
Probable space group: P -1
;
_chemical_formula_sum "Si O2"
_cell_formula_units_Z 16
_cell_length_a 9.172129
_cell_length_b 5.105202
_cell_length_c 21.261611
_cell_angle_alpha 131.638230
_cell_angle_beta 110.713107
_cell_angle_gamma 79.346073
_cell_volume 694.172061
_symmetry_space_group_name_H-M "P -1"
_symmetry_group_IT_number 2
_symmetry_cell_setting 'triclinic'
loop_
_space_group_symop_operation_xyz
x,y,z
-x,-y,-z
loop_
_atom_site_type_symbol
_atom_site_label
_atom_site_fract_x
_atom_site_fract_y
_atom_site_fract_z
Si Si1 0.955593 0.089915 0.437424
Si Si2 0.820303 0.051324 0.985717
Si Si3 0.652902 0.666285 0.794009
Si Si4 0.320383 0.246592 0.965879
Si Si5 0.552090 0.754143 0.141865
Si Si6 0.404586 0.408192 0.409040
Si Si7 0.384240 0.103069 0.693383
Si Si8 0.216956 0.809461 0.354296
O O1 0.000000 0.500000 0.500000
O O2 0.772999 0.980375 0.383313
O O3 0.000000 0.000000 0.500000
O O4 0.047588 0.864286 0.365329
O O5 0.729692 0.719061 0.883285
O O6 0.774001 0.037271 0.050190
O O7 0.782325 0.423409 0.010528
O O8 0.000000 0.000000 0.000000
O O9 0.496779 0.405352 0.726578
O O10 0.781881 0.544458 0.744684
O O11 0.598184 0.045429 0.826720
O O12 0.485911 0.368097 0.045733
O O13 0.357771 0.062444 0.875403
O O14 0.661347 0.770794 0.222946
O O15 0.500000 0.500000 0.500000
O O16 0.334735 0.750160 0.421513
O O17 0.518269 0.246082 0.348950
O O18 0.265322 0.132948 0.367296
#
# Coordination Sequence:
#
# PCOD8013308 Si02
#       8
#     2   2   2   2   2   2   2   2
#     4  12  28  47  66  97 140 174 219 283 348 406
#     4  11  23  42  65  95 138 179 221 271 341 394
#     4  10  23  41  67  96 133 170 232 275 324 403
#     4  10  23  39  66  97 134 178 220 277 330 398
#     4  10  21  40  66  97 133 169 233 280 328 391
#     4  11  22  40  67  94 122 168 221 266 328 404
#     4  11  23  41  70  96 133 177 227 280 335 398
#     4  11  23  42  63  94 128 169 211 273 336 387
#
# _framework density 23.049039
#
# number of rings (size 3 to 8) (size 9 to 14) (size 15 to 20)
#    0.000    1.250    2.500    3.000    3.500    3.500 
#    0.000    0.000    0.000    0.000    0.000    0.000 
#    0.000    0.000    0.000    0.000    0.000    0.000 
#
# Total GULP energy -198319.241385 kJ/mol
# GULP energy per Si atom -12394.952587 kJ/mol
# Density = 2.299658 g / cm^3
# Si number density = 23.049039 Si / 1000 Ang^3
#
#
#
# Elastic Constant Matrix: (Units=GPa)
#
#
# Indices 1 2 3 4 5 6 
#
# 1 118.1343 18.5098 32.0961 -6.0812 -7.3114 -3.5786
# 2 18.5098 79.7107 21.4363 -13.0719 5.3004 4.5252
# 3 32.0961 21.4363 96.6913 -13.0432 -11.9505 4.9753
# 4 -6.0812 -13.0719 -13.0432 35.0821 0.3318 -10.8322
# 5 -7.3114 5.3004 -11.9505 0.3318 48.8629 -3.8930
# 6 -3.5786 4.5252 4.9753 -10.8322 -3.8930 31.8426
#
#
#
# Elastic Compliance Matrix: (Units=1/GPa)
#
#
# Indices 1 2 3 4 5 6 
#
# 1 0.009620 -0.001580 -0.002719 0.000708 0.001109 0.002107
# 2 -0.001580 0.014421 -0.002401 0.003984 -0.002479 -0.000800
# 3 -0.002719 -0.002401 0.012579 0.003125 0.002868 -0.000516
# 4 0.000708 0.003984 0.003125 0.034641 0.001074 0.010941
# 5 0.001109 -0.002479 0.002868 0.001074 0.021838 0.003064
# 6 0.002107 -0.000800 -0.000516 0.010941 0.003064 0.035932
#
#
# Mechanical properties :
#
#
# Convention : Reuss Voigt Hill
#
# Bulk Modulus (GPa) = 43.06254 48.73564 45.89909
# Shear Modulus (GPa) = 33.29508 37.99045 35.64276
#
# Velocity S-wave (km/s) = 3.80482 4.06426 3.93668
# Velocity P-wave (km/s) = 6.16651 6.57378 6.37340
#
# Compressibility (1/GPa) = 0.02322204
#
# Stress axis : x y z
#
# Youngs Moduli (GPa) = 103.94898 69.34169 79.49497
#
# Poissons Ratio (x) = 0.10956 0.21614
# Poissons Ratio (y) = 0.16423 0.19083
# Poissons Ratio (z) = 0.28263 0.16646
#
# Static dielectric constant tensor:
#      x y z
#    x 4.219670 -0.189870 -0.462150 
#    y -0.189870 4.272500 -0.027240 
#    z -0.462150 -0.027240 4.590020 
# 
# 
# High freq. dielectric constant tensor:
#      x y z
#    x 1.896590 -0.005710 -0.030170 
#    y -0.005710 1.911450 -0.009510 
#    z -0.030170 -0.009510 1.913200 
# 
# From -- ./inp_files/51168.got.cif
#   From: 2010.06.25/outbox.cif.g09.slc.cpg/sg2_26_cif.got.tgz:51168.got - 2010.06.27 13:26:56.
