data_PCOD8013899
_publ_section_title
;
Structure prediction by ZEFSAII (Michael W. Deem and Ramdas Pophale) SiO2 
 PCOD8013899
Probable space group: P -1
;
_chemical_formula_sum "Si O2"
_cell_formula_units_Z 16
_cell_length_a 11.708975
_cell_length_b 10.788681
_cell_length_c 9.776853
_cell_angle_alpha 77.687496
_cell_angle_beta 127.117439
_cell_angle_gamma 129.799232
_cell_volume 725.835983
_symmetry_space_group_name_H-M "P -1"
_symmetry_group_IT_number 2
_symmetry_cell_setting 'triclinic'
loop_
_space_group_symop_operation_xyz
x,y,z
-x,-y,-z
loop_
_atom_site_type_symbol
_atom_site_label
_atom_site_fract_x
_atom_site_fract_y
_atom_site_fract_z
Si Si1 0.244076 0.089952 0.018694
Si Si2 0.694204 0.263413 0.831734
Si Si3 0.842702 0.228533 0.675939
Si Si4 0.450653 0.359716 0.897872
Si Si5 0.456817 0.355492 0.594704
Si Si6 0.809935 0.391063 0.162437
Si Si7 0.585487 0.099535 0.269984
Si Si8 0.161711 0.072722 0.253920
O O1 0.271236 0.194713 0.882347
O O2 0.017478 0.934742 0.883492
O O3 0.386096 0.055670 0.115741
O O4 0.283742 0.171131 0.180358
O O5 0.785325 0.231256 0.787165
O O6 0.645887 0.378220 0.722206
O O7 0.487036 0.085256 0.771755
O O8 0.845050 0.352216 0.045797
O O9 0.661921 0.152159 0.467623
O O10 0.898850 0.112365 0.740250
O O11 0.015684 0.420113 0.706737
O O12 0.401232 0.369931 0.704296
O O13 0.500000 0.500000 0.000000
O O14 0.624590 0.366371 0.018778
O O15 0.500000 0.500000 0.500000
O O16 0.280468 0.175060 0.449191
O O17 0.759055 0.247975 0.264949
#
# Coordination Sequence:
#
# PCOD8013899 Si02
#       8
#     2   2   2   2   2   2   2   2
#     4  10  22  38  65  91 128 177 212 261 325 394
#     4  11  22  42  67  95 132 174 218 264 330 389
#     4  12  22  40  68 100 132 170 220 273 319 385
#     4  10  21  41  63  89 130 172 215 263 335 388
#     4  11  24  42  67  95 130 173 220 277 325 392
#     4  10  24  39  64  97 134 168 218 270 323 388
#     4  11  21  42  66  93 131 176 216 263 331 386
#     4  11  22  41  65  98 132 170 226 269 324 385
#
# _framework density 22.043547
#
# number of rings (size 3 to 8) (size 9 to 14) (size 15 to 20)
#    0.000    1.250    2.500    3.750    0.000    4.500 
#    2.250    1.250    0.000    0.000    0.000    0.000 
#    0.000    0.000    0.000    0.000    0.000    0.000 
#
# Total GULP energy -198251.839132 kJ/mol
# GULP energy per Si atom -12390.739946 kJ/mol
# Density = 2.199337 g / cm^3
# Si number density = 22.043547 Si / 1000 Ang^3
#
#
#
# Elastic Constant Matrix: (Units=GPa)
#
#
# Indices 1 2 3 4 5 6 
#
# 1 66.9538 24.5118 37.1216 -4.4715 -8.9466 -4.8829
# 2 24.5118 113.9910 28.8953 -11.5845 -5.8399 0.1275
# 3 37.1216 28.8953 115.4793 -4.0687 -19.2032 -7.9722
# 4 -4.4715 -11.5845 -4.0687 39.6367 1.5170 -7.6001
# 5 -8.9466 -5.8399 -19.2032 1.5170 38.3018 2.3593
# 6 -4.8829 0.1275 -7.9722 -7.6001 2.3593 24.7799
#
#
#
# Elastic Compliance Matrix: (Units=1/GPa)
#
#
# Indices 1 2 3 4 5 6 
#
# 1 0.019148 -0.002639 -0.005061 0.001284 0.001333 0.002425
# 2 -0.002639 0.009987 -0.001584 0.002390 0.000039 -0.000352
# 3 -0.005061 -0.001584 0.011570 0.000467 0.004206 0.002476
# 4 0.001284 0.002390 0.000467 0.027878 -0.000761 0.009014
# 5 0.001333 0.000039 0.004206 -0.000761 0.028647 -0.001345
# 6 0.002425 -0.000352 0.002476 0.009014 -0.001345 0.044524
#
#
# Mechanical properties :
#
#
# Convention : Reuss Voigt Hill
#
# Bulk Modulus (GPa) = 45.17274 53.05352 49.11313
# Shear Modulus (GPa) = 29.81500 34.27003 32.04251
#
# Velocity S-wave (km/s) = 3.68169 3.94718 3.81675
# Velocity P-wave (km/s) = 6.21371 6.70026 6.46157
#
# Compressibility (1/GPa) = 0.02213725
#
# Stress axis : x y z
#
# Youngs Moduli (GPa) = 52.22401 100.13156 86.43317
#
# Poissons Ratio (x) = 0.26421 0.43742
# Poissons Ratio (y) = 0.13780 0.13694
# Poissons Ratio (z) = 0.26430 0.15864
#
# Static dielectric constant tensor:
#      x y z
#    x 4.031460 -0.879320 -0.413490 
#    y -0.879320 8.018950 0.516600 
#    z -0.413490 0.516600 4.271450 
# 
# 
# High freq. dielectric constant tensor:
#      x y z
#    x 1.853020 0.001270 -0.010990 
#    y 0.001270 1.868420 -0.009310 
#    z -0.010990 -0.009310 1.876040 
# 
# From -- ./inp_files/262415.got.cif
#   From: 2010.06.25/outbox.cif.g09.slc.cpg/sg2_132_cif.got.tgz:262415.got - 2010.06.27 13:26:56.
