data_PCOD8013484
_publ_section_title
;
Structure prediction by ZEFSAII (Michael W. Deem and Ramdas Pophale) SiO2 
 PCOD8013484
Probable space group: P -1
;
_chemical_formula_sum "Si O2"
_cell_formula_units_Z 16
_cell_length_a 9.447527
_cell_length_b 12.571514
_cell_length_c 12.291389
_cell_angle_alpha 46.840828
_cell_angle_beta 131.002628
_cell_angle_gamma 124.847241
_cell_volume 783.468472
_symmetry_space_group_name_H-M "P -1"
_symmetry_group_IT_number 2
_symmetry_cell_setting 'triclinic'
loop_
_space_group_symop_operation_xyz
x,y,z
-x,-y,-z
loop_
_atom_site_type_symbol
_atom_site_label
_atom_site_fract_x
_atom_site_fract_y
_atom_site_fract_z
Si Si1 0.126780 0.651867 0.413205
Si Si2 0.579155 0.937274 0.192278
Si Si3 0.863846 0.349313 0.994859
Si Si4 0.633591 0.384915 0.648267
Si Si5 0.963003 0.038459 0.235336
Si Si6 0.556383 0.192423 0.130619
Si Si7 0.133106 0.132914 0.910309
Si Si8 0.688072 0.115442 0.475642
O O1 0.270812 0.616078 0.420194
O O2 0.246272 0.755473 0.493798
O O3 0.000000 0.500000 0.500000
O O4 0.976089 0.735114 0.228177
O O5 0.514549 0.764454 0.291838
O O6 0.810436 0.980698 0.293502
O O7 0.503709 0.015411 0.201920
O O8 0.500000 0.000000 0.000000
O O9 0.979212 0.219388 0.110731
O O10 0.694333 0.288488 0.040685
O O11 0.788499 0.411208 0.803718
O O12 0.000000 0.500000 0.000000
O O13 0.500000 0.500000 0.500000
O O14 0.850652 0.941692 0.146037
O O15 0.161479 0.991081 0.392686
O O16 0.656168 0.209562 0.286734
O O17 0.339833 0.219014 0.004043
O O18 0.000000 0.000000 0.000000
O O19 0.500000 0.000000 0.500000
#
# Coordination Sequence:
#
# PCOD8013484 Si02
#       8
#     2   2   2   2   2   2   2   2
#     4  11  28  45  68 100 141 180 232 282 348 416
#     4  11  19  40  70  98 129 168 236 276 332 406
#     4  11  25  41  63  99 139 179 228 281 347 402
#     4  12  26  43  71  98 135 178 227 284 343 412
#     4  10  21  40  68  93 134 179 230 276 335 410
#     4  11  22  40  70 102 132 176 232 284 337 408
#     4  11  20  40  72  93 128 180 232 275 339 412
#     4  11  25  44  68 101 140 178 232 290 349 409
#
# _framework density 20.422008000000002
#
# number of rings (size 3 to 8) (size 9 to 14) (size 15 to 20)
#    0.000    1.000    3.750    3.750    7.000    4.000 
#    0.000    0.625    0.000    0.000    0.000    0.000 
#    0.000    0.000    0.000    0.000    0.000    0.000 
#
# Total GULP energy -198209.970277 kJ/mol
# GULP energy per Si atom -12388.123142 kJ/mol
# Density = 2.037553 g / cm^3
# Si number density = 20.422008 Si / 1000 Ang^3
#
#
#
# Elastic Constant Matrix: (Units=GPa)
#
#
# Indices 1 2 3 4 5 6 
#
# 1 118.7059 49.1747 67.2328 -4.4146 15.6114 -0.5598
# 2 49.1747 134.3487 61.7859 -11.5691 12.4877 5.7760
# 3 67.2328 61.7859 133.8229 -0.9070 13.3667 -5.0035
# 4 -4.4146 -11.5691 -0.9070 43.6972 0.9573 -1.4385
# 5 15.6114 12.4877 13.3667 0.9573 38.3154 -1.3641
# 6 -0.5598 5.7760 -5.0035 -1.4385 -1.3641 38.6809
#
#
#
# Elastic Compliance Matrix: (Units=1/GPa)
#
#
# Indices 1 2 3 4 5 6 
#
# 1 0.012500 -0.001885 -0.005145 0.000708 -0.002712 -0.000272
# 2 -0.001885 0.010265 -0.003709 0.002415 -0.001415 -0.002000
# 3 -0.005145 -0.003709 0.011910 -0.001174 -0.000751 0.001950
# 4 0.000708 0.002415 -0.001174 0.023610 -0.001244 0.000332
# 5 -0.002712 -0.001415 -0.000751 -0.001244 0.027994 0.001016
# 6 -0.000272 -0.002000 0.001950 0.000332 0.001016 0.026448
#
#
# Mechanical properties :
#
#
# Convention : Reuss Voigt Hill
#
# Bulk Modulus (GPa) = 75.77250 82.58492 79.17871
# Shear Modulus (GPa) = 36.07433 38.05096 37.06264
#
# Velocity S-wave (km/s) = 4.20747 4.32120 4.26471
# Velocity P-wave (km/s) = 7.79664 8.08851 7.94392
#
# Compressibility (1/GPa) = 0.01319740
#
# Stress axis : x y z
#
# Youngs Moduli (GPa) = 79.99749 97.42251 83.96500
#
# Poissons Ratio (x) = 0.18362 0.43196
# Poissons Ratio (y) = 0.15078 0.31145
# Poissons Ratio (z) = 0.41155 0.36137
#
# Static dielectric constant tensor:
#      x y z
#    x 3.707100 0.372100 0.330310 
#    y 0.372100 2.991540 -0.213600 
#    z 0.330310 -0.213600 3.598660 
# 
# 
# High freq. dielectric constant tensor:
#      x y z
#    x 1.814970 0.001480 0.006370 
#    y 0.001480 1.799960 0.000730 
#    z 0.006370 0.000730 1.799020 
# 
# From -- ./inp_files/298561.got.cif
#   From: 2010.06.25/outbox.cif.g09.slc.cpg/sg2_150_cif.got.tgz:298561.got - 2010.06.27 13:26:56.
