data_PCOD8013084
_publ_section_title
;
Structure prediction by ZEFSAII (Michael W. Deem and Ramdas Pophale) SiO2 
 PCOD8013084
Probable space group: P -1
;
_chemical_formula_sum "Si O2"
_cell_formula_units_Z 16
_cell_length_a 9.130045
_cell_length_b 15.363089
_cell_length_c 8.444424
_cell_angle_alpha 138.254970
_cell_angle_beta 82.464473
_cell_angle_gamma 103.029805
_cell_volume 767.074380
_symmetry_space_group_name_H-M "P -1"
_symmetry_group_IT_number 2
_symmetry_cell_setting 'triclinic'
loop_
_space_group_symop_operation_xyz
x,y,z
-x,-y,-z
loop_
_atom_site_type_symbol
_atom_site_label
_atom_site_fract_x
_atom_site_fract_y
_atom_site_fract_z
Si Si1 0.464948 0.635551 0.628889
Si Si2 0.739523 0.747644 0.521071
Si Si3 0.582608 0.871970 0.142320
Si Si4 0.634214 0.949357 0.582388
Si Si5 0.867577 0.799725 0.892066
Si Si6 0.933260 0.123942 0.743026
Si Si7 0.158989 0.484889 0.380407
Si Si8 0.916155 0.604722 0.071466
O O1 0.500000 0.500000 0.500000
O O2 0.579809 0.688979 0.543909
O O3 0.289624 0.612545 0.570021
O O4 0.478775 0.739241 0.910707
O O5 0.712790 0.874417 0.599641
O O6 0.876596 0.801050 0.700182
O O7 0.787976 0.636369 0.250966
O O8 0.589711 0.856576 0.309916
O O9 0.515265 0.000427 0.270794
O O10 0.751619 0.894483 0.082689
O O11 0.753711 0.083709 0.703473
O O12 0.792447 0.646935 0.735410
O O13 0.018026 0.844862 0.036134
O O14 0.980533 0.254573 0.804609
O O15 0.000000 0.000000 0.500000
O O16 0.000000 0.500000 0.500000
O O17 0.156315 0.473288 0.176876
O O18 0.000000 0.500000 0.000000
#
# Coordination Sequence:
#
# PCOD8013084 Si02
#       8
#     2   2   2   2   2   2   2   2
#     4  11  24  42  68  95 129 183 215 269 351 400
#     4  11  23  42  65  95 137 167 230 280 327 393
#     4  10  22  41  64  90 132 170 224 267 331 407
#     4  11  23  42  66  96 130 178 223 282 327 400
#     4  10  21  40  65  92 130 171 216 279 326 403
#     4  11  21  42  69  93 132 182 219 264 352 393
#     4  11  23  44  67  94 135 174 219 270 345 409
#     4  11  25  43  66 103 138 170 227 285 327 403
#
# _framework density 20.858471999999999
#
# number of rings (size 3 to 8) (size 9 to 14) (size 15 to 20)
#    0.000    1.250    5.000    1.500    3.500    3.000 
#    4.500    0.000    0.000    0.000    0.000    0.000 
#    0.000    0.000    0.000    0.000    0.000    0.000 
#
# Total GULP energy -198310.273785 kJ/mol
# GULP energy per Si atom -12394.392112 kJ/mol
# Density = 2.081100 g / cm^3
# Si number density = 20.858472 Si / 1000 Ang^3
#
#
#
# Elastic Constant Matrix: (Units=GPa)
#
#
# Indices 1 2 3 4 5 6 
#
# 1 106.2014 42.7090 55.9502 -7.1435 -0.7377 3.0861
# 2 42.7090 106.2254 56.7731 -5.8999 4.8525 -21.1809
# 3 55.9502 56.7731 148.7866 -23.1098 10.8711 -4.0642
# 4 -7.1435 -5.8999 -23.1098 36.5353 1.2638 2.5076
# 5 -0.7377 4.8525 10.8711 1.2638 38.7431 2.7556
# 6 3.0861 -21.1809 -4.0642 2.5076 2.7556 40.4633
#
#
#
# Elastic Compliance Matrix: (Units=1/GPa)
#
#
# Indices 1 2 3 4 5 6 
#
# 1 0.013109 -0.004174 -0.003622 -0.000221 0.002057 -0.003675
# 2 -0.004174 0.014756 -0.003974 -0.001438 -0.001322 0.007823
# 3 -0.003622 -0.003974 0.010629 0.005527 -0.002670 -0.000897
# 4 -0.000221 -0.001438 0.005527 0.030802 -0.002242 -0.001937
# 5 0.002057 -0.001322 -0.002670 -0.002242 0.027039 -0.002820
# 6 -0.003675 0.007823 -0.000897 -0.001937 -0.002820 0.029311
#
#
# Mechanical properties :
#
#
# Convention : Reuss Voigt Hill
#
# Bulk Modulus (GPa) = 66.87178 74.67534 70.77356
# Shear Modulus (GPa) = 32.43177 36.86709 34.64943
#
# Velocity S-wave (km/s) = 3.94743 4.20871 4.08016
# Velocity P-wave (km/s) = 7.27363 7.71339 7.49673
#
# Compressibility (1/GPa) = 0.01495399
#
# Stress axis : x y z
#
# Youngs Moduli (GPa) = 76.28391 67.76682 94.08639
#
# Poissons Ratio (x) = 0.28285 0.34077
# Poissons Ratio (y) = 0.31839 0.37392
# Poissons Ratio (z) = 0.27629 0.26932
#
# Static dielectric constant tensor:
#      x y z
#    x 5.454410 1.322020 -0.098280 
#    y 1.322020 5.175180 -0.365800 
#    z -0.098280 -0.365800 4.258920 
# 
# 
# High freq. dielectric constant tensor:
#      x y z
#    x 1.819790 -0.017670 -0.001920 
#    y -0.017670 1.798120 -0.009460 
#    z -0.001920 -0.009460 1.835280 
# 
# From -- ./inp_files/209385.got.cif
#   From: 2010.06.25/outbox.cif.g09.slc.cpg/sg2_105_cif.got.tgz:209385.got - 2010.06.27 13:26:56.
