data_PCOD8013229
_publ_section_title
;
Structure prediction by ZEFSAII (Michael W. Deem and Ramdas Pophale) SiO2 
 PCOD8013229
Probable space group: P -1
;
_chemical_formula_sum "Si O2"
_cell_formula_units_Z 14
_cell_length_a 12.804228
_cell_length_b 13.023054
_cell_length_c 22.040794
_cell_angle_alpha 34.859303
_cell_angle_beta 19.820489
_cell_angle_gamma 45.992903
_cell_volume 653.331239
_symmetry_space_group_name_H-M "P -1"
_symmetry_group_IT_number 2
_symmetry_cell_setting 'triclinic'
loop_
_space_group_symop_operation_xyz
x,y,z
-x,-y,-z
loop_
_atom_site_type_symbol
_atom_site_label
_atom_site_fract_x
_atom_site_fract_y
_atom_site_fract_z
Si Si1 0.842901 0.843609 0.289599
Si Si2 0.541124 0.748055 0.692188
Si Si3 0.728644 0.294177 0.951385
Si Si4 0.520547 0.026822 0.665270
Si Si5 0.815664 0.271423 0.219256
Si Si6 0.827097 0.592274 0.857589
Si Si7 0.859068 0.022226 0.814847
O O1 0.811298 0.972707 0.187257
O O2 0.471194 0.747929 0.566447
O O3 0.116307 0.964605 0.132005
O O4 0.969283 0.681810 0.271786
O O5 0.335093 0.820090 0.720244
O O6 0.653468 0.889148 0.620332
O O7 0.324808 0.526203 0.939580
O O8 0.884007 0.776335 0.455298
O O9 0.426034 0.315166 0.070967
O O10 0.583497 0.072272 0.164162
O O11 0.874784 0.451321 0.848832
O O12 0.808735 0.242864 0.408573
O O13 0.049884 0.161318 0.167296
O O14 0.000000 0.500000 0.000000
O O15 0.500000 0.000000 0.000000
#
# Coordination Sequence:
#
# PCOD8013229 Si02
#       7
#     2   2   2   2   2   2   2
#     4  11  22  41  64  91 133 166 217 263 316 393
#     4  10  21  40  66  92 127 168 213 259 322 391
#     4  10  24  41  61  99 131 167 217 267 314 386
#     4  11  20  41  68  88 129 175 209 261 321 383
#     4  11  22  42  66  97 127 172 218 264 328 388
#     4  10  23  42  65  94 134 165 215 269 323 374
#     4  11  24  42  66  98 129 170 215 270 333 384
#
# _framework density 21.428639
#
# number of rings (size 3 to 8) (size 9 to 14) (size 15 to 20)
#    0.000    1.429    2.857    2.571    2.000    1.714 
#    2.571    2.857    0.000    0.000    0.000    0.000 
#    0.000    0.000    0.000    0.000    0.000    0.000 
#
# Total GULP energy -173548.140333 kJ/mol
# GULP energy per Si atom -12396.295738 kJ/mol
# Density = 2.137987 g / cm^3
# Si number density = 21.428639 Si / 1000 Ang^3
#
#
#
# Elastic Constant Matrix: (Units=GPa)
#
#
# Indices 1 2 3 4 5 6 
#
# 1 116.9210 51.7110 52.0105 13.8989 -1.7929 -18.6166
# 2 51.7110 110.2626 70.8729 17.7663 5.1846 -5.7039
# 3 52.0105 70.8729 114.8170 2.9651 -4.9649 -13.4028
# 4 13.8989 17.7663 2.9651 37.3224 -4.6491 0.4065
# 5 -1.7929 5.1846 -4.9649 -4.6491 32.9534 2.0845
# 6 -18.6166 -5.7039 -13.4028 0.4065 2.0845 30.1645
#
#
#
# Elastic Compliance Matrix: (Units=1/GPa)
#
#
# Indices 1 2 3 4 5 6 
#
# 1 0.012579 -0.003213 -0.002953 -0.002991 -0.000049 0.005888
# 2 -0.003213 0.018561 -0.010351 -0.007479 -0.005546 -0.002588
# 3 -0.002953 -0.010351 0.016888 0.005214 0.004536 0.003340
# 4 -0.002991 -0.007479 0.005214 0.031872 0.006411 -0.001816
# 5 -0.000049 -0.005546 0.004536 0.006411 0.032894 -0.001423
# 6 0.005888 -0.002588 0.003340 -0.001816 -0.001423 0.037903
#
#
# Mechanical properties :
#
#
# Convention : Reuss Voigt Hill
#
# Bulk Modulus (GPa) = 66.68505 76.79882 71.74194
# Shear Modulus (GPa) = 26.49326 31.24847 28.87086
#
# Velocity S-wave (km/s) = 3.51999 3.82286 3.67454
# Velocity P-wave (km/s) = 6.90707 7.44330 7.18019
#
# Compressibility (1/GPa) = 0.01499586
#
# Stress axis : x y z
#
# Youngs Moduli (GPa) = 79.49447 53.87657 59.21514
#
# Poissons Ratio (x) = 0.17309 0.17485
# Poissons Ratio (y) = 0.25540 0.61291
# Poissons Ratio (z) = 0.23473 0.55765
#
# Static dielectric constant tensor:
#      x y z
#    x 4.241570 0.004780 0.175970 
#    y 0.004780 3.767860 -0.020840 
#    z 0.175970 -0.020840 3.721400 
# 
# 
# High freq. dielectric constant tensor:
#      x y z
#    x 1.861760 0.001360 0.008270 
#    y 0.001360 1.829640 0.002150 
#    z 0.008270 0.002150 1.826630 
# 
# From -- ./inp_files/201306.got.cif
#   From: 2010.06.25/outbox.cif.g09.slc.cpg/sg2_101_cif.got.tgz:201306.got - 2010.06.27 13:26:56.
