data_PCOD8013898
_publ_section_title
;
Structure prediction by ZEFSAII (Michael W. Deem and Ramdas Pophale) SiO2 
 PCOD8013898
Probable space group: P -1
;
_chemical_formula_sum "Si O2"
_cell_formula_units_Z 16
_cell_length_a 12.580221
_cell_length_b 15.532853
_cell_length_c 9.008099
_cell_angle_alpha 28.810456
_cell_angle_beta 99.644187
_cell_angle_gamma 107.291339
_cell_volume 793.264299
_symmetry_space_group_name_H-M "P -1"
_symmetry_group_IT_number 2
_symmetry_cell_setting 'triclinic'
loop_
_space_group_symop_operation_xyz
x,y,z
-x,-y,-z
loop_
_atom_site_type_symbol
_atom_site_label
_atom_site_fract_x
_atom_site_fract_y
_atom_site_fract_z
Si Si1 0.988694 0.967335 0.219006
Si Si2 0.218669 0.530921 0.771155
Si Si3 0.376190 0.134827 0.845820
Si Si4 0.632246 0.221617 0.808778
Si Si5 0.760974 0.636726 0.674582
Si Si6 0.999154 0.198523 0.130584
Si Si7 0.222977 0.708477 0.969641
Si Si8 0.211092 0.877999 0.416633
O O1 0.093723 0.906989 0.395314
O O2 0.872187 0.810780 0.470598
O O3 0.990097 0.161151 0.007324
O O4 0.000000 0.000000 0.000000
O O5 0.305572 0.601082 0.549284
O O6 0.177635 0.701808 0.562323
O O7 0.280397 0.464631 0.023957
O O8 0.113880 0.361695 0.945627
O O9 0.504111 0.221424 0.802968
O O10 0.341412 0.299527 0.509332
O O11 0.364798 0.971008 0.972443
O O12 0.295098 0.060701 0.080418
O O13 0.688076 0.234438 0.963134
O O14 0.794805 0.505301 0.760473
O O15 0.896673 0.271203 0.043389
O O16 0.000000 0.000000 0.500000
O O17 0.271535 0.840954 0.637517
#
# Coordination Sequence:
#
# PCOD8013898 Si02
#       8
#     2   2   2   2   2   2   2   2
#     4  12  23  36  62  95 120 163 196 251 309 372
#     4  10  23  40  61  92 128 163 196 259 304 366
#     4  10  22  43  66  88 119 169 212 256 302 366
#     4  10  24  42  63  91 122 162 218 255 301 358
#     4  11  22  40  64  90 130 163 203 251 315 363
#     4  12  23  39  63  94 124 160 207 247 304 378
#     4  11  24  40  61  94 126 161 202 259 304 367
#     4  10  21  41  63  89 130 161 203 248 314 363
#
# _framework density 20.169823000000001
#
# number of rings (size 3 to 8) (size 9 to 14) (size 15 to 20)
#    0.000    1.250    3.750    1.500    3.500    4.000 
#    0.000    0.000    0.000    0.000    0.000    0.000 
#    0.000    0.000    0.000    0.000    0.000    0.000 
#
# Total GULP energy -198411.188009 kJ/mol
# GULP energy per Si atom -12400.699251 kJ/mol
# Density = 2.012392 g / cm^3
# Si number density = 20.169823 Si / 1000 Ang^3
#
#
#
# Elastic Constant Matrix: (Units=GPa)
#
#
# Indices 1 2 3 4 5 6 
#
# 1 103.4073 38.8254 41.0981 -3.3066 19.8929 16.1561
# 2 38.8254 127.9279 46.1287 10.5197 3.2064 11.1085
# 3 41.0981 46.1287 88.6492 6.8395 11.6574 11.9635
# 4 -3.3066 10.5197 6.8395 34.0327 2.0552 1.5571
# 5 19.8929 3.2064 11.6574 2.0552 26.7570 -1.9485
# 6 16.1561 11.1085 11.9635 1.5571 -1.9485 29.0205
#
#
#
# Elastic Compliance Matrix: (Units=1/GPa)
#
#
# Indices 1 2 3 4 5 6 
#
# 1 0.015379 -0.002812 -0.003697 0.004043 -0.010297 -0.006869
# 2 -0.002812 0.010376 -0.004214 -0.002792 0.002874 -0.000326
# 3 -0.003697 -0.004214 0.016285 -0.001946 -0.003925 -0.003201
# 4 0.004043 -0.002792 -0.001946 0.031405 -0.004407 -0.002361
# 5 -0.010297 0.002874 -0.003925 -0.004407 0.047437 0.009672
# 6 -0.006869 -0.000326 -0.003201 -0.002361 0.009672 0.040503
#
#
# Mechanical properties :
#
#
# Convention : Reuss Voigt Hill
#
# Bulk Modulus (GPa) = 48.55825 63.56543 56.06184
# Shear Modulus (GPa) = 26.35787 30.89085 28.62436
#
# Velocity S-wave (km/s) = 3.61889 3.91773 3.77127
# Velocity P-wave (km/s) = 6.44893 7.21446 6.84241
#
# Compressibility (1/GPa) = 0.02059382
#
# Stress axis : x y z
#
# Youngs Moduli (GPa) = 65.02297 96.37920 61.40440
#
# Poissons Ratio (x) = 0.27103 0.22703
# Poissons Ratio (y) = 0.18285 0.25874
# Poissons Ratio (z) = 0.24041 0.40612
#
# Static dielectric constant tensor:
#      x y z
#    x 3.703580 -0.142750 0.062720 
#    y -0.142750 3.942190 0.099600 
#    z 0.062720 0.099600 3.873770 
# 
# 
# High freq. dielectric constant tensor:
#      x y z
#    x 1.778340 -0.007070 0.007130 
#    y -0.007070 1.801620 0.009470 
#    z 0.007130 0.009470 1.790960 
# 
# From -- ./inp_files/181328.got.cif
#   From: 2010.06.25/outbox.cif.g09.slc.cpg/sg2_91_cif.got.tgz:181328.got - 2010.06.27 13:26:56.
