data_PCOD8013723
_publ_section_title
;
Structure prediction by ZEFSAII (Michael W. Deem and Ramdas Pophale) SiO2 
 PCOD8013723
Probable space group: P -1
;
_chemical_formula_sum "Si O2"
_cell_formula_units_Z 16
_cell_length_a 12.546611
_cell_length_b 16.050575
_cell_length_c 5.301781
_cell_angle_alpha 88.887821
_cell_angle_beta 58.120886
_cell_angle_gamma 60.772348
_cell_volume 749.120738
_symmetry_space_group_name_H-M "P -1"
_symmetry_group_IT_number 2
_symmetry_cell_setting 'triclinic'
loop_
_space_group_symop_operation_xyz
x,y,z
-x,-y,-z
loop_
_atom_site_type_symbol
_atom_site_label
_atom_site_fract_x
_atom_site_fract_y
_atom_site_fract_z
Si Si1 0.753704 0.408761 0.723623
Si Si2 0.611723 0.700466 0.363710
Si Si3 0.515471 0.566873 0.674064
Si Si4 0.679696 0.979422 0.019112
Si Si5 0.845272 0.700510 0.326260
Si Si6 0.545586 0.091005 0.684466
Si Si7 0.897732 0.497944 0.840505
Si Si8 0.921418 0.766997 0.739036
O O1 0.682310 0.495886 0.594284
O O2 0.803376 0.450674 0.883412
O O3 0.896290 0.301279 0.454861
O O4 0.623504 0.390719 0.960144
O O5 0.503661 0.663031 0.563234
O O6 0.671229 0.728950 0.536462
O O7 0.526708 0.790361 0.263889
O O8 0.775795 0.612257 0.058117
O O9 0.500000 0.500000 0.500000
O O10 0.654258 0.036496 0.310045
O O11 0.583426 0.930350 0.135757
O O12 0.640984 0.053778 0.827170
O O13 0.856047 0.884909 0.775024
O O14 0.871271 0.728779 0.567791
O O15 0.978550 0.581717 0.104010
O O16 0.848874 0.765915 0.094057
O O17 0.000000 0.500000 0.500000
#
# Coordination Sequence:
#
# PCOD8013723 Si02
#       8
#     2   2   2   2   2   2   2   2
#     4  10  23  40  62  88 121 171 209 249 310 369
#     4  12  22  38  62  88 128 168 208 250 307 377
#     4  11  23  43  59  87 127 168 212 253 296 368
#     4  10  21  41  58  90 126 158 201 260 314 367
#     4  11  23  36  59  98 124 164 196 246 314 377
#     4  10  23  36  61  88 125 164 202 251 313 374
#     4  11  22  37  59  93 133 158 198 257 309 380
#     4  11  22  40  67  91 127 160 204 255 316 371
#
# _framework density 21.358371999999999
#
# number of rings (size 3 to 8) (size 9 to 14) (size 15 to 20)
#    0.000    1.250    2.500    4.125    5.250    1.000 
#    0.000    0.000    0.000    1.500    0.000    0.000 
#    0.000    0.000    0.000    0.000    0.000    0.000 
#
# Total GULP energy -198324.634305 kJ/mol
# GULP energy per Si atom -12395.289644 kJ/mol
# Density = 2.130976 g / cm^3
# Si number density = 21.358372 Si / 1000 Ang^3
#
#
#
# Elastic Constant Matrix: (Units=GPa)
#
#
# Indices 1 2 3 4 5 6 
#
# 1 65.7678 42.7243 28.2209 -10.8027 -11.8446 -12.4456
# 2 42.7243 169.3231 44.3009 -2.8169 -5.9946 -27.7157
# 3 28.2209 44.3009 77.3634 -0.3941 2.4618 -8.3726
# 4 -10.8027 -2.8169 -0.3941 35.1431 -7.7238 -3.6802
# 5 -11.8446 -5.9946 2.4618 -7.7238 27.6806 -4.3820
# 6 -12.4456 -27.7157 -8.3726 -3.6802 -4.3820 28.2706
#
#
#
# Elastic Compliance Matrix: (Units=1/GPa)
#
#
# Indices 1 2 3 4 5 6 
#
# 1 0.027801 -0.001987 -0.008162 0.013537 0.017934 0.012416
# 2 -0.001987 0.008628 -0.003524 0.001421 0.002863 0.007169
# 3 -0.008162 -0.003524 0.017754 -0.004661 -0.007703 -0.003590
# 4 0.013537 0.001421 -0.004661 0.038417 0.019449 0.013988
# 5 0.017934 0.002863 -0.007703 0.019449 0.053581 0.019258
# 6 0.012416 0.007169 -0.003590 0.013988 0.019258 0.051609
#
#
# Mechanical properties :
#
#
# Convention : Reuss Voigt Hill
#
# Bulk Modulus (GPa) = 37.26093 60.32739 48.79416
# Shear Modulus (GPa) = 21.36026 31.36607 26.36317
#
# Velocity S-wave (km/s) = 3.16585 3.83634 3.51711
# Velocity P-wave (km/s) = 5.55400 6.92315 6.27602
#
# Compressibility (1/GPa) = 0.02683776
#
# Stress axis : x y z
#
# Youngs Moduli (GPa) = 35.97017 115.90755 56.32602
#
# Poissons Ratio (x) = 0.23032 0.45970
# Poissons Ratio (y) = 0.07148 0.19847
# Poissons Ratio (z) = 0.29357 0.40841
#
# Static dielectric constant tensor:
#      x y z
#    x 3.873800 -0.395950 -0.058280 
#    y -0.395950 4.230350 0.141600 
#    z -0.058280 0.141600 3.951400 
# 
# 
# High freq. dielectric constant tensor:
#      x y z
#    x 1.813590 -0.029300 0.013070 
#    y -0.029300 1.841610 0.003930 
#    z 0.013070 0.003930 1.832790 
# 
# From -- ./inp_files/77765.got.cif
#   From: 2010.06.25/outbox.cif.g09.slc.cpg/sg2_39_cif.got.tgz:77765.got - 2010.06.27 13:26:56.
