data_PCOD8013711
_publ_section_title
;
Structure prediction by ZEFSAII (Michael W. Deem and Ramdas Pophale) SiO2 
 PCOD8013711
Probable space group: P -1
;
_chemical_formula_sum "Si O2"
_cell_formula_units_Z 12
_cell_length_a 8.264742
_cell_length_b 11.227396
_cell_length_c 12.618109
_cell_angle_alpha 139.977716
_cell_angle_beta 112.244795
_cell_angle_gamma 43.852133
_cell_volume 480.384232
_symmetry_space_group_name_H-M "P -1"
_symmetry_group_IT_number 2
_symmetry_cell_setting 'triclinic'
loop_
_space_group_symop_operation_xyz
x,y,z
-x,-y,-z
loop_
_atom_site_type_symbol
_atom_site_label
_atom_site_fract_x
_atom_site_fract_y
_atom_site_fract_z
Si Si1 0.833782 0.798335 0.206377
Si Si2 0.052910 0.416277 0.334845
Si Si3 0.278244 0.662648 0.164026
Si Si4 0.273090 0.877825 0.976817
Si Si5 0.507135 0.697475 0.682792
Si Si6 0.661867 0.646091 0.217116
O O1 0.687825 0.830591 0.295867
O O2 0.039670 0.808881 0.283397
O O3 0.623934 0.045090 0.246351
O O4 0.000000 0.500000 0.000000
O O5 0.194571 0.479043 0.354967
O O6 0.000000 0.500000 0.500000
O O7 0.800497 0.550462 0.299982
O O8 0.259698 0.094883 0.164332
O O9 0.533635 0.374578 0.072560
O O10 0.362508 0.815498 0.275901
O O11 0.211148 0.613690 0.001633
O O12 0.369493 0.800655 0.829434
O O13 0.000000 0.000000 0.000000
O O14 0.500000 0.500000 0.500000
#
# Coordination Sequence:
#
# PCOD8013711 Si02
#       6
#     2   2   2   2   2   2
#     4  10  21  44  74 107 151 197 250 317 384 453
#     4  12  25  47  74 111 157 201 262 318 382 464
#     4  10  21  40  75 109 146 192 260 307 390 456
#     4  12  23  44  78 108 151 206 258 313 386 462
#     4  12  28  49  75 113 158 203 260 321 385 463
#     4  10  21  41  70 108 144 192 249 312 381 447
#
# _framework density 24.980004999999998
#
# number of rings (size 3 to 8) (size 9 to 14) (size 15 to 20)
#    0.000    1.000    1.667    6.500    2.333    0.000 
#    3.000    6.667    0.000    0.000    0.000    0.000 
#    0.000    0.000    0.000    0.000    0.000    0.000 
#
# Total GULP energy -148675.081773 kJ/mol
# GULP energy per Si atom -12389.590148 kJ/mol
# Density = 2.492315 g / cm^3
# Si number density = 24.980005 Si / 1000 Ang^3
#
#
#
# Elastic Constant Matrix: (Units=GPa)
#
#
# Indices 1 2 3 4 5 6 
#
# 1 266.6051 32.0296 51.4314 -26.7877 -3.2254 -20.1550
# 2 32.0296 84.8968 43.6025 -27.6991 -4.0608 1.1353
# 3 51.4314 43.6025 131.4323 -23.2164 -4.2916 5.3135
# 4 -26.7877 -27.6991 -23.2164 34.1685 1.8478 5.0216
# 5 -3.2254 -4.0608 -4.2916 1.8478 32.6960 -10.4509
# 6 -20.1550 1.1353 5.3135 5.0216 -10.4509 49.6200
#
#
#
# Elastic Compliance Matrix: (Units=1/GPa)
#
#
# Indices 1 2 3 4 5 6 
#
# 1 0.004393 -0.000332 -0.001314 0.001967 0.000710 0.001883
# 2 -0.000332 0.017614 -0.003571 0.011736 0.000637 -0.001209
# 3 -0.001314 -0.003571 0.009927 0.003091 -0.000031 -0.001835
# 4 0.001967 0.011736 0.003091 0.043192 -0.001841 -0.004560
# 5 0.000710 0.000637 -0.000031 -0.001841 0.033218 0.007460
# 6 0.001883 -0.001209 -0.001835 -0.004560 0.007460 0.023175
#
#
# Mechanical properties :
#
#
# Convention : Reuss Voigt Hill
#
# Bulk Modulus (GPa) = 46.51379 81.89568 64.20474
# Shear Modulus (GPa) = 33.53030 47.02163 40.27597
#
# Velocity S-wave (km/s) = 3.66770 4.34334 4.01974
# Velocity P-wave (km/s) = 6.04953 7.61633 6.87769
#
# Compressibility (1/GPa) = 0.02149900
#
# Stress axis : x y z
#
# Youngs Moduli (GPa) = 227.64133 56.77396 100.73958
#
# Poissons Ratio (x) = 0.01884 0.13242
# Poissons Ratio (y) = 0.07552 0.35973
# Poissons Ratio (z) = 0.29923 0.20273
#
# Static dielectric constant tensor:
#      x y z
#    x 5.848040 -0.223220 0.302290 
#    y -0.223220 4.691280 -0.114550 
#    z 0.302290 -0.114550 4.209850 
# 
# 
# High freq. dielectric constant tensor:
#      x y z
#    x 2.044070 -0.003910 0.009180 
#    y -0.003910 1.988500 -0.010720 
#    z 0.009180 -0.010720 1.958480 
# 
# From -- ./inp_files/388632.got.cif
#   From: 2010.06.25/outbox.cif.g09.slc.cpg/sg2_195_cif.got.tgz:388632.got - 2010.06.27 13:26:56.
