data_PCOD8013907
_publ_section_title
;
Structure prediction by ZEFSAII (Michael W. Deem and Ramdas Pophale) SiO2 
 PCOD8013907
Probable space group: P -1
;
_chemical_formula_sum "Si O2"
_cell_formula_units_Z 16
_cell_length_a 12.922581
_cell_length_b 10.656908
_cell_length_c 8.677728
_cell_angle_alpha 64.261855
_cell_angle_beta 109.993833
_cell_angle_gamma 134.751646
_cell_volume 763.260174
_symmetry_space_group_name_H-M "P -1"
_symmetry_group_IT_number 2
_symmetry_cell_setting 'triclinic'
loop_
_space_group_symop_operation_xyz
x,y,z
-x,-y,-z
loop_
_atom_site_type_symbol
_atom_site_label
_atom_site_fract_x
_atom_site_fract_y
_atom_site_fract_z
Si Si1 0.668603 0.484979 0.227010
Si Si2 0.559386 0.655424 0.568123
Si Si3 0.165953 0.497467 0.420464
Si Si4 0.923831 0.798099 0.002873
Si Si5 0.046763 0.492094 0.856810
Si Si6 0.554642 0.188046 0.747893
Si Si7 0.388367 0.766177 0.909445
Si Si8 0.874190 0.812279 0.624683
O O1 0.544364 0.459571 0.275555
O O2 0.789722 0.498885 0.382300
O O3 0.761939 0.665432 0.067615
O O4 0.568541 0.303990 0.165411
O O5 0.500000 0.500000 0.500000
O O6 0.539231 0.793474 0.421068
O O7 0.732092 0.785312 0.610479
O O8 0.284684 0.699087 0.299243
O O9 0.172541 0.355328 0.413717
O O10 0.014738 0.453390 0.336233
O O11 0.995318 0.702337 0.113569
O O12 0.933563 0.812409 0.817159
O O13 0.000000 0.000000 0.000000
O O14 0.218617 0.655027 0.861324
O O15 0.000000 0.500000 0.000000
O O16 0.480017 0.979157 0.821344
O O17 0.572100 0.266706 0.886534
O O18 0.000000 0.000000 0.500000
#
# Coordination Sequence:
#
# PCOD8013907 Si02
#       8
#     2   2   2   2   2   2   2   2
#     4  10  23  44  67  94 138 170 223 281 335 388
#     4  11  24  42  66  94 126 183 217 268 339 398
#     4  11  21  42  67  93 129 174 219 278 324 406
#     4  11  25  45  65 102 140 171 223 287 334 394
#     4  11  21  41  70  94 130 180 222 267 337 395
#     4  10  21  41  63  90 131 167 227 260 330 394
#     4  10  22  40  65  96 127 170 220 285 320 392
#     4  12  25  44  68  95 135 173 228 275 336 403
#
# _framework density 20.962707000000002
#
# number of rings (size 3 to 8) (size 9 to 14) (size 15 to 20)
#    0.000    1.250    5.000    1.500    1.750    4.500 
#    4.500    0.000    0.000    0.000    0.000    0.000 
#    0.000    0.000    0.000    0.000    0.000    0.000 
#
# Total GULP energy -198232.229359 kJ/mol
# GULP energy per Si atom -12389.514335 kJ/mol
# Density = 2.091499 g / cm^3
# Si number density = 20.962707 Si / 1000 Ang^3
#
#
#
# Elastic Constant Matrix: (Units=GPa)
#
#
# Indices 1 2 3 4 5 6 
#
# 1 99.5676 36.6226 13.0513 -10.4833 -12.0788 8.1853
# 2 36.6226 107.3197 38.1276 1.7940 -11.3892 -3.5831
# 3 13.0513 38.1276 87.6574 -10.2014 -20.2132 0.3208
# 4 -10.4833 1.7940 -10.2014 32.0587 -0.0854 -11.0952
# 5 -12.0788 -11.3892 -20.2132 -0.0854 38.1010 5.8281
# 6 8.1853 -3.5831 0.3208 -11.0952 5.8281 28.3201
#
#
#
# Elastic Compliance Matrix: (Units=1/GPa)
#
#
# Indices 1 2 3 4 5 6 
#
# 1 0.012721 -0.004624 0.001476 0.003624 0.004005 -0.003683
# 2 -0.004624 0.012881 -0.005500 -0.003329 -0.000831 0.001895
# 3 0.001476 -0.005500 0.015947 0.005677 0.007389 -0.000599
# 4 0.003624 -0.003329 0.005677 0.039054 0.001184 0.013524
# 5 0.004005 -0.000831 0.007389 0.001184 0.032343 -0.007538
# 6 -0.003683 0.001895 -0.000599 0.013524 -0.007538 0.043471
#
#
# Mechanical properties :
#
#
# Convention : Reuss Voigt Hill
#
# Bulk Modulus (GPa) = 41.23220 52.23862 46.73541
# Shear Modulus (GPa) = 27.50309 33.47883 30.49096
#
# Velocity S-wave (km/s) = 3.62608 4.00067 3.81797
# Velocity P-wave (km/s) = 6.10273 6.80546 6.46365
#
# Compressibility (1/GPa) = 0.02425289
#
# Stress axis : x y z
#
# Youngs Moduli (GPa) = 78.61068 77.63597 62.70667
#
# Poissons Ratio (x) = 0.35898 -0.09256
# Poissons Ratio (y) = 0.36349 0.34489
# Poissons Ratio (z) = -0.11603 0.42701
#
# Static dielectric constant tensor:
#      x y z
#    x 2.541470 -1.633060 -2.902020 
#    y -1.633060 1.835860 -3.419490 
#    z -2.902020 -3.419490 -1.918570 
# 
# 
# High freq. dielectric constant tensor:
#      x y z
#    x 1.815190 -0.000670 -0.011410 
#    y -0.000670 1.821460 0.000750 
#    z -0.011410 0.000750 1.835180 
# 
# From -- ./inp_files/305014.got.cif
#   From: 2010.06.25/outbox.cif.g09.slc.cpg/sg2_153_cif.got.tgz:305014.got - 2010.06.27 13:26:56.
