data_PCOD8013073
_publ_section_title
;
Structure prediction by ZEFSAII (Michael W. Deem and Ramdas Pophale) SiO2 
 PCOD8013073
Probable space group: P -1
;
_chemical_formula_sum "Si O2"
_cell_formula_units_Z 16
_cell_length_a 10.503009
_cell_length_b 15.891774
_cell_length_c 11.392941
_cell_angle_alpha 142.863320
_cell_angle_beta 138.263857
_cell_angle_gamma 59.851291
_cell_volume 743.670899
_symmetry_space_group_name_H-M "P -1"
_symmetry_group_IT_number 2
_symmetry_cell_setting 'triclinic'
loop_
_space_group_symop_operation_xyz
x,y,z
-x,-y,-z
loop_
_atom_site_type_symbol
_atom_site_label
_atom_site_fract_x
_atom_site_fract_y
_atom_site_fract_z
Si Si1 0.208739 0.333599 0.588525
Si Si2 0.793815 0.930969 0.835284
Si Si3 0.244514 0.777915 0.817584
Si Si4 0.057957 0.711499 0.198239
Si Si5 0.359694 0.507474 0.671678
Si Si6 0.398859 0.834229 0.736523
Si Si7 0.212889 0.243709 0.135129
Si Si8 0.788448 0.556883 0.034401
O O1 0.308911 0.205377 0.467416
O O2 0.295850 0.472942 0.724563
O O3 0.257959 0.367988 0.794805
O O4 0.975390 0.284177 0.357928
O O5 0.828490 0.881218 0.935562
O O6 0.673278 0.057001 0.898276
O O7 0.000000 0.000000 0.000000
O O8 0.370762 0.674549 0.843568
O O9 0.255060 0.775630 0.680967
O O10 0.264273 0.806874 0.495466
O O11 0.900214 0.676938 0.155800
O O12 0.089023 0.564158 0.998681
O O13 0.961248 0.793198 0.122541
O O14 0.209891 0.397979 0.362354
O O15 0.572801 0.481298 0.755485
O O16 0.572025 0.748949 0.763107
O O17 0.500000 0.000000 0.000000
#
# Coordination Sequence:
#
# PCOD8013073 Si02
#       8
#     2   2   2   2   2   2   2   2
#     4  10  21  40  65  91 135 175 218 275 329 392
#     4   9  21  41  65  89 129 177 222 269 323 396
#     4  11  21  40  64  93 129 176 223 266 338 384
#     4  11  25  41  68  99 137 171 219 279 331 394
#     4  11  23  38  68  99 131 174 224 273 329 397
#     4  12  24  43  67  95 139 175 219 274 324 404
#     4  11  23  43  68 100 129 177 222 269 337 390
#     4  11  22  41  63 101 138 168 218 281 333 388
#
# _framework density 21.514894999999999
#
# number of rings (size 3 to 8) (size 9 to 14) (size 15 to 20)
#    0.000    1.250    3.750    2.250    1.750    3.500 
#    0.000    1.875    0.000    0.000    0.000    0.000 
#    0.000    0.000    0.000    0.000    0.000    0.000 
#
# Total GULP energy -198338.384166 kJ/mol
# GULP energy per Si atom -12396.149010 kJ/mol
# Density = 2.146593 g / cm^3
# Si number density = 21.514895 Si / 1000 Ang^3
#
#
#
# Elastic Constant Matrix: (Units=GPa)
#
#
# Indices 1 2 3 4 5 6 
#
# 1 97.3285 50.1721 27.1142 5.7884 -6.3288 3.2512
# 2 50.1721 129.6391 52.3006 14.6704 -11.3902 0.8189
# 3 27.1142 52.3006 89.2192 -1.8277 -10.7225 3.3569
# 4 5.7884 14.6704 -1.8277 33.6603 -5.4569 5.3220
# 5 -6.3288 -11.3902 -10.7225 -5.4569 38.2610 1.5955
# 6 3.2512 0.8189 3.3569 5.3220 1.5955 26.7840
#
#
#
# Elastic Compliance Matrix: (Units=1/GPa)
#
#
# Indices 1 2 3 4 5 6 
#
# 1 0.013004 -0.004483 -0.001213 -0.000057 0.000523 -0.001309
# 2 -0.004483 0.012538 -0.006115 -0.005261 0.000446 0.001946
# 3 -0.001213 -0.006115 0.015743 0.004679 0.003173 -0.002758
# 4 -0.000057 -0.005261 0.004679 0.034254 0.004935 -0.007519
# 5 0.000523 0.000446 0.003173 0.004935 0.028079 -0.003128
# 6 -0.001309 0.001946 -0.002758 -0.007519 -0.003128 0.039461
#
#
# Mechanical properties :
#
#
# Convention : Reuss Voigt Hill
#
# Bulk Modulus (GPa) = 56.61552 63.92897 60.27225
# Shear Modulus (GPa) = 28.97069 32.18104 30.57586
#
# Velocity S-wave (km/s) = 3.67351 3.87170 3.77390
# Velocity P-wave (km/s) = 6.66067 7.05443 6.86038
#
# Compressibility (1/GPa) = 0.01766300
#
# Stress axis : x y z
#
# Youngs Moduli (GPa) = 76.89677 79.75932 63.52226
#
# Poissons Ratio (x) = 0.35754 0.07707
# Poissons Ratio (y) = 0.34471 0.38842
# Poissons Ratio (z) = 0.09330 0.48771
#
# Static dielectric constant tensor:
#      x y z
#    x 4.291040 -0.130700 -0.279120 
#    y -0.130700 3.792870 0.362450 
#    z -0.279120 0.362450 3.992120 
# 
# 
# High freq. dielectric constant tensor:
#      x y z
#    x 1.866020 0.002380 -0.004720 
#    y 0.002380 1.825730 0.017150 
#    z -0.004720 0.017150 1.831030 
# 
# From -- ./inp_files/434338.got.cif
#   From: 2010.06.25/outbox.cif.g09.slc.cpg/sg2_218_cif.got.tgz:434338.got - 2010.06.27 13:26:56.
