data_PCOD8013424
_publ_section_title
;
Structure prediction by ZEFSAII (Michael W. Deem and Ramdas Pophale) SiO2 
 PCOD8013424
Probable space group: P -1
;
_chemical_formula_sum "Si O2"
_cell_formula_units_Z 16
_cell_length_a 11.340584
_cell_length_b 8.256916
_cell_length_c 12.879466
_cell_angle_alpha 76.094745
_cell_angle_beta 52.288432
_cell_angle_gamma 51.198793
_cell_volume 723.263495
_symmetry_space_group_name_H-M "P -1"
_symmetry_group_IT_number 2
_symmetry_cell_setting 'triclinic'
loop_
_space_group_symop_operation_xyz
x,y,z
-x,-y,-z
loop_
_atom_site_type_symbol
_atom_site_label
_atom_site_fract_x
_atom_site_fract_y
_atom_site_fract_z
Si Si1 0.706278 0.044098 0.902196
Si Si2 0.874894 0.932988 0.616457
Si Si3 0.701288 0.969118 0.365952
Si Si4 0.025595 0.948004 0.875667
Si Si5 0.819428 0.504231 0.100600
Si Si6 0.483139 0.896860 0.355597
Si Si7 0.972617 0.515718 0.388879
Si Si8 0.275591 0.348879 0.087530
O O1 0.750603 0.082611 0.757506
O O2 0.758802 0.812282 0.915560
O O3 0.491085 0.222308 0.026113
O O4 0.818523 0.077433 0.917913
O O5 0.025344 0.683980 0.608524
O O6 0.722065 0.956510 0.614939
O O7 0.000000 0.000000 0.500000
O O8 0.580353 0.006683 0.321195
O O9 0.785545 0.741217 0.412014
O O10 0.869076 0.975041 0.248115
O O11 0.563507 0.152659 0.498351
O O12 0.136811 0.698378 0.834085
O O13 0.000000 0.000000 0.000000
O O14 0.638742 0.700234 0.230521
O O15 0.769847 0.497559 0.008191
O O16 0.000000 0.500000 0.000000
O O17 0.149677 0.475653 0.237088
O O18 0.000000 0.500000 0.500000
#
# Coordination Sequence:
#
# PCOD8013424 Si02
#       8
#     2   2   2   2   2   2   2   2
#     4  10  22  39  66  98 133 176 221 286 331 399
#     4  11  23  45  71 100 135 176 230 281 338 407
#     4  11  26  46  66 101 142 179 230 280 345 413
#     4  12  26  44  68 100 141 182 226 290 341 404
#     4  12  23  44  73 101 134 185 231 281 344 408
#     4  11  24  47  70  97 141 182 226 283 344 405
#     4  11  23  43  69  98 135 187 219 279 349 403
#     4  10  21  40  67  98 132 174 233 269 337 410
#
# _framework density 22.121949999999998
#
# number of rings (size 3 to 8) (size 9 to 14) (size 15 to 20)
#    0.000    1.000    3.750    3.000    1.750    0.500 
#    4.500    3.750    0.000    0.000    0.000    0.000 
#    0.000    0.000    0.000    0.000    0.000    0.000 
#
# Total GULP energy -198224.239560 kJ/mol
# GULP energy per Si atom -12389.014972 kJ/mol
# Density = 2.207160 g / cm^3
# Si number density = 22.121950 Si / 1000 Ang^3
#
#
#
# Elastic Constant Matrix: (Units=GPa)
#
#
# Indices 1 2 3 4 5 6 
#
# 1 161.4632 28.2810 53.7410 -5.8915 -6.4597 -12.4404
# 2 28.2810 74.0570 36.3103 -9.6742 -12.6801 -3.4100
# 3 53.7410 36.3103 152.1952 13.0264 2.4628 -0.2461
# 4 -5.8915 -9.6742 13.0264 32.2057 2.9266 -2.5867
# 5 -6.4597 -12.6801 2.4628 2.9266 44.2452 -3.9483
# 6 -12.4404 -3.4100 -0.2461 -2.5867 -3.9483 17.8466
#
#
#
# Elastic Compliance Matrix: (Units=1/GPa)
#
#
# Indices 1 2 3 4 5 6 
#
# 1 0.007898 -0.000725 -0.002864 0.002738 0.001463 0.006048
# 2 -0.000725 0.018223 -0.004787 0.007203 0.005366 0.005142
# 3 -0.002864 -0.004787 0.009253 -0.005829 -0.002288 -0.004135
# 4 0.002738 0.007203 -0.005829 0.036673 0.001146 0.008774
# 5 0.001463 0.005366 -0.002288 0.001146 0.025094 0.007732
# 6 0.006048 0.005142 -0.004135 0.008774 0.007732 0.064157
#
#
# Mechanical properties :
#
#
# Convention : Reuss Voigt Hill
#
# Bulk Modulus (GPa) = 53.69788 69.37554 61.53671
# Shear Modulus (GPa) = 27.13588 36.81837 31.97712
#
# Velocity S-wave (km/s) = 3.50616 4.08405 3.80609
# Velocity P-wave (km/s) = 6.38100 7.32584 6.86968
#
# Compressibility (1/GPa) = 0.01862271
#
# Stress axis : x y z
#
# Youngs Moduli (GPa) = 126.61239 54.87492 108.07247
#
# Poissons Ratio (x) = 0.03979 0.30954
# Poissons Ratio (y) = 0.09180 0.51730
# Poissons Ratio (z) = 0.36264 0.26267
#
# Static dielectric constant tensor:
#      x y z
#    x 4.063460 -0.084760 -0.002960 
#    y -0.084760 4.074640 -0.007140 
#    z -0.002960 -0.007140 4.396000 
# 
# 
# High freq. dielectric constant tensor:
#      x y z
#    x 1.869500 -0.013800 0.005620 
#    y -0.013800 1.849760 0.010730 
#    z 0.005620 0.010730 1.894190 
# 
# From -- ./inp_files/419278.got.cif
#   From: 2010.06.25/outbox.cif.g09.slc.cpg/sg2_210_cif.got.tgz:419278.got - 2010.06.27 13:26:56.
