data_PCOD8013958
_publ_section_title
;
Structure prediction by ZEFSAII (Michael W. Deem and Ramdas Pophale) SiO2 
 PCOD8013958
Probable space group: P -1
;
_chemical_formula_sum "Si O2"
_cell_formula_units_Z 16
_cell_length_a 8.589929
_cell_length_b 14.894455
_cell_length_c 12.939858
_cell_angle_alpha 28.345803
_cell_angle_beta 98.138663
_cell_angle_gamma 104.570460
_cell_volume 749.194295
_symmetry_space_group_name_H-M "P -1"
_symmetry_group_IT_number 2
_symmetry_cell_setting 'triclinic'
loop_
_space_group_symop_operation_xyz
x,y,z
-x,-y,-z
loop_
_atom_site_type_symbol
_atom_site_label
_atom_site_fract_x
_atom_site_fract_y
_atom_site_fract_z
Si Si1 0.801846 0.701496 0.664705
Si Si2 0.197392 0.892678 0.844562
Si Si3 0.862872 0.398955 0.509355
Si Si4 0.942435 0.492581 0.195952
Si Si5 0.692685 0.031458 0.990829
Si Si6 0.455546 0.692423 0.020832
Si Si7 0.335025 0.378362 0.056198
Si Si8 0.620988 0.638184 0.293321
O O1 0.776572 0.749317 0.734596
O O2 0.964108 0.625737 0.748639
O O3 0.822760 0.898333 0.402344
O O4 0.648454 0.533176 0.777258
O O5 0.344696 0.842984 0.844181
O O6 0.231172 0.890124 0.971986
O O7 0.032329 0.724440 0.976682
O O8 0.935250 0.391793 0.409572
O O9 0.775934 0.180199 0.758315
O O10 0.733111 0.524944 0.361090
O O11 0.000000 0.500000 0.500000
O O12 0.762861 0.475774 0.150118
O O13 0.500000 0.000000 0.000000
O O14 0.730159 0.824298 0.178490
O O15 0.609877 0.751565 0.896380
O O16 0.517196 0.715895 0.119765
O O17 0.500000 0.500000 0.000000
O O18 0.500000 0.500000 0.500000
#
# Coordination Sequence:
#
# PCOD8013958 Si02
#       8
#     2   2   2   2   2   2   2   2
#     4  10  24  41  70  91 129 175 216 272 342 391
#     4  11  23  41  64  98 134 172 221 267 331 403
#     4  12  26  43  64  99 138 179 216 273 333 395
#     4  11  24  45  66  95 137 170 218 274 335 397
#     4  12  24  39  66  99 133 178 226 259 321 404
#     4  10  21  41  63  97 132 170 218 279 325 390
#     4  10  22  45  70  94 124 170 225 280 335 390
#     4  12  23  39  67  94 138 179 218 272 328 388
#
# _framework density 21.356278
#
# number of rings (size 3 to 8) (size 9 to 14) (size 15 to 20)
#    0.000    1.000    5.000    1.125    3.500    2.500 
#    0.000    0.000    0.000    0.000    0.000    0.000 
#    0.000    0.000    0.000    0.000    0.000    0.000 
#
# Total GULP energy -198428.218376 kJ/mol
# GULP energy per Si atom -12401.763648 kJ/mol
# Density = 2.130767 g / cm^3
# Si number density = 21.356278 Si / 1000 Ang^3
#
#
#
# Elastic Constant Matrix: (Units=GPa)
#
#
# Indices 1 2 3 4 5 6 
#
# 1 113.0979 40.0890 35.2399 5.2407 -0.0660 -5.1396
# 2 40.0890 84.8509 39.1020 8.8031 -0.6466 -6.2765
# 3 35.2399 39.1020 109.3178 -7.2520 -1.2195 -5.3508
# 4 5.2407 8.8031 -7.2520 42.3332 -5.3206 3.1829
# 5 -0.0660 -0.6466 -1.2195 -5.3206 31.9451 6.2839
# 6 -5.1396 -6.2765 -5.3508 3.1829 6.2839 39.7301
#
#
#
# Elastic Compliance Matrix: (Units=1/GPa)
#
#
# Indices 1 2 3 4 5 6 
#
# 1 0.011028 -0.004080 -0.002134 -0.000985 -0.000432 0.000642
# 2 -0.004080 0.016448 -0.004750 -0.003983 -0.000892 0.001891
# 3 -0.002134 -0.004750 0.011775 0.003368 0.000880 0.000150
# 4 -0.000985 -0.003983 0.003368 0.026017 0.005005 -0.003179
# 5 -0.000432 -0.000892 0.000880 0.005005 0.033282 -0.005743
# 6 0.000642 0.001891 0.000150 -0.003179 -0.005743 0.026735
#
#
# Mechanical properties :
#
#
# Convention : Reuss Voigt Hill
#
# Bulk Modulus (GPa) = 57.72729 59.56982 58.64856
# Shear Modulus (GPa) = 32.68230 35.65739 34.16985
#
# Velocity S-wave (km/s) = 3.91620 4.09056 4.00433
# Velocity P-wave (km/s) = 6.89479 7.08972 6.99293
#
# Compressibility (1/GPa) = 0.01732283
#
# Stress axis : x y z
#
# Youngs Moduli (GPa) = 90.68024 60.79619 84.92444
#
# Poissons Ratio (x) = 0.24807 0.18124
# Poissons Ratio (y) = 0.37001 0.40337
# Poissons Ratio (z) = 0.19352 0.28876
#
# Static dielectric constant tensor:
#      x y z
#    x 4.190840 -0.189440 -0.232790 
#    y -0.189440 4.074550 0.152610 
#    z -0.232790 0.152610 3.809890 
# 
# 
# High freq. dielectric constant tensor:
#      x y z
#    x 1.850230 -0.007880 -0.000630 
#    y -0.007880 1.841910 0.013550 
#    z -0.000630 0.013550 1.825840 
# 
# From -- ./inp_files/221642.got.cif
#   From: 2010.06.25/outbox.cif.g09.slc.cpg/sg2_111_cif.got.tgz:221642.got - 2010.06.27 13:26:56.
