data_PCOD8013086
_publ_section_title
;
Structure prediction by ZEFSAII (Michael W. Deem and Ramdas Pophale) SiO2 
 PCOD8013086
Probable space group: P -1
;
_chemical_formula_sum "Si O2"
_cell_formula_units_Z 16
_cell_length_a 15.356517
_cell_length_b 15.652524
_cell_length_c 6.403452
_cell_angle_alpha 71.000783
_cell_angle_beta 122.257383
_cell_angle_gamma 143.396810
_cell_volume 759.785207
_symmetry_space_group_name_H-M "P -1"
_symmetry_group_IT_number 2
_symmetry_cell_setting 'triclinic'
loop_
_space_group_symop_operation_xyz
x,y,z
-x,-y,-z
loop_
_atom_site_type_symbol
_atom_site_label
_atom_site_fract_x
_atom_site_fract_y
_atom_site_fract_z
Si Si1 0.571229 0.103588 0.313559
Si Si2 0.726104 0.070232 0.227587
Si Si3 0.727444 0.591622 0.784852
Si Si4 0.188771 0.199076 0.964749
Si Si5 0.174541 0.053382 0.414275
Si Si6 0.123457 0.587265 0.393548
Si Si7 0.979823 0.634025 0.862994
Si Si8 0.381267 0.333287 0.714517
O O1 0.686243 0.119237 0.305801
O O2 0.686881 0.266382 0.405993
O O3 0.500000 0.000000 0.500000
O O4 0.422729 0.043848 0.037249
O O5 0.894499 0.209460 0.208589
O O6 0.749320 0.993759 0.443717
O O7 0.848107 0.595674 0.865703
O O8 0.572464 0.438858 0.829713
O O9 0.658343 0.596988 0.492005
O O10 0.826943 0.728580 0.953032
O O11 0.352612 0.323282 0.933415
O O12 0.210687 0.120222 0.179311
O O13 0.025291 0.085965 0.698673
O O14 0.258110 0.170301 0.607748
O O15 0.116894 0.487837 0.343346
O O16 0.000000 0.500000 0.500000
O O17 0.080977 0.638248 0.140147
#
# Coordination Sequence:
#
# PCOD8013086 Si02
#       8
#     2   2   2   2   2   2   2   2
#     4  11  24  43  67  94 129 172 214 275 331 385
#     4  11  24  42  66  95 130 169 222 268 323 397
#     4  10  23  39  65  93 126 170 217 262 321 387
#     4  10  21  40  65  92 132 170 211 265 324 385
#     4  10  23  38  63  96 127 168 216 263 322 383
#     4  11  24  44  67  94 131 169 216 276 333 389
#     4  11  24  42  68  96 128 167 223 270 323 399
#     4  10  21  42  60  93 135 166 209 270 316 385
#
# _framework density 21.058584
#
# number of rings (size 3 to 8) (size 9 to 14) (size 15 to 20)
#    0.000    1.500    2.500    1.500    1.750    6.000 
#    0.000    2.500    0.000    0.000    0.000    0.000 
#    0.000    0.000    0.000    0.000    0.000    0.000 
#
# Total GULP energy -198478.352919 kJ/mol
# GULP energy per Si atom -12404.897057 kJ/mol
# Density = 2.101065 g / cm^3
# Si number density = 21.058584 Si / 1000 Ang^3
#
#
#
# Elastic Constant Matrix: (Units=GPa)
#
#
# Indices 1 2 3 4 5 6 
#
# 1 124.6985 59.9307 41.5241 -0.9521 0.0910 8.1320
# 2 59.9307 133.6665 48.5420 13.9586 -2.1434 6.5626
# 3 41.5241 48.5420 85.4705 2.2538 1.6776 -3.1335
# 4 -0.9521 13.9586 2.2538 35.1414 2.3853 -4.7708
# 5 0.0910 -2.1434 1.6776 2.3853 32.3589 -7.5559
# 6 8.1320 6.5626 -3.1335 -4.7708 -7.5559 37.2890
#
#
#
# Elastic Compliance Matrix: (Units=1/GPa)
#
#
# Indices 1 2 3 4 5 6 
#
# 1 0.011134 -0.003905 -0.003297 0.001851 -0.000705 -0.001924
# 2 -0.003905 0.011508 -0.004605 -0.004712 0.000897 -0.001982
# 3 -0.003297 -0.004605 0.016004 0.001145 -0.000530 0.002913
# 4 0.001851 -0.004712 0.001145 0.030982 -0.001693 0.004143
# 5 -0.000705 0.000897 -0.000530 -0.001693 0.032597 0.006340
# 6 -0.001924 -0.001982 0.002913 0.004143 0.006340 0.029645
#
#
# Mechanical properties :
#
#
# Convention : Reuss Voigt Hill
#
# Bulk Modulus (GPa) = 66.52147 71.53657 69.02902
# Shear Modulus (GPa) = 31.15358 33.88045 32.51701
#
# Velocity S-wave (km/s) = 3.85044 4.01542 3.93379
# Velocity P-wave (km/s) = 7.17114 7.45266 7.31325
#
# Compressibility (1/GPa) = 0.01503274
#
# Stress axis : x y z
#
# Youngs Moduli (GPa) = 89.81468 86.89575 62.48433
#
# Poissons Ratio (x) = 0.33931 0.20601
# Poissons Ratio (y) = 0.35071 0.28773
# Poissons Ratio (z) = 0.29612 0.40014
#
# Static dielectric constant tensor:
#      x y z
#    x 3.588830 0.090750 -0.136170 
#    y 0.090750 4.053500 0.061910 
#    z -0.136170 0.061910 3.898830 
# 
# 
# High freq. dielectric constant tensor:
#      x y z
#    x 1.814490 0.005930 -0.011500 
#    y 0.005930 1.841840 0.003010 
#    z -0.011500 0.003010 1.830060 
# 
# From -- ./inp_files/97824.got.cif
#   From: 2010.06.25/outbox.cif.g09.slc.cpg/sg2_49_cif.got.tgz:97824.got - 2010.06.27 13:26:56.
