data_PCOD8013075
_publ_section_title
;
Structure prediction by ZEFSAII (Michael W. Deem and Ramdas Pophale) SiO2 
 PCOD8013075
Probable space group: P -1
;
_chemical_formula_sum "Si O2"
_cell_formula_units_Z 16
_cell_length_a 11.549206
_cell_length_b 9.246214
_cell_length_c 19.119196
_cell_angle_alpha 37.427348
_cell_angle_beta 40.584967
_cell_angle_gamma 38.789601
_cell_volume 722.504860
_symmetry_space_group_name_H-M "P -1"
_symmetry_group_IT_number 2
_symmetry_cell_setting 'triclinic'
loop_
_space_group_symop_operation_xyz
x,y,z
-x,-y,-z
loop_
_atom_site_type_symbol
_atom_site_label
_atom_site_fract_x
_atom_site_fract_y
_atom_site_fract_z
Si Si1 0.917293 0.163884 0.181830
Si Si2 0.764829 0.830352 0.796191
Si Si3 0.452845 0.014291 0.758781
Si Si4 0.638475 0.430739 0.085872
Si Si5 0.804845 0.742328 0.465694
Si Si6 0.350393 0.880445 0.128109
Si Si7 0.515008 0.203601 0.511255
Si Si8 0.792102 0.468765 0.259387
O O1 0.834052 0.259327 0.106706
O O2 0.825719 0.410461 0.183526
O O3 0.870319 0.927547 0.319063
O O4 0.152274 0.055033 0.108436
O O5 0.001515 0.688337 0.733466
O O6 0.671195 0.922229 0.727470
O O7 0.703621 0.088700 0.776116
O O8 0.679951 0.635029 0.941405
O O9 0.434138 0.168174 0.636430
O O10 0.289457 0.217612 0.809595
O O11 0.410127 0.760807 0.867984
O O12 0.453118 0.577706 0.168906
O O13 0.673233 0.651194 0.510683
O O14 0.000000 0.500000 0.500000
O O15 0.665311 0.908758 0.529360
O O16 0.500000 0.000000 0.000000
O O17 0.629222 0.383568 0.397229
#
# Coordination Sequence:
#
# PCOD8013075 Si02
#       8
#     2   2   2   2   2   2   2   2
#     4  10  21  40  65  92 121 165 209 258 313 366
#     4  10  24  42  62  95 127 172 210 250 312 375
#     4  12  24  40  64  92 131 170 205 257 313 372
#     4  11  23  40  65  94 128 163 212 261 307 368
#     4  10  22  39  65  94 122 155 207 266 315 364
#     4   9  21  39  64  92 122 162 210 260 304 361
#     4  10  23  42  63  94 123 165 208 258 315 369
#     4  10  24  42  63  89 131 167 211 257 310 376
#
# _framework density 22.145181999999998
#
# number of rings (size 3 to 8) (size 9 to 14) (size 15 to 20)
#    0.000    1.750    1.250    1.500    1.750   12.500 
#    0.000    0.000    0.000    0.000    0.000    0.000 
#    0.000    0.000    0.000    0.000    0.000    0.000 
#
# Total GULP energy -198419.167172 kJ/mol
# GULP energy per Si atom -12401.197948 kJ/mol
# Density = 2.209478 g / cm^3
# Si number density = 22.145182 Si / 1000 Ang^3
#
#
#
# Elastic Constant Matrix: (Units=GPa)
#
#
# Indices 1 2 3 4 5 6 
#
# 1 143.3828 64.0310 19.7186 0.2094 -9.4420 -12.6872
# 2 64.0310 120.5982 35.1512 -9.8279 -23.2400 -1.9073
# 3 19.7186 35.1512 49.1690 1.3177 -14.2561 -1.0979
# 4 0.2094 -9.8279 1.3177 23.7386 -5.3060 -10.5337
# 5 -9.4420 -23.2400 -14.2561 -5.3060 33.6421 -2.7970
# 6 -12.6872 -1.9073 -1.0979 -10.5337 -2.7970 33.3380
#
#
#
# Elastic Compliance Matrix: (Units=1/GPa)
#
#
# Indices 1 2 3 4 5 6 
#
# 1 0.009535 -0.005225 -0.000284 -0.001185 -0.001002 0.002862
# 2 -0.005225 0.015423 -0.006809 0.009668 0.008027 0.002398
# 3 -0.000284 -0.006809 0.027223 -0.002919 0.006292 0.000004
# 4 -0.001185 0.009668 -0.002919 0.058713 0.016023 0.019902
# 5 -0.001002 0.008027 0.006292 0.016023 0.040912 0.008780
# 6 0.002862 0.002398 0.000004 0.019902 0.008780 0.038247
#
#
# Mechanical properties :
#
#
# Convention : Reuss Voigt Hill
#
# Bulk Modulus (GPa) = 36.30301 61.21685 48.75993
# Shear Modulus (GPa) = 22.33434 31.09369 26.71402
#
# Velocity S-wave (km/s) = 3.17920 3.75118 3.47697
# Velocity P-wave (km/s) = 5.46856 6.81654 6.17942
#
# Compressibility (1/GPa) = 0.02754592
#
# Stress axis : x y z
#
# Youngs Moduli (GPa) = 104.87127 64.83741 36.73424
#
# Poissons Ratio (x) = 0.33874 0.01043
# Poissons Ratio (y) = 0.54790 0.25013
# Poissons Ratio (z) = 0.02978 0.44149
#
# Static dielectric constant tensor:
#      x y z
#    x 4.270680 -0.079260 -0.137690 
#    y -0.079260 4.748860 -0.089630 
#    z -0.137690 -0.089630 3.805660 
# 
# 
# High freq. dielectric constant tensor:
#      x y z
#    x 1.883790 -0.004130 -0.014730 
#    y -0.004130 1.872510 -0.000580 
#    z -0.014730 -0.000580 1.855180 
# 
# From -- ./inp_files/588581.got.cif
#   From: 2010.06.25/outbox.cif.g09.slc.cpg/sg2_295_cif.got.tgz:588581.got - 2010.06.27 13:26:56.
