data_PCOD8013519
_publ_section_title
;
Structure prediction by ZEFSAII (Michael W. Deem and Ramdas Pophale) SiO2 
 PCOD8013519
Probable space group: P -1
;
_chemical_formula_sum "Si O2"
_cell_formula_units_Z 10
_cell_length_a 8.862567
_cell_length_b 5.178822
_cell_length_c 9.781945
_cell_angle_alpha 87.411121
_cell_angle_beta 71.867355
_cell_angle_gamma 93.523774
_cell_volume 424.885744
_symmetry_space_group_name_H-M "P -1"
_symmetry_group_IT_number 2
_symmetry_cell_setting 'triclinic'
loop_
_space_group_symop_operation_xyz
x,y,z
-x,-y,-z
loop_
_atom_site_type_symbol
_atom_site_label
_atom_site_fract_x
_atom_site_fract_y
_atom_site_fract_z
Si Si1 0.841325 0.311879 0.830483
Si Si2 0.337397 0.198558 0.146856
Si Si3 0.127437 0.451220 0.580475
Si Si4 0.331718 0.937984 0.884365
Si Si5 0.314300 0.985696 0.581031
O O1 0.775406 0.056294 0.768884
O O2 0.028461 0.375835 0.749087
O O3 0.745652 0.546585 0.795826
O O4 0.807943 0.258450 0.003030
O O5 0.506609 0.208304 0.175493
O O6 0.367496 0.180996 0.973283
O O7 0.000000 0.500000 0.500000
O O8 0.757125 0.294352 0.438071
O O9 0.233321 0.213815 0.517259
O O10 0.277180 0.030644 0.750653
O O11 0.500000 0.000000 0.500000
#
# Coordination Sequence:
#
# PCOD8013519 Si02
#       5
#     2   2   2   2   2
#     4  10  21  40  68  97 132 178 223 272 339 407
#     4   9  20  37  67 104 135 178 210 285 335 427
#     4  12  29  48  71  99 141 188 229 282 354 404
#     4   9  23  38  71  99 141 167 235 267 357 386
#     4  12  29  47  71 103 139 183 232 290 334 414
#
# _framework density 23.535736
#
# number of rings (size 3 to 8) (size 9 to 14) (size 15 to 20)
#    1.200    0.400    0.000    3.000    8.400    1.600 
#    0.000    0.000    0.000    0.000    0.000    0.000 
#    0.000    0.000    0.000    0.000    0.000    0.000 
#
# Total GULP energy -123959.719542 kJ/mol
# GULP energy per Si atom -12395.971954 kJ/mol
# Density = 2.348217 g / cm^3
# Si number density = 23.535736 Si / 1000 Ang^3
#
#
#
# Elastic Constant Matrix: (Units=GPa)
#
#
# Indices 1 2 3 4 5 6 
#
# 1 128.6345 54.4117 55.3419 -11.8040 -28.9243 -3.8689
# 2 54.4117 144.0432 31.4249 -27.8162 -13.8442 -11.1644
# 3 55.3419 31.4249 80.1067 -19.8872 -13.5544 0.4040
# 4 -11.8040 -27.8162 -19.8872 24.6184 1.2249 -4.4582
# 5 -28.9243 -13.8442 -13.5544 1.2249 43.6637 -2.4978
# 6 -3.8689 -11.1644 0.4040 -4.4582 -2.4978 45.7256
#
#
#
# Elastic Compliance Matrix: (Units=1/GPa)
#
#
# Indices 1 2 3 4 5 6 
#
# 1 0.013696 -0.003710 -0.008191 -0.004480 0.005490 0.000189
# 2 -0.003710 0.010765 0.001583 0.012244 0.001308 0.003566
# 3 -0.008191 0.001583 0.021582 0.015422 0.001405 0.001083
# 4 -0.004480 0.012244 0.015422 0.066206 0.004368 0.009168
# 5 0.005490 0.001308 0.001405 0.004368 0.027422 0.002695
# 6 0.000189 0.003566 0.001083 0.009168 0.002695 0.023788
#
#
# Mechanical properties :
#
#
# Convention : Reuss Voigt Hill
#
# Bulk Modulus (GPa) = 39.35899 70.57127 54.96513
# Shear Modulus (GPa) = 25.96544 36.90859 31.43702
#
# Velocity S-wave (km/s) = 3.32510 3.96434 3.65871
# Velocity P-wave (km/s) = 5.61258 7.14174 6.42283
#
# Compressibility (1/GPa) = 0.02540716
#
# Stress axis : x y z
#
# Youngs Moduli (GPa) = 73.01294 92.89573 46.33479
#
# Poissons Ratio (x) = 0.34461 0.37953
# Poissons Ratio (y) = 0.27085 -0.07334
# Poissons Ratio (z) = 0.59806 -0.14703
#
# Static dielectric constant tensor:
#      x y z
#    x 4.144700 -0.040600 -0.307160 
#    y -0.040600 4.073560 -0.084490 
#    z -0.307160 -0.084490 4.323220 
# 
# 
# High freq. dielectric constant tensor:
#      x y z
#    x 1.920550 -0.009260 -0.019270 
#    y -0.009260 1.929420 -0.006170 
#    z -0.019270 -0.006170 1.929480 
# 
# From -- ./inp_files/60224.got.cif
#   From: 2010.06.25/outbox.cif.g09.slc.cpg/sg2_31_cif.got.tgz:60224.got - 2010.06.27 13:26:56.
