data_PCOD8013944
_publ_section_title
;
Structure prediction by ZEFSAII (Michael W. Deem and Ramdas Pophale) SiO2 
 PCOD8013944
Probable space group: P -1
;
_chemical_formula_sum "Si O2"
_cell_formula_units_Z 16
_cell_length_a 6.703697
_cell_length_b 27.412469
_cell_length_c 11.369744
_cell_angle_alpha 28.729096
_cell_angle_beta 52.954701
_cell_angle_gamma 44.286259
_cell_volume 699.245077
_symmetry_space_group_name_H-M "P -1"
_symmetry_group_IT_number 2
_symmetry_cell_setting 'triclinic'
loop_
_space_group_symop_operation_xyz
x,y,z
-x,-y,-z
loop_
_atom_site_type_symbol
_atom_site_label
_atom_site_fract_x
_atom_site_fract_y
_atom_site_fract_z
Si Si1 0.580442 0.417305 0.794698
Si Si2 0.579164 0.257275 0.543808
Si Si3 0.626061 0.076762 0.748488
Si Si4 0.763700 0.102964 0.022810
Si Si5 0.357440 0.996446 0.353845
Si Si6 0.963395 0.463774 0.396080
Si Si7 0.271329 0.821548 0.874785
Si Si8 0.725293 0.404825 0.033692
O O1 0.832179 0.446256 0.602691
O O2 0.267249 0.525307 0.643879
O O3 0.598162 0.305385 0.959520
O O4 0.583311 0.402979 0.963549
O O5 0.462623 0.200523 0.608966
O O6 0.774633 0.170358 0.760227
O O7 0.794366 0.289392 0.327234
O O8 0.286539 0.359836 0.485387
O O9 0.577550 0.086916 0.605908
O O10 0.500000 0.000000 0.000000
O O11 0.953370 0.017916 0.798894
O O12 0.718916 0.190587 0.961626
O O13 0.525850 0.065838 0.165944
O O14 0.427777 0.899928 0.633979
O O15 0.036749 0.102569 0.235707
O O16 0.998127 0.579971 0.126570
O O17 0.500000 0.500000 0.000000
#
# Coordination Sequence:
#
# PCOD8013944 Si02
#       8
#     2   2   2   2   2   2   2   2
#     4  11  23  44  69  95 127 172 218 266 329 379
#     4  11  23  43  66  95 135 172 212 270 322 386
#     4  11  23  40  63  95 128 170 213 259 322 386
#     4  11  23  40  63  95 128 173 214 258 326 386
#     4  10  21  41  63  95 136 166 216 266 314 388
#     4  10  25  44  68  94 128 170 222 270 318 384
#     4  10  23  39  65  97 128 171 213 266 321 379
#     4  10  24  45  64  96 128 165 217 271 320 380
#
# _framework density 22.881819
#
# number of rings (size 3 to 8) (size 9 to 14) (size 15 to 20)
#    0.000    1.500    1.250    2.625    1.750    9.000 
#    2.250    0.000    0.000    0.000    0.000    0.000 
#    0.000    0.000    0.000    0.000    0.000    0.000 
#
# Total GULP energy -198212.510662 kJ/mol
# GULP energy per Si atom -12388.281916 kJ/mol
# Density = 2.282974 g / cm^3
# Si number density = 22.881819 Si / 1000 Ang^3
#
#
#
# Elastic Constant Matrix: (Units=GPa)
#
#
# Indices 1 2 3 4 5 6 
#
# 1 78.2373 28.2283 34.7493 8.2415 -6.2314 10.7378
# 2 28.2283 70.8288 19.5456 14.6934 -3.3674 22.3906
# 3 34.7493 19.5456 118.6927 30.6711 -24.7707 9.3896
# 4 8.2415 14.6934 30.6711 28.8027 5.8411 -3.5180
# 5 -6.2314 -3.3674 -24.7707 5.8411 30.9835 7.1304
# 6 10.7378 22.3906 9.3896 -3.5180 7.1304 37.7658
#
#
#
# Elastic Compliance Matrix: (Units=1/GPa)
#
#
# Indices 1 2 3 4 5 6 
#
# 1 0.017103 -0.008058 -0.007533 0.008914 -0.006002 0.003751
# 2 -0.008058 0.032500 0.016385 -0.041512 0.029870 -0.030558
# 3 -0.007533 0.016385 0.033480 -0.054356 0.044016 -0.029270
# 4 0.008914 -0.041512 -0.054356 0.136746 -0.086851 0.064728
# 5 -0.006002 0.029870 0.044016 -0.086851 0.098208 -0.053579
# 6 0.003751 -0.030558 -0.029270 0.064728 -0.053579 0.066953
#
#
# Mechanical properties :
#
#
# Convention : Reuss Voigt Hill
#
# Bulk Modulus (GPa) = 11.81040 48.08945 29.94993
# Shear Modulus (GPa) = 12.14699 31.85943 22.00321
#
# Velocity S-wave (km/s) = 2.30653 3.73546 3.10434
# Velocity P-wave (km/s) = 3.50231 6.29817 5.09574
#
# Compressibility (1/GPa) = 0.08467111
#
# Stress axis : x y z
#
# Youngs Moduli (GPa) = 58.46967 30.76918 29.86870
#
# Poissons Ratio (x) = 0.24793 0.22501
# Poissons Ratio (y) = 0.47114 -0.48940
# Poissons Ratio (z) = 0.44046 -0.50416
#
# Static dielectric constant tensor:
#      x y z
#    x 4.023090 0.052230 -0.182440 
#    y 0.052230 4.055700 0.348070 
#    z -0.182440 0.348070 4.571180 
# 
# 
# High freq. dielectric constant tensor:
#      x y z
#    x 1.902290 0.008950 -0.008420 
#    y 0.008950 1.897480 0.013820 
#    z -0.008420 0.013820 1.916750 
# 
# From -- ./inp_files/371402.got.cif
#   From: 2010.06.25/outbox.cif.g09.slc.cpg/sg2_186_cif.got.tgz:371402.got - 2010.06.27 13:26:56.
