data_PCOD8013043
_publ_section_title
;
Structure prediction by ZEFSAII (Michael W. Deem and Ramdas Pophale) SiO2 
 PCOD8013043
Probable space group: P -1
;
_chemical_formula_sum "Si O2"
_cell_formula_units_Z 14
_cell_length_a 9.113007
_cell_length_b 9.757792
_cell_length_c 15.800498
_cell_angle_alpha 44.000649
_cell_angle_beta 47.908855
_cell_angle_gamma 55.981342
_cell_volume 716.100830
_symmetry_space_group_name_H-M "P -1"
_symmetry_group_IT_number 2
_symmetry_cell_setting 'triclinic'
loop_
_space_group_symop_operation_xyz
x,y,z
-x,-y,-z
loop_
_atom_site_type_symbol
_atom_site_label
_atom_site_fract_x
_atom_site_fract_y
_atom_site_fract_z
Si Si1 0.654996 0.802821 0.025504
Si Si2 0.480231 0.785909 0.638482
Si Si3 0.535612 0.541412 0.334736
Si Si4 0.766395 0.264975 0.502378
Si Si5 0.320746 0.432890 0.049411
Si Si6 0.778965 0.818622 0.651435
Si Si7 0.919254 0.300749 0.089268
O O1 0.642122 0.676502 0.171133
O O2 0.608949 0.672610 0.019925
O O3 0.880387 0.863528 0.913182
O O4 0.500000 0.000000 0.000000
O O5 0.558378 0.625658 0.607514
O O6 0.617102 0.736819 0.690356
O O7 0.247434 0.773922 0.753503
O O8 0.500000 0.000000 0.500000
O O9 0.702389 0.438465 0.381609
O O10 0.355666 0.681170 0.388582
O O11 0.000261 0.243298 0.444837
O O12 0.718056 0.056270 0.576813
O O13 0.217703 0.279740 0.213406
O O14 0.500000 0.500000 0.000000
O O15 0.171931 0.639358 0.995044
O O16 0.000000 0.500000 0.000000
#
# Coordination Sequence:
#
# PCOD8013043 Si02
#       7
#     2   2   2   2   2   2   2
#     4  11  23  39  66  90 122 164 216 255 305 378
#     4  12  23  39  66  93 127 162 213 261 309 377
#     4  11  21  43  61  92 125 170 208 257 315 368
#     4  10  24  38  65  87 131 166 203 257 312 383
#     4  11  20  37  64  89 121 157 207 257 305 364
#     4  11  22  39  61  97 121 164 210 253 314 375
#     4  10  21  40  65  89 121 174 204 253 312 378
#
# _framework density 19.550319999999999
#
# number of rings (size 3 to 8) (size 9 to 14) (size 15 to 20)
#    0.000    1.143    5.714    1.714    2.000    1.714 
#    0.000    2.143    0.000    0.000    0.000    0.000 
#    0.000    0.000    0.000    0.000    0.000    0.000 
#
# Total GULP energy -173565.129662 kJ/mol
# GULP energy per Si atom -12397.509262 kJ/mol
# Density = 1.950582 g / cm^3
# Si number density = 19.550320 Si / 1000 Ang^3
#
#
#
# Elastic Constant Matrix: (Units=GPa)
#
#
# Indices 1 2 3 4 5 6 
#
# 1 131.9674 60.2883 40.3657 15.9328 -11.7545 -7.8961
# 2 60.2883 117.3723 33.6272 19.6728 -11.8276 -17.3750
# 3 40.3657 33.6272 108.9847 10.8322 -5.6295 -4.7372
# 4 15.9328 19.6728 10.8322 30.6733 -0.2503 3.4049
# 5 -11.7545 -11.8276 -5.6295 -0.2503 36.6212 1.2932
# 6 -7.8961 -17.3750 -4.7372 3.4049 1.2932 30.3478
#
#
#
# Elastic Compliance Matrix: (Units=1/GPa)
#
#
# Indices 1 2 3 4 5 6 
#
# 1 0.010639 -0.004288 -0.002334 -0.001949 0.001654 0.000097
# 2 -0.004288 0.013573 -0.001497 -0.006714 0.002482 0.007069
# 3 -0.002334 -0.001497 0.010702 -0.001645 0.000388 0.000374
# 4 -0.001949 -0.006714 -0.001645 0.039472 -0.002462 -0.008931
# 5 0.001654 0.002482 0.000388 -0.002462 0.028648 0.000967
# 6 0.000097 0.007069 0.000374 -0.008931 0.000967 0.038043
#
#
# Mechanical properties :
#
#
# Convention : Reuss Voigt Hill
#
# Bulk Modulus (GPa) = 53.54587 69.65409 61.59998
# Shear Modulus (GPa) = 30.57336 34.46470 32.51903
#
# Velocity S-wave (km/s) = 3.95882 4.20321 4.08284
# Velocity P-wave (km/s) = 6.95302 7.69814 7.33505
#
# Compressibility (1/GPa) = 0.01867558
#
# Stress axis : x y z
#
# Youngs Moduli (GPa) = 93.99298 73.67380 93.44250
#
# Poissons Ratio (x) = 0.31594 0.21809
# Poissons Ratio (y) = 0.40308 0.13988
# Poissons Ratio (z) = 0.21938 0.11029
#
# Static dielectric constant tensor:
#      x y z
#    x 4.632080 -0.380830 0.490540 
#    y -0.380830 3.735160 0.045760 
#    z 0.490540 0.045760 3.982440 
# 
# 
# High freq. dielectric constant tensor:
#      x y z
#    x 1.772290 -0.011200 0.009580 
#    y -0.011200 1.744080 0.000600 
#    z 0.009580 0.000600 1.773960 
# 
# From -- ./inp_files/175519.got.cif
#   From: 2010.06.25/outbox.cif.g09.slc.cpg/sg2_88_cif.got.tgz:175519.got - 2010.06.27 13:26:56.
