data_PCOD8013751
_publ_section_title
;
Structure prediction by ZEFSAII (Michael W. Deem and Ramdas Pophale) SiO2 
 PCOD8013751
Probable space group: P -1
;
_chemical_formula_sum "Si O2"
_cell_formula_units_Z 16
_cell_length_a 6.306380
_cell_length_b 15.741194
_cell_length_c 7.312593
_cell_angle_alpha 105.066494
_cell_angle_beta 118.749989
_cell_angle_gamma 70.225244
_cell_volume 594.731769
_symmetry_space_group_name_H-M "P -1"
_symmetry_group_IT_number 2
_symmetry_cell_setting 'triclinic'
loop_
_space_group_symop_operation_xyz
x,y,z
-x,-y,-z
loop_
_atom_site_type_symbol
_atom_site_label
_atom_site_fract_x
_atom_site_fract_y
_atom_site_fract_z
Si Si1 0.019936 0.778139 0.976037
Si Si2 0.294609 0.123106 0.822248
Si Si3 0.188671 0.115459 0.382128
Si Si4 0.189253 0.919373 0.311998
Si Si5 0.375901 0.843126 0.720983
Si Si6 0.402552 0.371314 0.296715
Si Si7 0.386783 0.482386 0.679584
Si Si8 0.867436 0.419524 0.044426
O O1 0.152549 0.675797 0.919426
O O2 0.798056 0.826326 0.765004
O O3 0.216188 0.841540 0.119215
O O4 0.878411 0.780706 0.116044
O O5 0.366927 0.128489 0.638670
O O6 0.102679 0.055702 0.719075
O O7 0.529953 0.098451 0.046324
O O8 0.908939 0.156022 0.360670
O O9 0.242178 0.009092 0.293990
O O10 0.389410 0.886455 0.545298
O O11 0.518247 0.736408 0.727600
O O12 0.293755 0.411832 0.473272
O O13 0.621089 0.418942 0.358400
O O14 0.152181 0.407251 0.086547
O O15 0.221226 0.498117 0.801796
O O16 0.679660 0.435341 0.807410
#
# Coordination Sequence:
#
# PCOD8013751 Si02
#       8
#     2   2   2   2   2   2   2   2
#     4  10  21  41  61  84 124 162 196 255 305 358
#     4   9  21  38  57  86 116 161 197 250 300 353
#     4  11  22  39  59  91 121 159 211 247 301 368
#     4   9  21  38  60  85 124 161 199 257 303 351
#     4  11  20  38  63  85 121 162 201 248 310 363
#     4  11  21  40  63  91 120 161 204 249 311 374
#     4  10  24  37  64  92 117 161 201 250 316 370
#     4  11  21  43  59  88 129 153 203 260 303 371
#
# _framework density 26.902882000000002
#
# number of rings (size 3 to 8) (size 9 to 14) (size 15 to 20)
#    0.750    1.000    1.250    4.125    0.000    2.000 
#    2.250    3.125    0.000    0.000    0.000    0.000 
#    0.000    0.000    0.000    0.000    0.000    0.000 
#
# Total GULP energy -198222.851803 kJ/mol
# GULP energy per Si atom -12388.928238 kJ/mol
# Density = 2.684165 g / cm^3
# Si number density = 26.902882 Si / 1000 Ang^3
#
#
#
# Elastic Constant Matrix: (Units=GPa)
#
#
# Indices 1 2 3 4 5 6 
#
# 1 29.1345 16.6553 13.3519 1.0512 -3.5054 -0.5266
# 2 16.6553 93.1124 27.7243 5.0623 8.0797 4.9700
# 3 13.3519 27.7243 151.1069 6.8839 0.5560 6.2220
# 4 1.0512 5.0623 6.8839 36.6835 -1.3704 2.1674
# 5 -3.5054 8.0797 0.5560 -1.3704 46.1171 -3.7113
# 6 -0.5266 4.9700 6.2220 2.1674 -3.7113 33.2877
#
#
#
# Elastic Compliance Matrix: (Units=1/GPa)
#
#
# Indices 1 2 3 4 5 6 
#
# 1 0.039993 -0.006988 -0.002388 0.000281 0.004511 0.002607
# 2 -0.006988 0.012899 -0.001598 -0.001273 -0.002969 -0.001986
# 3 -0.002388 -0.001598 0.007213 -0.001004 -0.000106 -0.001094
# 4 0.000281 -0.001273 -0.001004 0.027730 0.000975 -0.001315
# 5 0.004511 -0.002969 -0.000106 0.000975 0.022820 0.003015
# 6 0.002607 -0.001986 -0.001094 -0.001315 0.003015 0.031005
#
#
# Mechanical properties :
#
#
# Convention : Reuss Voigt Hill
#
# Bulk Modulus (GPa) = 26.20919 43.20185 34.70552
# Shear Modulus (GPa) = 28.35613 37.59250 32.97431
#
# Velocity S-wave (km/s) = 3.25009 3.74216 3.50477
# Velocity P-wave (km/s) = 4.88338 5.89618 5.41352
#
# Compressibility (1/GPa) = 0.03815455
#
# Stress axis : x y z
#
# Youngs Moduli (GPa) = 25.00439 77.52812 138.63288
#
# Poissons Ratio (x) = 0.54180 0.33110
# Poissons Ratio (y) = 0.17474 0.22158
# Poissons Ratio (z) = 0.05972 0.12392
#
# Static dielectric constant tensor:
#      x y z
#    x 4.871980 -0.030850 0.248470 
#    y -0.030850 4.541450 0.009660 
#    z 0.248470 0.009660 5.402970 
# 
# 
# High freq. dielectric constant tensor:
#      x y z
#    x 2.092400 -0.010360 0.020280 
#    y -0.010360 2.061030 0.006340 
#    z 0.020280 0.006340 2.099910 
# 
# From -- ./inp_files/207999.got.cif
#   From: 2010.06.25/outbox.cif.g09.slc.cpg/sg2_104_cif.got.tgz:207999.got - 2010.06.27 13:26:56.
