data_PCOD8013810
_publ_section_title
;
Structure prediction by ZEFSAII (Michael W. Deem and Ramdas Pophale) SiO2 
 PCOD8013810
Probable space group: P -1
;
_chemical_formula_sum "Si O2"
_cell_formula_units_Z 16
_cell_length_a 20.250897
_cell_length_b 17.806851
_cell_length_c 9.723744
_cell_angle_alpha 27.701481
_cell_angle_beta 38.458925
_cell_angle_gamma 28.813920
_cell_volume 785.196678
_symmetry_space_group_name_H-M "P -1"
_symmetry_group_IT_number 2
_symmetry_cell_setting 'triclinic'
loop_
_space_group_symop_operation_xyz
x,y,z
-x,-y,-z
loop_
_atom_site_type_symbol
_atom_site_label
_atom_site_fract_x
_atom_site_fract_y
_atom_site_fract_z
Si Si1 0.288491 0.937711 0.910085
Si Si2 0.421564 0.433364 0.912282
Si Si3 0.461763 0.328733 0.710839
Si Si4 0.221897 0.643312 0.412697
Si Si5 0.056907 0.369504 0.480145
Si Si6 0.997628 0.638633 0.892052
Si Si7 0.786959 0.474863 0.678977
Si Si8 0.717461 0.907363 0.038397
O O1 0.452356 0.782838 0.866941
O O2 0.228697 0.820864 0.160251
O O3 0.208494 0.148271 0.609524
O O4 0.266207 0.992782 0.018034
O O5 0.396334 0.390026 0.870775
O O6 0.457402 0.585876 0.594419
O O7 0.284362 0.542972 0.046637
O O8 0.340521 0.420356 0.650913
O O9 0.572415 0.078468 0.922858
O O10 0.238725 0.609288 0.276868
O O11 0.075762 0.719995 0.578208
O O12 0.950354 0.332494 0.666907
O O13 0.000000 0.500000 0.500000
O O14 0.067774 0.502140 0.137030
O O15 0.840360 0.839213 0.847528
O O16 0.000000 0.500000 0.000000
O O17 0.723953 0.713747 0.380418
#
# Coordination Sequence:
#
# PCOD8013810 Si02
#       8
#     2   2   2   2   2   2   2   2
#     4  10  22  41  63  90 119 157 208 244 294 363
#     4   9  21  41  61  89 125 155 200 252 292 357
#     4   9  21  39  62  90 119 159 202 244 300 357
#     4  11  24  41  61  91 125 158 199 247 304 356
#     4  11  22  42  64  88 120 161 203 246 299 357
#     4  11  22  43  61  87 129 156 193 259 299 349
#     4  11  23  40  60  90 127 155 196 255 298 353
#     4  10  21  41  62  89 123 156 204 248 291 359
#
# _framework density 20.37706
#
# number of rings (size 3 to 8) (size 9 to 14) (size 15 to 20)
#    0.000    1.750    5.000    0.750    1.750    7.500 
#    4.500    0.000    0.000    0.000    0.000    0.000 
#    0.000    0.000    0.000    0.000    0.000    0.000 
#
# Total GULP energy -198395.692993 kJ/mol
# GULP energy per Si atom -12399.730812 kJ/mol
# Density = 2.033068 g / cm^3
# Si number density = 20.377060 Si / 1000 Ang^3
#
#
#
# Elastic Constant Matrix: (Units=GPa)
#
#
# Indices 1 2 3 4 5 6 
#
# 1 72.9258 2.7150 -0.6674 2.4923 3.2146 19.8807
# 2 2.7150 59.3955 17.0741 12.3342 7.5373 10.8831
# 3 -0.6674 17.0741 51.4258 11.1406 8.9929 8.0023
# 4 2.4923 12.3342 11.1406 40.8753 -3.8451 0.1212
# 5 3.2146 7.5373 8.9929 -3.8451 34.4129 -5.7163
# 6 19.8807 10.8831 8.0023 0.1212 -5.7163 30.1881
#
#
#
# Elastic Compliance Matrix: (Units=1/GPa)
#
#
# Indices 1 2 3 4 5 6 
#
# 1 0.018055 0.002300 0.003511 -0.003265 -0.005924 -0.014759
# 2 0.002300 0.021531 -0.003115 -0.006364 -0.006429 -0.009643
# 3 0.003511 -0.003115 0.024953 -0.006846 -0.008490 -0.009384
# 4 -0.003265 -0.006364 -0.006846 0.029182 0.008021 0.007661
# 5 -0.005924 -0.006429 -0.008490 0.008021 0.036691 0.015385
# 6 -0.014759 -0.009643 -0.009384 0.007661 0.015385 0.051691
#
#
# Mechanical properties :
#
#
# Convention : Reuss Voigt Hill
#
# Bulk Modulus (GPa) = 14.30004 24.66562 19.48283
# Shear Modulus (GPa) = 24.99702 32.07029 28.53365
#
# Velocity S-wave (km/s) = 3.50626 3.97147 3.74610
# Velocity P-wave (km/s) = 4.83991 5.75856 5.31911
#
# Compressibility (1/GPa) = 0.06992987
#
# Stress axis : x y z
#
# Youngs Moduli (GPa) = 55.38551 46.44446 40.07479
#
# Poissons Ratio (x) = -0.10680 -0.14069
# Poissons Ratio (y) = -0.12736 0.12484
# Poissons Ratio (z) = -0.19444 0.14468
#
# Static dielectric constant tensor:
#      x y z
#    x 3.870410 -0.257040 0.076760 
#    y -0.257040 4.217540 0.245420 
#    z 0.076760 0.245420 3.828280 
# 
# 
# High freq. dielectric constant tensor:
#      x y z
#    x 1.800290 -0.003410 0.006780 
#    y -0.003410 1.797300 -0.002190 
#    z 0.006780 -0.002190 1.783380 
# 
# From -- ./inp_files/329273.got.cif
#   From: 2010.06.25/outbox.cif.g09.slc.cpg/sg2_165_cif.got.tgz:329273.got - 2010.06.27 13:26:56.
