data_PCOD8013554
_publ_section_title
;
Structure prediction by ZEFSAII (Michael W. Deem and Ramdas Pophale) SiO2 
 PCOD8013554
Probable space group: P -1
;
_chemical_formula_sum "Si O2"
_cell_formula_units_Z 12
_cell_length_a 7.632239
_cell_length_b 11.243859
_cell_length_c 14.419082
_cell_angle_alpha 28.799419
_cell_angle_beta 104.609369
_cell_angle_gamma 88.498032
_cell_volume 489.018209
_symmetry_space_group_name_H-M "P -1"
_symmetry_group_IT_number 2
_symmetry_cell_setting 'triclinic'
loop_
_space_group_symop_operation_xyz
x,y,z
-x,-y,-z
loop_
_atom_site_type_symbol
_atom_site_label
_atom_site_fract_x
_atom_site_fract_y
_atom_site_fract_z
Si Si1 0.528097 0.227556 0.244467
Si Si2 0.261355 0.158555 0.755946
Si Si3 0.299748 0.913175 0.441391
Si Si4 0.290308 0.685130 0.404232
Si Si5 0.240719 0.161926 0.958820
Si Si6 0.938549 0.840819 0.456175
O O1 0.542688 0.266573 0.329651
O O2 0.331985 0.177382 0.236096
O O3 0.744528 0.943072 0.431077
O O4 0.500000 0.500000 0.000000
O O5 0.169636 0.508836 0.504166
O O6 0.222606 0.077582 0.908415
O O7 0.137122 0.093865 0.705665
O O8 0.512265 0.962865 0.898121
O O9 0.356757 0.693198 0.513515
O O10 0.056172 0.020609 0.365323
O O11 0.500000 0.500000 0.500000
O O12 0.153698 0.005731 0.121058
O O13 0.102982 0.502203 0.729619
#
# Coordination Sequence:
#
# PCOD8013554 Si02
#       6
#     2   2   2   2   2   2
#     4  11  28  51  75  99 143 191 239 309 358 406
#     4  10  22  43  66 108 150 186 226 293 351 423
#     4  11  26  49  70 109 141 180 249 295 348 436
#     4  10  21  40  69 102 145 184 226 282 355 421
#     4  10  22  40  69 103 152 187 228 288 351 421
#     4  12  25  47  76 107 143 187 245 288 359 432
#
# _framework density 24.538965000000001
#
# number of rings (size 3 to 8) (size 9 to 14) (size 15 to 20)
#    0.000    1.333    1.667    3.000    4.667    1.333 
#    6.000    0.000    0.000    0.000    0.000    0.000 
#    0.000    0.000    0.000    0.000    0.000    0.000 
#
# Total GULP energy -148789.894317 kJ/mol
# GULP energy per Si atom -12399.157860 kJ/mol
# Density = 2.448311 g / cm^3
# Si number density = 24.538965 Si / 1000 Ang^3
#
#
#
# Elastic Constant Matrix: (Units=GPa)
#
#
# Indices 1 2 3 4 5 6 
#
# 1 126.6415 46.4797 51.1295 1.7974 -24.9635 26.7637
# 2 46.4797 99.8043 31.0637 8.8353 -9.5582 14.6566
# 3 51.1295 31.0637 135.3282 -4.8208 -17.4778 6.6254
# 4 1.7974 8.8353 -4.8208 29.1339 -4.8352 4.8598
# 5 -24.9635 -9.5582 -17.4778 -4.8352 39.2938 1.3798
# 6 26.7637 14.6566 6.6254 4.8598 1.3798 51.9529
#
#
#
# Elastic Compliance Matrix: (Units=1/GPa)
#
#
# Indices 1 2 3 4 5 6 
#
# 1 0.012844 -0.003853 -0.002804 0.001895 0.006403 -0.005519
# 2 -0.003853 0.012761 -0.001623 -0.003810 -0.000498 -0.001039
# 3 -0.002804 -0.001623 0.009171 0.002472 0.002192 0.000443
# 4 0.001895 -0.003810 0.002472 0.037435 0.006120 -0.003881
# 5 0.006403 -0.000498 0.002192 0.006120 0.031294 -0.004841
# 6 -0.005519 -0.001039 0.000443 -0.003881 -0.004841 0.022820
#
#
# Mechanical properties :
#
#
# Convention : Reuss Voigt Hill
#
# Bulk Modulus (GPa) = 54.89318 68.79109 61.84214
# Shear Modulus (GPa) = 33.56711 39.61620 36.59165
#
# Velocity S-wave (km/s) = 3.70254 4.02234 3.86575
# Velocity P-wave (km/s) = 6.37940 7.04745 6.72173
#
# Compressibility (1/GPa) = 0.01821720
#
# Stress axis : x y z
#
# Youngs Moduli (GPa) = 77.85764 78.36257 109.04360
#
# Poissons Ratio (x) = 0.30193 0.30572
# Poissons Ratio (y) = 0.29999 0.17694
# Poissons Ratio (z) = 0.21828 0.12716
#
# Static dielectric constant tensor:
#      x y z
#    x 5.124420 -0.058300 -0.402050 
#    y -0.058300 4.496480 0.076200 
#    z -0.402050 0.076200 4.627050 
# 
# 
# High freq. dielectric constant tensor:
#      x y z
#    x 1.991960 -0.003280 -0.009890 
#    y -0.003280 1.976980 0.015290 
#    z -0.009890 0.015290 1.960260 
# 
# From -- ./inp_files/496052.got.cif
#   From: 2010.06.25/outbox.cif.g09.slc.cpg/sg2_249_cif.got.tgz:496052.got - 2010.06.27 13:26:56.
