data_PCOD8013197
_publ_section_title
;
Structure prediction by ZEFSAII (Michael W. Deem and Ramdas Pophale) SiO2 
 PCOD8013197
Probable space group: P -1
;
_chemical_formula_sum "Si O2"
_cell_formula_units_Z 16
_cell_length_a 14.047291
_cell_length_b 15.217389
_cell_length_c 23.594687
_cell_angle_alpha 30.016493
_cell_angle_beta 18.536138
_cell_angle_gamma 29.860075
_cell_volume 767.380536
_symmetry_space_group_name_H-M "P -1"
_symmetry_group_IT_number 2
_symmetry_cell_setting 'triclinic'
loop_
_space_group_symop_operation_xyz
x,y,z
-x,-y,-z
loop_
_atom_site_type_symbol
_atom_site_label
_atom_site_fract_x
_atom_site_fract_y
_atom_site_fract_z
Si Si1 0.707998 0.726538 0.889512
Si Si2 0.802087 0.595195 0.361971
Si Si3 0.894530 0.359042 0.721919
Si Si4 0.796271 0.779980 0.682116
Si Si5 0.456641 0.829864 0.586076
Si Si6 0.309897 0.658908 0.868138
Si Si7 0.194708 0.862598 0.591747
Si Si8 0.850417 0.187563 0.013115
O O1 0.799302 0.799899 0.737056
O O2 0.853238 0.831196 0.796721
O O3 0.330692 0.775252 0.084151
O O4 0.851272 0.504204 0.939171
O O5 0.432616 0.677523 0.534499
O O6 0.984965 0.666359 0.268172
O O7 0.891423 0.375386 0.428129
O O8 0.924601 0.681121 0.190359
O O9 0.688630 0.570238 0.710451
O O10 0.196606 0.309333 0.539139
O O11 0.492596 0.716233 0.872839
O O12 0.779899 0.967671 0.554920
O O13 0.249875 0.735920 0.794984
O O14 0.271840 0.890982 0.597608
O O15 0.500000 0.000000 0.500000
O O16 0.191474 0.826073 0.887232
O O17 0.000000 0.000000 0.000000
#
# Coordination Sequence:
#
# PCOD8013197 Si02
#       8
#     2   2   2   2   2   2   2   2
#     4  10  22  40  64  90 129 170 212 258 324 382
#     4  11  20  38  64  92 126 165 209 266 321 370
#     4   9  20  39  66  90 119 165 213 259 319 370
#     4  12  20  39  63  92 134 167 207 266 326 376
#     4  11  24  41  64  95 126 163 217 273 312 369
#     4  10  21  40  66  89 128 168 213 256 320 377
#     4  11  26  41  60  98 129 168 218 260 314 388
#     4  12  20  35  66 101 125 158 213 271 314 373
#
# _framework density 20.850149999999999
#
# number of rings (size 3 to 8) (size 9 to 14) (size 15 to 20)
#    0.750    0.500    5.000    1.875    1.750    1.000 
#    0.000    1.875    0.000    0.000    0.000    0.000 
#    0.000    0.000    0.000    0.000    0.000    0.000 
#
# Total GULP energy -198251.639286 kJ/mol
# GULP energy per Si atom -12390.727455 kJ/mol
# Density = 2.080269 g / cm^3
# Si number density = 20.850150 Si / 1000 Ang^3
#
#
#
# Elastic Constant Matrix: (Units=GPa)
#
#
# Indices 1 2 3 4 5 6 
#
# 1 121.9047 35.9160 61.6872 -7.2077 17.3061 8.9014
# 2 35.9160 89.7536 15.9116 3.0728 19.2925 5.6567
# 3 61.6872 15.9116 72.7170 -5.3234 12.1700 2.9663
# 4 -7.2077 3.0728 -5.3234 24.0075 -2.3306 7.7618
# 5 17.3061 19.2925 12.1700 -2.3306 39.4980 -2.5812
# 6 8.9014 5.6567 2.9663 7.7618 -2.5812 27.2347
#
#
#
# Elastic Compliance Matrix: (Units=1/GPa)
#
#
# Indices 1 2 3 4 5 6 
#
# 1 0.016344 -0.003887 -0.012284 0.003979 -0.001536 -0.004476
# 2 -0.003887 0.013920 0.001059 -0.002787 -0.005683 -0.001481
# 3 -0.012284 0.001059 0.024431 0.001165 -0.002557 0.000560
# 4 0.003979 -0.002787 0.001165 0.048261 0.001160 -0.014493
# 5 -0.001536 -0.005683 -0.002557 0.001160 0.029915 0.004466
# 6 -0.004476 -0.001481 0.000560 -0.014493 0.004466 0.042981
#
#
# Mechanical properties :
#
#
# Convention : Reuss Voigt Hill
#
# Bulk Modulus (GPa) = 40.86307 56.82276 48.84292
# Shear Modulus (GPa) = 23.33907 29.53876 26.43891
#
# Velocity S-wave (km/s) = 3.34933 3.76801 3.56482
# Velocity P-wave (km/s) = 5.88204 6.80020 6.35771
#
# Compressibility (1/GPa) = 0.02447197
#
# Stress axis : x y z
#
# Youngs Moduli (GPa) = 61.18334 71.84130 40.93109
#
# Poissons Ratio (x) = 0.27922 0.50279
# Poissons Ratio (y) = 0.23780 -0.04334
# Poissons Ratio (z) = 0.75157 -0.07607
#
# Static dielectric constant tensor:
#      x y z
#    x 3.729450 -0.061430 0.178230 
#    y -0.061430 3.694340 0.152000 
#    z 0.178230 0.152000 3.743050 
# 
# 
# High freq. dielectric constant tensor:
#      x y z
#    x 1.805920 -0.001070 0.014310 
#    y -0.001070 1.807470 0.001670 
#    z 0.014310 0.001670 1.800210 
# 
# From -- ./inp_files/612105.got.cif
#   From: 2010.06.25/outbox.cif.g09.slc.cpg/sg2_307_cif.got.tgz:612105.got - 2010.06.27 13:26:56.
