data_PCOD8013998
_publ_section_title
;
Structure prediction by ZEFSAII (Michael W. Deem and Ramdas Pophale) SiO2 
 PCOD8013998
Probable space group: P -1
;
_chemical_formula_sum "Si O2"
_cell_formula_units_Z 14
_cell_length_a 15.440528
_cell_length_b 12.412605
_cell_length_c 8.929763
_cell_angle_alpha 130.748332
_cell_angle_beta 118.375710
_cell_angle_gamma 30.801395
_cell_volume 647.632494
_symmetry_space_group_name_H-M "P -1"
_symmetry_group_IT_number 2
_symmetry_cell_setting 'triclinic'
loop_
_space_group_symop_operation_xyz
x,y,z
-x,-y,-z
loop_
_atom_site_type_symbol
_atom_site_label
_atom_site_fract_x
_atom_site_fract_y
_atom_site_fract_z
Si Si1 0.948474 0.423726 0.796165
Si Si2 0.669636 0.522711 0.357716
Si Si3 0.758439 0.105153 0.991208
Si Si4 0.943118 0.896750 0.645907
Si Si5 0.458329 0.249154 0.846811
Si Si6 0.585775 0.857651 0.786515
Si Si7 0.090041 0.749486 0.132665
O O1 0.783990 0.670883 0.790912
O O2 0.901698 0.346258 0.793207
O O3 0.087186 0.198307 0.582935
O O4 0.000000 0.500000 0.000000
O O5 0.549948 0.733298 0.322197
O O6 0.587160 0.686485 0.592213
O O7 0.868335 0.338525 0.334599
O O8 0.661980 0.362135 0.201826
O O9 0.619838 0.148295 0.950722
O O10 0.798908 0.066338 0.811303
O O11 0.936087 0.866010 0.010213
O O12 0.941426 0.045099 0.683481
O O13 0.489639 0.052051 0.748939
O O14 0.274941 0.522324 0.000879
O O15 0.500000 0.000000 0.000000
#
# Coordination Sequence:
#
# PCOD8013998 Si02
#       7
#     2   2   2   2   2   2   2
#     4  11  24  43  63  90 127 170 211 253 312 371
#     4  10  21  41  64  90 125 165 204 258 316 363
#     4  11  22  41  66  99 123 155 218 260 305 376
#     4  10  21  41  67  92 124 166 206 261 313 370
#     4  12  22  40  66  95 125 167 206 256 317 366
#     4  11  24  42  60  87 130 169 207 249 311 376
#     4  11  21  42  67  90 129 164 204 263 316 360
#
# _framework density 21.6172
#
# number of rings (size 3 to 8) (size 9 to 14) (size 15 to 20)
#    0.000    1.143    4.286    3.000    0.000    1.143 
#    2.571    2.857    0.000    0.000    0.000    0.000 
#    0.000    0.000    0.000    0.000    0.000    0.000 
#
# Total GULP energy -173498.838167 kJ/mol
# GULP energy per Si atom -12392.774155 kJ/mol
# Density = 2.156800 g / cm^3
# Si number density = 21.617200 Si / 1000 Ang^3
#
#
#
# Elastic Constant Matrix: (Units=GPa)
#
#
# Indices 1 2 3 4 5 6 
#
# 1 54.2992 23.9771 28.3028 10.5113 5.0000 -5.4120
# 2 23.9771 106.7687 29.2610 6.8822 5.3156 2.8066
# 3 28.3028 29.2610 164.8473 18.6444 11.9671 -10.9174
# 4 10.5113 6.8822 18.6444 23.9586 -0.3700 -1.2801
# 5 5.0000 5.3156 11.9671 -0.3700 26.6651 -1.2694
# 6 -5.4120 2.8066 -10.9174 -1.2801 -1.2694 32.3905
#
#
#
# Elastic Compliance Matrix: (Units=1/GPa)
#
#
# Indices 1 2 3 4 5 6 
#
# 1 0.023280 -0.004154 -0.002036 -0.007306 -0.002574 0.003174
# 2 -0.004154 0.010763 -0.001218 -0.000447 -0.000926 -0.002091
# 3 -0.002036 -0.001218 0.007469 -0.004504 -0.002695 0.001999
# 4 -0.007306 -0.000447 -0.004504 0.048608 0.004126 -0.000617
# 5 -0.002574 -0.000926 -0.002695 0.004126 0.039458 0.000451
# 6 0.003174 -0.002091 0.001999 -0.000617 0.000451 0.032252
#
#
# Mechanical properties :
#
#
# Convention : Reuss Voigt Hill
#
# Bulk Modulus (GPa) = 37.45989 54.33299 45.89644
# Shear Modulus (GPa) = 26.94767 32.89448 29.92107
#
# Velocity S-wave (km/s) = 3.53453 3.90510 3.72443
# Velocity P-wave (km/s) = 5.83297 6.74699 6.30656
#
# Compressibility (1/GPa) = 0.02669522
#
# Stress axis : x y z
#
# Youngs Moduli (GPa) = 42.95562 92.91412 133.87806
#
# Poissons Ratio (x) = 0.38599 0.27261
# Poissons Ratio (y) = 0.17845 0.16304
# Poissons Ratio (z) = 0.08747 0.11316
#
# Static dielectric constant tensor:
#      x y z
#    x 3.529910 0.108750 0.045660 
#    y 0.108750 4.177420 0.058650 
#    z 0.045660 0.058650 4.193660 
# 
# 
# High freq. dielectric constant tensor:
#      x y z
#    x 1.813290 0.007440 0.003280 
#    y 0.007440 1.864770 0.006130 
#    z 0.003280 0.006130 1.861210 
# 
# From -- ./inp_files/154311.got.cif
#   From: 2010.06.25/outbox.cif.g09.slc.cpg/sg2_78_cif.got.tgz:154311.got - 2010.06.27 13:26:56.
