data_PCOD8013846
_publ_section_title
;
Structure prediction by ZEFSAII (Michael W. Deem and Ramdas Pophale) SiO2 
 PCOD8013846
Probable space group: P -1
;
_chemical_formula_sum "Si O2"
_cell_formula_units_Z 14
_cell_length_a 8.518603
_cell_length_b 11.165315
_cell_length_c 10.927876
_cell_angle_alpha 140.272228
_cell_angle_beta 106.806313
_cell_angle_gamma 89.498514
_cell_volume 595.917091
_symmetry_space_group_name_H-M "P -1"
_symmetry_group_IT_number 2
_symmetry_cell_setting 'triclinic'
loop_
_space_group_symop_operation_xyz
x,y,z
-x,-y,-z
loop_
_atom_site_type_symbol
_atom_site_label
_atom_site_fract_x
_atom_site_fract_y
_atom_site_fract_z
Si Si1 0.116389 0.824210 0.097670
Si Si2 0.355807 0.735859 0.473547
Si Si3 0.847738 0.584945 0.013325
Si Si4 0.917605 0.527596 0.629418
Si Si5 0.486843 0.822425 0.229110
Si Si6 0.657910 0.592629 0.224666
Si Si7 0.270325 0.253877 0.385312
O O1 0.290751 0.822778 0.208094
O O2 0.147992 0.024435 0.187317
O O3 0.949177 0.790460 0.123004
O O4 0.072481 0.643902 0.848389
O O5 0.306332 0.572252 0.224387
O O6 0.202358 0.679189 0.496571
O O7 0.528956 0.725230 0.569320
O O8 0.383813 0.963079 0.617564
O O9 0.785461 0.632570 0.167992
O O10 0.000000 0.500000 0.000000
O O11 0.791221 0.655378 0.675062
O O12 0.000000 0.500000 0.500000
O O13 0.560873 0.760079 0.323465
O O14 0.478765 0.638408 0.990134
O O15 0.758183 0.634387 0.408723
#
# Coordination Sequence:
#
# PCOD8013846 Si02
#       7
#     2   2   2   2   2   2   2
#     4  10  23  42  65  91 129 169 207 261 314 365
#     4  10  24  42  66  89 126 171 208 258 317 371
#     4  11  23  39  61  92 134 163 201 258 317 375
#     4  11  24  44  66  93 125 165 217 264 308 367
#     4  10  21  41  62  94 123 164 212 252 313 372
#     4  11  23  37  65  97 130 161 210 257 311 381
#     4  11  24  42  66  92 127 171 211 254 312 380
#
# _framework density 23.493203999999999
#
# number of rings (size 3 to 8) (size 9 to 14) (size 15 to 20)
#    0.000    1.429    1.429    3.429    4.000    3.429 
#    0.000    7.857    0.000    0.000    0.000    0.000 
#    0.000    0.000    0.000    0.000    0.000    0.000 
#
# Total GULP energy -173527.846779 kJ/mol
# GULP energy per Si atom -12394.846198 kJ/mol
# Density = 2.343973 g / cm^3
# Si number density = 23.493204 Si / 1000 Ang^3
#
#
#
# Elastic Constant Matrix: (Units=GPa)
#
#
# Indices 1 2 3 4 5 6 
#
# 1 63.9516 29.6285 33.6880 11.3876 6.3378 24.5372
# 2 29.6285 87.3003 32.5281 23.3225 13.6145 8.9994
# 3 33.6880 32.5281 90.2353 25.6402 10.6274 24.0981
# 4 11.3876 23.3225 25.6402 47.2453 7.7348 2.3491
# 5 6.3378 13.6145 10.6274 7.7348 34.8874 -1.8061
# 6 24.5372 8.9994 24.0981 2.3491 -1.8061 50.6128
#
#
#
# Elastic Compliance Matrix: (Units=1/GPa)
#
#
# Indices 1 2 3 4 5 6 
#
# 1 0.023913 -0.005325 -0.004576 -0.000014 -0.001310 -0.008514
# 2 -0.005325 0.015801 -0.002179 -0.004819 -0.003419 0.000911
# 3 -0.004576 -0.002179 0.017113 -0.006455 -0.002376 -0.005327
# 4 -0.000014 -0.004819 -0.006455 0.027259 -0.002060 0.002598
# 5 -0.001310 -0.003419 -0.002376 -0.002060 0.031603 0.003597
# 6 -0.008514 0.000911 -0.005327 0.002598 0.003597 0.026267
#
#
# Mechanical properties :
#
#
# Convention : Reuss Voigt Hill
#
# Bulk Modulus (GPa) = 30.61311 48.13073 39.37192
# Shear Modulus (GPa) = 28.24770 36.25861 32.25316
#
# Velocity S-wave (km/s) = 3.47129 3.93283 3.70925
# Velocity P-wave (km/s) = 5.39680 6.41517 5.92789
#
# Compressibility (1/GPa) = 0.03266575
#
# Stress axis : x y z
#
# Youngs Moduli (GPa) = 41.81748 63.28828 58.43659
#
# Poissons Ratio (x) = 0.33702 0.26742
# Poissons Ratio (y) = 0.22269 0.12734
# Poissons Ratio (z) = 0.19137 0.13791
#
# Static dielectric constant tensor:
#      x y z
#    x 4.951670 0.218770 0.339600 
#    y 0.218770 4.692150 0.232870 
#    z 0.339600 0.232870 4.293620 
# 
# 
# High freq. dielectric constant tensor:
#      x y z
#    x 1.931780 -0.002250 0.019780 
#    y -0.002250 1.936380 0.006630 
#    z 0.019780 0.006630 1.924780 
# 
# From -- ./inp_files/315863.got.cif
#   From: 2010.06.25/outbox.cif.g09.slc.cpg/sg2_158_cif.got.tgz:315863.got - 2010.06.27 13:26:56.
