data_PCOD8013578
_publ_section_title
;
Structure prediction by ZEFSAII (Michael W. Deem and Ramdas Pophale) SiO2 
 PCOD8013578
Probable space group: P -1
;
_chemical_formula_sum "Si O2"
_cell_formula_units_Z 16
_cell_length_a 9.673586
_cell_length_b 13.790657
_cell_length_c 12.604017
_cell_angle_alpha 75.683402
_cell_angle_beta 124.637202
_cell_angle_gamma 57.841345
_cell_volume 719.048028
_symmetry_space_group_name_H-M "P -1"
_symmetry_group_IT_number 2
_symmetry_cell_setting 'triclinic'
loop_
_space_group_symop_operation_xyz
x,y,z
-x,-y,-z
loop_
_atom_site_type_symbol
_atom_site_label
_atom_site_fract_x
_atom_site_fract_y
_atom_site_fract_z
Si Si1 0.579314 0.513233 0.275002
Si Si2 0.196650 0.563514 0.224766
Si Si3 0.439695 0.143479 0.233273
Si Si4 0.638252 0.743212 0.604699
Si Si5 0.053784 0.282685 0.708261
Si Si6 0.047562 0.878441 0.828458
Si Si7 0.357869 0.923198 0.884315
Si Si8 0.009608 0.255341 0.337001
O O1 0.496479 0.454958 0.322348
O O2 0.824648 0.448518 0.475584
O O3 0.728475 0.413403 0.253533
O O4 0.262947 0.736368 0.059836
O O5 0.249163 0.424242 0.325907
O O6 0.124095 0.659050 0.276329
O O7 0.907451 0.723414 0.974765
O O8 0.432588 0.219695 0.310551
O O9 0.552961 0.148077 0.178802
O O10 0.671870 0.934551 0.412676
O O11 0.915299 0.680518 0.711641
O O12 0.319667 0.933644 0.351513
O O13 0.181623 0.117168 0.756515
O O14 0.328127 0.224843 0.867547
O O15 0.140166 0.944428 0.822839
O O16 0.103580 0.774012 0.784155
#
# Coordination Sequence:
#
# PCOD8013578 Si02
#       8
#     2   2   2   2   2   2   2   2
#     4  12  24  42  67  97 134 176 217 271 325 384
#     4  11  24  42  69  97 132 174 224 264 322 396
#     4  10  21  40  69  92 134 170 212 264 338 380
#     4  11  24  42  66 101 138 171 211 269 334 395
#     4  10  23  45  66  92 134 173 226 267 323 382
#     4  11  25  41  66  97 139 166 225 266 329 388
#     4  10  22  43  69  99 124 178 219 277 317 392
#     4  11  24  42  66 100 139 168 212 274 334 390
#
# _framework density 22.251643000000001
#
# number of rings (size 3 to 8) (size 9 to 14) (size 15 to 20)
#    0.000    1.250    1.250    4.875    5.250    1.500 
#    0.000    1.250    0.000    0.000    0.000    0.000 
#    0.000    0.000    0.000    0.000    0.000    0.000 
#
# Total GULP energy -198408.006412 kJ/mol
# GULP energy per Si atom -12400.500401 kJ/mol
# Density = 2.220100 g / cm^3
# Si number density = 22.251643 Si / 1000 Ang^3
#
#
#
# Elastic Constant Matrix: (Units=GPa)
#
#
# Indices 1 2 3 4 5 6 
#
# 1 91.4442 26.1304 5.1645 8.7895 14.7576 0.1642
# 2 26.1304 56.9299 24.0980 0.4083 5.4812 -9.9038
# 3 5.1645 24.0980 146.5302 3.6956 -7.1447 -2.8157
# 4 8.7895 0.4083 3.6956 25.5685 -0.5099 4.0498
# 5 14.7576 5.4812 -7.1447 -0.5099 26.2882 -4.7402
# 6 0.1642 -9.9038 -2.8157 4.0498 -4.7402 27.1397
#
#
#
# Elastic Compliance Matrix: (Units=1/GPa)
#
#
# Indices 1 2 3 4 5 6 
#
# 1 0.014402 -0.006515 0.000265 -0.004550 -0.007289 -0.003031
# 2 -0.006515 0.023506 -0.003548 0.001102 -0.000752 0.007953
# 3 0.000265 -0.003548 0.007557 -0.001092 0.002644 0.000113
# 4 -0.004550 0.001102 -0.001092 0.041737 0.001829 -0.005592
# 5 -0.007289 -0.000752 0.002644 0.001829 0.044400 0.007526
# 6 -0.003031 0.007953 0.000113 -0.005592 0.007526 0.041928
#
#
# Mechanical properties :
#
#
# Convention : Reuss Voigt Hill
#
# Bulk Modulus (GPa) = 38.65703 45.07669 41.86686
# Shear Modulus (GPa) = 24.78338 31.76671 28.27505
#
# Velocity S-wave (km/s) = 3.34095 3.78247 3.56855
# Velocity P-wave (km/s) = 5.68269 6.27517 5.98627
#
# Compressibility (1/GPa) = 0.02586852
#
# Stress axis : x y z
#
# Youngs Moduli (GPa) = 69.43686 42.54278 132.32313
#
# Poissons Ratio (x) = 0.27718 -0.03507
# Poissons Ratio (y) = 0.45240 0.46945
# Poissons Ratio (z) = -0.01840 0.15093
#
# Static dielectric constant tensor:
#      x y z
#    x 3.737300 -0.179070 0.099290 
#    y -0.179070 3.839850 -0.037940 
#    z 0.099290 -0.037940 4.350980 
# 
# 
# High freq. dielectric constant tensor:
#      x y z
#    x 1.862460 -0.012570 0.007400 
#    y -0.012570 1.862390 -0.003330 
#    z 0.007400 -0.003330 1.898690 
# 
# From -- ./inp_files/189558.got.cif
#   From: 2010.06.25/outbox.cif.g09.slc.cpg/sg2_95_cif.got.tgz:189558.got - 2010.06.27 13:26:56.
