data_PCOD8013601
_publ_section_title
;
Structure prediction by ZEFSAII (Michael W. Deem and Ramdas Pophale) SiO2 
 PCOD8013601
Probable space group: P -1
;
_chemical_formula_sum "Si O2"
_cell_formula_units_Z 16
_cell_length_a 14.902193
_cell_length_b 9.262351
_cell_length_c 12.073364
_cell_angle_alpha 108.761914
_cell_angle_beta 72.154203
_cell_angle_gamma 150.814651
_cell_volume 768.266357
_symmetry_space_group_name_H-M "P -1"
_symmetry_group_IT_number 2
_symmetry_cell_setting 'triclinic'
loop_
_space_group_symop_operation_xyz
x,y,z
-x,-y,-z
loop_
_atom_site_type_symbol
_atom_site_label
_atom_site_fract_x
_atom_site_fract_y
_atom_site_fract_z
Si Si1 0.830165 0.359230 0.566002
Si Si2 0.158130 0.298203 0.442297
Si Si3 0.548435 0.761703 0.798226
Si Si4 0.510515 0.333645 0.446213
Si Si5 0.792351 0.380745 0.834003
Si Si6 0.758537 0.787843 0.805177
Si Si7 0.529573 0.296252 0.947586
Si Si8 0.103790 0.785294 0.983712
O O1 0.834420 0.508255 0.516859
O O2 0.849841 0.456389 0.703727
O O3 0.000000 0.500000 0.500000
O O4 0.665011 0.008604 0.534074
O O5 0.343129 0.516522 0.486251
O O6 0.147206 0.216258 0.300954
O O7 0.000000 0.000000 0.500000
O O8 0.439238 0.638573 0.694355
O O9 0.640097 0.721974 0.746185
O O10 0.716108 0.113018 0.838053
O O11 0.423688 0.598610 0.915549
O O12 0.500000 0.500000 0.500000
O O13 0.619154 0.255177 0.883313
O O14 0.983225 0.683954 0.901145
O O15 0.627705 0.550862 0.894102
O O16 0.905365 0.097167 0.889455
O O17 0.311409 0.013925 0.933014
O O18 0.000000 0.500000 0.000000
#
# Coordination Sequence:
#
# PCOD8013601 Si02
#       8
#     2   2   2   2   2   2   2   2
#     4  11  26  48  69 101 137 182 239 294 350 422
#     4  12  26  47  69  99 141 183 236 297 348 416
#     4  10  21  40  69  97 135 178 221 279 343 413
#     4  11  23  44  74 102 134 183 230 283 357 420
#     4  11  23  44  69 101 139 175 231 288 339 421
#     4  11  23  45  66 100 142 174 230 286 344 415
#     4  11  23  44  68 100 143 177 227 288 343 416
#     4  11  23  40  71 103 136 187 224 272 354 415
#
# _framework density 20.826108999999999
#
# number of rings (size 3 to 8) (size 9 to 14) (size 15 to 20)
#    0.000    1.000    5.000    3.000    1.750    2.500 
#   13.500    0.000    0.000    0.000    0.000    0.000 
#    0.000    0.000    0.000    0.000    0.000    0.000 
#
# Total GULP energy -198224.895311 kJ/mol
# GULP energy per Si atom -12389.055957 kJ/mol
# Density = 2.077871 g / cm^3
# Si number density = 20.826109 Si / 1000 Ang^3
#
#
#
# Elastic Constant Matrix: (Units=GPa)
#
#
# Indices 1 2 3 4 5 6 
#
# 1 138.2791 58.7062 49.1393 6.3034 -8.7791 -8.0544
# 2 58.7062 134.0198 61.5195 8.2301 2.0741 -14.0813
# 3 49.1393 61.5195 117.2097 12.3735 -6.3105 11.8066
# 4 6.3034 8.2301 12.3735 21.0857 2.8297 1.1162
# 5 -8.7791 2.0741 -6.3105 2.8297 33.9445 -1.0019
# 6 -8.0544 -14.0813 11.8066 1.1162 -1.0019 45.0136
#
#
#
# Elastic Compliance Matrix: (Units=1/GPa)
#
#
# Indices 1 2 3 4 5 6 
#
# 1 0.009608 -0.002917 -0.002454 -0.000684 0.002309 0.001519
# 2 -0.002917 0.011818 -0.005522 -0.000430 -0.002332 0.004582
# 3 -0.002454 -0.005522 0.013704 -0.005196 0.002519 -0.005576
# 4 -0.000684 -0.000430 -0.005196 0.051591 -0.005426 -0.000294
# 5 0.002309 -0.002332 0.002519 -0.005426 0.031116 -0.000150
# 6 0.001519 0.004582 -0.005576 -0.000294 -0.000150 0.025387
#
#
# Mechanical properties :
#
#
# Convention : Reuss Voigt Hill
#
# Bulk Modulus (GPa) = 74.92711 80.91539 77.92125
# Shear Modulus (GPa) = 29.50602 34.68500 32.09551
#
# Velocity S-wave (km/s) = 3.76810 4.08543 3.92997
# Velocity P-wave (km/s) = 7.41532 7.82250 7.62163
#
# Compressibility (1/GPa) = 0.01334630
#
# Stress axis : x y z
#
# Youngs Moduli (GPa) = 104.07774 84.61881 72.96899
#
# Poissons Ratio (x) = 0.24679 0.17905
# Poissons Ratio (y) = 0.30355 0.40291
# Poissons Ratio (z) = 0.25539 0.46724
#
# Static dielectric constant tensor:
#      x y z
#    x 4.037320 0.067340 0.220900 
#    y 0.067340 4.028550 0.253380 
#    z 0.220900 0.253380 4.070300 
# 
# 
# High freq. dielectric constant tensor:
#      x y z
#    x 1.826430 -0.021560 0.006550 
#    y -0.021560 1.814310 0.000520 
#    z 0.006550 0.000520 1.823950 
# 
# From -- ./inp_files/307852.got.cif
#   From: 2010.06.25/outbox.cif.g09.slc.cpg/sg2_154_cif.got.tgz:307852.got - 2010.06.27 13:26:56.
