data_PCOD8013724
_publ_section_title
;
Structure prediction by ZEFSAII (Michael W. Deem and Ramdas Pophale) SiO2 
 PCOD8013724
Probable space group: P -1
;
_chemical_formula_sum "Si O2"
_cell_formula_units_Z 16
_cell_length_a 14.654319
_cell_length_b 15.159573
_cell_length_c 15.302262
_cell_angle_alpha 160.716700
_cell_angle_beta 135.118135
_cell_angle_gamma 41.555532
_cell_volume 744.653623
_symmetry_space_group_name_H-M "P -1"
_symmetry_group_IT_number 2
_symmetry_cell_setting 'triclinic'
loop_
_space_group_symop_operation_xyz
x,y,z
-x,-y,-z
loop_
_atom_site_type_symbol
_atom_site_label
_atom_site_fract_x
_atom_site_fract_y
_atom_site_fract_z
Si Si1 0.891788 0.704185 0.551795
Si Si2 0.317444 0.968244 0.616483
Si Si3 0.154521 0.645987 0.285864
Si Si4 0.925729 0.540166 0.124164
Si Si5 0.434377 0.508620 0.691559
Si Si6 0.436855 0.196056 0.060589
Si Si7 0.981863 0.217554 0.035425
Si Si8 0.727868 0.907466 0.791740
O O1 0.756402 0.868935 0.670582
O O2 0.000000 0.500000 0.500000
O O3 0.944419 0.934902 0.756600
O O4 0.871933 0.489026 0.263961
O O5 0.211316 0.905880 0.555407
O O6 0.410460 0.702344 0.370913
O O7 0.222359 0.223546 0.729807
O O8 0.431370 0.040560 0.819630
O O9 0.282200 0.376235 0.150073
O O10 0.039485 0.693953 0.327912
O O11 0.092053 0.614064 0.120030
O O12 0.977042 0.299481 0.007390
O O13 0.462135 0.624649 0.723803
O O14 0.333021 0.332782 0.444715
O O15 0.373226 0.768012 0.960481
O O16 0.500000 0.000000 0.000000
O O17 0.135129 0.147170 0.110062
#
# Coordination Sequence:
#
# PCOD8013724 Si02
#       8
#     2   2   2   2   2   2   2   2
#     4  10  21  42  62  94 132 160 195 260 334 370
#     4  10  21  41  59  85 127 173 207 256 310 354
#     4   9  21  39  60  87 127 175 209 261 301 356
#     4  10  22  38  61  93 123 169 222 250 303 371
#     4  11  22  38  63  91 120 170 203 246 314 372
#     4  10  22  38  58  91 129 162 207 262 308 362
#     4  11  23  38  66  98 127 163 201 263 313 381
#     4  11  21  39  65  94 125 156 206 254 320 386
#
# _framework density 21.486499999999999
#
# number of rings (size 3 to 8) (size 9 to 14) (size 15 to 20)
#    0.000    1.750    1.250    4.125    3.500    3.000 
#    0.000    0.000    0.000    4.500    0.000    0.000 
#    0.000    0.000    0.000    0.000    0.000    0.000 
#
# Total GULP energy -198238.751251 kJ/mol
# GULP energy per Si atom -12389.921953 kJ/mol
# Density = 2.143760 g / cm^3
# Si number density = 21.486500 Si / 1000 Ang^3
#
#
#
# Elastic Constant Matrix: (Units=GPa)
#
#
# Indices 1 2 3 4 5 6 
#
# 1 99.3519 51.5899 23.9478 17.3298 3.8860 -9.1586
# 2 51.5899 80.7988 27.8940 12.8471 -2.1494 6.5255
# 3 23.9478 27.8940 87.7791 25.5782 7.2710 -8.3033
# 4 17.3298 12.8471 25.5782 26.7999 -6.2465 -0.4962
# 5 3.8860 -2.1494 7.2710 -6.2465 41.9228 9.1825
# 6 -9.1586 6.5255 -8.3033 -0.4962 9.1825 27.3942
#
#
#
# Elastic Compliance Matrix: (Units=1/GPa)
#
#
# Indices 1 2 3 4 5 6 
#
# 1 0.019678 -0.013470 0.004384 -0.012077 -0.008053 0.013597
# 2 -0.013470 0.024176 -0.007988 0.006367 0.008175 -0.015309
# 3 0.004384 -0.007988 0.021007 -0.021251 -0.010441 0.012851
# 4 -0.012077 0.006367 -0.021251 0.066411 0.018769 -0.017084
# 5 -0.008053 0.008175 -0.010441 0.018769 0.033738 -0.018773
# 6 0.013597 -0.015309 0.012851 -0.017084 -0.018773 0.054575
#
#
# Mechanical properties :
#
#
# Convention : Reuss Voigt Hill
#
# Bulk Modulus (GPa) = 32.55914 52.75480 42.65697
# Shear Modulus (GPa) = 18.94141 30.18991 24.56566
#
# Velocity S-wave (km/s) = 2.97231 3.75249 3.38495
# Velocity P-wave (km/s) = 5.19285 6.58640 5.93070
#
# Compressibility (1/GPa) = 0.03071334
#
# Stress axis : x y z
#
# Youngs Moduli (GPa) = 50.81861 41.36286 47.60222
#
# Poissons Ratio (x) = 0.55716 -0.20870
# Poissons Ratio (y) = 0.68452 0.38026
# Poissons Ratio (z) = -0.22280 0.33042
#
# Static dielectric constant tensor:
#      x y z
#    x 4.302290 -0.302520 -0.008020 
#    y -0.302520 3.709180 0.222440 
#    z -0.008020 0.222440 4.158640 
# 
# 
# High freq. dielectric constant tensor:
#      x y z
#    x 1.841270 -0.020340 0.011900 
#    y -0.020340 1.818210 0.027410 
#    z 0.011900 0.027410 1.852190 
# 
# From -- ./inp_files/366859.got.cif
#   From: 2010.06.25/outbox.cif.g09.slc.cpg/sg2_184_cif.got.tgz:366859.got - 2010.06.27 13:26:56.
