data_PCOD8013037
_publ_section_title
;
Structure prediction by ZEFSAII (Michael W. Deem and Ramdas Pophale) SiO2 
 PCOD8013037
Probable space group: P -1
;
_chemical_formula_sum "Si O2"
_cell_formula_units_Z 14
_cell_length_a 13.343933
_cell_length_b 12.602772
_cell_length_c 11.426216
_cell_angle_alpha 44.477985
_cell_angle_beta 116.600758
_cell_angle_gamma 148.739698
_cell_volume 625.298763
_symmetry_space_group_name_H-M "P -1"
_symmetry_group_IT_number 2
_symmetry_cell_setting 'triclinic'
loop_
_space_group_symop_operation_xyz
x,y,z
-x,-y,-z
loop_
_atom_site_type_symbol
_atom_site_label
_atom_site_fract_x
_atom_site_fract_y
_atom_site_fract_z
Si Si1 0.105572 0.402586 0.660365
Si Si2 0.371071 0.115931 0.871405
Si Si3 0.340209 0.771198 0.700731
Si Si4 0.250606 0.945861 0.683832
Si Si5 0.692676 0.609479 0.361579
Si Si6 0.291902 0.906770 0.238595
Si Si7 0.137401 0.298441 0.380678
O O1 0.135420 0.468924 0.763379
O O2 0.189820 0.330026 0.737074
O O3 0.224763 0.656832 0.434057
O O4 0.848616 0.133308 0.728910
O O5 0.282071 0.940923 0.841673
O O6 0.274788 0.173937 0.787914
O O7 0.630117 0.416165 0.783472
O O8 0.277457 0.906239 0.091899
O O9 0.500000 0.000000 0.500000
O O10 0.276281 0.832026 0.704752
O O11 0.461468 0.784536 0.832390
O O12 0.435438 0.282886 0.485237
O O13 0.010211 0.726730 0.704034
O O14 0.817383 0.670815 0.483251
O O15 0.000000 0.000000 0.500000
#
# Coordination Sequence:
#
# PCOD8013037 Si02
#       7
#     2   2   2   2   2   2   2
#     4  10  23  42  68  85 121 172 208 243 308 374
#     4  11  24  40  61  97 129 153 204 265 305 354
#     4  10  21  40  65  88 121 164 212 247 294 374
#     4  11  21  39  65  93 122 161 207 252 302 369
#     4  11  21  39  66  92 122 163 206 254 302 367
#     4  10  23  42  61  92 126 162 204 256 307 360
#     4  11  21  38  64  90 123 169 202 240 318 370
#
# _framework density 22.389296000000002
#
# number of rings (size 3 to 8) (size 9 to 14) (size 15 to 20)
#    0.000    1.429    5.714    0.857    6.000    2.286 
#    0.000    2.143    0.000    0.000    0.000    0.000 
#    0.000    0.000    0.000    0.000    0.000    0.000 
#
# Total GULP energy -173486.443128 kJ/mol
# GULP energy per Si atom -12391.888795 kJ/mol
# Density = 2.233834 g / cm^3
# Si number density = 22.389296 Si / 1000 Ang^3
#
#
#
# Elastic Constant Matrix: (Units=GPa)
#
#
# Indices 1 2 3 4 5 6 
#
# 1 167.8122 60.5873 49.2037 17.4666 -8.3199 2.6659
# 2 60.5873 106.7221 37.9926 21.1560 -0.1613 14.1685
# 3 49.2037 37.9926 75.4868 28.6198 -15.9491 -0.9328
# 4 17.4666 21.1560 28.6198 22.8850 -1.9944 0.6099
# 5 -8.3199 -0.1613 -15.9491 -1.9944 17.5159 9.4989
# 6 2.6659 14.1685 -0.9328 0.6099 9.4989 46.9803
#
#
#
# Elastic Compliance Matrix: (Units=1/GPa)
#
#
# Indices 1 2 3 4 5 6 
#
# 1 0.008366 -0.003715 -0.004801 0.003002 -0.000413 0.000595
# 2 -0.003715 0.014337 -0.002815 -0.007079 -0.003135 -0.003443
# 3 -0.004801 -0.002815 0.039806 -0.040671 0.031432 -0.003915
# 4 0.003002 -0.007079 -0.040671 0.096252 -0.027700 0.005508
# 5 -0.000413 -0.003135 0.031432 -0.027700 0.091282 -0.016504
# 6 0.000595 -0.003443 -0.003915 0.005508 -0.016504 0.025478
#
#
# Mechanical properties :
#
#
# Convention : Reuss Voigt Hill
#
# Bulk Modulus (GPa) = 25.09657 71.73204 48.41430
# Shear Modulus (GPa) = 16.05314 30.95872 23.50593
#
# Velocity S-wave (km/s) = 2.68059 3.72256 3.24369
# Velocity P-wave (km/s) = 4.56227 7.11229 5.97491
#
# Compressibility (1/GPa) = 0.03984609
#
# Stress axis : x y z
#
# Youngs Moduli (GPa) = 119.53744 69.74974 25.12163
#
# Poissons Ratio (x) = 0.25909 0.12062
# Poissons Ratio (y) = 0.44404 0.07073
# Poissons Ratio (z) = 0.57393 0.19638
#
# Static dielectric constant tensor:
#      x y z
#    x 4.137430 0.226430 -0.105890 
#    y 0.226430 4.901520 0.441860 
#    z -0.105890 0.441860 3.839870 
# 
# 
# High freq. dielectric constant tensor:
#      x y z
#    x 1.895180 0.018590 -0.012010 
#    y 0.018590 1.890380 0.025310 
#    z -0.012010 0.025310 1.846820 
# 
# From -- ./inp_files/454527.got.cif
#   From: 2010.06.25/outbox.cif.g09.slc.cpg/sg2_228_cif.got.tgz:454527.got - 2010.06.27 13:26:56.
