data_PCOD8013505
_publ_section_title
;
Structure prediction by ZEFSAII (Michael W. Deem and Ramdas Pophale) SiO2 
 PCOD8013505
Probable space group: P -1
;
_chemical_formula_sum "Si O2"
_cell_formula_units_Z 16
_cell_length_a 9.156600
_cell_length_b 17.796581
_cell_length_c 12.349978
_cell_angle_alpha 139.409516
_cell_angle_beta 131.460071
_cell_angle_gamma 78.931336
_cell_volume 756.136981
_symmetry_space_group_name_H-M "P -1"
_symmetry_group_IT_number 2
_symmetry_cell_setting 'triclinic'
loop_
_space_group_symop_operation_xyz
x,y,z
-x,-y,-z
loop_
_atom_site_type_symbol
_atom_site_label
_atom_site_fract_x
_atom_site_fract_y
_atom_site_fract_z
Si Si1 0.530759 0.483653 0.622798
Si Si2 0.697267 0.400869 0.235451
Si Si3 0.275307 0.156784 0.117784
Si Si4 0.254559 0.099324 0.807932
Si Si5 0.470471 0.941749 0.744860
Si Si6 0.233547 0.941487 0.196934
Si Si7 0.062883 0.631154 0.101687
Si Si8 0.664117 0.248839 0.848727
O O1 0.500000 0.500000 0.500000
O O2 0.355745 0.490098 0.627486
O O3 0.482788 0.328975 0.445028
O O4 0.817789 0.617282 0.944226
O O5 0.000000 0.500000 0.500000
O O6 0.509734 0.246994 0.042484
O O7 0.625228 0.343847 0.013358
O O8 0.368624 0.062624 0.088312
O O9 0.200175 0.147575 0.944649
O O10 0.025767 0.091286 0.991857
O O11 0.332499 0.003536 0.786448
O O12 0.000000 0.000000 0.500000
O O13 0.251437 0.775914 0.421015
O O14 0.639971 0.041090 0.835110
O O15 0.178967 0.797987 0.071708
O O16 0.396315 0.091632 0.513638
O O17 0.185801 0.641386 0.058744
O O18 0.000000 0.500000 0.000000
#
# Coordination Sequence:
#
# PCOD8013505 Si02
#       8
#     2   2   2   2   2   2   2   2
#     4  12  24  41  68  97 129 183 229 274 331 410
#     4  12  24  41  64 101 136 171 229 286 334 397
#     4  12  24  41  66  99 136 174 224 284 344 403
#     4  12  26  44  70 101 134 178 232 287 335 409
#     4  11  24  43  68  97 138 175 219 285 347 404
#     4  10  21  40  68  96 129 173 230 273 341 409
#     4  11  23  44  67  97 136 175 224 275 343 410
#     4  10  22  40  67  96 131 179 224 285 333 402
#
# _framework density 21.160185999999999
#
# number of rings (size 3 to 8) (size 9 to 14) (size 15 to 20)
#    0.000    0.750    3.750    4.500    3.500    0.000 
#    0.000    0.625    0.000    0.000    0.000    0.000 
#    0.000    0.000    0.000    0.000    0.000    0.000 
#
# Total GULP energy -198296.014532 kJ/mol
# GULP energy per Si atom -12393.500908 kJ/mol
# Density = 2.111202 g / cm^3
# Si number density = 21.160186 Si / 1000 Ang^3
#
#
#
# Elastic Constant Matrix: (Units=GPa)
#
#
# Indices 1 2 3 4 5 6 
#
# 1 -475.6438 -153.2811 373.0527 174.7749 -64.8509 -222.2983
# 2 -153.2811 53.2341 141.5953 60.4027 -12.6077 -70.7690
# 3 373.0527 141.5953 -118.8964 -106.2226 39.7618 140.0120
# 4 174.7749 60.4027 -106.2226 -17.5510 16.3212 72.4166
# 5 -64.8509 -12.6077 39.7618 16.3212 39.3135 -26.5563
# 6 -222.2983 -70.7690 140.0120 72.4166 -26.5563 -50.3334
#
#
#
# Elastic Compliance Matrix: (Units=1/GPa)
#
#
# Indices 1 2 3 4 5 6 
#
# 1 0.006086 -0.003878 0.002908 0.005079 -0.000241 -0.005903
# 2 -0.003878 0.010259 -0.001532 -0.000436 -0.002104 -0.001077
# 3 0.002908 -0.001532 0.007507 -0.003843 0.001076 0.004098
# 4 0.005079 -0.000436 -0.003843 0.024800 0.002929 0.001629
# 5 -0.000241 -0.002104 0.001076 0.002929 0.021856 -0.000301
# 6 -0.005903 -0.001077 0.004098 0.001629 -0.000301 0.021618
#
#
# Mechanical properties :
#
#
# Convention : Reuss Voigt Hill
#
# Bulk Modulus (GPa) = 53.05635 20.15862 36.60749
# Shear Modulus (GPa) = 48.34877 -65.89238 -8.77180
#
# Velocity S-wave (km/s) = 4.78524 -5.58636 -2.03824
# Velocity P-wave (km/s) = 7.46053 5.66238 3.43489
#
# Compressibility (1/GPa) = 0.01884789
#
# Stress axis : x y z
#
# Youngs Moduli (GPa) = 164.30843 97.47292 133.20154
#
# Poissons Ratio (x) = 0.37801 -0.38737
# Poissons Ratio (y) = 0.63720 0.20413
# Poissons Ratio (z) = -0.47783 0.14937
#
# Static dielectric constant tensor:
#      x y z
#    x 4.338240 -0.358990 -0.319020 
#    y -0.358990 3.901920 0.180750 
#    z -0.319020 0.180750 4.166580 
# 
# 
# High freq. dielectric constant tensor:
#      x y z
#    x 1.837400 0.003620 0.002480 
#    y 0.003620 1.816580 0.004010 
#    z 0.002480 0.004010 1.843880 
# 
# From -- ./inp_files/185125.got.cif
#   From: 2010.06.25/outbox.cif.g09.slc.cpg/sg2_93_cif.got.tgz:185125.got - 2010.06.27 13:26:56.
