data_PCOD8013572
_publ_section_title
;
Structure prediction by ZEFSAII (Michael W. Deem and Ramdas Pophale) SiO2 
 PCOD8013572
Probable space group: P -1
;
_chemical_formula_sum "Si O2"
_cell_formula_units_Z 16
_cell_length_a 6.594457
_cell_length_b 16.901687
_cell_length_c 19.859249
_cell_angle_alpha 19.585905
_cell_angle_beta 104.843061
_cell_angle_gamma 105.861614
_cell_volume 713.738220
_symmetry_space_group_name_H-M "P -1"
_symmetry_group_IT_number 2
_symmetry_cell_setting 'triclinic'
loop_
_space_group_symop_operation_xyz
x,y,z
-x,-y,-z
loop_
_atom_site_type_symbol
_atom_site_label
_atom_site_fract_x
_atom_site_fract_y
_atom_site_fract_z
Si Si1 0.935024 0.729991 0.876442
Si Si2 0.852201 0.729801 0.396058
Si Si3 0.549556 0.539846 0.748590
Si Si4 0.603760 0.352511 0.762159
Si Si5 0.090265 0.265569 0.282579
Si Si6 0.816813 0.896152 0.117389
Si Si7 0.261962 0.842691 0.419054
Si Si8 0.638281 0.073464 0.189443
O O1 0.180920 0.839121 0.810807
O O2 0.844763 0.701635 0.816229
O O3 0.929201 0.468349 0.121108
O O4 0.788398 0.900609 0.765217
O O5 0.694927 0.498579 0.587196
O O6 0.901470 0.748772 0.305449
O O7 0.071902 0.706329 0.471368
O O8 0.750710 0.965070 0.222411
O O9 0.653078 0.505209 0.711473
O O10 0.711448 0.703511 0.676270
O O11 0.330671 0.665310 0.625708
O O12 0.504840 0.284013 0.984594
O O13 0.351238 0.286685 0.789154
O O14 0.708620 0.109754 0.969786
O O15 0.000000 0.000000 0.500000
O O16 0.000000 0.000000 0.000000
O O17 0.471683 0.875457 0.365344
#
# Coordination Sequence:
#
# PCOD8013572 Si02
#       8
#     2   2   2   2   2   2   2   2
#     4   9  22  42  60  99 130 178 224 276 331 393
#     4  11  24  43  71  96 134 176 217 276 336 396
#     4  11  23  42  67  97 131 181 219 276 333 394
#     4  11  25  45  69  99 136 173 226 276 332 403
#     4  10  21  40  69  90 137 178 222 273 337 387
#     4  11  27  46  71 101 135 173 223 275 337 404
#     4  11  24  38  69 101 132 173 231 272 329 403
#     4  10  21  42  66  93 135 174 221 277 333 390
#
# _framework density 22.417183000000001
#
# number of rings (size 3 to 8) (size 9 to 14) (size 15 to 20)
#    0.000    1.500    2.500    1.125    5.250    2.000 
#    0.000    8.750    0.000    0.000    0.000    0.000 
#    0.000    0.000    0.000    0.000    0.000    0.000 
#
# Total GULP energy -198359.711674 kJ/mol
# GULP energy per Si atom -12397.481980 kJ/mol
# Density = 2.236616 g / cm^3
# Si number density = 22.417183 Si / 1000 Ang^3
#
#
#
# Elastic Constant Matrix: (Units=GPa)
#
#
# Indices 1 2 3 4 5 6 
#
# 1 109.5426 52.1564 44.0011 10.2869 -2.5459 21.0518
# 2 52.1564 110.0099 29.7300 24.3255 -6.6455 20.8426
# 3 44.0011 29.7300 115.4082 9.9344 3.5103 24.6205
# 4 10.2869 24.3255 9.9344 31.3816 2.0239 0.4987
# 5 -2.5459 -6.6455 3.5103 2.0239 49.3625 0.3933
# 6 21.0518 20.8426 24.6205 0.4987 0.3933 29.2695
#
#
#
# Elastic Compliance Matrix: (Units=1/GPa)
#
#
# Indices 1 2 3 4 5 6 
#
# 1 0.013359 -0.004912 -0.003131 0.000459 0.000259 -0.003488
# 2 -0.004912 0.015125 0.000371 -0.010258 0.002236 -0.007405
# 3 -0.003131 0.000371 0.011687 -0.002788 -0.000766 -0.007785
# 4 0.000459 -0.010258 -0.002788 0.040598 -0.002893 0.008667
# 5 0.000259 0.002236 -0.000766 -0.002893 0.020757 -0.001364
# 6 -0.003488 -0.007405 -0.007785 0.008667 -0.001364 0.048366
#
#
# Mechanical properties :
#
#
# Convention : Reuss Voigt Hill
#
# Bulk Modulus (GPa) = 40.27918 65.19284 52.73601
# Shear Modulus (GPa) = 28.81652 35.94094 32.37873
#
# Velocity S-wave (km/s) = 3.58923 4.00844 3.80461
# Velocity P-wave (km/s) = 5.93159 7.11113 6.54797
#
# Compressibility (1/GPa) = 0.02482672
#
# Stress axis : x y z
#
# Youngs Moduli (GPa) = 74.85803 66.11599 85.56337
#
# Poissons Ratio (x) = 0.32478 0.26791
# Poissons Ratio (y) = 0.36772 -0.03177
# Poissons Ratio (z) = 0.23439 -0.02455
#
# Static dielectric constant tensor:
#      x y z
#    x 3.745980 0.166840 0.237090 
#    y 0.166840 4.090260 0.006190 
#    z 0.237090 0.006190 4.310230 
# 
# 
# High freq. dielectric constant tensor:
#      x y z
#    x 1.855960 0.010050 0.016840 
#    y 0.010050 1.885770 -0.004490 
#    z 0.016840 -0.004490 1.908090 
# 
# From -- ./inp_files/584024.got.cif
#   From: 2010.06.25/outbox.cif.g09.slc.cpg/sg2_293_cif.got.tgz:584024.got - 2010.06.27 13:26:56.
