data_PCOD8013574
_publ_section_title
;
Structure prediction by ZEFSAII (Michael W. Deem and Ramdas Pophale) SiO2 
 PCOD8013574
Probable space group: P -1
;
_chemical_formula_sum "Si O2"
_cell_formula_units_Z 14
_cell_length_a 13.332911
_cell_length_b 8.690939
_cell_length_c 10.927441
_cell_angle_alpha 39.579975
_cell_angle_beta 60.776330
_cell_angle_gamma 56.799884
_cell_volume 669.860520
_symmetry_space_group_name_H-M "P -1"
_symmetry_group_IT_number 2
_symmetry_cell_setting 'triclinic'
loop_
_space_group_symop_operation_xyz
x,y,z
-x,-y,-z
loop_
_atom_site_type_symbol
_atom_site_label
_atom_site_fract_x
_atom_site_fract_y
_atom_site_fract_z
Si Si1 0.448368 0.812377 0.932079
Si Si2 0.602098 0.311963 0.224775
Si Si3 0.880235 0.114858 0.153079
Si Si4 0.976426 0.098486 0.588615
Si Si5 0.749127 0.343080 0.706069
Si Si6 0.944390 0.403144 0.732126
Si Si7 0.538401 0.677041 0.464233
O O1 0.465587 0.755908 0.810995
O O2 0.449094 0.099460 0.768448
O O3 0.562521 0.621741 0.054325
O O4 0.324511 0.786732 0.079906
O O5 0.739992 0.158328 0.222011
O O6 0.562155 0.221418 0.432771
O O7 0.898459 0.348864 0.924327
O O8 0.934967 0.125874 0.247189
O O9 0.944743 0.841654 0.221601
O O10 0.838894 0.134962 0.690924
O O11 0.007553 0.358360 0.434183
O O12 0.000000 0.000000 0.500000
O O13 0.832480 0.463063 0.666819
O O14 0.662969 0.548472 0.541160
O O15 0.500000 0.500000 0.500000
#
# Coordination Sequence:
#
# PCOD8013574 Si02
#       7
#     2   2   2   2   2   2   2
#     4  10  22  43  66  94 128 159 224 266 310 371
#     4  10  22  40  65 100 117 167 220 264 306 374
#     4  10  21  40  69  92 124 166 217 260 319 365
#     4  11  26  42  63 101 134 165 208 260 327 390
#     4  10  22  42  65  95 126 172 216 263 314 370
#     4  10  22  42  69  96 124 165 219 267 313 371
#     4  11  26  42  65  95 135 174 202 258 336 380
#
# _framework density 20.899875000000002
#
# number of rings (size 3 to 8) (size 9 to 14) (size 15 to 20)
#    0.000    1.714    1.429    2.143    6.000    4.000 
#    2.571    0.000    0.000    0.000    0.000    0.000 
#    0.000    0.000    0.000    0.000    0.000    0.000 
#
# Total GULP energy -173515.838214 kJ/mol
# GULP energy per Si atom -12393.988444 kJ/mol
# Density = 2.085231 g / cm^3
# Si number density = 20.899875 Si / 1000 Ang^3
#
#
#
# Elastic Constant Matrix: (Units=GPa)
#
#
# Indices 1 2 3 4 5 6 
#
# 1 103.5589 54.7275 40.3613 -1.9039 9.1642 -16.4042
# 2 54.7275 88.4053 44.6528 17.8451 -4.5759 0.6600
# 3 40.3613 44.6528 109.6711 0.2080 -2.7801 0.9496
# 4 -1.9039 17.8451 0.2080 35.5075 2.4876 7.0841
# 5 9.1642 -4.5759 -2.7801 2.4876 30.5913 1.1090
# 6 -16.4042 0.6600 0.9496 7.0841 1.1090 35.8146
#
#
#
# Elastic Compliance Matrix: (Units=1/GPa)
#
#
# Indices 1 2 3 4 5 6 
#
# 1 0.019448 -0.012687 -0.002297 0.006408 -0.008751 0.008206
# 2 -0.012687 0.024854 -0.005184 -0.012955 0.008239 -0.003824
# 3 -0.002297 -0.005184 0.012106 0.002718 0.000859 -0.001842
# 4 0.006408 -0.012955 0.002718 0.036222 -0.006416 -0.003864
# 5 -0.008751 0.008239 0.000859 -0.006416 0.037290 -0.004069
# 6 0.008206 -0.003824 -0.001842 -0.003864 -0.004069 0.032690
#
#
# Mechanical properties :
#
#
# Convention : Reuss Voigt Hill
#
# Bulk Modulus (GPa) = 62.21439 64.56872 63.39156
# Shear Modulus (GPa) = 24.00338 31.17560 27.58949
#
# Velocity S-wave (km/s) = 3.39262 3.86640 3.63723
# Velocity P-wave (km/s) = 6.72153 7.13396 6.93081
#
# Compressibility (1/GPa) = 0.01607345
#
# Stress axis : x y z
#
# Youngs Moduli (GPa) = 51.41805 40.23523 82.60026
#
# Poissons Ratio (x) = 0.51048 0.18972
# Poissons Ratio (y) = 0.65236 0.42816
# Poissons Ratio (z) = 0.11810 0.20856
#
# Static dielectric constant tensor:
#      x y z
#    x 3.735120 -0.165680 0.295000 
#    y -0.165680 3.796780 0.223910 
#    z 0.295000 0.223910 4.210170 
# 
# 
# High freq. dielectric constant tensor:
#      x y z
#    x 1.809210 -0.017580 0.017320 
#    y -0.017580 1.811170 0.019230 
#    z 0.017320 0.019230 1.833680 
# 
# From -- ./inp_files/390012.got.cif
#   From: 2010.06.25/outbox.cif.g09.slc.cpg/sg2_196_cif.got.tgz:390012.got - 2010.06.27 13:26:56.
