data_PCOD8013895
_publ_section_title
;
Structure prediction by ZEFSAII (Michael W. Deem and Ramdas Pophale) SiO2 
 PCOD8013895
Probable space group: P -1
;
_chemical_formula_sum "Si O2"
_cell_formula_units_Z 16
_cell_length_a 11.633691
_cell_length_b 14.547627
_cell_length_c 13.925923
_cell_angle_alpha 67.489728
_cell_angle_beta 38.594307
_cell_angle_gamma 39.254827
_cell_volume 768.647837
_symmetry_space_group_name_H-M "P -1"
_symmetry_group_IT_number 2
_symmetry_cell_setting 'triclinic'
loop_
_space_group_symop_operation_xyz
x,y,z
-x,-y,-z
loop_
_atom_site_type_symbol
_atom_site_label
_atom_site_fract_x
_atom_site_fract_y
_atom_site_fract_z
Si Si1 0.821699 0.676827 0.387412
Si Si2 0.453444 0.921969 0.360108
Si Si3 0.277839 0.394716 0.784931
Si Si4 0.235297 0.354057 0.125173
Si Si5 0.381833 0.516670 0.173365
Si Si6 0.348774 0.789510 0.780634
Si Si7 0.639438 0.057102 0.128107
Si Si8 0.683311 0.275785 0.731417
O O1 0.593202 0.849776 0.404959
O O2 0.612778 0.678899 0.567340
O O3 0.127543 0.497997 0.199237
O O4 0.994193 0.665674 0.362205
O O5 0.569256 0.777788 0.278690
O O6 0.596878 0.958399 0.206434
O O7 0.067276 0.093781 0.551091
O O8 0.556866 0.335022 0.679531
O O9 0.097267 0.532328 0.759248
O O10 0.000000 0.500000 0.000000
O O11 0.365624 0.211456 0.168392
O O12 0.521996 0.255823 0.902954
O O13 0.586142 0.328252 0.141367
O O14 0.434069 0.571586 0.202026
O O15 0.500000 0.500000 0.000000
O O16 0.382561 0.878472 0.780375
O O17 0.996914 0.927784 0.906488
#
# Coordination Sequence:
#
# PCOD8013895 Si02
#       8
#     2   2   2   2   2   2   2   2
#     4  11  22  39  61  92 129 168 205 248 317 374
#     4  11  24  40  68  94 125 162 216 261 308 379
#     4   9  22  43  67  88 122 169 211 261 312 372
#     4  10  21  41  63  89 127 165 205 260 311 367
#     4  12  22  37  65  97 131 166 209 252 310 383
#     4  11  24  37  61  91 139 165 204 255 317 381
#     4  11  23  40  60  95 128 165 206 263 317 363
#     4  11  22  40  67  91 126 168 213 255 315 368
#
# _framework density 20.815774000000001
#
# number of rings (size 3 to 8) (size 9 to 14) (size 15 to 20)
#    0.000    1.250    2.500    3.000    5.250    4.000 
#    0.000    3.125    2.750    0.000    0.000    0.000 
#    0.000    0.000    0.000    0.000    0.000    0.000 
#
# Total GULP energy -198349.889119 kJ/mol
# GULP energy per Si atom -12396.868070 kJ/mol
# Density = 2.076840 g / cm^3
# Si number density = 20.815774 Si / 1000 Ang^3
#
#
#
# Elastic Constant Matrix: (Units=GPa)
#
#
# Indices 1 2 3 4 5 6 
#
# 1 125.5793 61.6124 26.6146 3.6649 -19.5480 -9.0758
# 2 61.6124 115.3575 45.0781 0.4741 -16.1476 -22.2754
# 3 26.6146 45.0781 98.0616 7.9980 -4.1127 -1.8347
# 4 3.6649 0.4741 7.9980 32.1553 -4.1489 0.2748
# 5 -19.5480 -16.1476 -4.1127 -4.1489 23.3802 7.6517
# 6 -9.0758 -22.2754 -1.8347 0.2748 7.6517 36.3139
#
#
#
# Elastic Compliance Matrix: (Units=1/GPa)
#
#
# Indices 1 2 3 4 5 6 
#
# 1 0.011621 -0.005531 -0.000352 -0.000316 0.006383 -0.001849
# 2 -0.005531 0.015649 -0.005597 0.002144 0.003209 0.007242
# 3 -0.000352 -0.005597 0.013021 -0.003306 -0.001641 -0.002493
# 4 -0.000316 0.002144 -0.003306 0.032788 0.006643 -0.000579
# 5 0.006383 0.003209 -0.001641 0.006643 0.053802 -0.007906
# 6 -0.001849 0.007242 -0.002493 -0.000579 -0.007906 0.033062
#
#
# Mechanical properties :
#
#
# Convention : Reuss Voigt Hill
#
# Bulk Modulus (GPa) = 57.70861 67.28985 62.49923
# Shear Modulus (GPa) = 26.49994 32.08275 29.29135
#
# Velocity S-wave (km/s) = 3.57188 3.93016 3.75530
# Velocity P-wave (km/s) = 6.69289 7.27952 6.99236
#
# Compressibility (1/GPa) = 0.01732844
#
# Stress axis : x y z
#
# Youngs Moduli (GPa) = 86.05344 63.90232 76.80164
#
# Poissons Ratio (x) = 0.35345 0.02707
# Poissons Ratio (y) = 0.47597 0.42988
# Poissons Ratio (z) = 0.03033 0.35768
#
# Static dielectric constant tensor:
#      x y z
#    x 5.015950 -0.297760 -0.140070 
#    y -0.297760 3.710800 0.248410 
#    z -0.140070 0.248410 3.804770 
# 
# 
# High freq. dielectric constant tensor:
#      x y z
#    x 1.815210 -0.016310 -0.006400 
#    y -0.016310 1.809360 0.018160 
#    z -0.006400 0.018160 1.816830 
# 
# From -- ./inp_files/178249.got.cif
#   From: 2010.06.25/outbox.cif.g09.slc.cpg/sg2_90_cif.got.tgz:178249.got - 2010.06.27 13:26:56.
