data_PCOD8013015
_publ_section_title
;
Structure prediction by ZEFSAII (Michael W. Deem and Ramdas Pophale) SiO2 
 PCOD8013015
Probable space group: P -1
;
_chemical_formula_sum "Si O2"
_cell_formula_units_Z 16
_cell_length_a 9.835372
_cell_length_b 9.453776
_cell_length_c 12.028787
_cell_angle_alpha 127.843825
_cell_angle_beta 103.103241
_cell_angle_gamma 68.176077
_cell_volume 819.925336
_symmetry_space_group_name_H-M "P -1"
_symmetry_group_IT_number 2
_symmetry_cell_setting 'triclinic'
loop_
_space_group_symop_operation_xyz
x,y,z
-x,-y,-z
loop_
_atom_site_type_symbol
_atom_site_label
_atom_site_fract_x
_atom_site_fract_y
_atom_site_fract_z
Si Si1 0.354960 0.758516 0.281364
Si Si2 0.355494 0.939408 0.959197
Si Si3 0.150668 0.369632 0.512211
Si Si4 0.679974 0.924721 0.206304
Si Si5 0.643665 0.928279 0.743114
Si Si6 0.852273 0.950647 0.467296
Si Si7 0.660109 0.468517 0.228975
Si Si8 0.340491 0.478844 0.982801
O O1 0.517304 0.649348 0.301176
O O2 0.273178 0.620162 0.140587
O O3 0.368689 0.907344 0.266038
O O4 0.263197 0.859720 0.418024
O O5 0.254316 0.019140 0.869957
O O6 0.390021 0.715867 0.856540
O O7 0.285337 0.027543 0.106275
O O8 0.500000 0.000000 0.000000
O O9 0.250212 0.265721 0.377824
O O10 0.126506 0.222062 0.527150
O O11 0.226857 0.514156 0.648402
O O12 0.000000 0.500000 0.500000
O O13 0.795710 0.901079 0.314715
O O14 0.522925 0.080495 0.277634
O O15 0.648424 0.729715 0.079961
O O16 0.000000 0.000000 0.500000
O O17 0.742398 0.466743 0.124226
O O18 0.500000 0.500000 0.000000
#
# Coordination Sequence:
#
# PCOD8013015 Si02
#       8
#     2   2   2   2   2   2   2   2
#     4  10  18  36  66  91 111 149 199 243 289 348
#     4  10  21  35  59  97 126 143 180 252 308 340
#     4  11  25  42  60  83 118 161 203 241 280 347
#     4  11  20  38  62  91 120 150 190 242 301 346
#     4  10  18  38  63  90 116 148 196 244 291 347
#     4  11  25  43  58  82 123 161 195 241 293 345
#     4  11  19  37  65  92 114 150 200 242 287 349
#     4  10  16  33  62  94 114 135 194 251 287 344
#
# _framework density 19.513971000000002
#
# number of rings (size 3 to 8) (size 9 to 14) (size 15 to 20)
#    0.000    1.500    5.000    3.000    1.750    2.000 
#    6.750    5.625    0.000    0.000    0.000    0.000 
#    0.000    0.000    0.000    0.000    0.000    0.000 
#
# Total GULP energy -198306.082324 kJ/mol
# GULP energy per Si atom -12394.130145 kJ/mol
# Density = 1.946956 g / cm^3
# Si number density = 19.513971 Si / 1000 Ang^3
#
#
#
# Elastic Constant Matrix: (Units=GPa)
#
#
# Indices 1 2 3 4 5 6 
#
# 1 65.2552 29.2030 36.9276 -4.4210 13.6691 -3.7239
# 2 29.2030 100.9399 46.7030 -11.3977 6.2865 -5.5139
# 3 36.9276 46.7030 119.0827 -11.5622 19.2106 -10.2943
# 4 -4.4210 -11.3977 -11.5622 32.9967 7.1638 4.6628
# 5 13.6691 6.2865 19.2106 7.1638 15.6691 -6.9687
# 6 -3.7239 -5.5139 -10.2943 4.6628 -6.9687 29.2674
#
#
#
# Elastic Compliance Matrix: (Units=1/GPa)
#
#
# Indices 1 2 3 4 5 6 
#
# 1 0.022646 -0.003919 -0.001971 0.006059 -0.020491 -0.004395
# 2 -0.003919 0.013010 -0.004081 0.001812 0.002769 0.000888
# 3 -0.001971 -0.004081 0.014094 0.007381 -0.017972 -0.001517
# 4 0.006059 0.001812 0.007381 0.045296 -0.041753 -0.013449
# 5 -0.020491 0.002769 -0.017972 -0.041753 0.135249 0.030448
# 6 -0.004395 0.000888 -0.001517 -0.013449 0.030448 0.042635
#
#
# Mechanical properties :
#
#
# Convention : Reuss Voigt Hill
#
# Bulk Modulus (GPa) = 33.54971 56.77165 45.16068
# Shear Modulus (GPa) = 16.51215 27.08292 21.79754
#
# Velocity S-wave (km/s) = 2.91206 3.72946 3.34581
# Velocity P-wave (km/s) = 5.34198 6.90660 6.17405
#
# Compressibility (1/GPa) = 0.02980652
#
# Stress axis : x y z
#
# Youngs Moduli (GPa) = 44.15789 76.86656 70.95174
#
# Poissons Ratio (x) = 0.30126 0.13987
# Poissons Ratio (y) = 0.17307 0.28954
# Poissons Ratio (z) = 0.08705 0.31368
#
# Static dielectric constant tensor:
#      x y z
#    x 3.290050 0.153650 -0.110950 
#    y 0.153650 3.718260 -0.198800 
#    z -0.110950 -0.198800 4.444800 
# 
# 
# High freq. dielectric constant tensor:
#      x y z
#    x 1.716870 0.017790 0.010480 
#    y 0.017790 1.760530 -0.009670 
#    z 0.010480 -0.009670 1.783400 
# 
# From -- ./inp_files/383292.got.cif
#   From: 2010.06.25/outbox.cif.g09.slc.cpg/sg2_192_cif.got.tgz:383292.got - 2010.06.27 13:26:56.
