data_PCOD8013590
_publ_section_title
;
Structure prediction by ZEFSAII (Michael W. Deem and Ramdas Pophale) SiO2 
 PCOD8013590
Probable space group: P -1
;
_chemical_formula_sum "Si O2"
_cell_formula_units_Z 16
_cell_length_a 11.941164
_cell_length_b 9.447517
_cell_length_c 18.410145
_cell_angle_alpha 134.437774
_cell_angle_beta 32.587581
_cell_angle_gamma 131.283120
_cell_volume 785.406433
_symmetry_space_group_name_H-M "P -1"
_symmetry_group_IT_number 2
_symmetry_cell_setting 'triclinic'
loop_
_space_group_symop_operation_xyz
x,y,z
-x,-y,-z
loop_
_atom_site_type_symbol
_atom_site_label
_atom_site_fract_x
_atom_site_fract_y
_atom_site_fract_z
Si Si1 0.628839 0.975853 0.616459
Si Si2 0.025101 0.728328 0.545125
Si Si3 0.182116 0.071127 0.869815
Si Si4 0.667908 0.143612 0.006398
Si Si5 0.052481 0.486507 0.051555
Si Si6 0.092489 0.006770 0.742305
Si Si7 0.380210 0.266100 0.324432
Si Si8 0.663796 0.647841 0.357406
O O1 0.690191 0.896842 0.632583
O O2 0.626840 0.786716 0.495472
O O3 0.406280 0.049827 0.772954
O O4 0.793910 0.178201 0.577709
O O5 0.804800 0.759066 0.642793
O O6 0.000000 0.500000 0.500000
O O7 0.094413 0.837261 0.621447
O O8 0.162421 0.939093 0.758773
O O9 0.155637 0.295764 0.944911
O O10 0.000000 0.000000 0.000000
O O11 0.582838 0.218704 0.154734
O O12 0.759796 0.325701 0.967153
O O13 0.500000 0.000000 0.000000
O O14 0.853888 0.035383 0.892556
O O15 0.848336 0.513026 0.222231
O O16 0.000000 0.500000 0.000000
O O17 0.257293 0.207966 0.701965
O O18 0.445630 0.493972 0.402741
#
# Coordination Sequence:
#
# PCOD8013590 Si02
#       8
#     2   2   2   2   2   2   2   2
#     4  11  27  42  65  98 131 171 209 270 328 375
#     4  11  27  42  64  92 132 171 215 258 316 389
#     4  12  24  41  68  99 133 160 215 276 323 374
#     4  11  20  36  66  94 118 169 215 256 314 383
#     4  11  20  40  66  93 126 166 220 262 310 378
#     4  10  21  41  63  97 125 164 216 266 315 378
#     4  12  22  42  67  92 129 167 214 263 324 382
#     4  10  21  40  69  96 123 170 220 261 318 381
#
# _framework density 20.371618999999999
#
# number of rings (size 3 to 8) (size 9 to 14) (size 15 to 20)
#    0.000    1.000    5.000    2.250    5.250    1.000 
#    0.000    0.000    0.000    3.000    0.000    0.000 
#    0.000    0.000    0.000    0.000    0.000    0.000 
#
# Total GULP energy -198301.673318 kJ/mol
# GULP energy per Si atom -12393.854582 kJ/mol
# Density = 2.032525 g / cm^3
# Si number density = 20.371619 Si / 1000 Ang^3
#
#
#
# Elastic Constant Matrix: (Units=GPa)
#
#
# Indices 1 2 3 4 5 6 
#
# 1 73.1363 41.1187 4.8064 -6.7671 0.2014 -10.1226
# 2 41.1187 121.6404 24.6303 -6.7189 -3.1940 5.1267
# 3 4.8064 24.6303 84.0689 -6.2434 -6.4997 -11.8455
# 4 -6.7671 -6.7189 -6.2434 34.9435 -0.9578 -3.8349
# 5 0.2014 -3.1940 -6.4997 -0.9578 25.8996 -2.7420
# 6 -10.1226 5.1267 -11.8455 -3.8349 -2.7420 31.1026
#
#
#
# Elastic Compliance Matrix: (Units=1/GPa)
#
#
# Indices 1 2 3 4 5 6 
#
# 1 0.019088 -0.007124 0.002585 0.003785 0.000704 0.008900
# 2 -0.007124 0.011624 -0.003854 -0.000469 -0.000107 -0.005770
# 3 0.002585 -0.003854 0.014537 0.003324 0.004100 0.007784
# 4 0.003785 -0.000469 0.003324 0.030647 0.002577 0.006581
# 5 0.000704 -0.000107 0.004100 0.002577 0.040318 0.005680
# 6 0.008900 -0.005770 0.007784 0.006581 0.005680 0.040276
#
#
# Mechanical properties :
#
#
# Convention : Reuss Voigt Hill
#
# Bulk Modulus (GPa) = 35.13208 46.66183 40.89696
# Shear Modulus (GPa) = 27.35785 32.27517 29.81651
#
# Velocity S-wave (km/s) = 3.66859 3.98467 3.82989
# Velocity P-wave (km/s) = 5.93530 6.64268 6.29893
#
# Compressibility (1/GPa) = 0.02846401
#
# Stress axis : x y z
#
# Youngs Moduli (GPa) = 52.38822 86.03014 68.78974
#
# Poissons Ratio (x) = 0.61284 -0.17784
# Poissons Ratio (y) = 0.37319 0.26514
# Poissons Ratio (z) = -0.13544 0.33158
#
# Static dielectric constant tensor:
#      x y z
#    x 4.316900 1.202420 -0.727410 
#    y 1.202420 4.367860 -0.454540 
#    z -0.727410 -0.454540 4.347740 
# 
# 
# High freq. dielectric constant tensor:
#      x y z
#    x 1.783490 0.007250 -0.000690 
#    y 0.007250 1.800450 -0.005110 
#    z -0.000690 -0.005110 1.808390 
# 
# From -- ./inp_files/239816.got.cif
#   From: 2010.06.25/outbox.cif.g09.slc.cpg/sg2_120_cif.got.tgz:239816.got - 2010.06.27 13:26:56.
