data_PCOD8013940
_publ_section_title
;
Structure prediction by ZEFSAII (Michael W. Deem and Ramdas Pophale) SiO2 
 PCOD8013940
Probable space group: P -1
;
_chemical_formula_sum "Si O2"
_cell_formula_units_Z 12
_cell_length_a 8.348526
_cell_length_b 14.382404
_cell_length_c 17.844159
_cell_angle_alpha 158.821268
_cell_angle_beta 44.084082
_cell_angle_gamma 125.026576
_cell_volume 497.837347
_symmetry_space_group_name_H-M "P -1"
_symmetry_group_IT_number 2
_symmetry_cell_setting 'triclinic'
loop_
_space_group_symop_operation_xyz
x,y,z
-x,-y,-z
loop_
_atom_site_type_symbol
_atom_site_label
_atom_site_fract_x
_atom_site_fract_y
_atom_site_fract_z
Si Si1 0.057212 0.890816 0.611681
Si Si2 0.366818 0.236049 0.281583
Si Si3 0.278968 0.855392 0.768430
Si Si4 0.196210 0.737641 0.281317
Si Si5 0.566346 0.995098 0.322373
Si Si6 0.084639 0.517385 0.901427
O O1 0.143806 0.759292 0.403244
O O2 0.291662 0.922735 0.596735
O O3 0.921389 0.721929 0.575691
O O4 0.852694 0.207311 0.915899
O O5 0.349668 0.533298 0.479997
O O6 0.522440 0.139940 0.233291
O O7 0.500000 0.000000 0.000000
O O8 0.293769 0.035567 0.826841
O O9 0.000000 0.000000 0.000000
O O10 0.148219 0.464406 0.061907
O O11 0.476852 0.731928 0.166599
O O12 0.000000 0.000000 0.500000
O O13 0.313427 0.261492 0.602269
O O14 0.000000 0.500000 0.000000
#
# Coordination Sequence:
#
# PCOD8013940 Si02
#       6
#     2   2   2   2   2   2
#     4  12  24  42  67  98 135 175 224 277 341 404
#     4  11  25  46  72  99 138 180 232 287 341 404
#     4  11  26  47  70 101 137 182 233 283 342 406
#     4  10  21  41  63  95 131 170 217 272 332 398
#     4  11  24  43  66  98 136 171 228 279 335 407
#     4  11  23  41  66  95 134 177 219 273 343 401
#
# _framework density 24.10426
#
# number of rings (size 3 to 8) (size 9 to 14) (size 15 to 20)
#    0.000    1.000    3.333    4.500    0.000    8.667 
#    0.000    0.000    0.000    0.000    0.000    0.000 
#    0.000    0.000    0.000    0.000    0.000    0.000 
#
# Total GULP energy -148784.354791 kJ/mol
# GULP energy per Si atom -12398.696233 kJ/mol
# Density = 2.404940 g / cm^3
# Si number density = 24.104260 Si / 1000 Ang^3
#
#
#
# Elastic Constant Matrix: (Units=GPa)
#
#
# Indices 1 2 3 4 5 6 
#
# 1 128.3389 44.8977 26.9707 -9.8302 32.3032 16.7139
# 2 44.8977 153.0554 40.1051 -20.5342 31.5135 10.7559
# 3 26.9707 40.1051 92.7661 -16.0365 33.0868 8.5951
# 4 -9.8302 -20.5342 -16.0365 45.5769 5.5943 4.5696
# 5 32.3032 31.5135 33.0868 5.5943 44.0306 -7.3537
# 6 16.7139 10.7559 8.5951 4.5696 -7.3537 41.3836
#
#
#
# Elastic Compliance Matrix: (Units=1/GPa)
#
#
# Indices 1 2 3 4 5 6 
#
# 1 0.012146 -0.000223 0.003180 0.006135 -0.013349 -0.008558
# 2 -0.000223 0.009283 0.000416 0.005749 -0.008277 -0.004515
# 3 0.003180 0.000416 0.020166 0.011613 -0.021030 -0.010600
# 4 0.006135 0.005749 0.011613 0.034351 -0.024122 -0.014463
# 5 -0.013349 -0.008277 -0.021030 -0.024122 0.061559 0.025513
# 6 -0.008558 -0.004515 -0.010600 -0.014463 0.025513 0.037126
#
#
# Mechanical properties :
#
#
# Convention : Reuss Voigt Hill
#
# Bulk Modulus (GPa) = 20.68662 66.45640 43.57151
# Shear Modulus (GPa) = 27.17408 43.67733 35.42570
#
# Velocity S-wave (km/s) = 3.36125 4.26140 3.83781
# Velocity P-wave (km/s) = 4.86465 7.20020 6.14442
#
# Compressibility (1/GPa) = 0.04834042
#
# Stress axis : x y z
#
# Youngs Moduli (GPa) = 82.33073 107.72509 49.58869
#
# Poissons Ratio (x) = 0.02404 -0.15768
# Poissons Ratio (y) = 0.01838 -0.02063
# Poissons Ratio (z) = -0.26180 -0.04483
#
# Static dielectric constant tensor:
#      x y z
#    x 4.731270 0.283370 0.108390 
#    y 0.283370 4.882830 0.738750 
#    z 0.108390 0.738750 4.861600 
# 
# 
# High freq. dielectric constant tensor:
#      x y z
#    x 1.980720 0.013210 -0.001200 
#    y 0.013210 1.962010 0.009840 
#    z -0.001200 0.009840 1.975170 
# 
# From -- ./inp_files/466006.got.cif
#   From: 2010.06.25/outbox.cif.g09.slc.cpg/sg2_234_cif.got.tgz:466006.got - 2010.06.27 13:26:56.
