data_PCOD8013716
_publ_section_title
;
Structure prediction by ZEFSAII (Michael W. Deem and Ramdas Pophale) SiO2 
 PCOD8013716
Probable space group: P -1
;
_chemical_formula_sum "Si O2"
_cell_formula_units_Z 14
_cell_length_a 10.481883
_cell_length_b 14.342518
_cell_length_c 18.962393
_cell_angle_alpha 158.315727
_cell_angle_beta 147.509836
_cell_angle_gamma 42.498332
_cell_volume 550.053400
_symmetry_space_group_name_H-M "P -1"
_symmetry_group_IT_number 2
_symmetry_cell_setting 'triclinic'
loop_
_space_group_symop_operation_xyz
x,y,z
-x,-y,-z
loop_
_atom_site_type_symbol
_atom_site_label
_atom_site_fract_x
_atom_site_fract_y
_atom_site_fract_z
Si Si1 0.321809 0.745282 0.265831
Si Si2 0.037710 0.954104 0.633755
Si Si3 0.264517 0.772020 0.735461
Si Si4 0.925741 0.466317 0.137335
Si Si5 0.443219 0.685157 0.896706
Si Si6 0.775730 0.105028 0.940126
Si Si7 0.528216 0.419040 0.535866
O O1 0.470371 0.579758 0.265414
O O2 0.500000 0.000000 0.500000
O O3 0.227641 0.556730 0.022326
O O4 0.117872 0.825785 0.277638
O O5 0.039237 0.835600 0.631019
O O6 0.924510 0.730425 0.366182
O O7 0.316097 0.075865 0.826301
O O8 0.231252 0.720159 0.767039
O O9 0.324613 0.517180 0.552294
O O10 0.500000 0.000000 0.000000
O O11 0.192687 0.455154 0.225996
O O12 0.820746 0.210418 0.955821
O O13 0.289347 0.661638 0.880656
O O14 0.530016 0.883014 0.682971
O O15 0.000000 0.000000 0.000000
O O16 0.500000 0.500000 0.500000
#
# Coordination Sequence:
#
# PCOD8013716 Si02
#       7
#     2   2   2   2   2   2   2
#     4  12  30  50  72 108 156 203 255 312 372 456
#     4  11  23  48  79 108 148 199 253 313 379 446
#     4  10  21  40  77 107 143 188 249 314 368 442
#     4  12  26  48  76 108 155 196 255 313 372 449
#     4  11  25  48  72 110 152 199 254 301 383 453
#     4  12  25  41  75 115 144 193 247 306 381 439
#     4  12  21  44  71 110 151 189 243 312 377 444
#
# _framework density 25.452072000000001
#
# number of rings (size 3 to 8) (size 9 to 14) (size 15 to 20)
#    0.000    0.571    4.286    3.857    4.000    2.857 
#    0.000    2.143    0.000    0.000    0.000    0.000 
#    0.000    0.000    0.000    0.000    0.000    0.000 
#
# Total GULP energy -173491.655445 kJ/mol
# GULP energy per Si atom -12392.261103 kJ/mol
# Density = 2.539414 g / cm^3
# Si number density = 25.452072 Si / 1000 Ang^3
#
#
#
# Elastic Constant Matrix: (Units=GPa)
#
#
# Indices 1 2 3 4 5 6 
#
# 1 81.0100 13.1604 15.2182 1.4039 3.9301 -15.2684
# 2 13.1604 91.1289 11.0442 12.6105 -5.5594 -12.8560
# 3 15.2182 11.0442 98.8430 5.5166 -4.5139 6.8013
# 4 1.4039 12.6105 5.5166 36.0012 1.0265 -1.1660
# 5 3.9301 -5.5594 -4.5139 1.0265 43.7510 5.9838
# 6 -15.2684 -12.8560 6.8013 -1.1660 5.9838 41.9420
#
#
#
# Elastic Compliance Matrix: (Units=1/GPa)
#
#
# Indices 1 2 3 4 5 6 
#
# 1 0.014182 -0.001167 -0.002578 0.000502 -0.002464 0.005589
# 2 -0.001167 0.012375 -0.001147 -0.004042 0.001207 0.003270
# 3 -0.002578 -0.001147 0.011027 -0.001345 0.001715 -0.003360
# 4 0.000502 -0.004042 -0.001345 0.029425 -0.001413 0.000182
# 5 -0.002464 0.001207 0.001715 -0.001413 0.024026 -0.004272
# 6 0.005589 0.003270 -0.003360 0.000182 -0.004272 0.028039
#
#
# Mechanical properties :
#
#
# Convention : Reuss Voigt Hill
#
# Bulk Modulus (GPa) = 35.97252 38.86971 37.42111
# Shear Modulus (GPa) = 36.19884 39.77613 37.98748
#
# Velocity S-wave (km/s) = 3.77535 3.95750 3.86749
# Velocity P-wave (km/s) = 5.75920 6.01558 5.88879
#
# Compressibility (1/GPa) = 0.02779900
#
# Stress axis : x y z
#
# Youngs Moduli (GPa) = 70.51043 80.80604 90.68808
#
# Poissons Ratio (x) = 0.09431 0.23382
# Poissons Ratio (y) = 0.08229 0.10405
# Poissons Ratio (z) = 0.18180 0.09272
#
# Static dielectric constant tensor:
#      x y z
#    x 4.148220 0.130390 0.176380 
#    y 0.130390 4.812660 -0.046030 
#    z 0.176380 -0.046030 4.859760 
# 
# 
# High freq. dielectric constant tensor:
#      x y z
#    x 2.019290 -0.000930 0.001350 
#    y -0.000930 2.010050 0.011290 
#    z 0.001350 0.011290 2.021860 
# 
# From -- ./inp_files/183787.got.cif
#   From: 2010.06.25/outbox.cif.g09.slc.cpg/sg2_92_cif.got.tgz:183787.got - 2010.06.27 13:26:56.
