data_PCOD8013773
_publ_section_title
;
Structure prediction by ZEFSAII (Michael W. Deem and Ramdas Pophale) SiO2 
 PCOD8013773
Probable space group: P -1
;
_chemical_formula_sum "Si O2"
_cell_formula_units_Z 16
_cell_length_a 11.967501
_cell_length_b 19.255846
_cell_length_c 8.970776
_cell_angle_alpha 120.541181
_cell_angle_beta 130.817880
_cell_angle_gamma 29.440820
_cell_volume 758.543134
_symmetry_space_group_name_H-M "P -1"
_symmetry_group_IT_number 2
_symmetry_cell_setting 'triclinic'
loop_
_space_group_symop_operation_xyz
x,y,z
-x,-y,-z
loop_
_atom_site_type_symbol
_atom_site_label
_atom_site_fract_x
_atom_site_fract_y
_atom_site_fract_z
Si Si1 0.692709 0.648377 0.560008
Si Si2 0.279419 0.402579 0.809236
Si Si3 0.472277 0.924159 0.708004
Si Si4 0.333702 0.678230 0.391875
Si Si5 0.790202 0.935513 0.054606
Si Si6 0.458104 0.556260 0.862550
Si Si7 0.071798 0.813987 0.615261
Si Si8 0.228715 0.902236 0.973290
O O1 0.692556 0.605027 0.352707
O O2 0.597802 0.783386 0.613012
O O3 0.507103 0.681524 0.544822
O O4 0.989515 0.509884 0.728736
O O5 0.335102 0.464758 0.996580
O O6 0.485068 0.243942 0.870820
O O7 0.360696 0.966762 0.823478
O O8 0.693712 0.892789 0.863616
O O9 0.240770 0.053912 0.533074
O O10 0.505018 0.525554 0.323222
O O11 0.224914 0.707491 0.492088
O O12 0.098920 0.792766 0.194616
O O13 0.743401 0.020994 0.979134
O O14 0.169113 0.725476 0.756739
O O15 0.500000 0.500000 0.000000
O O16 0.148803 0.873772 0.746499
O O17 0.000000 0.000000 0.000000
#
# Coordination Sequence:
#
# PCOD8013773 Si02
#       8
#     2   2   2   2   2   2   2   2
#     4  11  21  39  61  86 126 161 205 253 305 363
#     4  10  23  39  57  91 122 161 207 247 308 372
#     4  10  21  41  61  91 122 161 203 263 303 364
#     4  11  21  39  65  90 120 168 203 258 303 364
#     4  10  22  38  64  89 123 161 209 248 316 365
#     4  11  22  40  61  87 123 161 199 252 314 365
#     4  10  23  39  63  93 121 158 217 248 307 372
#     4  11  22  40  62  90 126 163 204 253 305 371
#
# _framework density 21.093064999999999
#
# number of rings (size 3 to 8) (size 9 to 14) (size 15 to 20)
#    0.000    1.500    1.250    4.125    1.750    3.000 
#    0.000    8.125    0.000    0.000    0.000    0.000 
#    0.000    0.000    0.000    0.000    0.000    0.000 
#
# Total GULP energy -198409.003330 kJ/mol
# GULP energy per Si atom -12400.562708 kJ/mol
# Density = 2.104506 g / cm^3
# Si number density = 21.093065 Si / 1000 Ang^3
#
#
#
# Elastic Constant Matrix: (Units=GPa)
#
#
# Indices 1 2 3 4 5 6 
#
# 1 91.1913 52.0408 32.8542 -22.2221 15.5144 13.1230
# 2 52.0408 121.2282 51.6179 -12.5913 14.3421 6.3606
# 3 32.8542 51.6179 99.0568 -16.5905 17.0760 4.1160
# 4 -22.2221 -12.5913 -16.5905 51.6002 -1.5551 4.2541
# 5 15.5144 14.3421 17.0760 -1.5551 33.6622 -3.0418
# 6 13.1230 6.3606 4.1160 4.2541 -3.0418 32.7817
#
#
#
# Elastic Compliance Matrix: (Units=1/GPa)
#
#
# Indices 1 2 3 4 5 6 
#
# 1 0.018197 -0.005773 -0.000558 0.006687 -0.006015 -0.007520
# 2 -0.005773 0.012688 -0.004838 -0.001001 -0.000286 0.000560
# 3 -0.000558 -0.004838 0.014230 0.003130 -0.004890 -0.001485
# 4 0.006687 -0.001001 0.003130 0.023426 -0.003727 -0.006262
# 5 -0.006015 -0.000286 -0.004890 -0.003727 0.035529 0.006857
# 6 -0.007520 0.000560 -0.001485 -0.006262 0.006857 0.035042
#
#
# Mechanical properties :
#
#
# Convention : Reuss Voigt Hill
#
# Bulk Modulus (GPa) = 43.90529 64.94470 54.42499
# Shear Modulus (GPa) = 29.57859 35.27304 32.42582
#
# Velocity S-wave (km/s) = 3.74878 4.09376 3.92506
# Velocity P-wave (km/s) = 6.29269 7.29394 6.81174
#
# Compressibility (1/GPa) = 0.02277630
#
# Stress axis : x y z
#
# Youngs Moduli (GPa) = 54.95551 78.81513 70.27352
#
# Poissons Ratio (x) = 0.45503 0.03918
# Poissons Ratio (y) = 0.31728 0.34000
# Poissons Ratio (z) = 0.03064 0.38133
#
# Static dielectric constant tensor:
#      x y z
#    x 3.549900 -0.021350 0.114290 
#    y -0.021350 3.997020 0.018790 
#    z 0.114290 0.018790 4.057850 
# 
# 
# High freq. dielectric constant tensor:
#      x y z
#    x 1.805400 0.002790 0.008230 
#    y 0.002790 1.840510 0.000820 
#    z 0.008230 0.000820 1.838340 
# 
# From -- ./inp_files/205290.got.cif
#   From: 2010.06.25/outbox.cif.g09.slc.cpg/sg2_103_cif.got.tgz:205290.got - 2010.06.27 13:26:56.
