data_PCOD8013929
_publ_section_title
;
Structure prediction by ZEFSAII (Michael W. Deem and Ramdas Pophale) SiO2 
 PCOD8013929
Probable space group: P -1
;
_chemical_formula_sum "Si O2"
_cell_formula_units_Z 14
_cell_length_a 12.583379
_cell_length_b 11.344209
_cell_length_c 11.187446
_cell_angle_alpha 104.992973
_cell_angle_beta 79.935200
_cell_angle_gamma 32.530274
_cell_volume 542.663809
_symmetry_space_group_name_H-M "P -1"
_symmetry_group_IT_number 2
_symmetry_cell_setting 'triclinic'
loop_
_space_group_symop_operation_xyz
x,y,z
-x,-y,-z
loop_
_atom_site_type_symbol
_atom_site_label
_atom_site_fract_x
_atom_site_fract_y
_atom_site_fract_z
Si Si1 0.591605 0.203844 0.241585
Si Si2 0.939750 0.824230 0.636676
Si Si3 0.685585 0.757078 0.141983
Si Si4 0.117790 0.468173 0.337673
Si Si5 0.126793 0.638383 0.168688
Si Si6 0.288330 0.698455 0.280767
Si Si7 0.977579 0.671060 0.830840
O O1 0.262336 0.515959 0.434550
O O2 0.571277 0.358185 0.219137
O O3 0.808030 0.982805 0.254477
O O4 0.710178 0.983019 0.059113
O O5 0.868564 0.764941 0.571074
O O6 0.982937 0.770622 0.756279
O O7 0.683108 0.195659 0.753173
O O8 0.704188 0.678307 0.251434
O O9 0.423957 0.130371 0.267609
O O10 0.643375 0.687882 0.039669
O O11 0.000000 0.500000 0.000000
O O12 0.104067 0.604142 0.295000
O O13 0.066514 0.411540 0.245762
O O14 0.253649 0.640564 0.161480
O O15 0.000000 0.000000 0.500000
#
# Coordination Sequence:
#
# PCOD8013929 Si02
#       7
#     2   2   2   2   2   2   2
#     4  10  23  43  68  90 126 172 208 265 319 368
#     4  11  25  43  62  96 130 167 215 260 314 379
#     4  11  23  38  66  98 126 168 210 259 322 378
#     4  12  22  39  64  95 132 164 209 266 314 381
#     4  11  21  37  68  96 120 170 218 254 320 378
#     4  10  21  41  63  94 127 166 216 260 311 378
#     4  11  25  43  63  97 130 164 213 262 321 376
#
# _framework density 25.798663000000001
#
# number of rings (size 3 to 8) (size 9 to 14) (size 15 to 20)
#    0.000    1.143    4.286    3.429    0.000    3.429 
#    2.571    2.857    0.000    0.000    0.000    0.000 
#    0.000    0.000    0.000    0.000    0.000    0.000 
#
# Total GULP energy -173435.106314 kJ/mol
# GULP energy per Si atom -12388.221880 kJ/mol
# Density = 2.573994 g / cm^3
# Si number density = 25.798663 Si / 1000 Ang^3
#
#
#
# Elastic Constant Matrix: (Units=GPa)
#
#
# Indices 1 2 3 4 5 6 
#
# 1 61.5434 29.0645 17.7026 6.0895 26.3667 12.4150
# 2 29.0645 219.4016 41.7819 -5.2558 6.8683 22.2900
# 3 17.7026 41.7819 71.7079 -8.6165 20.5752 7.0180
# 4 6.0895 -5.2558 -8.6165 39.4269 8.7806 7.7456
# 5 26.3667 6.8683 20.5752 8.7806 23.1318 4.1945
# 6 12.4150 22.2900 7.0180 7.7456 4.1945 35.7571
#
#
#
# Elastic Compliance Matrix: (Units=1/GPa)
#
#
# Indices 1 2 3 4 5 6 
#
# 1 0.040140 -0.004502 0.010896 0.009837 -0.056247 -0.008802
# 2 -0.004502 0.005960 -0.004638 -0.000961 0.008214 -0.001998
# 3 0.010896 -0.004638 0.027399 0.013413 -0.039685 -0.004519
# 4 0.009837 -0.000961 0.013413 0.036237 -0.034945 -0.009199
# 5 -0.056247 0.008214 -0.039685 -0.034945 0.151288 0.012020
# 6 -0.008802 -0.001998 -0.004519 -0.009199 0.012020 0.033737
#
#
# Mechanical properties :
#
#
# Convention : Reuss Voigt Hill
#
# Bulk Modulus (GPa) = 12.98511 58.86120 35.92315
# Shear Modulus (GPa) = 15.77682 37.27011 26.52346
#
# Velocity S-wave (km/s) = 2.47561 3.80498 3.20987
# Velocity P-wave (km/s) = 3.63534 6.49376 5.26235
#
# Compressibility (1/GPa) = 0.07701129
#
# Stress axis : x y z
#
# Youngs Moduli (GPa) = 24.91265 167.77673 36.49760
#
# Poissons Ratio (x) = 0.75529 -0.39768
# Poissons Ratio (y) = 0.11215 0.16929
# Poissons Ratio (z) = -0.27145 0.77821
#
# Static dielectric constant tensor:
#      x y z
#    x 4.584570 0.412490 0.451810 
#    y 0.412490 5.938330 0.050020 
#    z 0.451810 0.050020 4.789870 
# 
# 
# High freq. dielectric constant tensor:
#      x y z
#    x 2.004320 0.015530 0.027870 
#    y 0.015530 2.075330 -0.003600 
#    z 0.027870 -0.003600 2.031350 
# 
# From -- ./inp_files/450310.got.cif
#   From: 2010.06.25/outbox.cif.g09.slc.cpg/sg2_226_cif.got.tgz:450310.got - 2010.06.27 13:26:56.
