data_PCOD8013669
_publ_section_title
;
Structure prediction by ZEFSAII (Michael W. Deem and Ramdas Pophale) SiO2 
 PCOD8013669
Probable space group: P -1
;
_chemical_formula_sum "Si O2"
_cell_formula_units_Z 16
_cell_length_a 9.044288
_cell_length_b 12.126623
_cell_length_c 8.261929
_cell_angle_alpha 120.008416
_cell_angle_beta 96.754939
_cell_angle_gamma 67.335087
_cell_volume 720.872738
_symmetry_space_group_name_H-M "P -1"
_symmetry_group_IT_number 2
_symmetry_cell_setting 'triclinic'
loop_
_space_group_symop_operation_xyz
x,y,z
-x,-y,-z
loop_
_atom_site_type_symbol
_atom_site_label
_atom_site_fract_x
_atom_site_fract_y
_atom_site_fract_z
Si Si1 0.297841 0.044757 0.245576
Si Si2 0.624231 0.706813 0.578931
Si Si3 0.880599 0.098460 0.683645
Si Si4 0.203563 0.613469 0.689980
Si Si5 0.392957 0.194782 0.986778
Si Si6 0.305707 0.680883 0.425457
Si Si7 0.498957 0.417096 0.096535
Si Si8 0.917946 0.822281 0.973774
O O1 0.301846 0.189524 0.418489
O O2 0.246998 0.967105 0.325793
O O3 0.175792 0.069238 0.097247
O O4 0.476810 0.957443 0.137987
O O5 0.746077 0.549748 0.448269
O O6 0.598589 0.746780 0.791935
O O7 0.448876 0.735212 0.506131
O O8 0.793903 0.243668 0.689019
O O9 0.975631 0.115396 0.864709
O O10 0.000000 0.000000 0.500000
O O11 0.197727 0.697235 0.583958
O O12 0.323941 0.648645 0.852092
O O13 0.027686 0.677956 0.796331
O O14 0.435335 0.298446 0.949184
O O15 0.212544 0.200977 0.940135
O O16 0.380106 0.517291 0.286549
O O17 0.500000 0.500000 0.000000
#
# Coordination Sequence:
#
# PCOD8013669 Si02
#       8
#     2   2   2   2   2   2   2   2
#     4  11  25  44  71  94 135 176 222 271 327 405
#     4  10  21  40  71 104 123 177 223 272 324 384
#     4  12  28  45  65 100 135 176 217 275 339 393
#     4  11  21  43  72  97 135 172 225 273 330 391
#     4  11  22  42  70  98 134 169 228 268 326 402
#     4  11  22  41  69  95 135 173 224 270 319 406
#     4  11  21  41  68  99 128 178 224 270 328 386
#     4  11  25  44  67 100 128 178 220 278 335 385
#
# _framework density 22.195318
#
# number of rings (size 3 to 8) (size 9 to 14) (size 15 to 20)
#    0.000    1.000    2.500    5.625    3.500    2.500 
#    6.750    1.250    0.000    0.000    0.000    0.000 
#    0.000    0.000    0.000    0.000    0.000    0.000 
#
# Total GULP energy -198400.885993 kJ/mol
# GULP energy per Si atom -12400.055375 kJ/mol
# Density = 2.214480 g / cm^3
# Si number density = 22.195318 Si / 1000 Ang^3
#
#
#
# Elastic Constant Matrix: (Units=GPa)
#
#
# Indices 1 2 3 4 5 6 
#
# 1 130.4790 65.4793 46.3928 16.0540 -14.3940 2.9802
# 2 65.4793 108.8543 26.2762 6.2124 -3.7783 9.7675
# 3 46.3928 26.2762 76.8458 14.8617 -8.5925 0.4885
# 4 16.0540 6.2124 14.8617 34.2871 -2.9231 -2.7209
# 5 -14.3940 -3.7783 -8.5925 -2.9231 39.1062 7.3369
# 6 2.9802 9.7675 0.4885 -2.7209 7.3369 39.2758
#
#
#
# Elastic Compliance Matrix: (Units=1/GPa)
#
#
# Indices 1 2 3 4 5 6 
#
# 1 0.013413 -0.006602 -0.004986 -0.002671 0.003016 -0.000062
# 2 -0.006602 0.013534 -0.000851 0.000732 -0.000755 -0.002663
# 3 -0.004986 -0.000851 0.017454 -0.004962 0.001597 -0.000269
# 4 -0.002671 0.000732 -0.004962 0.032620 -0.000004 0.002343
# 5 0.003016 -0.000755 0.001597 -0.000004 0.027950 -0.005282
# 6 -0.000062 -0.002663 -0.000269 0.002343 -0.005282 0.027280
#
#
# Mechanical properties :
#
#
# Convention : Reuss Voigt Hill
#
# Bulk Modulus (GPa) = 51.22212 65.83065 58.52639
# Shear Modulus (GPa) = 30.55550 34.40252 32.47901
#
# Velocity S-wave (km/s) = 3.71437 3.94126 3.82950
# Velocity P-wave (km/s) = 6.44386 7.10179 6.78081
#
# Compressibility (1/GPa) = 0.01952282
#
# Stress axis : x y z
#
# Youngs Moduli (GPa) = 74.55676 73.88660 57.29304
#
# Poissons Ratio (x) = 0.48779 0.28566
# Poissons Ratio (y) = 0.49222 0.04877
# Poissons Ratio (z) = 0.37173 0.06290
#
# Static dielectric constant tensor:
#      x y z
#    x 4.438030 -0.276160 0.080480 
#    y -0.276160 4.965140 0.021590 
#    z 0.080480 0.021590 4.234200 
# 
# 
# High freq. dielectric constant tensor:
#      x y z
#    x 1.876060 0.003660 -0.008390 
#    y 0.003660 1.876630 0.011160 
#    z -0.008390 0.011160 1.871240 
# 
# From -- ./inp_files/190185.got.cif
#   From: 2010.06.25/outbox.cif.g09.slc.cpg/sg2_96_cif.got.tgz:190185.got - 2010.06.27 13:26:56.
