data_PCOD8013685
_publ_section_title
;
Structure prediction by ZEFSAII (Michael W. Deem and Ramdas Pophale) SiO2 
 PCOD8013685
Probable space group: P -1
;
_chemical_formula_sum "Si O2"
_cell_formula_units_Z 16
_cell_length_a 9.459603
_cell_length_b 12.898791
_cell_length_c 11.743077
_cell_angle_alpha 93.729109
_cell_angle_beta 62.211953
_cell_angle_gamma 48.184302
_cell_volume 776.201469
_symmetry_space_group_name_H-M "P -1"
_symmetry_group_IT_number 2
_symmetry_cell_setting 'triclinic'
loop_
_space_group_symop_operation_xyz
x,y,z
-x,-y,-z
loop_
_atom_site_type_symbol
_atom_site_label
_atom_site_fract_x
_atom_site_fract_y
_atom_site_fract_z
Si Si1 0.057892 0.267193 0.918688
Si Si2 0.574995 0.025739 0.582452
Si Si3 0.135495 0.928279 0.564159
Si Si4 0.766647 0.560571 0.883949
Si Si5 0.788720 0.242476 0.862897
Si Si6 0.217545 0.201015 0.105002
Si Si7 0.886259 0.349508 0.642855
Si Si8 0.229997 0.643558 0.550292
O O1 0.360970 0.126255 0.766544
O O2 0.899522 0.448670 0.942252
O O3 0.944856 0.219941 0.903408
O O4 0.059986 0.253703 0.052697
O O5 0.610308 0.128227 0.541935
O O6 0.500000 0.000000 0.500000
O O7 0.842864 0.839915 0.514082
O O8 0.210333 0.774516 0.548220
O O9 0.000000 0.000000 0.500000
O O10 0.951278 0.060812 0.745297
O O11 0.743685 0.695278 0.902479
O O12 0.924316 0.438777 0.703539
O O13 0.481903 0.658843 0.981245
O O14 0.739816 0.346395 0.783978
O O15 0.022318 0.270066 0.283578
O O16 0.500000 0.000000 0.000000
O O17 0.731817 0.439592 0.588875
O O18 0.500000 0.500000 0.500000
#
# Coordination Sequence:
#
# PCOD8013685 Si02
#       8
#     2   2   2   2   2   2   2   2
#     4  11  23  42  72  99 129 169 226 277 322 396
#     4  11  19  38  71 104 125 158 225 282 322 378
#     4  11  22  42  72  93 129 176 223 268 329 389
#     4  11  24  42  73  96 126 175 228 276 328 382
#     4  10  21  40  72 100 123 166 227 281 323 382
#     4  12  29  48  62  96 146 180 214 271 341 404
#     4  10  21  42  66  98 133 169 218 283 325 388
#     4  12  28  43  65 100 139 177 220 273 331 398
#
# _framework density 20.613206000000002
#
# number of rings (size 3 to 8) (size 9 to 14) (size 15 to 20)
#    0.000    1.000    6.250    3.375    7.000    0.500 
#    2.250    1.250    0.000    0.000    0.000    0.000 
#    0.000    0.000    0.000    0.000    0.000    0.000 
#
# Total GULP energy -198330.995408 kJ/mol
# GULP energy per Si atom -12395.687213 kJ/mol
# Density = 2.056629 g / cm^3
# Si number density = 20.613206 Si / 1000 Ang^3
#
#
#
# Elastic Constant Matrix: (Units=GPa)
#
#
# Indices 1 2 3 4 5 6 
#
# 1 126.1160 64.1310 49.5597 -9.7919 6.2386 -2.9356
# 2 64.1310 122.6823 26.5187 0.3814 13.5277 0.4657
# 3 49.5597 26.5187 82.8391 -6.4550 -1.1234 -1.1877
# 4 -9.7919 0.3814 -6.4550 27.2843 -6.5458 8.3395
# 5 6.2386 13.5277 -1.1234 -6.5458 45.9250 -1.6302
# 6 -2.9356 0.4657 -1.1877 8.3395 -1.6302 33.0791
#
#
#
# Elastic Compliance Matrix: (Units=1/GPa)
#
#
# Indices 1 2 3 4 5 6 
#
# 1 0.013471 -0.005800 -0.005923 0.003514 0.000241 0.000190
# 2 -0.005800 0.011653 -0.000545 -0.003096 -0.003102 -0.000071
# 3 -0.005923 -0.000545 0.015976 0.002185 0.001652 -0.000414
# 4 0.003514 -0.003096 0.002185 0.043068 0.006267 -0.010115
# 5 0.000241 -0.003102 0.001652 0.006267 0.023579 -0.000294
# 6 0.000190 -0.000071 -0.000414 -0.010115 -0.000294 0.032769
#
#
# Mechanical properties :
#
#
# Convention : Reuss Voigt Hill
#
# Bulk Modulus (GPa) = 60.36812 68.00625 64.18719
# Shear Modulus (GPa) = 29.31301 34.01955 31.66628
#
# Velocity S-wave (km/s) = 3.77510 4.06689 3.92371
# Velocity P-wave (km/s) = 6.95353 7.42402 7.19262
#
# Compressibility (1/GPa) = 0.01656503
#
# Stress axis : x y z
#
# Youngs Moduli (GPa) = 74.23107 85.81732 62.59340
#
# Poissons Ratio (x) = 0.49774 0.37074
# Poissons Ratio (y) = 0.43054 0.03409
# Poissons Ratio (z) = 0.43967 0.04674
#
# Static dielectric constant tensor:
#      x y z
#    x 5.817690 -2.919580 -2.939040 
#    y -2.919580 8.242970 5.018800 
#    z -2.939040 5.018800 8.981250 
# 
# 
# High freq. dielectric constant tensor:
#      x y z
#    x 1.824970 -0.000180 0.005180 
#    y -0.000180 1.790960 0.011220 
#    z 0.005180 0.011220 1.811240 
# 
# From -- ./inp_files/392583.got.cif
#   From: 2010.06.25/outbox.cif.g09.slc.cpg/sg2_197_cif.got.tgz:392583.got - 2010.06.27 13:26:56.
