data_PCOD8013174
_publ_section_title
;
Structure prediction by ZEFSAII (Michael W. Deem and Ramdas Pophale) SiO2 
 PCOD8013174
Probable space group: P -1
;
_chemical_formula_sum "Si O2"
_cell_formula_units_Z 16
_cell_length_a 8.526180
_cell_length_b 11.896887
_cell_length_c 8.977878
_cell_angle_alpha 89.171252
_cell_angle_beta 50.882950
_cell_angle_gamma 80.699348
_cell_volume 692.695507
_symmetry_space_group_name_H-M "P -1"
_symmetry_group_IT_number 2
_symmetry_cell_setting 'triclinic'
loop_
_space_group_symop_operation_xyz
x,y,z
-x,-y,-z
loop_
_atom_site_type_symbol
_atom_site_label
_atom_site_fract_x
_atom_site_fract_y
_atom_site_fract_z
Si Si1 0.523665 0.191823 0.018258
Si Si2 0.554986 0.975179 0.190376
Si Si3 0.947523 0.889915 0.110350
Si Si4 0.302933 0.476731 0.913745
Si Si5 0.876605 0.928083 0.481779
Si Si6 0.957864 0.335714 0.113052
Si Si7 0.907829 0.707092 0.648710
Si Si8 0.737874 0.380542 0.771268
O O1 0.332970 0.301195 0.172036
O O2 0.609460 0.099164 0.100431
O O3 0.445797 0.112810 0.943023
O O4 0.704858 0.255462 0.851330
O O5 0.707103 0.904257 0.219671
O O6 0.348537 0.997007 0.410546
O O7 0.988521 0.886355 0.261858
O O8 0.065561 0.770894 0.973880
O O9 0.000000 0.000000 0.000000
O O10 0.240050 0.567460 0.815415
O O11 0.548874 0.430771 0.771390
O O12 0.233598 0.535332 0.113258
O O13 0.175660 0.376665 0.959808
O O14 0.855294 0.832222 0.612790
O O15 0.000000 0.000000 0.500000
O O16 0.947384 0.301257 0.292432
O O17 0.043886 0.626541 0.445691
#
# Coordination Sequence:
#
# PCOD8013174 Si02
#       8
#     2   2   2   2   2   2   2   2
#     4  10  21  40  65  99 139 169 222 269 337 389
#     4  10  22  39  65  93 138 181 209 277 329 393
#     4  12  25  40  67 100 135 178 221 273 333 400
#     4  10  24  43  69  94 132 176 219 282 331 389
#     4  11  24  40  63 101 131 175 225 268 333 406
#     4  11  23  45  64  96 137 172 222 277 335 386
#     4  11  22  39  68  94 132 173 216 279 324 394
#     4  11  22  42  69  98 124 177 224 271 334 399
#
# _framework density 23.09817
#
# number of rings (size 3 to 8) (size 9 to 14) (size 15 to 20)
#    0.000    1.250    2.500    2.625    7.000    1.000 
#    0.000    1.250    0.000    0.000    0.000    0.000 
#    0.000    0.000    0.000    0.000    0.000    0.000 
#
# Total GULP energy -198238.127427 kJ/mol
# GULP energy per Si atom -12389.882964 kJ/mol
# Density = 2.304560 g / cm^3
# Si number density = 23.098170 Si / 1000 Ang^3
#
#
#
# Elastic Constant Matrix: (Units=GPa)
#
#
# Indices 1 2 3 4 5 6 
#
# 1 61.5095 23.3800 0.8565 -3.5677 15.2981 -14.6771
# 2 23.3800 92.9631 19.3176 6.6365 2.0750 4.8175
# 3 0.8565 19.3176 93.9659 7.2913 6.9764 -3.2979
# 4 -3.5677 6.6365 7.2913 26.0705 -6.1451 -1.2276
# 5 15.2981 2.0750 6.9764 -6.1451 35.0732 6.3455
# 6 -14.6771 4.8175 -3.2979 -1.2276 6.3455 43.5798
#
#
#
# Elastic Compliance Matrix: (Units=1/GPa)
#
#
# Indices 1 2 3 4 5 6 
#
# 1 0.024911 -0.007224 0.002422 0.002135 -0.012584 0.011264
# 2 -0.007224 0.013567 -0.002888 -0.003094 0.003232 -0.004709
# 3 0.002422 -0.002888 0.011863 -0.003134 -0.004258 0.002564
# 4 0.002135 -0.003094 -0.003134 0.042024 0.007061 0.000979
# 5 -0.012584 0.003232 -0.004258 0.007061 0.037741 -0.010214
# 6 0.011264 -0.004709 0.002564 0.000979 -0.010214 0.028969
#
#
# Mechanical properties :
#
#
# Convention : Reuss Voigt Hill
#
# Bulk Modulus (GPa) = 28.60351 37.28297 32.94324
# Shear Modulus (GPa) = 26.86591 34.60365 30.73478
#
# Velocity S-wave (km/s) = 3.41415 3.87474 3.65172
# Velocity P-wave (km/s) = 5.28699 6.01617 5.66333
#
# Compressibility (1/GPa) = 0.03496075
#
# Stress axis : x y z
#
# Youngs Moduli (GPa) = 40.14308 73.71034 84.29402
#
# Poissons Ratio (x) = 0.53245 -0.20415
# Poissons Ratio (y) = 0.28998 0.24347
# Poissons Ratio (z) = -0.09722 0.21290
#
# Static dielectric constant tensor:
#      x y z
#    x 4.567150 -0.454890 0.012500 
#    y -0.454890 4.343550 0.032500 
#    z 0.012500 0.032500 4.067790 
# 
# 
# High freq. dielectric constant tensor:
#      x y z
#    x 1.923360 -0.020700 -0.005600 
#    y -0.020700 1.924480 0.003830 
#    z -0.005600 0.003830 1.892890 
# 
# From -- ./inp_files/187237.got.cif
#   From: 2010.06.25/outbox.cif.g09.slc.cpg/sg2_94_cif.got.tgz:187237.got - 2010.06.27 13:26:56.
