data_PCOD8013367
_publ_section_title
;
Structure prediction by ZEFSAII (Michael W. Deem and Ramdas Pophale) SiO2 
 PCOD8013367
Probable space group: P -1
;
_chemical_formula_sum "Si O2"
_cell_formula_units_Z 16
_cell_length_a 9.988066
_cell_length_b 26.127748
_cell_length_c 9.889247
_cell_angle_alpha 26.297209
_cell_angle_beta 59.853180
_cell_angle_gamma 48.198605
_cell_volume 816.022127
_symmetry_space_group_name_H-M "P -1"
_symmetry_group_IT_number 2
_symmetry_cell_setting 'triclinic'
loop_
_space_group_symop_operation_xyz
x,y,z
-x,-y,-z
loop_
_atom_site_type_symbol
_atom_site_label
_atom_site_fract_x
_atom_site_fract_y
_atom_site_fract_z
Si Si1 0.218635 0.930661 0.570276
Si Si2 0.905673 0.917691 0.233896
Si Si3 0.274082 0.640556 0.649141
Si Si4 0.719011 0.911415 0.612513
Si Si5 0.784008 0.622943 0.309116
Si Si6 0.580760 0.647310 0.628259
Si Si7 0.603964 0.074472 0.788418
Si Si8 0.462665 0.628765 0.303775
O O1 0.304416 0.918154 0.411202
O O2 0.231432 0.040161 0.392977
O O3 0.333723 0.775695 0.943404
O O4 0.000000 0.000000 0.500000
O O5 0.807940 0.937749 0.378217
O O6 0.054613 0.756772 0.501465
O O7 0.756931 0.983660 0.036409
O O8 0.000000 0.000000 0.000000
O O9 0.383680 0.672799 0.625865
O O10 0.344929 0.637800 0.470588
O O11 0.297058 0.496151 0.011495
O O12 0.500000 0.000000 0.500000
O O13 0.794130 0.751073 0.959072
O O14 0.691633 0.646840 0.444658
O O15 0.662835 0.600358 0.314419
O O16 0.000000 0.500000 0.500000
O O17 0.544554 0.768334 0.459283
O O18 0.500000 0.000000 0.000000
O O19 0.500000 0.500000 0.500000
#
# Coordination Sequence:
#
# PCOD8013367 Si02
#       8
#     2   2   2   2   2   2   2   2
#     4  12  26  42  67 100 133 172 219 273 328 388
#     4  12  23  42  70  97 124 173 229 265 313 397
#     4  10  21  40  67  93 122 167 222 265 309 383
#     4  12  24  44  69  96 134 175 221 272 331 389
#     4  11  24  42  67  95 129 175 222 267 325 397
#     4  10  21  41  65  92 127 168 214 265 319 381
#     4  12  25  42  64  96 136 168 209 270 337 379
#     4  11  24  43  65  94 135 172 216 273 331 386
#
# _framework density 19.607313000000001
#
# number of rings (size 3 to 8) (size 9 to 14) (size 15 to 20)
#    0.000    0.750    2.500    6.000    1.750    0.000 
#    2.250    0.625    0.000    0.000    0.000    0.000 
#    0.000    0.000    0.000    0.000    0.000    0.000 
#
# Total GULP energy -198445.558913 kJ/mol
# GULP energy per Si atom -12402.847432 kJ/mol
# Density = 1.956269 g / cm^3
# Si number density = 19.607313 Si / 1000 Ang^3
#
#
#
# Elastic Constant Matrix: (Units=GPa)
#
#
# Indices 1 2 3 4 5 6 
#
# 1 152.7521 67.4678 68.4089 -9.3039 -1.0055 5.7379
# 2 67.4678 136.1275 66.7836 -2.2653 -2.9806 5.9607
# 3 68.4089 66.7836 150.9816 -0.8192 0.1583 5.1389
# 4 -9.3039 -2.2653 -0.8192 49.1264 3.6939 1.2447
# 5 -1.0055 -2.9806 0.1583 3.6939 38.0953 -3.3815
# 6 5.7379 5.9607 5.1389 1.2447 -3.3815 40.0459
#
#
#
# Elastic Compliance Matrix: (Units=1/GPa)
#
#
# Indices 1 2 3 4 5 6 
#
# 1 0.009327 -0.003213 -0.002776 0.001601 -0.000199 -0.000568
# 2 -0.003213 0.010542 -0.003188 -0.000214 0.000718 -0.000632
# 3 -0.002776 -0.003188 0.009300 -0.000483 -0.000344 -0.000335
# 4 0.001601 -0.000214 -0.000483 0.020821 -0.002076 -0.000958
# 5 -0.000199 0.000718 -0.000344 -0.002076 0.026707 0.002286
# 6 -0.000568 -0.000632 -0.000335 -0.000958 0.002286 0.025413
#
#
# Mechanical properties :
#
#
# Convention : Reuss Voigt Hill
#
# Bulk Modulus (GPa) = 92.46460 93.90908 93.18684
# Shear Modulus (GPa) = 40.29995 41.26691 40.78343
#
# Velocity S-wave (km/s) = 4.53852 4.59264 4.56566
# Velocity P-wave (km/s) = 8.64435 8.72480 8.68467
#
# Compressibility (1/GPa) = 0.01081495
#
# Stress axis : x y z
#
# Youngs Moduli (GPa) = 107.21866 94.85550 107.52242
#
# Poissons Ratio (x) = 0.30480 0.29851
# Poissons Ratio (y) = 0.34453 0.34274
# Poissons Ratio (z) = 0.29767 0.30236
#
# Static dielectric constant tensor:
#      x y z
#    x 3.714920 -0.115910 0.130340 
#    y -0.115910 3.894150 -0.161340 
#    z 0.130340 -0.161340 3.926800 
# 
# 
# High freq. dielectric constant tensor:
#      x y z
#    x 1.767250 -0.001490 0.000710 
#    y -0.001490 1.779780 0.001240 
#    z 0.000710 0.001240 1.788880 
# 
# From -- ./inp_files/225835.got.cif
#   From: 2010.06.25/outbox.cif.g09.slc.cpg/sg2_113_cif.got.tgz:225835.got - 2010.06.27 13:26:56.
