data_PCOD8013291
_publ_section_title
;
Structure prediction by ZEFSAII (Michael W. Deem and Ramdas Pophale) SiO2 
 PCOD8013291
Probable space group: P -1
;
_chemical_formula_sum "Si O2"
_cell_formula_units_Z 16
_cell_length_a 11.671170
_cell_length_b 6.374136
_cell_length_c 14.767999
_cell_angle_alpha 96.920567
_cell_angle_beta 132.348158
_cell_angle_gamma 105.598012
_cell_volume 708.390650
_symmetry_space_group_name_H-M "P -1"
_symmetry_group_IT_number 2
_symmetry_cell_setting 'triclinic'
loop_
_space_group_symop_operation_xyz
x,y,z
-x,-y,-z
loop_
_atom_site_type_symbol
_atom_site_label
_atom_site_fract_x
_atom_site_fract_y
_atom_site_fract_z
Si Si1 0.045136 0.097513 0.215879
Si Si2 0.345688 0.971182 0.350258
Si Si3 0.511871 0.155820 0.262237
Si Si4 0.697386 0.669817 0.952461
Si Si5 0.397272 0.193181 0.799571
Si Si6 0.142926 0.465083 0.130709
Si Si7 0.834102 0.601075 0.390031
Si Si8 0.899697 0.244211 0.308908
O O1 0.055513 0.223072 0.131779
O O2 0.017905 0.256071 0.286993
O O3 0.216087 0.065667 0.328567
O O4 0.877844 0.830335 0.109934
O O5 0.240801 0.689492 0.260229
O O6 0.500000 0.000000 0.500000
O O7 0.423121 0.132134 0.310697
O O8 0.393194 0.170912 0.118000
O O9 0.702713 0.389225 0.376164
O O10 0.528373 0.917855 0.241838
O O11 0.562539 0.446539 0.933404
O O12 0.723218 0.553701 0.868590
O O13 0.248877 0.236591 0.676186
O O14 0.294314 0.996400 0.813623
O O15 0.000000 0.500000 0.000000
O O16 0.875957 0.482854 0.316980
O O17 0.008606 0.767882 0.548815
#
# Coordination Sequence:
#
# PCOD8013291 Si02
#       8
#     2   2   2   2   2   2   2   2
#     4  12  27  42  67 102 140 172 226 287 329 401
#     4  12  27  41  66 108 138 173 222 284 342 400
#     4  10  21  40  66  96 130 175 226 270 334 400
#     4  11  22  42  68  94 130 182 231 272 325 403
#     4  10  21  40  69  93 124 178 227 267 325 403
#     4  12  24  45  70  94 134 189 225 268 342 406
#     4   9  21  42  67  90 132 182 218 271 337 407
#     4  10  23  42  63  98 134 174 219 275 340 395
#
# _framework density 22.586407999999999
#
# number of rings (size 3 to 8) (size 9 to 14) (size 15 to 20)
#    0.000    1.250    3.750    1.500    3.500    2.000 
#    0.000    5.625    0.000    0.000    0.000    0.000 
#    0.000    0.000    0.000    0.000    0.000    0.000 
#
# Total GULP energy -198369.666048 kJ/mol
# GULP energy per Si atom -12398.104128 kJ/mol
# Density = 2.253500 g / cm^3
# Si number density = 22.586408 Si / 1000 Ang^3
#
#
#
# Elastic Constant Matrix: (Units=GPa)
#
#
# Indices 1 2 3 4 5 6 
#
# 1 136.4834 33.4385 32.8226 -1.1648 6.9974 -22.6701
# 2 33.4385 82.1166 37.3084 3.3799 9.5819 -15.4785
# 3 32.8226 37.3084 104.5311 1.7377 20.8298 -8.3340
# 4 -1.1648 3.3799 1.7377 30.8119 -3.0522 9.9557
# 5 6.9974 9.5819 20.8298 -3.0522 31.8005 -2.0923
# 6 -22.6701 -15.4785 -8.3340 9.9557 -2.0923 38.5926
#
#
#
# Elastic Compliance Matrix: (Units=1/GPa)
#
#
# Indices 1 2 3 4 5 6 
#
# 1 0.008939 -0.002021 -0.001732 -0.000717 -0.000013 0.004251
# 2 -0.002021 0.016307 -0.004399 -0.003457 -0.001577 0.005210
# 3 -0.001732 -0.004399 0.013077 -0.000984 -0.006959 -0.000081
# 4 -0.000717 -0.003457 -0.000984 0.036976 0.004649 -0.011307
# 5 -0.000013 -0.001577 -0.006959 0.004649 0.036840 -0.001344
# 6 0.004251 0.005210 -0.000081 -0.011307 -0.001344 0.033325
#
#
# Mechanical properties :
#
#
# Convention : Reuss Voigt Hill
#
# Bulk Modulus (GPa) = 45.41351 58.91892 52.16622
# Shear Modulus (GPa) = 29.56686 34.87844 32.22265
#
# Velocity S-wave (km/s) = 3.62201 3.93392 3.78119
# Velocity P-wave (km/s) = 6.13532 6.83937 6.49689
#
# Compressibility (1/GPa) = 0.02201988
#
# Stress axis : x y z
#
# Youngs Moduli (GPa) = 111.86693 61.32151 76.47030
#
# Poissons Ratio (x) = 0.12392 0.13247
# Poissons Ratio (y) = 0.22606 0.33638
# Poissons Ratio (z) = 0.19379 0.26974
#
# Static dielectric constant tensor:
#      x y z
#    x 4.285140 -0.088040 0.341940 
#    y -0.088040 4.081140 0.091510 
#    z 0.341940 0.091510 3.653030 
# 
# 
# High freq. dielectric constant tensor:
#      x y z
#    x 1.902960 -0.010760 0.025340 
#    y -0.010760 1.899200 0.014410 
#    z 0.025340 0.014410 1.867350 
# 
# From -- ./inp_files/71477.got.cif
#   From: 2010.06.25/outbox.cif.g09.slc.cpg/sg2_36_cif.got.tgz:71477.got - 2010.06.27 13:26:56.
