data_PCOD8013444
_publ_section_title
;
Structure prediction by ZEFSAII (Michael W. Deem and Ramdas Pophale) SiO2 
 PCOD8013444
Probable space group: P -1
;
_chemical_formula_sum "Si O2"
_cell_formula_units_Z 14
_cell_length_a 12.174394
_cell_length_b 10.106071
_cell_length_c 17.680403
_cell_angle_alpha 43.957616
_cell_angle_beta 150.319697
_cell_angle_gamma 143.522847
_cell_volume 638.683700
_symmetry_space_group_name_H-M "P -1"
_symmetry_group_IT_number 2
_symmetry_cell_setting 'triclinic'
loop_
_space_group_symop_operation_xyz
x,y,z
-x,-y,-z
loop_
_atom_site_type_symbol
_atom_site_label
_atom_site_fract_x
_atom_site_fract_y
_atom_site_fract_z
Si Si1 0.332569 0.738304 0.528686
Si Si2 0.625432 0.959476 0.165349
Si Si3 0.487133 0.767203 0.904968
Si Si4 0.550105 0.975733 0.699995
Si Si5 0.531942 0.567870 0.363228
Si Si6 0.210283 0.198688 0.431987
Si Si7 0.076225 0.297581 0.795315
O O1 0.382715 0.746141 0.645088
O O2 0.410444 0.587351 0.590731
O O3 0.030731 0.645954 0.367242
O O4 0.500000 0.000000 0.500000
O O5 0.460919 0.709072 0.204913
O O6 0.646227 0.130897 0.168931
O O7 0.919092 0.014023 0.308538
O O8 0.500000 0.000000 0.000000
O O9 0.592001 0.895282 0.837018
O O10 0.264355 0.511321 0.869706
O O11 0.749354 0.803279 0.086472
O O12 0.397461 0.105893 0.563362
O O13 0.833463 0.135657 0.769118
O O14 0.292430 0.414249 0.339166
O O15 0.768805 0.733115 0.494173
#
# Coordination Sequence:
#
# PCOD8013444 Si02
#       7
#     2   2   2   2   2   2   2
#     4  10  21  40  68 101 128 166 228 278 322 388
#     4  12  29  43  65 101 140 177 223 274 338 404
#     4  11  25  43  65  96 137 178 216 270 335 403
#     4  11  23  42  71  99 126 173 225 276 325 390
#     4  11  23  45  72  98 134 178 222 281 328 392
#     4  11  24  43  73  99 129 180 226 270 333 398
#     4  10  23  43  66  95 136 172 215 277 332 394
#
# _framework density 21.920083999999999
#
# number of rings (size 3 to 8) (size 9 to 14) (size 15 to 20)
#    0.000    1.143    4.286    1.714    6.000    3.429 
#    0.000    0.000    0.000    0.000    0.000    0.000 
#    0.000    0.000    0.000    0.000    0.000    0.000 
#
# Total GULP energy -173494.464554 kJ/mol
# GULP energy per Si atom -12392.461754 kJ/mol
# Density = 2.187019 g / cm^3
# Si number density = 21.920084 Si / 1000 Ang^3
#
#
#
# Elastic Constant Matrix: (Units=GPa)
#
#
# Indices 1 2 3 4 5 6 
#
# 1 114.2876 -50.6187 48.0251 3.6125 -72.8925 -15.6059
# 2 -50.6187 246.0906 23.6341 0.3263 113.0759 9.2583
# 3 48.0251 23.6341 120.2618 1.8278 -12.2187 1.1561
# 4 3.6125 0.3263 1.8278 34.2070 8.9666 -3.5002
# 5 -72.8925 113.0759 -12.2187 8.9666 125.3315 10.8477
# 6 -15.6059 9.2583 1.1561 -3.5002 10.8477 41.4626
#
#
#
# Elastic Compliance Matrix: (Units=1/GPa)
#
#
# Indices 1 2 3 4 5 6 
#
# 1 0.018604 -0.000669 -0.006185 -0.004018 0.010747 0.004173
# 2 -0.000669 0.007619 -0.002041 0.002139 -0.007639 0.000283
# 3 -0.006185 -0.002041 0.011156 -0.000006 -0.000489 -0.002056
# 4 -0.004018 0.002139 -0.000006 0.031656 -0.006743 0.002447
# 5 0.010747 -0.007639 -0.000489 -0.006743 0.021596 -0.000455
# 6 0.004173 0.000283 -0.002056 0.002447 -0.000455 0.026009
#
#
# Mechanical properties :
#
#
# Convention : Reuss Voigt Hill
#
# Bulk Modulus (GPa) = 51.05196 58.08012 54.56604
# Shear Modulus (GPa) = 35.47143 70.84019 53.15581
#
# Velocity S-wave (km/s) = 4.02707 5.69101 4.92975
# Velocity P-wave (km/s) = 6.70549 8.35089 7.57301
#
# Compressibility (1/GPa) = 0.01958788
#
# Stress axis : x y z
#
# Youngs Moduli (GPa) = 53.75326 131.25635 89.63527
#
# Poissons Ratio (x) = 0.08783 0.55437
# Poissons Ratio (y) = 0.03597 0.18298
# Poissons Ratio (z) = 0.33245 0.26795
#
# Static dielectric constant tensor:
#      x y z
#    x 4.324480 -0.266200 -0.419430 
#    y -0.266200 4.224550 0.121650 
#    z -0.419430 0.121650 4.418700 
# 
# 
# High freq. dielectric constant tensor:
#      x y z
#    x 1.863730 -0.002140 -0.004140 
#    y -0.002140 1.867960 -0.004110 
#    z -0.004140 -0.004110 1.859740 
# 
# From -- ./inp_files/402750.got.cif
#   From: 2010.06.25/outbox.cif.g09.slc.cpg/sg2_202_cif.got.tgz:402750.got - 2010.06.27 13:26:56.
