data_PCOD8013666
_publ_section_title
;
Structure prediction by ZEFSAII (Michael W. Deem and Ramdas Pophale) SiO2 
 PCOD8013666
Probable space group: P -1
;
_chemical_formula_sum "Si O2"
_cell_formula_units_Z 14
_cell_length_a 8.567339
_cell_length_b 8.983035
_cell_length_c 10.129738
_cell_angle_alpha 77.846233
_cell_angle_beta 124.198346
_cell_angle_gamma 113.925235
_cell_volume 589.237703
_symmetry_space_group_name_H-M "P -1"
_symmetry_group_IT_number 2
_symmetry_cell_setting 'triclinic'
loop_
_space_group_symop_operation_xyz
x,y,z
-x,-y,-z
loop_
_atom_site_type_symbol
_atom_site_label
_atom_site_fract_x
_atom_site_fract_y
_atom_site_fract_z
Si Si1 0.462057 0.373854 0.643594
Si Si2 0.382057 0.855478 0.375599
Si Si3 0.363741 0.254947 0.899447
Si Si4 0.214973 0.576608 0.522390
Si Si5 0.754245 0.449981 0.173903
Si Si6 0.077970 0.409718 0.162948
Si Si7 0.145256 0.931845 0.004593
O O1 0.465048 0.239031 0.564425
O O2 0.349522 0.266083 0.734199
O O3 0.311278 0.464552 0.501998
O O4 0.680957 0.513033 0.744819
O O5 0.208992 0.731773 0.408640
O O6 0.291521 0.893615 0.189204
O O7 0.500000 0.000000 0.500000
O O8 0.251469 0.368941 0.891175
O O9 0.603392 0.321749 0.027859
O O10 0.274558 0.069361 0.938924
O O11 0.340452 0.614830 0.713571
O O12 0.000000 0.500000 0.500000
O O13 0.981601 0.446655 0.251046
O O14 0.989622 0.219000 0.120803
O O15 0.000000 0.500000 0.000000
O O16 0.000000 0.000000 0.000000
#
# Coordination Sequence:
#
# PCOD8013666 Si02
#       7
#     2   2   2   2   2   2   2
#     4  11  25  46  75 104 137 188 244 288 356 424
#     4  12  27  47  68 105 148 187 232 291 356 423
#     4  10  22  41  70 103 137 179 234 298 346 409
#     4  11  26  45  71  97 140 191 238 285 348 437
#     4  10  21  40  71 100 138 180 238 285 355 413
#     4  12  22  43  73 106 139 183 237 297 353 422
#     4  12  28  42  72 105 148 182 239 295 355 411
#
# _framework density 23.759513999999999
#
# number of rings (size 3 to 8) (size 9 to 14) (size 15 to 20)
#    0.000    0.857    2.857    3.000   10.000    3.429 
#    0.000    0.714    0.000    0.000    0.000    0.000 
#    0.000    0.000    0.000    0.000    0.000    0.000 
#
# Total GULP energy -173496.606274 kJ/mol
# GULP energy per Si atom -12392.614734 kJ/mol
# Density = 2.370544 g / cm^3
# Si number density = 23.759514 Si / 1000 Ang^3
#
#
#
# Elastic Constant Matrix: (Units=GPa)
#
#
# Indices 1 2 3 4 5 6 
#
# 1 143.2095 70.0664 28.4075 7.1787 12.0066 -3.0474
# 2 70.0664 198.0636 57.6660 -0.5316 -10.9656 10.6266
# 3 28.4075 57.6660 67.2761 -9.9741 0.8928 4.5037
# 4 7.1787 -0.5316 -9.9741 49.1584 3.7458 -15.1968
# 5 12.0066 -10.9656 0.8928 3.7458 48.2303 -4.6274
# 6 -3.0474 10.6266 4.5037 -15.1968 -4.6274 38.8453
#
#
#
# Elastic Compliance Matrix: (Units=1/GPa)
#
#
# Indices 1 2 3 4 5 6 
#
# 1 0.009033 -0.002972 -0.001463 -0.001158 -0.002720 0.000914
# 2 -0.002972 0.008018 -0.005734 -0.001466 0.002588 -0.002027
# 3 -0.001463 -0.005734 0.021079 0.004763 -0.001634 0.000678
# 4 -0.001158 -0.001466 0.004763 0.024381 -0.001148 0.009160
# 5 -0.002720 0.002588 -0.001634 -0.001148 0.022260 0.001471
# 6 0.000914 -0.002027 0.000678 0.009160 0.001471 0.030049
#
#
# Mechanical properties :
#
#
# Convention : Reuss Voigt Hill
#
# Bulk Modulus (GPa) = 56.20693 80.09213 68.14953
# Shear Modulus (GPa) = 35.43889 44.07410 39.75649
#
# Velocity S-wave (km/s) = 3.86627 4.31165 4.09502
# Velocity P-wave (km/s) = 6.60596 7.65309 7.14872
#
# Compressibility (1/GPa) = 0.01779140
#
# Stress axis : x y z
#
# Youngs Moduli (GPa) = 110.70921 124.72421 47.44071
#
# Poissons Ratio (x) = 0.37068 0.06943
# Poissons Ratio (y) = 0.32903 0.27200
# Poissons Ratio (z) = 0.16201 0.71511
#
# Static dielectric constant tensor:
#      x y z
#    x 4.485540 -0.020200 1.098010 
#    y -0.020200 4.809780 -0.204330 
#    z 1.098010 -0.204330 0.872220 
# 
# 
# High freq. dielectric constant tensor:
#      x y z
#    x 1.961520 0.001830 -0.011520 
#    y 0.001830 1.930960 -0.013680 
#    z -0.011520 -0.013680 1.962920 
# 
# From -- ./inp_files/382068.got.cif
#   From: 2010.06.25/outbox.cif.g09.slc.cpg/sg2_192_cif.got.tgz:382068.got - 2010.06.27 13:26:56.
