data_PCOD8013885
_publ_section_title
;
Structure prediction by ZEFSAII (Michael W. Deem and Ramdas Pophale) SiO2 
 PCOD8013885
Probable space group: P -1
;
_chemical_formula_sum "Si O2"
_cell_formula_units_Z 12
_cell_length_a 17.063259
_cell_length_b 5.194928
_cell_length_c 9.809496
_cell_angle_alpha 104.125682
_cell_angle_beta 121.045894
_cell_angle_gamma 51.670600
_cell_volume 580.677645
_symmetry_space_group_name_H-M "P -1"
_symmetry_group_IT_number 2
_symmetry_cell_setting 'triclinic'
loop_
_space_group_symop_operation_xyz
x,y,z
-x,-y,-z
loop_
_atom_site_type_symbol
_atom_site_label
_atom_site_fract_x
_atom_site_fract_y
_atom_site_fract_z
Si Si1 0.574061 0.110223 0.523591
Si Si2 0.333684 0.163835 0.725784
Si Si3 0.250697 0.091311 0.114715
Si Si4 0.110064 0.795525 0.665524
Si Si5 0.320734 0.748505 0.866402
Si Si6 0.107182 0.823814 0.976635
O O1 0.500000 0.500000 0.500000
O O2 0.500000 0.000000 0.500000
O O3 0.620509 0.955131 0.398174
O O4 0.682850 0.969280 0.695779
O O5 0.194811 0.417250 0.637416
O O6 0.374580 0.852575 0.817460
O O7 0.383403 0.355302 0.856333
O O8 0.338349 0.831312 0.044904
O O9 0.200351 0.455263 0.064460
O O10 0.154782 0.039840 0.054172
O O11 0.072157 0.806571 0.788791
O O12 0.183619 0.943123 0.745494
O O13 0.000000 0.000000 0.500000
O O14 0.000000 0.000000 0.000000
#
# Coordination Sequence:
#
# PCOD8013885 Si02
#       6
#     2   2   2   2   2   2
#     4  12  27  45  67  96 123 169 223 275 332 371
#     4  10  21  41  63  87 128 157 212 261 314 373
#     4  11  22  45  64  89 137 164 213 276 310 383
#     4   9  21  36  62  92 128 165 211 247 313 381
#     4   9  19  40  62  88 123 165 201 253 318 373
#     4  11  23  39  64 100 131 176 209 250 325 391
#
# _framework density 20.665507000000002
#
# number of rings (size 3 to 8) (size 9 to 14) (size 15 to 20)
#    1.000    0.667    1.667    2.500    2.333    2.000 
#    0.000    5.000    0.000    0.000    0.000    0.000 
#    0.000    0.000    0.000    0.000    0.000    0.000 
#
# Total GULP energy -148744.290218 kJ/mol
# GULP energy per Si atom -12395.357518 kJ/mol
# Density = 2.061847 g / cm^3
# Si number density = 20.665507 Si / 1000 Ang^3
#
#
#
# Elastic Constant Matrix: (Units=GPa)
#
#
# Indices 1 2 3 4 5 6 
#
# 1 148.1811 41.4623 41.7675 17.8889 -34.1802 -1.0687
# 2 41.4623 94.4783 13.1134 15.7950 -17.3996 5.9896
# 3 41.7675 13.1134 37.1097 9.3892 -18.7232 -10.8291
# 4 17.8889 15.7950 9.3892 30.5730 -6.4722 -11.7353
# 5 -34.1802 -17.3996 -18.7232 -6.4722 35.1970 8.7253
# 6 -1.0687 5.9896 -10.8291 -11.7353 8.7253 47.5913
#
#
#
# Elastic Compliance Matrix: (Units=1/GPa)
#
#
# Indices 1 2 3 4 5 6 
#
# 1 0.011709 -0.002059 -0.010031 -0.002903 0.005340 -0.003455
# 2 -0.002059 0.013684 0.000327 -0.006563 0.004771 -0.004187
# 3 -0.010031 0.000327 0.047905 -0.003343 0.013469 0.007340
# 4 -0.002903 -0.006563 -0.003343 0.042453 -0.002755 0.010974
# 5 0.005340 0.004771 0.013469 -0.002755 0.044148 -0.006189
# 6 -0.003455 -0.004187 0.007340 0.010974 -0.006189 0.026972
#
#
# Mechanical properties :
#
#
# Convention : Reuss Voigt Hill
#
# Bulk Modulus (GPa) = 20.09120 52.49504 36.29312
# Shear Modulus (GPa) = 22.02761 34.90066 28.46413
#
# Velocity S-wave (km/s) = 3.26837 4.11400 3.71533
# Velocity P-wave (km/s) = 4.89757 6.92994 6.00043
#
# Compressibility (1/GPa) = 0.04977304
#
# Stress axis : x y z
#
# Youngs Moduli (GPa) = 85.40277 73.08045 20.87453
#
# Poissons Ratio (x) = 0.15044 0.20939
# Poissons Ratio (y) = 0.17580 -0.00683
# Poissons Ratio (z) = 0.85668 -0.02390
#
# Static dielectric constant tensor:
#      x y z
#    x 3.711360 0.169370 -0.158890 
#    y 0.169370 3.855630 0.209640 
#    z -0.158890 0.209640 3.622790 
# 
# 
# High freq. dielectric constant tensor:
#      x y z
#    x 1.819610 0.006960 -0.015300 
#    y 0.006960 1.812820 0.012450 
#    z -0.015300 0.012450 1.797080 
# 
# From -- ./inp_files/289097.got.cif
#   From: 2010.06.25/outbox.cif.g09.slc.cpg/sg2_145_cif.got.tgz:289097.got - 2010.06.27 13:26:56.
