data_PCOD8013989
_publ_section_title
;
Structure prediction by ZEFSAII (Michael W. Deem and Ramdas Pophale) SiO2 
 PCOD8013989
Probable space group: P -1
;
_chemical_formula_sum "Si O2"
_cell_formula_units_Z 16
_cell_length_a 9.145580
_cell_length_b 18.168227
_cell_length_c 6.407296
_cell_angle_alpha 120.955597
_cell_angle_beta 77.878109
_cell_angle_gamma 125.144724
_cell_volume 740.903529
_symmetry_space_group_name_H-M "P -1"
_symmetry_group_IT_number 2
_symmetry_cell_setting 'triclinic'
loop_
_space_group_symop_operation_xyz
x,y,z
-x,-y,-z
loop_
_atom_site_type_symbol
_atom_site_label
_atom_site_fract_x
_atom_site_fract_y
_atom_site_fract_z
Si Si1 0.437087 0.038132 0.889243
Si Si2 0.738983 0.151639 0.639780
Si Si3 0.419526 0.345128 0.823239
Si Si4 0.921470 0.500883 0.303144
Si Si5 0.060541 0.157757 0.717592
Si Si6 0.737331 0.338902 0.805351
Si Si7 0.130422 0.030162 0.192648
Si Si8 0.635302 0.540195 0.330322
O O1 0.605619 0.128614 0.840698
O O2 0.318115 0.947054 0.627609
O O3 0.324328 0.076875 0.094540
O O4 0.500000 0.000000 0.000000
O O5 0.750046 0.240985 0.631405
O O6 0.938520 0.194413 0.718212
O O7 0.243469 0.263032 0.895028
O O8 0.544952 0.300804 0.702658
O O9 0.349636 0.361514 0.645029
O O10 0.552899 0.452509 0.053111
O O11 0.824433 0.563707 0.399511
O O12 0.000000 0.500000 0.500000
O O13 0.104811 0.559677 0.206278
O O14 0.773836 0.381910 0.097696
O O15 0.133323 0.114411 0.459307
O O16 0.942005 0.074666 0.809245
O O17 0.000000 0.000000 0.000000
O O18 0.500000 0.500000 0.500000
#
# Coordination Sequence:
#
# PCOD8013989 Si02
#       8
#     2   2   2   2   2   2   2   2
#     4  11  24  43  64  91 125 168 209 259 315 371
#     4  11  24  41  64  94 128 163 211 260 313 372
#     4  10  23  40  62  92 125 162 203 257 312 365
#     4  10  21  41  64  90 124 164 204 251 310 370
#     4  11  24  41  64  94 127 166 208 261 312 373
#     4  10  23  40  62  92 125 159 205 258 309 367
#     4  11  24  43  64  90 127 166 211 257 314 371
#     4  10  21  41  64  89 125 162 205 252 308 372
#
# _framework density 21.595253
#
# number of rings (size 3 to 8) (size 9 to 14) (size 15 to 20)
#    0.000    1.500    2.500    1.500    3.500    5.000 
#    4.500    0.000    0.000    0.000    0.000    0.000 
#    0.000    0.000    0.000    0.000    0.000    0.000 
#
# Total GULP energy -198257.428622 kJ/mol
# GULP energy per Si atom -12391.089289 kJ/mol
# Density = 2.154610 g / cm^3
# Si number density = 21.595253 Si / 1000 Ang^3
#
#
#
# Elastic Constant Matrix: (Units=GPa)
#
#
# Indices 1 2 3 4 5 6 
#
# 1 187.7632 41.7377 31.7777 -6.4334 3.0272 -4.4042
# 2 41.7377 78.7819 13.5481 -0.9879 -2.2790 1.2410
# 3 31.7777 13.5481 52.9994 -20.8748 -3.6778 -2.4603
# 4 -6.4334 -0.9879 -20.8748 27.3024 0.7229 -1.6083
# 5 3.0272 -2.2790 -3.6778 0.7229 39.4793 -6.4292
# 6 -4.4042 1.2410 -2.4603 -1.6083 -6.4292 46.2691
#
#
#
# Elastic Compliance Matrix: (Units=1/GPa)
#
#
# Indices 1 2 3 4 5 6 
#
# 1 0.006588 -0.002882 -0.003831 -0.001437 -0.000950 0.000319
# 2 -0.002882 0.014742 -0.003024 -0.002525 0.000703 -0.000821
# 3 -0.003831 -0.003024 0.031337 0.023020 0.003041 0.002606
# 4 -0.001437 -0.002525 0.023020 0.053946 0.001652 0.003260
# 5 -0.000950 0.000703 0.003041 0.001652 0.026309 0.003766
# 6 0.000319 -0.000821 0.002606 0.003260 0.003766 0.022440
#
#
# Mechanical properties :
#
#
# Convention : Reuss Voigt Hill
#
# Bulk Modulus (GPa) = 30.12628 54.85238 42.48933
# Shear Modulus (GPa) = 26.89603 38.10888 32.50246
#
# Velocity S-wave (km/s) = 3.53294 4.20538 3.88374
# Velocity P-wave (km/s) = 5.53380 7.00254 6.31104
#
# Compressibility (1/GPa) = 0.03319362
#
# Stress axis : x y z
#
# Youngs Moduli (GPa) = 151.78151 67.83386 31.91127
#
# Poissons Ratio (x) = 0.19551 0.12224
# Poissons Ratio (y) = 0.43747 0.09650
# Poissons Ratio (z) = 0.58140 0.20513
#
# Static dielectric constant tensor:
#      x y z
#    x 4.053310 -0.086490 0.579480 
#    y -0.086490 3.926950 0.140650 
#    z 0.579480 0.140650 0.191880 
# 
# 
# High freq. dielectric constant tensor:
#      x y z
#    x 1.875100 -0.000140 0.001660 
#    y -0.000140 1.842820 -0.007590 
#    z 0.001660 -0.007590 1.829530 
# 
# From -- ./inp_files/48938.got.cif
#   From: 2010.06.25/outbox.cif.g09.slc.cpg/sg2_25_cif.got.tgz:48938.got - 2010.06.27 13:26:56.
