data_PCOD8013326
_publ_section_title
;
Structure prediction by ZEFSAII (Michael W. Deem and Ramdas Pophale) SiO2 
 PCOD8013326
Probable space group: P -1
;
_chemical_formula_sum "Si O2"
_cell_formula_units_Z 14
_cell_length_a 9.076685
_cell_length_b 12.622448
_cell_length_c 8.980422
_cell_angle_alpha 111.719767
_cell_angle_beta 48.533747
_cell_angle_gamma 128.286019
_cell_volume 603.757120
_symmetry_space_group_name_H-M "P -1"
_symmetry_group_IT_number 2
_symmetry_cell_setting 'triclinic'
loop_
_space_group_symop_operation_xyz
x,y,z
-x,-y,-z
loop_
_atom_site_type_symbol
_atom_site_label
_atom_site_fract_x
_atom_site_fract_y
_atom_site_fract_z
Si Si1 0.912043 0.796195 0.471158
Si Si2 0.578217 0.002153 0.784325
Si Si3 0.241848 0.459296 0.199013
Si Si4 0.094014 0.462689 0.626759
Si Si5 0.630428 0.895285 0.247089
Si Si6 0.944778 0.832491 0.805050
Si Si7 0.523906 0.251060 0.428437
O O1 0.957444 0.676486 0.341713
O O2 0.836151 0.797428 0.693036
O O3 0.724913 0.777792 0.468167
O O4 0.147961 0.940654 0.360572
O O5 0.427216 0.849252 0.746688
O O6 0.544528 0.098801 0.746962
O O7 0.500000 0.000000 0.000000
O O8 0.229761 0.486468 0.393810
O O9 0.061293 0.299753 0.200837
O O10 0.150585 0.543816 0.218596
O O11 0.500000 0.500000 0.000000
O O12 0.277223 0.595614 0.668051
O O13 0.481288 0.778250 0.406347
O O14 0.788145 0.859015 0.030227
O O15 0.789584 0.038516 0.302466
#
# Coordination Sequence:
#
# PCOD8013326 Si02
#       7
#     2   2   2   2   2   2   2
#     4  11  25  45  67  96 140 183 221 280 343 399
#     4  12  27  43  67  99 138 176 227 279 344 402
#     4  10  21  40  67 100 136 177 228 280 340 404
#     4  10  24  42  69  97 138 180 227 278 343 402
#     4  11  24  39  71 101 132 172 231 281 334 406
#     4  10  22  40  67  97 134 173 228 272 345 398
#     4  12  24  45  70  98 138 178 227 279 339 402
#
# _framework density 23.188134000000002
#
# number of rings (size 3 to 8) (size 9 to 14) (size 15 to 20)
#    0.000    1.143    1.429    3.857   12.000    0.000 
#    2.571    0.714    0.000    0.000    0.000    0.000 
#    0.000    0.000    0.000    0.000    0.000    0.000 
#
# Total GULP energy -173616.693081 kJ/mol
# GULP energy per Si atom -12401.192363 kJ/mol
# Density = 2.313536 g / cm^3
# Si number density = 23.188134 Si / 1000 Ang^3
#
#
#
# Elastic Constant Matrix: (Units=GPa)
#
#
# Indices 1 2 3 4 5 6 
#
# 1 105.7840 -0.4140 26.4527 6.8629 7.8240 -8.2907
# 2 -0.4140 97.6366 13.9126 18.3637 12.3681 9.3158
# 3 26.4527 13.9126 97.4705 7.8396 1.1513 -1.3133
# 4 6.8629 18.3637 7.8396 27.0503 0.0143 -5.8437
# 5 7.8240 12.3681 1.1513 0.0143 26.3031 -0.8031
# 6 -8.2907 9.3158 -1.3133 -5.8437 -0.8031 36.3478
#
#
#
# Elastic Compliance Matrix: (Units=1/GPa)
#
#
# Indices 1 2 3 4 5 6 
#
# 1 0.010705 0.001195 -0.002822 -0.002368 -0.003573 0.001574
# 2 0.001195 0.013760 -0.001445 -0.010328 -0.006913 -0.005119
# 3 -0.002822 -0.001445 0.011348 -0.001614 0.001020 -0.000100
# 4 -0.002368 -0.010328 -0.001614 0.047153 0.005904 0.009760
# 5 -0.003573 -0.006913 0.001020 0.005904 0.042372 0.002879
# 6 0.001574 -0.005119 -0.000100 0.009760 0.002879 0.030812
#
#
# Mechanical properties :
#
#
# Convention : Reuss Voigt Hill
#
# Bulk Modulus (GPa) = 33.70510 42.31041 38.00776
# Shear Modulus (GPa) = 29.03890 35.33624 32.18757
#
# Velocity S-wave (km/s) = 3.54265 3.90794 3.72977
# Velocity P-wave (km/s) = 5.59472 6.21682 5.91396
#
# Compressibility (1/GPa) = 0.02966910
#
# Stress axis : x y z
#
# Youngs Moduli (GPa) = 93.41592 72.67616 88.12082
#
# Poissons Ratio (x) = -0.08687 0.24867
# Poissons Ratio (y) = -0.11166 0.12734
# Poissons Ratio (z) = 0.26362 0.10502
#
# Static dielectric constant tensor:
#      x y z
#    x 4.089720 -0.015100 -0.029420 
#    y -0.015100 4.637350 0.268650 
#    z -0.029420 0.268650 3.970050 
# 
# 
# High freq. dielectric constant tensor:
#      x y z
#    x 1.909890 0.001910 -0.009060 
#    y 0.001910 1.936240 0.020720 
#    z -0.009060 0.020720 1.905750 
# 
# From -- ./inp_files/188976.got.cif
#   From: 2010.06.25/outbox.cif.g09.slc.cpg/sg2_95_cif.got.tgz:188976.got - 2010.06.27 13:26:56.
