data_PCOD8013105
_publ_section_title
;
Structure prediction by ZEFSAII (Michael W. Deem and Ramdas Pophale) SiO2 
 PCOD8013105
Probable space group: P -1
;
_chemical_formula_sum "Si O2"
_cell_formula_units_Z 16
_cell_length_a 5.221958
_cell_length_b 14.661978
_cell_length_c 16.658514
_cell_angle_alpha 43.974023
_cell_angle_beta 117.925605
_cell_angle_gamma 127.740095
_cell_volume 699.414642
_symmetry_space_group_name_H-M "P -1"
_symmetry_group_IT_number 2
_symmetry_cell_setting 'triclinic'
loop_
_space_group_symop_operation_xyz
x,y,z
-x,-y,-z
loop_
_atom_site_type_symbol
_atom_site_label
_atom_site_fract_x
_atom_site_fract_y
_atom_site_fract_z
Si Si1 0.780288 0.621457 0.912925
Si Si2 0.912513 0.834127 0.110592
Si Si3 0.460590 0.738598 0.259818
Si Si4 0.598795 0.962630 0.431638
Si Si5 0.115301 0.444851 0.325597
Si Si6 0.325175 0.606867 0.089775
Si Si7 0.488883 0.204986 0.325918
Si Si8 0.829499 0.813681 0.432370
O O1 0.779142 0.541314 0.881372
O O2 0.724692 0.762072 0.792195
O O3 0.500000 0.500000 0.000000
O O4 0.111683 0.683264 0.973544
O O5 0.726317 0.785323 0.198683
O O6 0.697110 0.731883 0.068928
O O7 0.250872 0.827162 0.165864
O O8 0.000000 0.000000 0.000000
O O9 0.213076 0.563046 0.337241
O O10 0.643603 0.775543 0.346689
O O11 0.730306 0.908329 0.564257
O O12 0.737235 0.929380 0.391715
O O13 0.208888 0.879887 0.427650
O O14 0.693494 0.135198 0.350433
O O15 0.251187 0.551583 0.203451
O O16 0.273120 0.333839 0.435673
O O17 0.729806 0.354101 0.312400
#
# Coordination Sequence:
#
# PCOD8013105 Si02
#       8
#     2   2   2   2   2   2   2   2
#     4  11  21  39  62  96 128 162 222 276 320 385
#     4  11  25  46  69  91 134 176 217 269 328 392
#     4  11  24  44  68 100 126 169 227 269 323 392
#     4  10  24  41  65  94 137 176 213 262 330 404
#     4  10  21  41  69  91 132 169 212 275 326 388
#     4  10  23  39  64  96 124 172 219 269 332 390
#     4  10  21  40  65  93 131 175 215 265 332 390
#     4  11  23  43  65 100 131 169 217 269 327 384
#
# _framework density 22.876272
#
# number of rings (size 3 to 8) (size 9 to 14) (size 15 to 20)
#    0.000    1.500    1.250    3.000    1.750    9.500 
#    4.500    6.250    0.000    0.000    0.000    0.000 
#    0.000    0.000    0.000    0.000    0.000    0.000 
#
# Total GULP energy -198315.575539 kJ/mol
# GULP energy per Si atom -12394.723471 kJ/mol
# Density = 2.282420 g / cm^3
# Si number density = 22.876272 Si / 1000 Ang^3
#
#
#
# Elastic Constant Matrix: (Units=GPa)
#
#
# Indices 1 2 3 4 5 6 
#
# 1 63.5662 14.2016 15.9232 12.8520 12.2717 -12.8368
# 2 14.2016 116.7617 42.6242 14.0347 -2.1036 -4.1789
# 3 15.9232 42.6242 125.3069 14.7838 15.4581 3.0245
# 4 12.8520 14.0347 14.7838 43.7083 1.8899 1.3973
# 5 12.2717 -2.1036 15.4581 1.8899 27.2146 0.6836
# 6 -12.8368 -4.1789 3.0245 1.3973 0.6836 27.9025
#
#
#
# Elastic Compliance Matrix: (Units=1/GPa)
#
#
# Indices 1 2 3 4 5 6 
#
# 1 0.021124 -0.001481 -0.000653 -0.005441 -0.009143 0.010064
# 2 -0.001481 0.010397 -0.003603 -0.001881 0.003617 0.001272
# 3 -0.000653 -0.003603 0.010240 -0.001816 -0.005631 -0.001721
# 4 -0.005441 -0.001881 -0.001816 0.025751 0.001650 -0.003918
# 5 -0.009143 0.003617 -0.005631 0.001650 0.044337 -0.004223
# 6 0.010064 0.001272 -0.001721 -0.003918 -0.004223 0.041146
#
#
# Mechanical properties :
#
#
# Convention : Reuss Voigt Hill
#
# Bulk Modulus (GPa) = 33.02063 50.12586 41.57325
# Shear Modulus (GPa) = 28.64270 35.29082 31.96676
#
# Velocity S-wave (km/s) = 3.54230 3.93196 3.74220
# Velocity P-wave (km/s) = 5.58536 6.52480 6.07327
#
# Compressibility (1/GPa) = 0.03028410
#
# Stress axis : x y z
#
# Youngs Moduli (GPa) = 47.34007 96.18348 97.66100
#
# Poissons Ratio (x) = 0.14248 0.06381
# Poissons Ratio (y) = 0.07012 0.35190
# Poissons Ratio (z) = 0.03093 0.34658
#
# Static dielectric constant tensor:
#      x y z
#    x 3.982570 0.234420 0.166310 
#    y 0.234420 4.514750 -0.025420 
#    z 0.166310 -0.025420 4.370580 
# 
# 
# High freq. dielectric constant tensor:
#      x y z
#    x 1.889970 0.002830 0.011550 
#    y 0.002830 1.917380 0.004310 
#    z 0.011550 0.004310 1.911430 
# 
# From -- ./inp_files/549571.got.cif
#   From: 2010.06.25/outbox.cif.g09.slc.cpg/sg2_275_cif.got.tgz:549571.got - 2010.06.27 13:26:56.
