data_PCOD8013014
_publ_section_title
;
Structure prediction by ZEFSAII (Michael W. Deem and Ramdas Pophale) SiO2 
 PCOD8013014
Probable space group: P -1
;
_chemical_formula_sum "Si O2"
_cell_formula_units_Z 14
_cell_length_a 8.432199
_cell_length_b 12.654332
_cell_length_c 12.748342
_cell_angle_alpha 47.953040
_cell_angle_beta 144.361269
_cell_angle_gamma 131.559346
_cell_volume 565.853651
_symmetry_space_group_name_H-M "P -1"
_symmetry_group_IT_number 2
_symmetry_cell_setting 'triclinic'
loop_
_space_group_symop_operation_xyz
x,y,z
-x,-y,-z
loop_
_atom_site_type_symbol
_atom_site_label
_atom_site_fract_x
_atom_site_fract_y
_atom_site_fract_z
Si Si1 0.445307 0.844846 0.855700
Si Si2 0.282776 0.870275 0.528973
Si Si3 0.308500 0.897876 0.055142
Si Si4 0.051545 0.107481 0.310147
Si Si5 0.356880 0.520791 0.018378
Si Si6 0.390917 0.667588 0.564042
Si Si7 0.269424 0.590846 0.326325
O O1 0.444313 0.824023 0.744507
O O2 0.465223 0.687299 0.013139
O O3 0.161193 0.883211 0.717747
O O4 0.706347 0.984528 0.938776
O O5 0.190107 0.729463 0.494262
O O6 0.500000 0.000000 0.500000
O O7 0.028203 0.932229 0.394532
O O8 0.402111 0.758560 0.243581
O O9 0.012679 0.830235 0.880449
O O10 0.500000 0.000000 0.000000
O O11 0.368133 0.198745 0.449602
O O12 0.017788 0.485027 0.840767
O O13 0.500000 0.500000 0.000000
O O14 0.444916 0.431357 0.219757
O O15 0.198987 0.589385 0.414925
O O16 0.500000 0.500000 0.500000
#
# Coordination Sequence:
#
# PCOD8013014 Si02
#       7
#     2   2   2   2   2   2   2
#     4  11  23  42  70 104 146 191 255 309 370 444
#     4  10  21  40  64  99 138 188 240 302 373 440
#     4  10  23  43  69 110 146 189 247 313 373 437
#     4  10  21  40  73 102 141 191 249 312 368 440
#     4  12  27  49  74 109 155 202 246 313 390 452
#     4  11  24  47  72 103 153 193 250 304 385 449
#     4  12  28  48  80 113 149 202 257 310 379 454
#
# _framework density 24.741382000000002
#
# number of rings (size 3 to 8) (size 9 to 14) (size 15 to 20)
#    0.000    1.143    2.857    3.000    4.000    6.286 
#    0.000    2.857    0.000    0.000    0.000    0.000 
#    0.000    0.000    0.000    0.000    0.000    0.000 
#
# Total GULP energy -173440.076757 kJ/mol
# GULP energy per Si atom -12388.576911 kJ/mol
# Density = 2.468507 g / cm^3
# Si number density = 24.741382 Si / 1000 Ang^3
#
#
#
# Elastic Constant Matrix: (Units=GPa)
#
#
# Indices 1 2 3 4 5 6 
#
# 1 68.6642 23.1838 11.5213 -10.0184 -10.0915 -15.8273
# 2 23.1838 136.6546 43.9256 -23.8608 -4.8904 -20.5910
# 3 11.5213 43.9256 117.5014 -17.7998 -21.1444 -6.0227
# 4 -10.0184 -23.8608 -17.7998 39.5439 -7.7530 1.5061
# 5 -10.0915 -4.8904 -21.1444 -7.7530 40.9124 4.6417
# 6 -15.8273 -20.5910 -6.0227 1.5061 4.6417 41.2671
#
#
#
# Elastic Compliance Matrix: (Units=1/GPa)
#
#
# Indices 1 2 3 4 5 6 
#
# 1 0.017548 -0.001385 0.000629 0.004617 0.004747 0.005428
# 2 -0.001385 0.009704 -0.002722 0.004087 -0.000245 0.003792
# 3 0.000629 -0.002722 0.011410 0.004984 0.006715 -0.000389
# 4 0.004617 0.004087 0.004984 0.033089 0.010227 0.002179
# 5 0.004747 -0.000245 0.006715 0.010227 0.031128 -0.001196
# 6 0.005428 0.003792 -0.000389 0.002179 -0.001196 0.028204
#
#
# Mechanical properties :
#
#
# Convention : Reuss Voigt Hill
#
# Bulk Modulus (GPa) = 31.54048 53.34239 42.44144
# Shear Modulus (GPa) = 33.64500 40.62398 37.13449
#
# Velocity S-wave (km/s) = 3.69164 4.05649 3.87836
# Velocity P-wave (km/s) = 5.56297 6.59901 6.10302
#
# Compressibility (1/GPa) = 0.03170529
#
# Stress axis : x y z
#
# Youngs Moduli (GPa) = 56.98520 103.05082 87.64177
#
# Poissons Ratio (x) = 0.14276 -0.05514
# Poissons Ratio (y) = 0.07894 0.23859
# Poissons Ratio (z) = -0.03585 0.28054
#
# Static dielectric constant tensor:
#      x y z
#    x 4.393250 -0.447120 -0.080520 
#    y -0.447120 5.137220 0.132270 
#    z -0.080520 0.132270 4.997520 
# 
# 
# High freq. dielectric constant tensor:
#      x y z
#    x 1.966900 -0.017020 -0.020210 
#    y -0.017020 1.994530 -0.010400 
#    z -0.020210 -0.010400 1.992500 
# 
# From -- ./inp_files/389621.got.cif
#   From: 2010.06.25/outbox.cif.g09.slc.cpg/sg2_195_cif.got.tgz:389621.got - 2010.06.27 13:26:56.
