data_PCOD8013327
_publ_section_title
;
Structure prediction by ZEFSAII (Michael W. Deem and Ramdas Pophale) SiO2 
 PCOD8013327
Probable space group: P -1
;
_chemical_formula_sum "Si O2"
_cell_formula_units_Z 12
_cell_length_a 5.509857
_cell_length_b 11.220925
_cell_length_c 18.976736
_cell_angle_alpha 24.188190
_cell_angle_beta 78.232719
_cell_angle_gamma 77.075017
_cell_volume 468.541848
_symmetry_space_group_name_H-M "P -1"
_symmetry_group_IT_number 2
_symmetry_cell_setting 'triclinic'
loop_
_space_group_symop_operation_xyz
x,y,z
-x,-y,-z
loop_
_atom_site_type_symbol
_atom_site_label
_atom_site_fract_x
_atom_site_fract_y
_atom_site_fract_z
Si Si1 0.129146 0.840813 0.925083
Si Si2 0.211199 0.659236 0.364763
Si Si3 0.256865 0.196621 0.430979
Si Si4 0.081189 0.215526 0.279890
Si Si5 0.490687 0.086551 0.667967
Si Si6 0.723738 0.163148 0.930631
O O1 0.264651 0.918277 0.802785
O O2 0.003001 0.539681 0.079265
O O3 0.320593 0.798305 0.002610
O O4 0.910830 0.106708 0.811984
O O5 0.403958 0.394538 0.467035
O O6 0.338679 0.853771 0.308592
O O7 0.000000 0.500000 0.500000
O O8 0.076161 0.249804 0.345916
O O9 0.300911 0.523346 0.277381
O O10 0.500000 0.000000 0.500000
O O11 0.118304 0.023346 0.594949
O O12 0.355989 0.108656 0.293443
O O13 0.500000 0.000000 0.000000
O O14 0.000000 0.000000 0.000000
#
# Coordination Sequence:
#
# PCOD8013327 Si02
#       6
#     2   2   2   2   2   2
#     4  10  23  42  67 101 142 179 240 293 351 434
#     4   9  21  39  60  96 141 177 226 286 346 421
#     4  10  25  46  69  96 144 182 243 296 351 435
#     4  10  23  42  66 100 134 185 233 286 365 418
#     4  10  21  40  67 100 138 181 231 294 357 426
#     4  11  28  47  76 108 142 194 244 299 365 425
#
# _framework density 25.611370000000001
#
# number of rings (size 3 to 8) (size 9 to 14) (size 15 to 20)
#    0.000    2.000    0.000    0.500    9.333   10.000 
#    0.000    0.000    0.000    0.000    0.000    0.000 
#    0.000    0.000    0.000    0.000    0.000    0.000 
#
# Total GULP energy -148716.988420 kJ/mol
# GULP energy per Si atom -12393.082368 kJ/mol
# Density = 2.555308 g / cm^3
# Si number density = 25.611370 Si / 1000 Ang^3
#
#
#
# Elastic Constant Matrix: (Units=GPa)
#
#
# Indices 1 2 3 4 5 6 
#
# 1 111.6618 12.9797 95.4038 -9.6094 -2.8589 -17.2439
# 2 12.9797 45.7639 66.1147 -5.4317 -0.8655 -18.4054
# 3 95.4038 66.1147 256.1649 -23.4653 -6.1233 -5.4071
# 4 -9.6094 -5.4317 -23.4653 44.2649 -1.8078 10.2218
# 5 -2.8589 -0.8655 -6.1233 -1.8078 46.8666 -3.4072
# 6 -17.2439 -18.4054 -5.4071 10.2218 -3.4072 38.5329
#
#
#
# Elastic Compliance Matrix: (Units=1/GPa)
#
#
# Indices 1 2 3 4 5 6 
#
# 1 0.019005 0.017376 -0.011521 -0.003554 0.001017 0.016220
# 2 0.017376 0.064557 -0.023142 -0.009275 0.001631 0.037969
# 3 -0.011521 -0.023142 0.014372 0.005914 -0.000171 -0.015777
# 4 -0.003554 -0.009275 0.005914 0.026659 0.000525 -0.012217
# 5 0.001017 0.001631 -0.000171 0.000525 0.021644 0.002985
# 6 0.016220 0.037969 -0.015777 -0.012217 0.002985 0.052637
#
#
# Mechanical properties :
#
#
# Convention : Reuss Voigt Hill
#
# Bulk Modulus (GPa) = 15.78335 84.73188 50.25761
# Shear Modulus (GPa) = 19.64097 41.87237 30.75667
#
# Velocity S-wave (km/s) = 2.77227 4.04779 3.46916
# Velocity P-wave (km/s) = 4.05257 7.41631 5.97599
#
# Compressibility (1/GPa) = 0.06335789
#
# Stress axis : x y z
#
# Youngs Moduli (GPa) = 52.61828 15.49021 69.57900
#
# Poissons Ratio (x) = -0.26915 0.80165
# Poissons Ratio (y) = -0.91427 1.61021
# Poissons Ratio (z) = 0.60623 0.35848
#
# Static dielectric constant tensor:
#      x y z
#    x 4.192360 0.300180 0.320950 
#    y 0.300180 4.331710 0.045520 
#    z 0.320950 0.045520 5.596250 
# 
# 
# High freq. dielectric constant tensor:
#      x y z
#    x 2.012090 0.001820 0.003240 
#    y 0.001820 2.014930 0.000710 
#    z 0.003240 0.000710 2.050000 
# 
# From -- ./inp_files/59744.got.cif
#   From: 2010.06.25/outbox.cif.g09.slc.cpg/sg2_30_cif.got.tgz:59744.got - 2010.06.27 13:26:56.
