data_PCOD8013867
_publ_section_title
;
Structure prediction by ZEFSAII (Michael W. Deem and Ramdas Pophale) SiO2 
 PCOD8013867
Probable space group: P -1
;
_chemical_formula_sum "Si O2"
_cell_formula_units_Z 14
_cell_length_a 19.528288
_cell_length_b 8.037051
_cell_length_c 11.280524
_cell_angle_alpha 60.556502
_cell_angle_beta 34.665716
_cell_angle_gamma 40.720597
_cell_volume 614.117184
_symmetry_space_group_name_H-M "P -1"
_symmetry_group_IT_number 2
_symmetry_cell_setting 'triclinic'
loop_
_space_group_symop_operation_xyz
x,y,z
-x,-y,-z
loop_
_atom_site_type_symbol
_atom_site_label
_atom_site_fract_x
_atom_site_fract_y
_atom_site_fract_z
Si Si1 0.303830 0.079252 0.335610
Si Si2 0.838959 0.081781 0.558924
Si Si3 0.403378 0.490592 0.816195
Si Si4 0.209245 0.618358 0.265201
Si Si5 0.200936 0.170782 0.703504
Si Si6 0.420674 0.370656 0.576225
Si Si7 0.101177 0.654384 0.792692
O O1 0.294777 0.314036 0.244129
O O2 0.189028 0.145428 0.589058
O O3 0.255342 0.005782 0.316045
O O4 0.501898 0.813854 0.177809
O O5 0.729522 0.332316 0.722290
O O6 0.887292 0.152092 0.350826
O O7 0.005323 0.821935 0.484789
O O8 0.341515 0.553790 0.745291
O O9 0.539823 0.510868 0.620109
O O10 0.255872 0.685892 0.055929
O O11 0.114470 0.475722 0.737239
O O12 0.400108 0.944063 0.544409
O O13 0.082898 0.148598 0.946982
O O14 0.263390 0.425776 0.729300
#
# Coordination Sequence:
#
# PCOD8013867 Si02
#       7
#     2   2   2   2   2   2   2
#     4  11  22  43  63  93 131 166 216 267 318 389
#     4  11  24  41  65  92 126 173 214 264 325 380
#     4  10  22  40  65  94 128 167 215 266 327 379
#     4  11  24  43  63  92 132 166 217 272 310 392
#     4  10  23  38  67  98 131 167 214 269 324 387
#     4  10  21  41  63 100 128 165 218 268 318 393
#     4  11  21  42  66  96 131 169 213 268 331 376
#
# _framework density 22.796952000000001
#
# number of rings (size 3 to 8) (size 9 to 14) (size 15 to 20)
#    0.000    1.429    2.857    2.143    2.000    1.143 
#    0.000    0.000    0.000    0.000    0.000    0.000 
#    0.000    0.000    0.000    0.000    0.000    0.000 
#
# Total GULP energy -173522.236590 kJ/mol
# GULP energy per Si atom -12394.445471 kJ/mol
# Density = 2.274507 g / cm^3
# Si number density = 22.796952 Si / 1000 Ang^3
#
#
#
# Elastic Constant Matrix: (Units=GPa)
#
#
# Indices 1 2 3 4 5 6 
#
# 1 118.1108 15.9414 41.7982 -3.5399 10.2251 16.8948
# 2 15.9414 61.9206 3.0412 -3.4617 4.6990 7.6017
# 3 41.7982 3.0412 90.1900 -0.8908 20.5041 0.7404
# 4 -3.5399 -3.4617 -0.8908 25.2490 -6.4118 -0.4013
# 5 10.2251 4.6990 20.5041 -6.4118 34.0121 5.3595
# 6 16.8948 7.6017 0.7404 -0.4013 5.3595 35.6141
#
#
#
# Elastic Compliance Matrix: (Units=1/GPa)
#
#
# Indices 1 2 3 4 5 6 
#
# 1 0.011296 -0.002048 -0.005376 0.001329 0.001162 -0.004969
# 2 -0.002048 0.017149 0.000749 0.001670 -0.001503 -0.002460
# 3 -0.005376 0.000749 0.015503 -0.002284 -0.008794 0.003366
# 4 0.001329 0.001670 -0.002284 0.042194 0.008987 -0.001816
# 5 0.001162 -0.001503 -0.008794 0.008987 0.037127 -0.005533
# 6 -0.004969 -0.002460 0.003366 -0.001816 -0.005533 0.031704
#
#
# Mechanical properties :
#
#
# Convention : Reuss Voigt Hill
#
# Bulk Modulus (GPa) = 32.68107 43.53146 38.10626
# Shear Modulus (GPa) = 28.00783 32.93776 30.47279
#
# Velocity S-wave (km/s) = 3.50891 3.80522 3.66006
# Velocity P-wave (km/s) = 5.54828 6.20024 5.88330
#
# Compressibility (1/GPa) = 0.03059875
#
# Stress axis : x y z
#
# Youngs Moduli (GPa) = 88.52959 58.31084 64.50343
#
# Poissons Ratio (x) = 0.11941 0.34677
# Poissons Ratio (y) = 0.18129 -0.04832
# Poissons Ratio (z) = 0.47594 -0.04368
#
# Static dielectric constant tensor:
#      x y z
#    x 4.036740 0.019180 0.253610 
#    y 0.019180 3.936580 0.080520 
#    z 0.253610 0.080520 4.056290 
# 
# 
# High freq. dielectric constant tensor:
#      x y z
#    x 1.891270 0.000180 0.017520 
#    y 0.000180 1.900270 0.007050 
#    z 0.017520 0.007050 1.892330 
# 
# From -- ./inp_files/151256.got.cif
#   From: 2010.06.25/outbox.cif.g09.slc.cpg/sg2_76_cif.got.tgz:151256.got - 2010.06.27 13:26:56.
