data_PCOD8013398
_publ_section_title
;
Structure prediction by ZEFSAII (Michael W. Deem and Ramdas Pophale) SiO2 
 PCOD8013398
Probable space group: P -1
;
_chemical_formula_sum "Si O2"
_cell_formula_units_Z 16
_cell_length_a 19.258117
_cell_length_b 15.353231
_cell_length_c 9.946777
_cell_angle_alpha 37.267000
_cell_angle_beta 147.560577
_cell_angle_gamma 152.443535
_cell_volume 716.267663
_symmetry_space_group_name_H-M "P -1"
_symmetry_group_IT_number 2
_symmetry_cell_setting 'triclinic'
loop_
_space_group_symop_operation_xyz
x,y,z
-x,-y,-z
loop_
_atom_site_type_symbol
_atom_site_label
_atom_site_fract_x
_atom_site_fract_y
_atom_site_fract_z
Si Si1 0.816416 0.279171 0.676680
Si Si2 0.874475 0.329121 0.181924
Si Si3 0.666943 0.223322 0.222325
Si Si4 0.177050 0.016772 0.843598
Si Si5 0.529117 0.439547 0.259738
Si Si6 0.500494 0.606907 0.243999
Si Si7 0.385479 0.794390 0.323897
Si Si8 0.921522 0.763153 0.512882
O O1 0.800941 0.304392 0.463752
O O2 0.684256 0.277464 0.550179
O O3 0.006485 0.457820 0.822198
O O4 0.758539 0.069591 0.856820
O O5 0.734330 0.195276 0.232463
O O6 0.975218 0.253082 0.410318
O O7 0.780608 0.320794 0.905802
O O8 0.481792 0.016768 0.201059
O O9 0.635462 0.369731 0.970113
O O10 0.022020 0.833271 0.731224
O O11 0.316794 0.190002 0.755874
O O12 0.107433 0.086774 0.749592
O O13 0.431604 0.459923 0.188032
O O14 0.472987 0.230503 0.433047
O O15 0.731942 0.559127 0.472653
O O16 0.500000 0.500000 0.000000
O O17 0.500000 0.500000 0.500000
#
# Coordination Sequence:
#
# PCOD8013398 Si02
#       8
#     2   2   2   2   2   2   2   2
#     4  12  23  43  69  99 137 177 228 277 337 403
#     4  12  24  44  67 103 137 178 227 277 340 400
#     4  12  27  42  68 105 141 176 221 288 346 393
#     4  10  22  41  71  99 128 175 232 272 333 403
#     4  11  24  40  68  98 130 173 228 276 329 397
#     4  11  24  44  65  96 137 177 220 275 339 398
#     4  12  23  43  73  97 132 181 236 275 326 413
#     4  10  21  40  67  95 133 173 223 276 320 409
#
# _framework density 22.338018000000002
#
# number of rings (size 3 to 8) (size 9 to 14) (size 15 to 20)
#    0.000    0.750    3.750    3.750    3.500    3.000 
#    0.000    0.625    0.000    0.000    0.000    0.000 
#    0.000    0.000    0.000    0.000    0.000    0.000 
#
# Total GULP energy -198265.480691 kJ/mol
# GULP energy per Si atom -12391.592543 kJ/mol
# Density = 2.228718 g / cm^3
# Si number density = 22.338018 Si / 1000 Ang^3
#
#
#
# Elastic Constant Matrix: (Units=GPa)
#
#
# Indices 1 2 3 4 5 6 
#
# 1 138.5996 4.3684 53.4298 -7.2967 13.1057 -15.1447
# 2 4.3684 51.4021 35.3935 -3.3843 6.3555 -7.4826
# 3 53.4298 35.3935 131.5118 -22.9151 6.7013 -15.9034
# 4 -7.2967 -3.3843 -22.9151 23.8330 -4.7898 3.7949
# 5 13.1057 6.3555 6.7013 -4.7898 36.9394 -4.3778
# 6 -15.1447 -7.4826 -15.9034 3.7949 -4.3778 31.6908
#
#
#
# Elastic Compliance Matrix: (Units=1/GPa)
#
#
# Indices 1 2 3 4 5 6 
#
# 1 0.009301 0.002886 -0.004427 -0.002025 -0.002931 0.002742
# 2 0.002886 0.025591 -0.008292 -0.004810 -0.004160 0.003262
# 3 -0.004427 -0.008292 0.013602 0.010691 0.002125 0.001766
# 4 -0.002025 -0.004810 0.010691 0.052520 0.006159 -0.002177
# 5 -0.002931 -0.004160 0.002125 0.006159 0.029479 0.002018
# 6 0.002742 0.003262 0.001766 -0.002177 0.002018 0.035061
#
#
# Mechanical properties :
#
#
# Convention : Reuss Voigt Hill
#
# Bulk Modulus (GPa) = 34.68744 56.43299 45.56021
# Shear Modulus (GPa) = 25.66353 33.71409 29.68881
#
# Velocity S-wave (km/s) = 3.39318 3.88915 3.64960
# Velocity P-wave (km/s) = 5.56001 6.74428 6.18058
#
# Compressibility (1/GPa) = 0.02882888
#
# Stress axis : x y z
#
# Youngs Moduli (GPa) = 107.51540 39.07637 73.51715
#
# Poissons Ratio (x) = -0.11279 0.32550
# Poissons Ratio (y) = -0.31033 0.60957
# Poissons Ratio (z) = 0.47602 0.32400
#
# Static dielectric constant tensor:
#      x y z
#    x 4.480480 -0.036260 0.069380 
#    y -0.036260 4.377580 -0.318120 
#    z 0.069380 -0.318120 4.098600 
# 
# 
# High freq. dielectric constant tensor:
#      x y z
#    x 1.881670 -0.023570 0.019340 
#    y -0.023570 1.876900 -0.005870 
#    z 0.019340 -0.005870 1.878110 
# 
# From -- ./inp_files/335642.got.cif
#   From: 2010.06.25/outbox.cif.g09.slc.cpg/sg2_168_cif.got.tgz:335642.got - 2010.06.27 13:26:56.
