data_PCOD8013911
_publ_section_title
;
Structure prediction by ZEFSAII (Michael W. Deem and Ramdas Pophale) SiO2 
 PCOD8013911
Probable space group: P -1
;
_chemical_formula_sum "Si O2"
_cell_formula_units_Z 16
_cell_length_a 14.492942
_cell_length_b 8.517480
_cell_length_c 20.436402
_cell_angle_alpha 38.635691
_cell_angle_beta 28.122286
_cell_angle_gamma 40.859016
_cell_volume 722.700006
_symmetry_space_group_name_H-M "P -1"
_symmetry_group_IT_number 2
_symmetry_cell_setting 'triclinic'
loop_
_space_group_symop_operation_xyz
x,y,z
-x,-y,-z
loop_
_atom_site_type_symbol
_atom_site_label
_atom_site_fract_x
_atom_site_fract_y
_atom_site_fract_z
Si Si1 0.046888 0.275866 0.388844
Si Si2 0.767656 0.943754 0.109000
Si Si3 0.254711 0.620318 0.352480
Si Si4 0.454533 0.029628 0.165673
Si Si5 0.378611 0.803135 0.749794
Si Si6 0.208670 0.883943 0.157426
Si Si7 0.949251 0.786784 0.232018
Si Si8 0.931655 0.527936 0.958154
O O1 0.286371 0.246440 0.237966
O O2 0.936713 0.485220 0.334215
O O3 0.962519 0.378739 0.479844
O O4 0.000000 0.000000 0.500000
O O5 0.627103 0.910244 0.147689
O O6 0.636993 0.055696 0.216382
O O7 0.898673 0.653598 0.134195
O O8 0.923398 0.124137 0.935442
O O9 0.387597 0.324279 0.369325
O O10 0.220426 0.715177 0.269417
O O11 0.360152 0.805196 0.269132
O O12 0.562345 0.157323 0.999189
O O13 0.273104 0.021535 0.691780
O O14 0.274966 0.561978 0.891590
O O15 0.064297 0.789712 0.227380
O O16 0.109475 0.183215 0.137155
O O17 0.000000 0.500000 0.000000
#
# Coordination Sequence:
#
# PCOD8013911 Si02
#       8
#     2   2   2   2   2   2   2   2
#     4  10  25  43  63  84 131 173 207 253 318 373
#     4  10  22  35  64 100 125 160 205 268 314 362
#     4  11  24  40  63  94 126 171 211 254 309 373
#     4  10  21  41  63  91 127 164 207 257 313 370
#     4  11  22  37  63  97 129 158 210 263 312 372
#     4  11  22  36  69 100 119 163 210 261 311 370
#     4  10  22  40  62  92 126 165 204 258 317 370
#     4  11  17  37  61  95 132 159 199 260 321 365
#
# _framework density 22.139199999999999
#
# number of rings (size 3 to 8) (size 9 to 14) (size 15 to 20)
#    0.000    1.500    5.000    1.875    3.500    5.000 
#    0.000    0.000    0.000    2.250    0.000    0.000 
#    0.000    0.000    0.000    0.000    0.000    0.000 
#
# Total GULP energy -198295.906795 kJ/mol
# GULP energy per Si atom -12393.494175 kJ/mol
# Density = 2.208881 g / cm^3
# Si number density = 22.139200 Si / 1000 Ang^3
#
#
#
# Elastic Constant Matrix: (Units=GPa)
#
#
# Indices 1 2 3 4 5 6 
#
# 1 59.2746 31.2879 23.9242 10.3550 9.1964 -4.1924
# 2 31.2879 169.5748 71.8072 20.8097 15.6036 -26.5343
# 3 23.9242 71.8072 90.0342 20.1839 25.8247 -11.4442
# 4 10.3550 20.8097 20.1839 50.2243 9.7429 4.0384
# 5 9.1964 15.6036 25.8247 9.7429 16.2738 -1.9894
# 6 -4.1924 -26.5343 -11.4442 4.0384 -1.9894 39.5627
#
#
#
# Elastic Compliance Matrix: (Units=1/GPa)
#
#
# Indices 1 2 3 4 5 6 
#
# 1 0.019836 -0.002366 -0.001375 -0.001405 -0.005923 -0.000037
# 2 -0.002366 0.010281 -0.008408 -0.002063 0.006639 0.004757
# 3 -0.001375 -0.008408 0.028935 -0.000855 -0.036464 0.000839
# 4 -0.001405 -0.002063 -0.000855 0.023865 -0.010739 -0.004756
# 5 -0.005923 0.006639 -0.036464 -0.010739 0.122791 0.000548
# 6 -0.000037 0.004757 0.000839 -0.004756 0.000548 0.029218
#
#
# Mechanical properties :
#
#
# Convention : Reuss Voigt Hill
#
# Bulk Modulus (GPa) = 28.77291 63.65802 46.21547
# Shear Modulus (GPa) = 18.46330 34.00313 26.23321
#
# Velocity S-wave (km/s) = 2.89098 3.92328 3.44600
# Velocity P-wave (km/s) = 4.91612 7.02416 6.06247
#
# Compressibility (1/GPa) = 0.03475491
#
# Stress axis : x y z
#
# Youngs Moduli (GPa) = 50.41289 97.27111 34.56014
#
# Poissons Ratio (x) = 0.23017 0.04751
# Poissons Ratio (y) = 0.11929 0.29056
# Poissons Ratio (z) = 0.06930 0.81781
#
# Static dielectric constant tensor:
#      x y z
#    x 3.822410 -0.028410 -0.011230 
#    y -0.028410 4.638320 0.283740 
#    z -0.011230 0.283740 4.127340 
# 
# 
# High freq. dielectric constant tensor:
#      x y z
#    x 1.861630 -0.001730 -0.000600 
#    y -0.001730 1.894800 0.008600 
#    z -0.000600 0.008600 1.845100 
# 
# From -- ./inp_files/597306.got.cif
#   From: 2010.06.25/outbox.cif.g09.slc.cpg/sg2_299_cif.got.tgz:597306.got - 2010.06.27 13:26:56.
