data_PCOD8013296
_publ_section_title
;
Structure prediction by ZEFSAII (Michael W. Deem and Ramdas Pophale) SiO2 
 PCOD8013296
Probable space group: P -1
;
_chemical_formula_sum "Si O2"
_cell_formula_units_Z 16
_cell_length_a 8.965321
_cell_length_b 11.999393
_cell_length_c 13.771775
_cell_angle_alpha 83.807073
_cell_angle_beta 74.045250
_cell_angle_gamma 32.634347
_cell_volume 746.037526
_symmetry_space_group_name_H-M "P -1"
_symmetry_group_IT_number 2
_symmetry_cell_setting 'triclinic'
loop_
_space_group_symop_operation_xyz
x,y,z
-x,-y,-z
loop_
_atom_site_type_symbol
_atom_site_label
_atom_site_fract_x
_atom_site_fract_y
_atom_site_fract_z
Si Si1 0.120762 0.944581 0.090158
Si Si2 0.824188 0.353738 0.616317
Si Si3 0.298833 0.229819 0.747560
Si Si4 0.899329 0.797815 0.611756
Si Si5 0.803585 0.338799 0.223374
Si Si6 0.271104 0.395183 0.911737
Si Si7 0.202513 0.388504 0.332812
Si Si8 0.833913 0.928922 0.240489
O O1 0.940693 0.148762 0.161952
O O2 0.469680 0.754190 0.040980
O O3 0.097929 0.839908 0.159102
O O4 0.000000 0.000000 0.000000
O O5 0.526066 0.484507 0.698564
O O6 0.823866 0.489257 0.603075
O O7 0.890131 0.274833 0.500688
O O8 0.094893 0.143725 0.653259
O O9 0.406260 0.232012 0.820862
O O10 0.197345 0.167837 0.804325
O O11 0.021166 0.463959 0.730374
O O12 0.575191 0.053087 0.640612
O O13 0.865649 0.688191 0.597222
O O14 0.018247 0.739422 0.704406
O O15 0.817930 0.431601 0.135635
O O16 0.000000 0.500000 0.000000
O O17 0.537770 0.182141 0.255111
#
# Coordination Sequence:
#
# PCOD8013296 Si02
#       8
#     2   2   2   2   2   2   2   2
#     4  12  28  47  72  99 134 180 232 291 351 403
#     4  11  23  41  69 102 140 184 224 274 341 406
#     4  10  23  43  67  99 139 176 230 281 334 408
#     4  11  23  41  69 102 140 184 224 274 341 406
#     4  12  25  48  68 100 140 174 231 284 338 418
#     4  12  28  47  72  99 134 180 232 291 351 403
#     4  10  21  40  66  96 140 180 224 270 331 400
#     4  10  23  43  67  99 139 176 230 281 334 408
#
# _framework density 21.446642000000001
#
# number of rings (size 3 to 8) (size 9 to 14) (size 15 to 20)
#    0.000    1.000    5.000    0.750    3.500    6.500 
#    0.000    1.250    0.000    0.000    0.000    0.000 
#    0.000    0.000    0.000    0.000    0.000    0.000 
#
# Total GULP energy -198359.118048 kJ/mol
# GULP energy per Si atom -12397.444878 kJ/mol
# Density = 2.139783 g / cm^3
# Si number density = 21.446642 Si / 1000 Ang^3
#
#
#
# Elastic Constant Matrix: (Units=GPa)
#
#
# Indices 1 2 3 4 5 6 
#
# 1 70.0183 16.9941 14.7665 9.3283 -11.1540 -8.3089
# 2 16.9941 111.6563 17.7054 9.8430 -7.9964 -17.3696
# 3 14.7665 17.7054 68.2808 10.4136 -16.5510 -1.8383
# 4 9.3283 9.8430 10.4136 22.4150 -6.8608 -2.5884
# 5 -11.1540 -7.9964 -16.5510 -6.8608 27.1106 2.6840
# 6 -8.3089 -17.3696 -1.8383 -2.5884 2.6840 41.7692
#
#
#
# Elastic Compliance Matrix: (Units=1/GPa)
#
#
# Indices 1 2 3 4 5 6 
#
# 1 0.016369 -0.001261 -0.001524 -0.004016 0.004204 0.002146
# 2 -0.001261 0.010275 -0.001801 -0.002599 0.000382 0.003757
# 3 -0.001524 -0.001801 0.018266 -0.004440 0.008978 -0.001100
# 4 -0.004016 -0.002599 -0.004440 0.052000 0.007967 0.000635
# 5 0.004204 0.000382 0.008978 0.007967 0.046334 -0.001093
# 6 0.002146 0.003757 -0.001100 0.000635 -0.001093 0.025991
#
#
# Mechanical properties :
#
#
# Convention : Reuss Voigt Hill
#
# Bulk Modulus (GPa) = 27.98199 38.76527 33.37363
# Shear Modulus (GPa) = 26.27169 31.62492 28.94831
#
# Velocity S-wave (km/s) = 3.50377 3.84420 3.67792
# Velocity P-wave (km/s) = 5.42624 6.14966 5.79924
#
# Compressibility (1/GPa) = 0.03573727
#
# Stress axis : x y z
#
# Youngs Moduli (GPa) = 61.09238 97.32792 54.74701
#
# Poissons Ratio (x) = 0.12271 0.08342
# Poissons Ratio (y) = 0.07703 0.09862
# Poissons Ratio (z) = 0.09309 0.17532
#
# Static dielectric constant tensor:
#      x y z
#    x 4.156760 0.036480 -0.047970 
#    y 0.036480 3.978300 0.038300 
#    z -0.047970 0.038300 3.602490 
# 
# 
# High freq. dielectric constant tensor:
#      x y z
#    x 1.857740 -0.004360 -0.003780 
#    y -0.004360 1.853500 0.003700 
#    z -0.003780 0.003700 1.823850 
# 
# From -- ./inp_files/39457.got.cif
#   From: 2010.06.25/outbox.cif.g09.slc.cpg/sg2_20_cif.got.tgz:39457.got - 2010.06.27 13:26:56.
