data_PCOD8013161
_publ_section_title
;
Structure prediction by ZEFSAII (Michael W. Deem and Ramdas Pophale) SiO2 
 PCOD8013161
Probable space group: P -1
;
_chemical_formula_sum "Si O2"
_cell_formula_units_Z 14
_cell_length_a 11.177708
_cell_length_b 9.712990
_cell_length_c 9.220224
_cell_angle_alpha 42.984590
_cell_angle_beta 76.854222
_cell_angle_gamma 73.331556
_cell_volume 653.588191
_symmetry_space_group_name_H-M "P -1"
_symmetry_group_IT_number 2
_symmetry_cell_setting 'triclinic'
loop_
_space_group_symop_operation_xyz
x,y,z
-x,-y,-z
loop_
_atom_site_type_symbol
_atom_site_label
_atom_site_fract_x
_atom_site_fract_y
_atom_site_fract_z
Si Si1 0.728346 0.552735 0.211716
Si Si2 0.885400 0.208777 0.816147
Si Si3 0.940071 0.805582 0.980555
Si Si4 0.513610 0.379677 0.942948
Si Si5 0.726430 0.023030 0.237860
Si Si6 0.887058 0.159289 0.333073
Si Si7 0.319003 0.423225 0.472292
O O1 0.815174 0.721784 0.052968
O O2 0.626619 0.631075 0.057115
O O3 0.809859 0.325556 0.336529
O O4 0.651235 0.570175 0.370290
O O5 0.811458 0.424968 0.624074
O O6 0.009204 0.258418 0.822309
O O7 0.819844 0.078624 0.049191
O O8 0.914330 0.057310 0.785934
O O9 0.043864 0.718717 0.898202
O O10 0.574585 0.499645 0.708967
O O11 0.500000 0.500000 0.000000
O O12 0.591948 0.158943 0.132754
O O13 0.783344 0.053293 0.359114
O O14 0.702954 0.793368 0.412509
O O15 0.000000 0.000000 0.500000
#
# Coordination Sequence:
#
# PCOD8013161 Si02
#       7
#     2   2   2   2   2   2   2
#     4  12  24  43  67 100 133 175 221 274 329 383
#     4   9  20  41  66  96 138 163 220 270 324 393
#     4  10  21  40  65  97 133 181 211 266 331 391
#     4  11  25  48  67  93 136 175 223 274 322 400
#     4  10  22  45  68  95 128 181 217 267 335 389
#     4  11  24  40  64 101 138 168 225 270 324 401
#     4  11  24  42  72  99 125 175 224 274 331 383
#
# _framework density 21.420214999999999
#
# number of rings (size 3 to 8) (size 9 to 14) (size 15 to 20)
#    0.000    1.429    2.857    1.714    2.000    2.857 
#    5.143    0.000    0.000    0.000    0.000    0.000 
#    0.000    0.000    0.000    0.000    0.000    0.000 
#
# Total GULP energy -173508.052013 kJ/mol
# GULP energy per Si atom -12393.432287 kJ/mol
# Density = 2.137146 g / cm^3
# Si number density = 21.420215 Si / 1000 Ang^3
#
#
#
# Elastic Constant Matrix: (Units=GPa)
#
#
# Indices 1 2 3 4 5 6 
#
# 1 148.8060 47.7727 30.8005 -10.4217 25.4798 20.3078
# 2 47.7727 120.1102 28.3826 3.8457 -1.8069 13.8766
# 3 30.8005 28.3826 54.2330 -12.0495 13.0369 10.7769
# 4 -10.4217 3.8457 -12.0495 30.8360 -6.4362 -3.1704
# 5 25.4798 -1.8069 13.0369 -6.4362 32.5611 2.1177
# 6 20.3078 13.8766 10.7769 -3.1704 2.1177 35.5243
#
#
#
# Elastic Compliance Matrix: (Units=1/GPa)
#
#
# Indices 1 2 3 4 5 6 
#
# 1 0.009785 -0.003387 -0.001124 0.001507 -0.006877 -0.003385
# 2 -0.003387 0.011415 -0.005838 -0.003965 0.004929 -0.001399
# 3 -0.001124 -0.005838 0.026826 0.008712 -0.008206 -0.003948
# 4 0.001507 -0.003965 0.008712 0.037475 0.002439 0.001243
# 5 -0.006877 0.004929 -0.008206 0.002439 0.039983 0.002330
# 6 -0.003385 -0.001399 -0.003948 0.001243 0.002330 0.031802
#
#
# Mechanical properties :
#
#
# Convention : Reuss Voigt Hill
#
# Bulk Modulus (GPa) = 36.59310 59.67342 48.13326
# Shear Modulus (GPa) = 26.72477 34.19717 30.46097
#
# Velocity S-wave (km/s) = 3.53603 3.99995 3.77512
# Velocity P-wave (km/s) = 5.81308 7.01795 6.44374
#
# Compressibility (1/GPa) = 0.02732756
#
# Stress axis : x y z
#
# Youngs Moduli (GPa) = 102.19455 87.60278 37.27786
#
# Poissons Ratio (x) = 0.29671 0.04191
# Poissons Ratio (y) = 0.34613 0.21763
# Poissons Ratio (z) = 0.11488 0.51144
#
# Static dielectric constant tensor:
#      x y z
#    x 3.696060 -0.019230 0.003310 
#    y -0.019230 4.156680 0.158150 
#    z 0.003310 0.158150 3.572420 
# 
# 
# High freq. dielectric constant tensor:
#      x y z
#    x 1.850080 -0.002270 0.010320 
#    y -0.002270 1.858990 0.004610 
#    z 0.010320 0.004610 1.822070 
# 
# From -- ./inp_files/227296.got.cif
#   From: 2010.06.25/outbox.cif.g09.slc.cpg/sg2_114_cif.got.tgz:227296.got - 2010.06.27 13:26:56.
