data_PCOD8013690
_publ_section_title
;
Structure prediction by ZEFSAII (Michael W. Deem and Ramdas Pophale) SiO2 
 PCOD8013690
Probable space group: P -1
;
_chemical_formula_sum "Si O2"
_cell_formula_units_Z 12
_cell_length_a 8.073782
_cell_length_b 7.676995
_cell_length_c 10.252913
_cell_angle_alpha 67.769374
_cell_angle_beta 118.391869
_cell_angle_gamma 120.246786
_cell_volume 474.826050
_symmetry_space_group_name_H-M "P -1"
_symmetry_group_IT_number 2
_symmetry_cell_setting 'triclinic'
loop_
_space_group_symop_operation_xyz
x,y,z
-x,-y,-z
loop_
_atom_site_type_symbol
_atom_site_label
_atom_site_fract_x
_atom_site_fract_y
_atom_site_fract_z
Si Si1 0.221908 0.815656 0.963787
Si Si2 0.059667 0.237556 0.918886
Si Si3 0.522879 0.798115 0.607295
Si Si4 0.121711 0.559184 0.397817
Si Si5 0.954671 0.852279 0.647878
Si Si6 0.530909 0.775647 0.919722
O O1 0.330129 0.681730 0.966540
O O2 0.145758 0.941676 0.793589
O O3 0.024032 0.669106 0.016883
O O4 0.375678 0.982475 0.074459
O O5 0.940234 0.263494 0.738790
O O6 0.308771 0.334612 0.964019
O O7 0.000000 0.000000 0.000000
O O8 0.360846 0.625500 0.503518
O O9 0.750313 0.821061 0.657491
O O10 0.465726 0.751398 0.751284
O O11 0.500000 0.000000 0.500000
O O12 0.055142 0.369432 0.330260
O O13 0.000000 0.500000 0.500000
O O14 0.000000 0.000000 0.500000
#
# Coordination Sequence:
#
# PCOD8013690 Si02
#       6
#     2   2   2   2   2   2
#     4  10  21  41  72 106 139 189 253 294 374 438
#     4  10  22  44  74 103 145 193 239 310 366 438
#     4  12  24  47  74 109 150 199 249 310 383 447
#     4  12  28  48  74 113 152 196 256 307 377 455
#     4  12  27  46  75 107 154 202 248 314 375 447
#     4  10  21  40  72 106 139 192 242 305 364 448
#
# _framework density 25.272414999999999
#
# number of rings (size 3 to 8) (size 9 to 14) (size 15 to 20)
#    0.000    1.000    1.667    5.500    7.000    2.000 
#    3.000    1.667    0.000    0.000    0.000    0.000 
#    0.000    0.000    0.000    0.000    0.000    0.000 
#
# Total GULP energy -148751.747808 kJ/mol
# GULP energy per Si atom -12395.978984 kJ/mol
# Density = 2.521489 g / cm^3
# Si number density = 25.272415 Si / 1000 Ang^3
#
#
#
# Elastic Constant Matrix: (Units=GPa)
#
#
# Indices 1 2 3 4 5 6 
#
# 1 242.2674 17.0020 64.0003 -1.9591 -10.5927 2.0571
# 2 17.0020 40.5961 29.1144 -1.3089 8.9661 -7.0549
# 3 64.0003 29.1144 179.9081 7.3236 3.2565 0.9806
# 4 -1.9591 -1.3089 7.3236 27.7777 7.1869 7.3769
# 5 -10.5927 8.9661 3.2565 7.1869 48.8904 2.8701
# 6 2.0571 -7.0549 0.9806 7.3769 2.8701 36.6053
#
#
#
# Elastic Compliance Matrix: (Units=1/GPa)
#
#
# Indices 1 2 3 4 5 6 
#
# 1 0.004680 -0.001276 -0.001499 0.000504 0.001313 -0.000673
# 2 -0.001276 0.031027 -0.004591 0.002606 -0.006405 0.006152
# 3 -0.001499 -0.004591 0.006916 -0.002090 0.000399 -0.000596
# 4 0.000504 0.002606 -0.002090 0.040070 -0.005703 -0.007098
# 5 0.001313 -0.006405 0.000399 -0.005703 0.022840 -0.001960
# 6 -0.000673 0.006152 -0.000596 -0.007098 -0.001960 0.030142
#
#
# Mechanical properties :
#
#
# Convention : Reuss Voigt Hill
#
# Bulk Modulus (GPa) = 35.85295 75.88947 55.87121
# Shear Modulus (GPa) = 31.30767 46.16499 38.73633
#
# Velocity S-wave (km/s) = 3.52349 4.27862 3.91928
# Velocity P-wave (km/s) = 5.54713 7.38259 6.52967
#
# Compressibility (1/GPa) = 0.02789171
#
# Stress axis : x y z
#
# Youngs Moduli (GPa) = 213.65370 32.22949 144.59678
#
# Poissons Ratio (x) = 0.04112 0.21678
# Poissons Ratio (y) = 0.27260 0.66384
# Poissons Ratio (z) = 0.32031 0.14796
#
# Static dielectric constant tensor:
#      x y z
#    x 4.916670 -0.928020 -2.075550 
#    y -0.928020 2.861350 -2.637160 
#    z -2.075550 -2.637160 -0.274560 
# 
# 
# High freq. dielectric constant tensor:
#      x y z
#    x 2.040960 -0.002010 -0.000870 
#    y -0.002010 1.994350 0.015000 
#    z -0.000870 0.015000 2.016120 
# 
# From -- ./inp_files/157016.got.cif
#   From: 2010.06.25/outbox.cif.g09.slc.cpg/sg2_79_cif.got.tgz:157016.got - 2010.06.27 13:26:56.
