data_PCOD8013375
_publ_section_title
;
Structure prediction by ZEFSAII (Michael W. Deem and Ramdas Pophale) SiO2 
 PCOD8013375
Probable space group: P -1
;
_chemical_formula_sum "Si O2"
_cell_formula_units_Z 16
_cell_length_a 15.241785
_cell_length_b 15.312100
_cell_length_c 16.016473
_cell_angle_alpha 40.038469
_cell_angle_beta 140.987327
_cell_angle_gamma 161.220952
_cell_volume 749.158041
_symmetry_space_group_name_H-M "P -1"
_symmetry_group_IT_number 2
_symmetry_cell_setting 'triclinic'
loop_
_space_group_symop_operation_xyz
x,y,z
-x,-y,-z
loop_
_atom_site_type_symbol
_atom_site_label
_atom_site_fract_x
_atom_site_fract_y
_atom_site_fract_z
Si Si1 0.100038 0.028872 0.287921
Si Si2 0.354379 0.440534 0.589305
Si Si3 0.670276 0.885648 0.248591
Si Si4 0.849469 0.162590 0.655529
Si Si5 0.860134 0.572570 0.706222
Si Si6 0.703560 0.283198 0.341496
Si Si7 0.183110 0.598734 0.851029
Si Si8 0.784091 0.037286 0.038621
O O1 0.379920 0.313740 0.333714
O O2 0.900525 0.985168 0.148265
O O3 0.158562 0.996415 0.270287
O O4 0.928420 0.784777 0.401053
O O5 0.371211 0.309005 0.654185
O O6 0.333406 0.537775 0.432101
O O7 0.371361 0.683857 0.212694
O O8 0.736330 0.023597 0.111712
O O9 0.943302 0.140655 0.322268
O O10 0.766177 0.194036 0.497229
O O11 0.152799 0.465406 0.691644
O O12 0.631913 0.979802 0.706403
O O13 0.079109 0.641943 0.792143
O O14 0.826824 0.376598 0.271952
O O15 0.997172 0.317132 0.947670
O O16 0.494745 0.815911 0.940977
#
# Coordination Sequence:
#
# PCOD8013375 Si02
#       8
#     2   2   2   2   2   2   2   2
#     4  11  22  41  66  90 121 166 205 241 304 369
#     4  11  22  39  64  94 126 152 198 263 313 358
#     4  11  23  41  61  89 123 161 206 254 305 355
#     4  10  21  40  67  94 121 152 196 246 309 371
#     4  12  24  38  64  92 120 160 206 257 310 363
#     4  10  22  40  63  94 126 152 189 255 309 355
#     4  12  25  42  61  88 126 165 206 248 300 356
#     4  11  25  43  60  84 125 169 208 250 290 353
#
# _framework density 21.357309999999998
#
# number of rings (size 3 to 8) (size 9 to 14) (size 15 to 20)
#    0.000    1.000    0.000    8.250    0.000    6.000 
#    0.000    3.750    0.000    0.000    0.000    0.000 
#    0.000    0.000    0.000    0.000    0.000    0.000 
#
# Total GULP energy -198403.148802 kJ/mol
# GULP energy per Si atom -12400.196800 kJ/mol
# Density = 2.130870 g / cm^3
# Si number density = 21.357310 Si / 1000 Ang^3
#
#
#
# Elastic Constant Matrix: (Units=GPa)
#
#
# Indices 1 2 3 4 5 6 
#
# 1 105.9942 36.4687 29.8934 -12.2311 -0.0826 5.4534
# 2 36.4687 113.4972 26.8276 14.7456 4.1291 55.8431
# 3 29.8934 26.8276 68.2677 -7.9672 -1.6060 12.3488
# 4 -12.2311 14.7456 -7.9672 16.0217 10.3807 -48.8757
# 5 -0.0826 4.1291 -1.6060 10.3807 24.0835 -10.4458
# 6 5.4534 55.8431 12.3488 -48.8757 -10.4458 -50.0379
#
#
#
# Elastic Compliance Matrix: (Units=1/GPa)
#
#
# Indices 1 2 3 4 5 6 
#
# 1 0.011348 -0.001621 -0.003729 0.001490 -0.001699 -0.002593
# 2 -0.001621 0.007485 -0.002546 0.003867 -0.001366 0.004056
# 3 -0.003729 -0.002546 0.017974 0.003209 -0.000555 -0.001831
# 4 0.001490 0.003867 0.003209 0.025395 -0.018214 -0.015733
# 5 -0.001699 -0.001366 -0.000555 -0.018214 0.051790 0.005133
# 6 -0.002593 0.004056 -0.001831 -0.015733 0.005133 -0.001896
#
#
# Mechanical properties :
#
#
# Convention : Reuss Voigt Hill
#
# Bulk Modulus (GPa) = 47.58513 52.68205 50.13359
# Shear Modulus (GPa) = 37.06611 10.98475 24.02543
#
# Velocity S-wave (km/s) = 4.17048 2.27035 3.35763
# Velocity P-wave (km/s) = 6.74681 5.62078 6.20937
#
# Compressibility (1/GPa) = 0.02101497
#
# Stress axis : x y z
#
# Youngs Moduli (GPa) = 88.12216 133.60180 55.63462
#
# Poissons Ratio (x) = 0.21653 0.20747
# Poissons Ratio (y) = 0.14282 0.14166
# Poissons Ratio (z) = 0.32862 0.34019
#
# Static dielectric constant tensor:
#      x y z
#    x 3.932390 0.179030 -0.122190 
#    y 0.179030 4.010110 -0.097890 
#    z -0.122190 -0.097890 3.777440 
# 
# 
# High freq. dielectric constant tensor:
#      x y z
#    x 1.841990 0.012030 -0.004240 
#    y 0.012030 1.857840 -0.006070 
#    z -0.004240 -0.006070 1.825930 
# 
# From -- ./inp_files/534273.got.cif
#   From: 2010.06.25/outbox.cif.g09.slc.cpg/sg2_268_cif.got.tgz:534273.got - 2010.06.27 13:26:56.
