data_PCOD8013530
_publ_section_title
;
Structure prediction by ZEFSAII (Michael W. Deem and Ramdas Pophale) SiO2 
 PCOD8013530
Probable space group: P -1
;
_chemical_formula_sum "Si O2"
_cell_formula_units_Z 16
_cell_length_a 19.723783
_cell_length_b 22.269059
_cell_length_c 8.823034
_cell_angle_alpha 135.002770
_cell_angle_beta 148.994395
_cell_angle_gamma 24.319904
_cell_volume 770.610536
_symmetry_space_group_name_H-M "P -1"
_symmetry_group_IT_number 2
_symmetry_cell_setting 'triclinic'
loop_
_space_group_symop_operation_xyz
x,y,z
-x,-y,-z
loop_
_atom_site_type_symbol
_atom_site_label
_atom_site_fract_x
_atom_site_fract_y
_atom_site_fract_z
Si Si1 0.267810 0.856765 0.699277
Si Si2 0.849295 0.814388 0.243345
Si Si3 0.704674 0.378930 0.055353
Si Si4 0.475792 0.879403 0.671736
Si Si5 0.896971 0.767196 0.911043
Si Si6 0.379364 0.485686 0.171465
Si Si7 0.402675 0.936966 0.292979
Si Si8 0.756254 0.151482 0.709889
O O1 0.421681 0.693162 0.750298
O O2 0.235499 0.887091 0.513200
O O3 0.413998 0.851186 0.052111
O O4 0.000000 0.000000 0.500000
O O5 0.049807 0.720820 0.583391
O O6 0.652346 0.993670 0.218819
O O7 0.743540 0.775155 0.986955
O O8 0.954164 0.769276 0.194232
O O9 0.500000 0.500000 0.000000
O O10 0.665593 0.466421 0.002427
O O11 0.706760 0.278453 0.835561
O O12 0.348029 0.950780 0.389591
O O13 0.463197 0.786366 0.527590
O O14 0.667508 0.830844 0.589318
O O15 0.825312 0.883878 0.874753
O O16 0.131843 0.595190 0.981653
O O17 0.500000 0.500000 0.500000
O O18 0.000000 0.000000 0.000000
#
# Coordination Sequence:
#
# PCOD8013530 Si02
#       8
#     2   2   2   2   2   2   2   2
#     4  12  27  43  68  95 130 176 223 273 332 390
#     4  10  21  41  68  98 129 177 216 270 328 389
#     4  12  27  43  67  98 134 175 215 270 341 394
#     4  10  21  40  68  98 132 169 225 269 320 387
#     4  10  22  42  68  98 134 172 222 268 329 392
#     4  12  25  45  66  94 134 175 219 275 327 396
#     4  10  22  41  68  99 132 176 220 268 321 400
#     4  12  25  43  67 101 133 169 220 278 322 402
#
# _framework density 20.762757000000001
#
# number of rings (size 3 to 8) (size 9 to 14) (size 15 to 20)
#    0.000    1.000    2.500    3.750    3.500    3.500 
#    0.000    0.625    0.000    0.000    0.000    0.000 
#    0.000    0.000    0.000    0.000    0.000    0.000 
#
# Total GULP energy -198299.485017 kJ/mol
# GULP energy per Si atom -12393.717814 kJ/mol
# Density = 2.071550 g / cm^3
# Si number density = 20.762757 Si / 1000 Ang^3
#
#
#
# Elastic Constant Matrix: (Units=GPa)
#
#
# Indices 1 2 3 4 5 6 
#
# 1 139.7395 43.1840 35.7709 3.5228 -13.3734 -4.4173
# 2 43.1840 112.1977 28.5719 -2.7024 1.0135 -1.6705
# 3 35.7709 28.5719 95.4599 16.2905 -3.9619 7.5315
# 4 3.5228 -2.7024 16.2905 34.8432 -8.4468 1.4884
# 5 -13.3734 1.0135 -3.9619 -8.4468 28.4332 4.2280
# 6 -4.4173 -1.6705 7.5315 1.4884 4.2280 36.5186
#
#
#
# Elastic Compliance Matrix: (Units=1/GPa)
#
#
# Indices 1 2 3 4 5 6 
#
# 1 0.009116 -0.002829 -0.002657 0.001074 0.004190 0.000992
# 2 -0.002829 0.010739 -0.002611 0.001911 -0.001628 0.000798
# 3 -0.002657 -0.002611 0.013528 -0.006309 -0.000716 -0.002891
# 4 0.001074 0.001911 -0.006309 0.034119 0.009845 -0.001012
# 5 0.004190 -0.001628 -0.000716 0.009845 0.040698 -0.004533
# 6 0.000992 0.000798 -0.002891 -0.001012 -0.004533 0.028702
#
#
# Mechanical properties :
#
#
# Convention : Reuss Voigt Hill
#
# Bulk Modulus (GPa) = 58.17710 62.49453 60.33582
# Shear Modulus (GPa) = 31.48123 35.95036 33.71579
#
# Velocity S-wave (km/s) = 3.89811 4.16562 4.03409
# Velocity P-wave (km/s) = 6.95278 7.30077 7.12890
#
# Compressibility (1/GPa) = 0.01718889
#
# Stress axis : x y z
#
# Youngs Moduli (GPa) = 109.69880 93.11626 73.92327
#
# Poissons Ratio (x) = 0.26345 0.19640
# Poissons Ratio (y) = 0.31036 0.19300
# Poissons Ratio (z) = 0.29145 0.24311
#
# Static dielectric constant tensor:
#      x y z
#    x 3.770710 0.015000 -0.227500 
#    y 0.015000 3.518860 0.039980 
#    z -0.227500 0.039980 3.819010 
# 
# 
# High freq. dielectric constant tensor:
#      x y z
#    x 1.830490 -0.007940 -0.005560 
#    y -0.007940 1.793390 0.006580 
#    z -0.005560 0.006580 1.833970 
# 
# From -- ./inp_files/298376.got.cif
#   From: 2010.06.25/outbox.cif.g09.slc.cpg/sg2_150_cif.got.tgz:298376.got - 2010.06.27 13:26:56.
