data_PCOD8013166
_publ_section_title
;
Structure prediction by ZEFSAII (Michael W. Deem and Ramdas Pophale) SiO2 
 PCOD8013166
Probable space group: P -1
;
_chemical_formula_sum "Si O2"
_cell_formula_units_Z 16
_cell_length_a 6.074393
_cell_length_b 7.927534
_cell_length_c 20.181540
_cell_angle_alpha 62.804372
_cell_angle_beta 69.191083
_cell_angle_gamma 51.305325
_cell_volume 671.265910
_symmetry_space_group_name_H-M "P -1"
_symmetry_group_IT_number 2
_symmetry_cell_setting 'triclinic'
loop_
_space_group_symop_operation_xyz
x,y,z
-x,-y,-z
loop_
_atom_site_type_symbol
_atom_site_label
_atom_site_fract_x
_atom_site_fract_y
_atom_site_fract_z
Si Si1 0.073405 0.673005 0.988468
Si Si2 0.631283 0.502035 0.882320
Si Si3 0.824884 0.326937 0.519262
Si Si4 0.154423 0.168779 0.717865
Si Si5 0.784628 0.583701 0.605610
Si Si6 0.790856 0.086179 0.859641
Si Si7 0.297752 0.098925 0.227079
Si Si8 0.861435 0.080620 0.357038
O O1 0.353007 0.629494 0.932766
O O2 0.102063 0.656213 0.068156
O O3 0.836246 0.932357 0.946585
O O4 0.000000 0.500000 0.000000
O O5 0.601637 0.349279 0.857547
O O6 0.675990 0.686188 0.811431
O O7 0.500000 0.500000 0.500000
O O8 0.878315 0.420923 0.562446
O O9 0.050527 0.289767 0.444684
O O10 0.926580 0.070296 0.577490
O O11 0.909950 0.438138 0.686902
O O12 0.071533 0.051213 0.803552
O O13 0.455195 0.116485 0.718640
O O14 0.202829 0.061780 0.659891
O O15 0.445311 0.730759 0.615310
O O16 0.659398 0.009006 0.831282
O O17 0.000814 0.185210 0.279223
#
# Coordination Sequence:
#
# PCOD8013166 Si02
#       8
#     2   2   2   2   2   2   2   2
#     4  11  23  45  67  98 137 172 233 287 337 420
#     4  11  25  43  69  96 135 183 224 285 349 405
#     4  10  21  40  65  97 136 177 227 281 337 405
#     4  10  23  42  62  95 138 174 224 287 332 408
#     4  10  22  40  64  96 135 178 226 281 341 401
#     4  11  24  43  67  99 134 179 229 280 349 409
#     4  11  23  45  67 100 139 178 235 285 338 420
#     4  10  23  41  65  98 135 179 229 282 340 404
#
# _framework density 23.835560999999998
#
# number of rings (size 3 to 8) (size 9 to 14) (size 15 to 20)
#    0.000    1.500    2.500    1.500    1.750    3.000 
#    6.750    0.000    0.000    0.000    0.000    0.000 
#    0.000    0.000    0.000    0.000    0.000    0.000 
#
# Total GULP energy -198234.816274 kJ/mol
# GULP energy per Si atom -12389.676017 kJ/mol
# Density = 2.378131 g / cm^3
# Si number density = 23.835561 Si / 1000 Ang^3
#
#
#
# Elastic Constant Matrix: (Units=GPa)
#
#
# Indices 1 2 3 4 5 6 
#
# 1 84.8966 36.3285 36.8847 -18.0089 -5.5558 -16.1549
# 2 36.3285 104.4385 46.0610 -19.1637 -3.1588 -7.6112
# 3 36.8847 46.0610 104.3566 -24.6713 -2.5184 -14.2105
# 4 -18.0089 -19.1637 -24.6713 37.0090 -6.6565 2.2721
# 5 -5.5558 -3.1588 -2.5184 -6.6565 32.8257 -2.4289
# 6 -16.1549 -7.6112 -14.2105 2.2721 -2.4289 48.2958
#
#
#
# Elastic Compliance Matrix: (Units=1/GPa)
#
#
# Indices 1 2 3 4 5 6 
#
# 1 0.016345 -0.003252 -0.002510 0.004984 0.003580 0.004162
# 2 -0.003252 0.012945 -0.003951 0.002669 0.000912 -0.000290
# 3 -0.002510 -0.003951 0.014075 0.006275 0.001730 0.002471
# 4 0.004984 0.002669 0.006275 0.036498 0.009181 0.002679
# 5 0.003580 0.000912 0.001730 0.009181 0.033381 0.003097
# 6 0.004162 -0.000290 0.002471 0.002679 0.003097 0.022809
#
#
# Mechanical properties :
#
#
# Convention : Reuss Voigt Hill
#
# Bulk Modulus (GPa) = 41.77304 59.13779 50.45541
# Shear Modulus (GPa) = 30.58876 35.25393 32.92134
#
# Velocity S-wave (km/s) = 3.58624 3.85001 3.72046
# Velocity P-wave (km/s) = 5.89166 6.68042 6.29840
#
# Compressibility (1/GPa) = 0.02393889
#
# Stress axis : x y z
#
# Youngs Moduli (GPa) = 61.18159 77.25116 71.04640
#
# Poissons Ratio (x) = 0.25124 0.17833
# Poissons Ratio (y) = 0.19898 0.28068
# Poissons Ratio (z) = 0.15357 0.30520
#
# Static dielectric constant tensor:
#      x y z
#    x 4.253590 -0.076440 0.174410 
#    y -0.076440 4.163990 -0.365550 
#    z 0.174410 -0.365550 4.646390 
# 
# 
# High freq. dielectric constant tensor:
#      x y z
#    x 1.941610 -0.003220 0.004190 
#    y -0.003220 1.927580 -0.011450 
#    z 0.004190 -0.011450 1.959880 
# 
# From -- ./inp_files/116471.got.cif
#   From: 2010.06.25/outbox.cif.g09.slc.cpg/sg2_59_cif.got.tgz:116471.got - 2010.06.27 13:26:56.
