data_PCOD8013081
_publ_section_title
;
Structure prediction by ZEFSAII (Michael W. Deem and Ramdas Pophale) SiO2 
 PCOD8013081
Probable space group: P -1
;
_chemical_formula_sum "Si O2"
_cell_formula_units_Z 16
_cell_length_a 10.057809
_cell_length_b 8.241315
_cell_length_c 12.157208
_cell_angle_alpha 98.217618
_cell_angle_beta 56.882725
_cell_angle_gamma 118.977544
_cell_volume 728.080457
_symmetry_space_group_name_H-M "P -1"
_symmetry_group_IT_number 2
_symmetry_cell_setting 'triclinic'
loop_
_space_group_symop_operation_xyz
x,y,z
-x,-y,-z
loop_
_atom_site_type_symbol
_atom_site_label
_atom_site_fract_x
_atom_site_fract_y
_atom_site_fract_z
Si Si1 0.001387 0.937661 0.617511
Si Si2 0.847669 0.558152 0.559216
Si Si3 0.553177 0.728810 0.229282
Si Si4 0.692038 0.037875 0.375012
Si Si5 0.269064 0.517342 0.935582
Si Si6 0.888108 0.385560 0.172502
Si Si7 0.964976 0.261612 0.723611
Si Si8 0.419304 0.805511 0.081406
O O1 0.201941 0.984878 0.571441
O O2 0.869092 0.711314 0.658085
O O3 0.932276 0.049757 0.739705
O O4 0.000000 0.000000 0.500000
O O5 0.647965 0.381963 0.638964
O O6 0.883753 0.651791 0.431946
O O7 0.000000 0.500000 0.500000
O O8 0.637964 0.592358 0.170786
O O9 0.553944 0.813693 0.117252
O O10 0.677022 0.898978 0.270510
O O11 0.798919 0.250646 0.302910
O O12 0.500000 0.000000 0.500000
O O13 0.256475 0.658442 0.864602
O O14 0.391471 0.642537 0.993150
O O15 0.063381 0.369501 0.052786
O O16 0.956095 0.603979 0.193898
O O17 0.771393 0.244279 0.778250
O O18 0.500000 0.000000 0.000000
#
# Coordination Sequence:
#
# PCOD8013081 Si02
#       8
#     2   2   2   2   2   2   2   2
#     4  10  24  40  65  98 134 177 219 267 333 416
#     4  11  21  41  66  95 133 175 216 272 342 400
#     4  12  25  41  69 101 135 171 231 286 331 400
#     4  12  26  42  69 102 136 176 226 279 344 400
#     4  10  24  43  65  96 129 178 232 272 339 392
#     4  10  22  44  68  90 137 177 217 283 339 400
#     4  10  21  40  65  92 127 174 223 261 342 397
#     4  11  24  40  64  93 135 178 219 280 328 397
#
# _framework density 21.975595999999999
#
# number of rings (size 3 to 8) (size 9 to 14) (size 15 to 20)
#    0.000    1.250    1.250    4.125    5.250    3.500 
#    0.000    4.375    0.000    0.000    0.000    0.000 
#    0.000    0.000    0.000    0.000    0.000    0.000 
#
# Total GULP energy -198392.039896 kJ/mol
# GULP energy per Si atom -12399.502493 kJ/mol
# Density = 2.192558 g / cm^3
# Si number density = 21.975596 Si / 1000 Ang^3
#
#
#
# Elastic Constant Matrix: (Units=GPa)
#
#
# Indices 1 2 3 4 5 6 
#
# 1 122.1294 23.5508 32.4608 1.5705 14.2925 2.8666
# 2 23.5508 101.1922 23.0276 15.2386 0.9436 -3.8762
# 3 32.4608 23.0276 85.6549 -0.4849 -0.3241 -6.1070
# 4 1.5705 15.2386 -0.4849 39.4642 -4.4180 0.7546
# 5 14.2925 0.9436 -0.3241 -4.4180 36.8902 8.7476
# 6 2.8666 -3.8762 -6.1070 0.7546 8.7476 30.6149
#
#
#
# Elastic Compliance Matrix: (Units=1/GPa)
#
#
# Indices 1 2 3 4 5 6 
#
# 1 0.009822 -0.001468 -0.003395 -0.000261 -0.003655 -0.000732
# 2 -0.001468 0.011526 -0.002471 -0.004518 -0.000619 0.001392
# 3 -0.003395 -0.002471 0.013810 0.001334 0.001087 0.002416
# 4 -0.000261 -0.004518 0.001334 0.027603 0.004036 -0.002115
# 5 -0.003655 -0.000619 0.001087 0.004036 0.031045 -0.008489
# 6 -0.000732 0.001392 0.002416 -0.002115 -0.008489 0.035868
#
#
# Mechanical properties :
#
#
# Convention : Reuss Voigt Hill
#
# Bulk Modulus (GPa) = 48.80612 51.89499 50.35055
# Shear Modulus (GPa) = 33.07503 36.72303 34.89903
#
# Velocity S-wave (km/s) = 3.88374 4.09232 3.98940
# Velocity P-wave (km/s) = 6.50913 6.78200 6.64697
#
# Compressibility (1/GPa) = 0.02048924
#
# Stress axis : x y z
#
# Youngs Moduli (GPa) = 101.81466 86.76317 72.41334
#
# Poissons Ratio (x) = 0.12736 0.24585
# Poissons Ratio (y) = 0.14946 0.17893
# Poissons Ratio (z) = 0.34566 0.21439
#
# Static dielectric constant tensor:
#      x y z
#    x 3.978640 0.001000 -0.024580 
#    y 0.001000 4.391740 0.193570 
#    z -0.024580 0.193570 4.047600 
# 
# 
# High freq. dielectric constant tensor:
#      x y z
#    x 1.865380 -0.000660 0.003220 
#    y -0.000660 1.873020 0.017070 
#    z 0.003220 0.017070 1.857000 
# 
# From -- ./inp_files/299495.got.cif
#   From: 2010.06.25/outbox.cif.g09.slc.cpg/sg2_150_cif.got.tgz:299495.got - 2010.06.27 13:26:56.
