data_PCOD8013799
_publ_section_title
;
Structure prediction by ZEFSAII (Michael W. Deem and Ramdas Pophale) SiO2 
 PCOD8013799
Probable space group: P -1
;
_chemical_formula_sum "Si O2"
_cell_formula_units_Z 16
_cell_length_a 9.129671
_cell_length_b 16.838144
_cell_length_c 9.200889
_cell_angle_alpha 68.945019
_cell_angle_beta 135.570824
_cell_angle_gamma 133.989729
_cell_volume 685.619810
_symmetry_space_group_name_H-M "P -1"
_symmetry_group_IT_number 2
_symmetry_cell_setting 'triclinic'
loop_
_space_group_symop_operation_xyz
x,y,z
-x,-y,-z
loop_
_atom_site_type_symbol
_atom_site_label
_atom_site_fract_x
_atom_site_fract_y
_atom_site_fract_z
Si Si1 0.076512 0.840123 0.619905
Si Si2 0.824369 0.601067 0.497984
Si Si3 0.407761 0.547611 0.007518
Si Si4 0.836206 0.436313 0.778273
Si Si5 0.141308 0.987659 0.330515
Si Si6 0.602902 0.293336 0.279323
Si Si7 0.654053 0.947189 0.866801
Si Si8 0.630623 0.792200 0.525583
O O1 0.419062 0.932832 0.803504
O O2 0.966714 0.713869 0.619660
O O3 0.945595 0.847872 0.665597
O O4 0.998401 0.874294 0.398226
O O5 0.553765 0.570488 0.251249
O O6 0.722938 0.495711 0.597091
O O7 0.057020 0.627318 0.531958
O O8 0.500000 0.500000 0.000000
O O9 0.504182 0.664051 0.935206
O O10 0.069971 0.454839 0.832394
O O11 0.577618 0.297494 0.693896
O O12 0.000000 0.500000 0.000000
O O13 0.263834 0.979284 0.272808
O O14 0.365181 0.104200 0.511128
O O15 0.918488 0.001111 0.121274
O O16 0.455765 0.169992 0.199130
O O17 0.490663 0.287632 0.363923
#
# Coordination Sequence:
#
# PCOD8013799 Si02
#       8
#     2   2   2   2   2   2   2   2
#     4  11  22  38  62  89 119 157 199 242 296 357
#     4  10  22  41  64  88 117 159 207 247 291 357
#     4  11  21  36  63  89 117 159 204 248 297 354
#     4  11  25  43  60  87 125 161 200 248 300 351
#     4  10  21  41  62  87 121 155 197 248 298 351
#     4   9  20  39  59  89 125 155 196 250 299 349
#     4   9  20  39  64  87 115 158 201 241 294 361
#     4  11  23  39  60  88 127 160 194 251 302 351
#
# _framework density 23.336548000000001
#
# number of rings (size 3 to 8) (size 9 to 14) (size 15 to 20)
#    0.000    1.750    0.000    3.750    0.000    7.500 
#    0.000    7.500    0.000    0.000    0.000    0.000 
#    0.000    0.000    0.000    0.000    0.000    0.000 
#
# Total GULP energy -198285.548237 kJ/mol
# GULP energy per Si atom -12392.846765 kJ/mol
# Density = 2.328343 g / cm^3
# Si number density = 23.336548 Si / 1000 Ang^3
#
#
#
# Elastic Constant Matrix: (Units=GPa)
#
#
# Indices 1 2 3 4 5 6 
#
# 1 75.5179 9.7332 -4.3323 -4.3997 5.8501 9.1892
# 2 9.7332 66.3280 21.8528 -2.3302 1.3230 2.7037
# 3 -4.3323 21.8528 80.2290 -9.4074 10.2386 -2.2240
# 4 -4.3997 -2.3302 -9.4074 34.2490 -5.1887 -1.3189
# 5 5.8501 1.3230 10.2386 -5.1887 29.4124 2.0490
# 6 9.1892 2.7037 -2.2240 -1.3189 2.0490 29.6992
#
#
#
# Elastic Compliance Matrix: (Units=1/GPa)
#
#
# Indices 1 2 3 4 5 6 
#
# 1 0.014455 -0.002479 0.001907 0.001629 -0.002873 -0.003833
# 2 -0.002479 0.017120 -0.005069 -0.000367 0.001513 -0.001292
# 3 0.001907 -0.005069 0.015004 0.003338 -0.004889 0.001480
# 4 0.001629 -0.000367 0.003338 0.030928 0.003925 0.000882
# 5 -0.002873 0.001513 -0.004889 0.003925 0.037036 -0.001996
# 6 -0.003833 -0.001292 0.001480 0.000882 -0.001996 0.035262
#
#
# Mechanical properties :
#
#
# Convention : Reuss Voigt Hill
#
# Bulk Modulus (GPa) = 28.33013 30.73136 29.53075
# Shear Modulus (GPa) = 28.92656 31.66021 30.29339
#
# Velocity S-wave (km/s) = 3.52453 3.68731 3.60684
# Velocity P-wave (km/s) = 5.35997 5.59694 5.47973
#
# Compressibility (1/GPa) = 0.03529811
#
# Stress axis : x y z
#
# Youngs Moduli (GPa) = 69.18170 58.41144 66.64777
#
# Poissons Ratio (x) = 0.14478 -0.12710
# Poissons Ratio (y) = 0.17148 0.33783
# Poissons Ratio (z) = -0.13194 0.29608
#
# Static dielectric constant tensor:
#      x y z
#    x 4.766440 0.609600 0.845300 
#    y 0.609600 4.584920 0.992260 
#    z 0.845300 0.992260 5.264090 
# 
# 
# High freq. dielectric constant tensor:
#      x y z
#    x 1.935750 0.006520 0.006550 
#    y 0.006520 1.921430 0.002100 
#    z 0.006550 0.002100 1.900960 
# 
# From -- ./inp_files/217376.got.cif
#   From: 2010.06.25/outbox.cif.g09.slc.cpg/sg2_109_cif.got.tgz:217376.got - 2010.06.27 13:26:56.
