data_PCOD8013864
_publ_section_title
;
Structure prediction by ZEFSAII (Michael W. Deem and Ramdas Pophale) SiO2 
 PCOD8013864
Probable space group: P -1
;
_chemical_formula_sum "Si O2"
_cell_formula_units_Z 14
_cell_length_a 13.729603
_cell_length_b 13.056553
_cell_length_c 9.238535
_cell_angle_alpha 125.682113
_cell_angle_beta 148.354612
_cell_angle_gamma 49.175296
_cell_volume 656.011739
_symmetry_space_group_name_H-M "P -1"
_symmetry_group_IT_number 2
_symmetry_cell_setting 'triclinic'
loop_
_space_group_symop_operation_xyz
x,y,z
-x,-y,-z
loop_
_atom_site_type_symbol
_atom_site_label
_atom_site_fract_x
_atom_site_fract_y
_atom_site_fract_z
Si Si1 0.516572 0.687931 0.780799
Si Si2 0.225832 0.971389 0.742411
Si Si3 0.756307 0.617971 0.449470
Si Si4 0.482724 0.089434 0.691039
Si Si5 0.864971 0.362630 0.188839
Si Si6 0.464604 0.420899 0.595367
Si Si7 0.803694 0.816427 0.355051
O O1 0.334646 0.831965 0.679577
O O2 0.452203 0.573480 0.678443
O O3 0.572749 0.650152 0.654320
O O4 0.708978 0.700178 0.115733
O O5 0.235294 0.098628 0.770337
O O6 0.310542 0.968296 0.008093
O O7 0.000000 0.000000 0.500000
O O8 0.569009 0.755332 0.292775
O O9 0.754773 0.510072 0.239107
O O10 0.716021 0.571002 0.518675
O O11 0.968009 0.640072 0.722753
O O12 0.310730 0.082501 0.576422
O O13 0.500000 0.000000 0.500000
O O14 0.967645 0.257957 0.364275
O O15 0.686974 0.328946 0.860310
#
# Coordination Sequence:
#
# PCOD8013864 Si02
#       7
#     2   2   2   2   2   2   2
#     4  10  23  44  59  94 124 168 209 256 321 375
#     4  11  25  41  63  91 127 168 208 257 314 377
#     4  10  22  37  67  90 129 161 206 270 310 364
#     4  10  22  40  65  91 119 165 215 249 317 372
#     4  10  21  41  62  98 118 165 217 250 316 379
#     4  11  23  39  69  91 130 161 213 265 309 375
#     4  10  23  43  66  84 132 168 199 265 315 370
#
# _framework density 21.341082
#
# number of rings (size 3 to 8) (size 9 to 14) (size 15 to 20)
#    0.000    1.714    0.000    5.571    8.000    2.286 
#    0.000    3.571    0.000    0.000    0.000    0.000 
#    0.000    0.000    0.000    0.000    0.000    0.000 
#
# Total GULP energy -173548.504417 kJ/mol
# GULP energy per Si atom -12396.321744 kJ/mol
# Density = 2.129251 g / cm^3
# Si number density = 21.341082 Si / 1000 Ang^3
#
#
#
# Elastic Constant Matrix: (Units=GPa)
#
#
# Indices 1 2 3 4 5 6 
#
# 1 142.2992 47.5159 44.1397 5.6060 -15.9103 1.3856
# 2 47.5159 116.7278 50.9057 -9.7386 -17.7529 2.7042
# 3 44.1397 50.9057 82.3662 -10.3357 -16.1174 -15.0596
# 4 5.6060 -9.7386 -10.3357 27.9789 -5.3708 -4.8553
# 5 -15.9103 -17.7529 -16.1174 -5.3708 29.2893 0.1051
# 6 1.3856 2.7042 -15.0596 -4.8553 0.1051 29.0415
#
#
#
# Elastic Compliance Matrix: (Units=1/GPa)
#
#
# Indices 1 2 3 4 5 6 
#
# 1 0.009559 -0.001907 -0.005255 -0.005150 0.000215 -0.003865
# 2 -0.001907 0.013216 -0.006944 0.002352 0.003601 -0.004360
# 3 -0.005255 -0.006944 0.025650 0.012729 0.009327 0.016292
# 4 -0.005150 0.002352 0.012729 0.047560 0.014301 0.014527
# 5 0.000215 0.003601 0.009327 0.014301 0.044172 0.006722
# 6 -0.003865 -0.004360 0.016292 0.014527 0.006722 0.045877
#
#
# Mechanical properties :
#
#
# Convention : Reuss Voigt Hill
#
# Bulk Modulus (GPa) = 49.47184 69.61290 59.54237
# Shear Modulus (GPa) = 22.62624 30.51740 26.57182
#
# Velocity S-wave (km/s) = 3.25963 3.78561 3.53243
# Velocity P-wave (km/s) = 6.11545 7.19707 6.67820
#
# Compressibility (1/GPa) = 0.02021352
#
# Stress axis : x y z
#
# Youngs Moduli (GPa) = 104.61715 75.66450 38.98660
#
# Poissons Ratio (x) = 0.14428 0.20487
# Poissons Ratio (y) = 0.19948 0.27072
# Poissons Ratio (z) = 0.54975 0.52541
#
# Static dielectric constant tensor:
#      x y z
#    x 3.469220 -0.209960 0.120360 
#    y -0.209960 3.473170 -0.387380 
#    z 0.120360 -0.387380 3.371760 
# 
# 
# High freq. dielectric constant tensor:
#      x y z
#    x 1.842400 0.004920 -0.008790 
#    y 0.004920 1.839250 -0.016130 
#    z -0.008790 -0.016130 1.824200 
# 
# From -- ./inp_files/263240.got.cif
#   From: 2010.06.25/outbox.cif.g09.slc.cpg/sg2_132_cif.got.tgz:263240.got - 2010.06.27 13:26:56.
