data_PCOD8013040
_publ_section_title
;
Structure prediction by ZEFSAII (Michael W. Deem and Ramdas Pophale) SiO2 
 PCOD8013040
Probable space group: P -1
;
_chemical_formula_sum "Si O2"
_cell_formula_units_Z 16
_cell_length_a 15.715363
_cell_length_b 11.785417
_cell_length_c 14.542946
_cell_angle_alpha 151.599536
_cell_angle_beta 137.345905
_cell_angle_gamma 37.006058
_cell_volume 765.970144
_symmetry_space_group_name_H-M "P -1"
_symmetry_group_IT_number 2
_symmetry_cell_setting 'triclinic'
loop_
_space_group_symop_operation_xyz
x,y,z
-x,-y,-z
loop_
_atom_site_type_symbol
_atom_site_label
_atom_site_fract_x
_atom_site_fract_y
_atom_site_fract_z
Si Si1 0.449836 0.676927 0.724009
Si Si2 0.005467 0.807307 0.999183
Si Si3 0.723696 0.081749 0.075826
Si Si4 0.961881 0.362563 0.287184
Si Si5 0.698138 0.326085 0.797801
Si Si6 0.526550 0.610091 0.192572
Si Si7 0.484483 0.140162 0.277741
Si Si8 0.324018 0.162250 0.630876
O O1 0.304787 0.859757 0.795685
O O2 0.586043 0.583749 0.833634
O O3 0.442458 0.416795 0.494733
O O4 0.463684 0.855705 0.781385
O O5 0.163872 0.632475 0.043682
O O6 0.889925 0.897122 0.052928
O O7 0.010292 0.064291 0.144748
O O8 0.971508 0.657696 0.778644
O O9 0.659675 0.372508 0.182738
O O10 0.653647 0.899068 0.857444
O O11 0.795041 0.528656 0.251766
O O12 0.000000 0.500000 0.500000
O O13 0.620537 0.285865 0.796217
O O14 0.741514 0.044111 0.577923
O O15 0.560959 0.858188 0.370570
O O16 0.500000 0.500000 0.000000
O O17 0.608039 0.884998 0.246902
#
# Coordination Sequence:
#
# PCOD8013040 Si02
#       8
#     2   2   2   2   2   2   2   2
#     4   9  22  42  65  87 116 151 204 253 292 343
#     4  11  24  38  57  86 126 159 194 240 294 359
#     4  11  22  37  61  89 117 159 193 246 297 352
#     4  11  23  38  56  84 127 166 193 230 298 363
#     4  10  22  38  59  87 119 159 197 241 296 355
#     4  11  20  33  55  88 122 144 196 246 291 351
#     4  10  21  40  65  89 116 151 202 252 295 342
#     4  11  20  36  62  89 115 160 197 243 298 351
#
# _framework density 20.888542999999999
#
# number of rings (size 3 to 8) (size 9 to 14) (size 15 to 20)
#    0.000    1.500    3.750    1.500    3.500    1.000 
#    2.250    0.625    0.000    2.250    0.000    0.000 
#    0.000    0.000    0.000    0.000    0.000    0.000 
#
# Total GULP energy -198246.673141 kJ/mol
# GULP energy per Si atom -12390.417071 kJ/mol
# Density = 2.084100 g / cm^3
# Si number density = 20.888543 Si / 1000 Ang^3
#
#
#
# Elastic Constant Matrix: (Units=GPa)
#
#
# Indices 1 2 3 4 5 6 
#
# 1 144.6940 66.4495 35.9153 -20.9098 -14.8822 -2.4400
# 2 66.4495 78.0790 16.1943 -12.3205 -0.8904 1.8370
# 3 35.9153 16.1943 64.9958 -21.0949 -7.2087 3.7248
# 4 -20.9098 -12.3205 -21.0949 22.8553 4.5014 0.3794
# 5 -14.8822 -0.8904 -7.2087 4.5014 35.8373 3.6007
# 6 -2.4400 1.8370 3.7248 0.3794 3.6007 35.6432
#
#
#
# Elastic Compliance Matrix: (Units=1/GPa)
#
#
# Indices 1 2 3 4 5 6 
#
# 1 0.013266 -0.010129 -0.003618 0.002512 0.004077 0.001370
# 2 -0.010129 0.021864 0.001270 0.004468 -0.003807 -0.001616
# 3 -0.003618 0.001270 0.023508 0.018888 0.001196 -0.003092
# 4 0.002512 0.004468 0.018888 0.066556 -0.003163 -0.002421
# 5 0.004077 -0.003807 0.001196 -0.003163 0.030410 -0.002688
# 6 0.001370 -0.001616 -0.003092 -0.002421 -0.002688 0.028853
#
#
# Mechanical properties :
#
#
# Convention : Reuss Voigt Hill
#
# Bulk Modulus (GPa) = 29.68718 58.32080 44.00399
# Shear Modulus (GPa) = 22.66115 30.14783 26.40449
#
# Velocity S-wave (km/s) = 3.29730 3.80316 3.55923
# Velocity P-wave (km/s) = 5.36090 6.87503 6.16463
#
# Compressibility (1/GPa) = 0.03368457
#
# Stress axis : x y z
#
# Youngs Moduli (GPa) = 75.37846 45.73645 42.53781
#
# Poissons Ratio (x) = 0.46328 0.15390
# Poissons Ratio (y) = 0.76354 -0.05403
# Poissons Ratio (z) = 0.27272 -0.05809
#
# Static dielectric constant tensor:
#      x y z
#    x 4.071070 0.186550 -0.323870 
#    y 0.186550 3.800520 0.083580 
#    z -0.323870 0.083580 4.529570 
# 
# 
# High freq. dielectric constant tensor:
#      x y z
#    x 1.809640 0.004990 -0.020460 
#    y 0.004990 1.801190 0.002730 
#    z -0.020460 0.002730 1.825150 
# 
# From -- ./inp_files/405458.got.cif
#   From: 2010.06.25/outbox.cif.g09.slc.cpg/sg2_203_cif.got.tgz:405458.got - 2010.06.27 13:26:56.
