data_PCOD8013052
_publ_section_title
;
Structure prediction by ZEFSAII (Michael W. Deem and Ramdas Pophale) SiO2 
 PCOD8013052
Probable space group: P -1
;
_chemical_formula_sum "Si O2"
_cell_formula_units_Z 16
_cell_length_a 10.845828
_cell_length_b 17.533266
_cell_length_c 19.127790
_cell_angle_alpha 23.527814
_cell_angle_beta 146.963933
_cell_angle_gamma 136.023603
_cell_volume 771.263702
_symmetry_space_group_name_H-M "P -1"
_symmetry_group_IT_number 2
_symmetry_cell_setting 'triclinic'
loop_
_space_group_symop_operation_xyz
x,y,z
-x,-y,-z
loop_
_atom_site_type_symbol
_atom_site_label
_atom_site_fract_x
_atom_site_fract_y
_atom_site_fract_z
Si Si1 0.684862 0.873135 0.745232
Si Si2 0.606352 0.335739 0.830445
Si Si3 0.331674 0.273112 0.991131
Si Si4 0.178496 0.352238 0.386169
Si Si5 0.149999 0.431365 0.460039
Si Si6 0.669282 0.470952 0.038093
Si Si7 0.533660 0.942751 0.900740
Si Si8 0.846552 0.991532 0.136194
O O1 0.582559 0.846120 0.796257
O O2 0.500000 0.000000 0.500000
O O3 0.754993 0.672819 0.902150
O O4 0.905126 0.960010 0.792766
O O5 0.773379 0.489794 0.781859
O O6 0.354357 0.464248 0.579930
O O7 0.588381 0.230529 0.984606
O O8 0.671860 0.156019 0.958296
O O9 0.517629 0.412212 0.951776
O O10 0.342671 0.125365 0.056579
O O11 0.073738 0.402862 0.766137
O O12 0.219185 0.454351 0.393174
O O13 0.916904 0.314736 0.291676
O O14 0.345749 0.141876 0.631219
O O15 0.105282 0.214765 0.627955
O O16 0.500000 0.500000 0.000000
O O17 0.734936 0.976371 0.020103
#
# Coordination Sequence:
#
# PCOD8013052 Si02
#       8
#     2   2   2   2   2   2   2   2
#     4  11  23  39  66  98 124 169 228 274 314 397
#     4  11  22  39  66 102 130 174 223 267 325 393
#     4  11  25  44  62  98 134 178 215 271 339 383
#     4  12  21  40  70  94 128 175 222 269 321 391
#     4  11  20  39  68  92 133 171 219 273 322 388
#     4  10  21  40  65  90 122 172 220 264 323 382
#     4  11  26  43  64 100 143 169 212 276 341 388
#     4  11  21  39  68 102 128 169 225 275 323 389
#
# _framework density 20.745175
#
# number of rings (size 3 to 8) (size 9 to 14) (size 15 to 20)
#    0.000    1.000    6.250    1.875    3.500    3.000 
#    4.500    0.625    0.000    0.000    0.000    0.000 
#    0.000    0.000    0.000    0.000    0.000    0.000 
#
# Total GULP energy -198300.733164 kJ/mol
# GULP energy per Si atom -12393.795823 kJ/mol
# Density = 2.069796 g / cm^3
# Si number density = 20.745175 Si / 1000 Ang^3
#
#
#
# Elastic Constant Matrix: (Units=GPa)
#
#
# Indices 1 2 3 4 5 6 
#
# 1 88.6728 37.3210 59.7755 -0.6724 6.6209 -4.3073
# 2 37.3210 78.9488 35.2324 9.1382 8.9182 9.2294
# 3 59.7755 35.2324 137.2211 6.5724 15.3297 -2.6564
# 4 -0.6724 9.1382 6.5724 19.6572 1.6888 -0.4676
# 5 6.6209 8.9182 15.3297 1.6888 30.6680 -4.5859
# 6 -4.3073 9.2294 -2.6564 -0.4676 -4.5859 39.2726
#
#
#
# Elastic Compliance Matrix: (Units=1/GPa)
#
#
# Indices 1 2 3 4 5 6 
#
# 1 0.019059 -0.007286 -0.006843 0.006274 0.001618 0.003603
# 2 -0.007286 0.018579 -0.000882 -0.008403 -0.003788 -0.005768
# 3 -0.006843 -0.000882 0.011052 -0.003211 -0.003652 -0.000260
# 4 0.006274 -0.008403 -0.003211 0.056135 0.000070 0.003122
# 5 0.001618 -0.003788 -0.003652 0.000070 0.035932 0.005017
# 6 0.003603 -0.005768 -0.000260 0.003122 0.005017 0.027819
#
#
# Mechanical properties :
#
#
# Convention : Reuss Voigt Hill
#
# Bulk Modulus (GPa) = 53.57025 63.27784 58.42404
# Shear Modulus (GPa) = 24.41159 29.42049 26.91604
#
# Velocity S-wave (km/s) = 3.43408 3.76996 3.60594
# Velocity P-wave (km/s) = 6.45003 7.03696 6.74988
#
# Compressibility (1/GPa) = 0.01866708
#
# Stress axis : x y z
#
# Youngs Moduli (GPa) = 52.46954 53.82336 90.48277
#
# Poissons Ratio (x) = 0.39215 0.61918
# Poissons Ratio (y) = 0.38228 0.07985
# Poissons Ratio (z) = 0.35905 0.04750
#
# Static dielectric constant tensor:
#      x y z
#    x 3.732640 0.294840 -0.040870 
#    y 0.294840 3.979100 -0.028270 
#    z -0.040870 -0.028270 3.947910 
# 
# 
# High freq. dielectric constant tensor:
#      x y z
#    x 1.792390 0.024050 0.002630 
#    y 0.024050 1.807200 0.001710 
#    z 0.002630 0.001710 1.821710 
# 
# From -- ./inp_files/282958.got.cif
#   From: 2010.06.25/outbox.cif.g09.slc.cpg/sg2_142_cif.got.tgz:282958.got - 2010.06.27 13:26:56.
