data_PCOD8013317
_publ_section_title
;
Structure prediction by ZEFSAII (Michael W. Deem and Ramdas Pophale) SiO2 
 PCOD8013317
Probable space group: P -1
;
_chemical_formula_sum "Si O2"
_cell_formula_units_Z 16
_cell_length_a 20.188394
_cell_length_b 9.595791
_cell_length_c 12.142779
_cell_angle_alpha 143.490099
_cell_angle_beta 38.990434
_cell_angle_gamma 142.193876
_cell_volume 790.002641
_symmetry_space_group_name_H-M "P -1"
_symmetry_group_IT_number 2
_symmetry_cell_setting 'triclinic'
loop_
_space_group_symop_operation_xyz
x,y,z
-x,-y,-z
loop_
_atom_site_type_symbol
_atom_site_label
_atom_site_fract_x
_atom_site_fract_y
_atom_site_fract_z
Si Si1 0.585231 0.399317 0.880433
Si Si2 0.972639 0.271588 0.022849
Si Si3 0.419480 0.054888 0.054382
Si Si4 0.947980 0.766073 0.334827
Si Si5 0.701460 0.610585 0.485324
Si Si6 0.241320 0.487978 0.883028
Si Si7 0.367606 0.828806 0.534515
Si Si8 0.755175 0.806295 0.088940
O O1 0.651559 0.334031 0.655495
O O2 0.500000 0.500000 0.000000
O O3 0.498621 0.149578 0.903461
O O4 0.691829 0.604977 0.945109
O O5 0.964935 0.204937 0.860556
O O6 0.104594 0.388177 0.971529
O O7 0.922196 0.485615 0.246077
O O8 0.892336 0.995269 0.009073
O O9 0.387121 0.278768 0.286282
O O10 0.500000 0.000000 0.000000
O O11 0.299058 0.799141 0.024400
O O12 0.836372 0.799649 0.455785
O O13 0.000000 0.000000 0.500000
O O14 0.688667 0.567331 0.342823
O O15 0.682393 0.347403 0.405327
O O16 0.258416 0.349555 0.880578
O O17 0.500000 0.000000 0.500000
O O18 0.308081 0.012465 0.702053
#
# Coordination Sequence:
#
# PCOD8013317 Si02
#       8
#     2   2   2   2   2   2   2   2
#     4  12  25  42  66  98 131 173 219 275 327 387
#     4  10  23  41  67  97 130 173 219 267 327 394
#     4  12  25  44  64  96 134 174 221 268 335 393
#     4  10  21  40  66  99 127 165 218 274 326 378
#     4  11  24  42  65  96 125 174 216 270 327 384
#     4  11  26  44  66  95 137 174 219 269 329 400
#     4  12  24  42  66  96 129 167 224 275 324 381
#     4  12  25  43  66  98 136 176 214 270 332 394
#
# _framework density 20.253097
#
# number of rings (size 3 to 8) (size 9 to 14) (size 15 to 20)
#    0.000    0.750    5.000    1.875    3.500    0.500 
#    0.000    0.000    0.000    6.000    0.000    0.000 
#    0.000    0.000    0.000    0.000    0.000    0.000 
#
# Total GULP energy -198374.733889 kJ/mol
# GULP energy per Si atom -12398.420868 kJ/mol
# Density = 2.020700 g / cm^3
# Si number density = 20.253097 Si / 1000 Ang^3
#
#
#
# Elastic Constant Matrix: (Units=GPa)
#
#
# Indices 1 2 3 4 5 6 
#
# 1 120.7635 45.8789 35.2167 8.4469 14.9424 0.4744
# 2 45.8789 126.7627 20.3764 3.7676 14.6505 1.4438
# 3 35.2167 20.3764 82.6993 11.9063 10.7538 8.8147
# 4 8.4469 3.7676 11.9063 30.4660 1.7351 0.7688
# 5 14.9424 14.6505 10.7538 1.7351 39.6999 0.4719
# 6 0.4744 1.4438 8.8147 0.7688 0.4719 39.7824
#
#
#
# Elastic Compliance Matrix: (Units=1/GPa)
#
#
# Indices 1 2 3 4 5 6 
#
# 1 0.010794 -0.003096 -0.003503 -0.001151 -0.001931 0.000805
# 2 -0.003096 0.009366 -0.000718 0.000103 -0.002100 -0.000121
# 3 -0.003503 -0.000718 0.015054 -0.004615 -0.002255 -0.003152
# 4 -0.001151 0.000103 -0.004615 0.034918 0.000115 0.000356
# 5 -0.001931 -0.002100 -0.002255 0.000115 0.027293 0.000273
# 6 0.000805 -0.000121 -0.003152 0.000356 0.000273 0.025820
#
#
# Mechanical properties :
#
#
# Convention : Reuss Voigt Hill
#
# Bulk Modulus (GPa) = 48.58931 59.24108 53.91519
# Shear Modulus (GPa) = 34.54487 37.23988 35.89238
#
# Velocity S-wave (km/s) = 4.13444 4.29269 4.21431
# Velocity P-wave (km/s) = 6.84358 7.34053 7.09641
#
# Compressibility (1/GPa) = 0.02058066
#
# Stress axis : x y z
#
# Youngs Moduli (GPa) = 92.64004 106.77437 66.42587
#
# Poissons Ratio (x) = 0.33052 0.23269
# Poissons Ratio (y) = 0.28677 0.04772
# Poissons Ratio (z) = 0.32451 0.07670
#
# Static dielectric constant tensor:
#      x y z
#    x 3.768830 0.034440 0.009380 
#    y 0.034440 3.872370 -0.215380 
#    z 0.009380 -0.215380 4.551870 
# 
# 
# High freq. dielectric constant tensor:
#      x y z
#    x 1.801160 0.002720 0.002640 
#    y 0.002720 1.803340 -0.002350 
#    z 0.002640 -0.002350 1.791760 
# 
# From -- ./inp_files/272609.got.cif
#   From: 2010.06.25/outbox.cif.g09.slc.cpg/sg2_137_cif.got.tgz:272609.got - 2010.06.27 13:26:56.
