data_PCOD8013984
_publ_section_title
;
Structure prediction by ZEFSAII (Michael W. Deem and Ramdas Pophale) SiO2 
 PCOD8013984
Probable space group: P -1
;
_chemical_formula_sum "Si O2"
_cell_formula_units_Z 12
_cell_length_a 6.146306
_cell_length_b 13.028102
_cell_length_c 15.681888
_cell_angle_alpha 150.846684
_cell_angle_beta 60.111545
_cell_angle_gamma 117.778475
_cell_volume 528.943791
_symmetry_space_group_name_H-M "P -1"
_symmetry_group_IT_number 2
_symmetry_cell_setting 'triclinic'
loop_
_space_group_symop_operation_xyz
x,y,z
-x,-y,-z
loop_
_atom_site_type_symbol
_atom_site_label
_atom_site_fract_x
_atom_site_fract_y
_atom_site_fract_z
Si Si1 0.832581 0.665439 0.106319
Si Si2 0.518588 0.278240 0.113791
Si Si3 0.011535 0.717848 0.703856
Si Si4 0.892653 0.959501 0.755457
Si Si5 0.166316 0.460196 0.629213
Si Si6 0.660808 0.487481 0.833108
O O1 0.561152 0.684559 0.217873
O O2 0.971454 0.899484 0.243711
O O3 0.800436 0.595535 0.964454
O O4 0.000000 0.500000 0.000000
O O5 0.257329 0.213176 0.162679
O O6 0.655631 0.481311 0.283310
O O7 0.477892 0.341703 0.069986
O O8 0.683429 0.079241 0.933342
O O9 0.000000 0.500000 0.500000
O O10 0.184133 0.674154 0.720846
O O11 0.092321 0.894998 0.744476
O O12 0.752712 0.748010 0.586851
O O13 0.876356 0.393635 0.665152
#
# Coordination Sequence:
#
# PCOD8013984 Si02
#       6
#     2   2   2   2   2   2
#     4  11  21  41  66  88 124 160 208 254 299 362
#     4  11  21  43  63  90 130 157 201 256 301 364
#     4   9  22  41  60  95 125 158 205 249 302 365
#     4  11  22  40  64  93 120 166 206 243 311 360
#     4  10  22  42  63  91 128 158 201 254 303 361
#     4  10  21  41  64  88 127 161 198 262 301 350
#
# _framework density 22.686720999999999
#
# number of rings (size 3 to 8) (size 9 to 14) (size 15 to 20)
#    0.000    1.667    3.333    0.500    0.000    4.000 
#   12.000    3.333    0.000    0.000    0.000    0.000 
#    0.000    0.000    0.000    0.000    0.000    0.000 
#
# Total GULP energy -148663.996456 kJ/mol
# GULP energy per Si atom -12388.666371 kJ/mol
# Density = 2.263508 g / cm^3
# Si number density = 22.686721 Si / 1000 Ang^3
#
#
#
# Elastic Constant Matrix: (Units=GPa)
#
#
# Indices 1 2 3 4 5 6 
#
# 1 75.4018 29.9318 25.0646 11.7504 15.8180 -33.6206
# 2 29.9318 115.6925 24.3694 15.7957 -2.3108 -33.1408
# 3 25.0646 24.3694 99.3253 5.3065 3.5637 -16.8689
# 4 11.7504 15.7957 5.3065 35.1207 -3.9504 -3.5257
# 5 15.8180 -2.3108 3.5637 -3.9504 22.6750 -5.5371
# 6 -33.6206 -33.1408 -16.8689 -3.5257 -5.5371 39.1071
#
#
#
# Elastic Compliance Matrix: (Units=1/GPa)
#
#
# Indices 1 2 3 4 5 6 
#
# 1 0.027366 -0.000147 -0.002577 -0.008498 -0.015460 0.019336
# 2 -0.000147 0.012402 -0.001219 -0.003973 0.003300 0.009966
# 3 -0.002577 -0.001219 0.011293 -0.000098 0.000286 0.001654
# 4 -0.008498 -0.003973 -0.000098 0.033595 0.009856 -0.006290
# 5 -0.015460 0.003300 0.000286 0.009856 0.056533 -0.001478
# 6 0.019336 0.009966 0.001654 -0.006290 -0.001478 0.050577
#
#
# Mechanical properties :
#
#
# Convention : Reuss Voigt Hill
#
# Bulk Modulus (GPa) = 23.16177 49.90571 36.53374
# Shear Modulus (GPa) = 23.35957 33.45080 28.40518
#
# Velocity S-wave (km/s) = 3.21231 3.84404 3.54229
# Velocity P-wave (km/s) = 4.89797 6.46125 5.73314
#
# Compressibility (1/GPa) = 0.04317460
#
# Stress axis : x y z
#
# Youngs Moduli (GPa) = 36.54118 80.63443 88.54795
#
# Poissons Ratio (x) = 0.01185 0.22821
# Poissons Ratio (y) = 0.00537 0.10795
# Poissons Ratio (z) = 0.09417 0.09831
#
# Static dielectric constant tensor:
#      x y z
#    x 4.247860 -0.163710 -0.194520 
#    y -0.163710 4.852980 -0.205980 
#    z -0.194520 -0.205980 3.831390 
# 
# 
# High freq. dielectric constant tensor:
#      x y z
#    x 1.889140 -0.016250 -0.012400 
#    y -0.016250 1.911400 -0.015500 
#    z -0.012400 -0.015500 1.874370 
# 
# From -- ./inp_files/23713.got.cif
#   From: 2010.06.25/outbox.cif.g09.slc.cpg/sg2_12_cif.got.tgz:23713.got - 2010.06.27 13:26:56.
