data_PCOD8013058
_publ_section_title
;
Structure prediction by ZEFSAII (Michael W. Deem and Ramdas Pophale) SiO2 
 PCOD8013058
Probable space group: P -1
;
_chemical_formula_sum "Si O2"
_cell_formula_units_Z 16
_cell_length_a 11.453108
_cell_length_b 8.635132
_cell_length_c 11.962010
_cell_angle_alpha 137.021787
_cell_angle_beta 67.747952
_cell_angle_gamma 118.653587
_cell_volume 706.961011
_symmetry_space_group_name_H-M "P -1"
_symmetry_group_IT_number 2
_symmetry_cell_setting 'triclinic'
loop_
_space_group_symop_operation_xyz
x,y,z
-x,-y,-z
loop_
_atom_site_type_symbol
_atom_site_label
_atom_site_fract_x
_atom_site_fract_y
_atom_site_fract_z
Si Si1 0.322714 0.921835 0.476026
Si Si2 0.829378 0.183523 0.934957
Si Si3 0.213208 0.320262 0.380166
Si Si4 0.435067 0.794744 0.581228
Si Si5 0.101526 0.429559 0.057558
Si Si6 0.030518 0.785402 0.436395
Si Si7 0.290934 0.412258 0.159538
Si Si8 0.593262 0.989477 0.063450
O O1 0.354782 0.921919 0.596402
O O2 0.169474 0.902396 0.512113
O O3 0.356825 0.700254 0.284899
O O4 0.419046 0.160175 0.504634
O O5 0.816069 0.406546 0.986604
O O6 0.778665 0.948087 0.749484
O O7 0.741677 0.154959 0.063665
O O8 0.981014 0.217263 0.935422
O O9 0.353183 0.511167 0.471286
O O10 0.194203 0.355778 0.273459
O O11 0.087008 0.348825 0.506123
O O12 0.455241 0.910487 0.756796
O O13 0.038590 0.589496 0.241166
O O14 0.199255 0.322316 0.035343
O O15 0.000000 0.000000 0.500000
O O16 0.403125 0.281066 0.057752
O O17 0.500000 0.000000 0.000000
#
# Coordination Sequence:
#
# PCOD8013058 Si02
#       8
#     2   2   2   2   2   2   2   2
#     4   9  22  42  66  95 134 171 219 269 327 388
#     4  10  22  41  61  96 131 171 216 263 331 381
#     4  10  21  40  67  94 129 167 225 266 326 383
#     4  10  22  44  65  95 131 171 222 271 327 389
#     4  10  21  40  65  90 135 166 214 268 328 387
#     4  11  21  37  65  98 129 172 213 276 327 382
#     4   9  22  41  66  94 127 175 209 275 326 381
#     4  11  25  41  65  96 129 170 221 270 322 391
#
# _framework density 22.632082
#
# number of rings (size 3 to 8) (size 9 to 14) (size 15 to 20)
#    0.000    2.000    1.250    0.750    3.500    9.000 
#    0.000   15.000    0.000    0.000    0.000    0.000 
#    0.000    0.000    0.000    0.000    0.000    0.000 
#
# Total GULP energy -198360.570554 kJ/mol
# GULP energy per Si atom -12397.535660 kJ/mol
# Density = 2.258057 g / cm^3
# Si number density = 22.632082 Si / 1000 Ang^3
#
#
#
# Elastic Constant Matrix: (Units=GPa)
#
#
# Indices 1 2 3 4 5 6 
#
# 1 107.6203 38.2183 26.9709 13.4271 17.5682 -9.1981
# 2 38.2183 97.5445 24.9199 8.7946 8.9709 20.6408
# 3 26.9709 24.9199 74.9401 -3.7489 15.9566 -2.8368
# 4 13.4271 8.7946 -3.7489 31.2931 -3.3359 1.8978
# 5 17.5682 8.9709 15.9566 -3.3359 31.8775 -3.6894
# 6 -9.1981 20.6408 -2.8368 1.8978 -3.6894 42.2508
#
#
#
# Elastic Compliance Matrix: (Units=1/GPa)
#
#
# Indices 1 2 3 4 5 6 
#
# 1 0.013490 -0.004788 -0.002300 -0.005545 -0.004944 0.004939
# 2 -0.004788 0.015168 -0.003526 -0.002222 -0.001103 -0.008686
# 3 -0.002300 -0.003526 0.016764 0.003287 -0.005589 0.001712
# 4 -0.005545 -0.002222 0.003287 0.036021 0.005687 -0.001023
# 5 -0.004944 -0.001103 -0.005589 0.005687 0.038047 0.002154
# 6 0.004939 -0.008686 0.001712 -0.001023 0.002154 0.029336
#
#
# Mechanical properties :
#
#
# Convention : Reuss Voigt Hill
#
# Bulk Modulus (GPa) = 41.33464 51.14702 46.24083
# Shear Modulus (GPa) = 28.07118 33.75066 30.91092
#
# Velocity S-wave (km/s) = 3.52565 3.86589 3.69968
# Velocity P-wave (km/s) = 5.90567 6.52497 6.22303
#
# Compressibility (1/GPa) = 0.02419278
#
# Stress axis : x y z
#
# Youngs Moduli (GPa) = 74.13019 65.92782 59.65299
#
# Poissons Ratio (x) = 0.31567 0.13723
# Poissons Ratio (y) = 0.35494 0.21032
# Poissons Ratio (z) = 0.17053 0.23245
#
# Static dielectric constant tensor:
#      x y z
#    x 3.956970 0.098150 0.151330 
#    y 0.098150 4.449680 -0.041890 
#    z 0.151330 -0.041890 3.995340 
# 
# 
# High freq. dielectric constant tensor:
#      x y z
#    x 1.878750 0.003280 0.018490 
#    y 0.003280 1.906330 -0.007670 
#    z 0.018490 -0.007670 1.876450 
# 
# From -- ./inp_files/418398.got.cif
#   From: 2010.06.25/outbox.cif.g09.slc.cpg/sg2_210_cif.got.tgz:418398.got - 2010.06.27 13:26:56.
