data_PCOD8013764
_publ_section_title
;
Structure prediction by ZEFSAII (Michael W. Deem and Ramdas Pophale) SiO2 
 PCOD8013764
Probable space group: P -1
;
_chemical_formula_sum "Si O2"
_cell_formula_units_Z 12
_cell_length_a 9.452438
_cell_length_b 10.258957
_cell_length_c 9.151500
_cell_angle_alpha 66.091372
_cell_angle_beta 76.115183
_cell_angle_gamma 42.708744
_cell_volume 547.877858
_symmetry_space_group_name_H-M "P -1"
_symmetry_group_IT_number 2
_symmetry_cell_setting 'triclinic'
loop_
_space_group_symop_operation_xyz
x,y,z
-x,-y,-z
loop_
_atom_site_type_symbol
_atom_site_label
_atom_site_fract_x
_atom_site_fract_y
_atom_site_fract_z
Si Si1 0.191678 0.967496 0.141462
Si Si2 0.796207 0.710916 0.020055
Si Si3 0.428830 0.244302 0.669364
Si Si4 0.125891 0.028950 0.805343
Si Si5 0.548106 0.860067 0.741654
Si Si6 0.148515 0.505492 0.380785
O O1 0.398338 0.788948 0.267547
O O2 0.996057 0.011206 0.233551
O O3 0.146835 0.164731 0.066812
O O4 0.207816 0.908921 0.994722
O O5 0.746937 0.700498 0.203098
O O6 0.589753 0.817889 0.926326
O O7 0.000000 0.500000 0.000000
O O8 0.320630 0.427727 0.497517
O O9 0.523965 0.047597 0.635190
O O10 0.968226 0.273877 0.751531
O O11 0.335232 0.929634 0.713523
O O12 0.746097 0.651759 0.708360
O O13 0.000000 0.500000 0.500000
#
# Coordination Sequence:
#
# PCOD8013764 Si02
#       6
#     2   2   2   2   2   2
#     4  10  21  41  61  89 126 165 200 259 302 362
#     4  11  20  39  67  95 117 161 217 252 297 367
#     4  11  21  40  65  91 124 160 208 259 303 359
#     4  11  22  41  63  89 129 162 204 251 313 363
#     4  11  21  40  66  90 121 164 208 251 304 365
#     4  12  24  39  65  96 122 162 209 253 309 369
#
# _framework density 21.902688999999999
#
# number of rings (size 3 to 8) (size 9 to 14) (size 15 to 20)
#    0.000    1.000    5.000    3.500    0.000    0.667 
#    3.000    3.333    0.000    0.000    0.000    0.000 
#    0.000    0.000    0.000    0.000    0.000    0.000 
#
# Total GULP energy -148727.447732 kJ/mol
# GULP energy per Si atom -12393.953978 kJ/mol
# Density = 2.185284 g / cm^3
# Si number density = 21.902689 Si / 1000 Ang^3
#
#
#
# Elastic Constant Matrix: (Units=GPa)
#
#
# Indices 1 2 3 4 5 6 
#
# 1 160.1887 26.3693 23.6238 1.8204 4.6853 0.0210
# 2 26.3693 82.1112 3.6686 16.5050 -7.6027 -7.7052
# 3 23.6238 3.6686 68.4184 -4.9788 16.3186 2.1404
# 4 1.8204 16.5050 -4.9788 24.7016 -8.6891 2.8192
# 5 4.6853 -7.6027 16.3186 -8.6891 29.3243 -2.2781
# 6 0.0210 -7.7052 2.1404 2.8192 -2.2781 19.2729
#
#
#
# Elastic Compliance Matrix: (Units=1/GPa)
#
#
# Indices 1 2 3 4 5 6 
#
# 1 0.006950 -0.002382 -0.002093 0.000597 -0.000454 -0.000868
# 2 -0.002382 0.016348 -0.001860 -0.011042 0.003060 0.008722
# 3 -0.002093 -0.001860 0.018089 0.002028 -0.009941 -0.004222
# 4 0.000597 -0.011042 0.002028 0.053314 0.010844 -0.011157
# 5 -0.000454 0.003060 -0.009941 0.010844 0.044176 0.005964
# 6 -0.000868 0.008722 -0.004222 -0.011157 0.005964 0.058180
#
#
# Mechanical properties :
#
#
# Convention : Reuss Voigt Hill
#
# Bulk Modulus (GPa) = 34.82344 46.44907 40.63626
# Shear Modulus (GPa) = 22.79982 31.79689 27.29836
#
# Velocity S-wave (km/s) = 3.22989 3.81430 3.53419
# Velocity P-wave (km/s) = 5.46290 6.37586 5.93695
#
# Compressibility (1/GPa) = 0.02871629
#
# Stress axis : x y z
#
# Youngs Moduli (GPa) = 143.88435 61.16989 55.28138
#
# Poissons Ratio (x) = 0.14570 0.11571
# Poissons Ratio (y) = 0.34272 0.10284
# Poissons Ratio (z) = 0.30118 0.11380
#
# Static dielectric constant tensor:
#      x y z
#    x 4.361110 -0.179620 0.440730 
#    y -0.179620 3.730560 -0.230440 
#    z 0.440730 -0.230440 4.151320 
# 
# 
# High freq. dielectric constant tensor:
#      x y z
#    x 1.868800 -0.018360 0.025000 
#    y -0.018360 1.838220 -0.008330 
#    z 0.025000 -0.008330 1.858520 
# 
# From -- ./inp_files/157298.got.cif
#   From: 2010.06.25/outbox.cif.g09.slc.cpg/sg2_79_cif.got.tgz:157298.got - 2010.06.27 13:26:56.
