data_PCOD8013606
_publ_section_title
;
Structure prediction by ZEFSAII (Michael W. Deem and Ramdas Pophale) SiO2 
 PCOD8013606
Probable space group: P -1
;
_chemical_formula_sum "Si O2"
_cell_formula_units_Z 16
_cell_length_a 9.157955
_cell_length_b 15.815002
_cell_length_c 7.968842
_cell_angle_alpha 77.733296
_cell_angle_beta 66.881645
_cell_angle_gamma 41.164789
_cell_volume 692.070136
_symmetry_space_group_name_H-M "P -1"
_symmetry_group_IT_number 2
_symmetry_cell_setting 'triclinic'
loop_
_space_group_symop_operation_xyz
x,y,z
-x,-y,-z
loop_
_atom_site_type_symbol
_atom_site_label
_atom_site_fract_x
_atom_site_fract_y
_atom_site_fract_z
Si Si1 0.482941 0.108441 0.827595
Si Si2 0.368785 0.847641 0.585113
Si Si3 0.065042 0.302546 0.187363
Si Si4 0.304378 0.047389 0.694066
Si Si5 0.708992 0.514317 0.015840
Si Si6 0.001957 0.138632 0.207969
Si Si7 0.809821 0.611790 0.666156
Si Si8 0.816153 0.291625 0.889836
O O1 0.519056 0.154662 0.629864
O O2 0.392454 0.048498 0.836045
O O3 0.277867 0.229712 0.987678
O O4 0.727181 0.004119 0.863977
O O5 0.149014 0.874454 0.623979
O O6 0.560957 0.707182 0.642989
O O7 0.287937 0.950502 0.719706
O O8 0.135865 0.311600 0.333066
O O9 0.995632 0.230581 0.277196
O O10 0.834576 0.449934 0.165164
O O11 0.044029 0.193760 0.704584
O O12 0.500000 0.000000 0.500000
O O13 0.810368 0.556682 0.859580
O O14 0.773628 0.406571 0.916339
O O15 0.425464 0.642296 0.117676
O O16 0.892502 0.197575 0.048189
O O17 0.000000 0.500000 0.500000
#
# Coordination Sequence:
#
# PCOD8013606 Si02
#       8
#     2   2   2   2   2   2   2   2
#     4  11  22  43  66  97 139 179 224 283 332 407
#     4  11  25  42  65 101 143 178 222 277 348 399
#     4  11  24  44  71  99 129 182 232 278 340 398
#     4  10  22  40  66 101 137 181 223 277 342 398
#     4  10  21  43  69  96 136 180 228 272 338 402
#     4  11  22  41  67 102 137 175 224 276 338 405
#     4  12  26  43  69 100 133 174 234 287 338 409
#     4  10  21  40  69  98 138 179 224 282 331 404
#
# _framework density 23.119043999999999
#
# number of rings (size 3 to 8) (size 9 to 14) (size 15 to 20)
#    0.000    1.250    3.750    2.625    3.500    1.500 
#    0.000    3.125    2.750    0.000    0.000    0.000 
#    0.000    0.000    0.000    0.000    0.000    0.000 
#
# Total GULP energy -198359.069780 kJ/mol
# GULP energy per Si atom -12397.441861 kJ/mol
# Density = 2.306642 g / cm^3
# Si number density = 23.119044 Si / 1000 Ang^3
#
#
#
# Elastic Constant Matrix: (Units=GPa)
#
#
# Indices 1 2 3 4 5 6 
#
# 1 138.5480 51.2829 48.9525 17.0181 -18.6076 -7.3450
# 2 51.2829 116.5931 31.1583 19.8509 -10.2730 -25.1334
# 3 48.9525 31.1583 73.2721 21.9711 -6.4767 5.6660
# 4 17.0181 19.8509 21.9711 44.3534 1.0038 -7.1453
# 5 -18.6076 -10.2730 -6.4767 1.0038 31.7571 1.3774
# 6 -7.3450 -25.1334 5.6660 -7.1453 1.3774 45.7934
#
#
#
# Elastic Compliance Matrix: (Units=1/GPa)
#
#
# Indices 1 2 3 4 5 6 
#
# 1 0.010886 -0.002659 -0.005809 -0.000067 0.004298 0.000866
# 2 -0.002659 0.012503 -0.003329 -0.001915 0.001586 0.006501
# 3 -0.005809 -0.003329 0.022004 -0.008288 0.000564 -0.006791
# 4 -0.000067 -0.001915 -0.008288 0.028336 -0.003440 0.004488
# 5 0.004298 0.001586 0.000564 -0.003440 0.034748 -0.000092
# 6 0.000866 0.006501 -0.006791 0.004488 -0.000092 0.027088
#
#
# Mechanical properties :
#
#
# Convention : Reuss Voigt Hill
#
# Bulk Modulus (GPa) = 45.87049 65.68896 55.77972
# Shear Modulus (GPa) = 30.04362 37.51543 33.77952
#
# Velocity S-wave (km/s) = 3.60879 4.03265 3.82660
# Velocity P-wave (km/s) = 6.10316 7.08224 6.61085
#
# Compressibility (1/GPa) = 0.02180051
#
# Stress axis : x y z
#
# Youngs Moduli (GPa) = 91.86357 79.97963 45.44539
#
# Poissons Ratio (x) = 0.21266 0.26399
# Poissons Ratio (y) = 0.24426 0.15127
# Poissons Ratio (z) = 0.53362 0.26622
#
# Static dielectric constant tensor:
#      x y z
#    x 4.608770 -0.041490 0.013810 
#    y -0.041490 4.482020 0.144240 
#    z 0.013810 0.144240 4.125730 
# 
# 
# High freq. dielectric constant tensor:
#      x y z
#    x 1.919450 -0.010150 -0.012590 
#    y -0.010150 1.925790 -0.000200 
#    z -0.012590 -0.000200 1.889890 
# 
# From -- ./inp_files/206818.got.cif
#   From: 2010.06.25/outbox.cif.g09.slc.cpg/sg2_104_cif.got.tgz:206818.got - 2010.06.27 13:26:56.
