data_PCOD8013587
_publ_section_title
;
Structure prediction by ZEFSAII (Michael W. Deem and Ramdas Pophale) SiO2 
 PCOD8013587
Probable space group: P -1
;
_chemical_formula_sum "Si O2"
_cell_formula_units_Z 16
_cell_length_a 11.860828
_cell_length_b 14.290316
_cell_length_c 9.212271
_cell_angle_alpha 58.388969
_cell_angle_beta 66.980760
_cell_angle_gamma 115.486658
_cell_volume 716.906348
_symmetry_space_group_name_H-M "P -1"
_symmetry_group_IT_number 2
_symmetry_cell_setting 'triclinic'
loop_
_space_group_symop_operation_xyz
x,y,z
-x,-y,-z
loop_
_atom_site_type_symbol
_atom_site_label
_atom_site_fract_x
_atom_site_fract_y
_atom_site_fract_z
Si Si1 0.282864 0.144919 0.499204
Si Si2 0.352218 0.968516 0.696430
Si Si3 0.619337 0.565972 0.612087
Si Si4 0.195090 0.268906 0.922759
Si Si5 0.338486 0.832228 0.109783
Si Si6 0.036337 0.365040 0.014945
Si Si7 0.998395 0.565810 0.728180
Si Si8 0.604510 0.336167 0.949874
O O1 0.363165 0.318994 0.380218
O O2 0.396401 0.131793 0.551912
O O3 0.380967 0.201175 0.243364
O O4 0.028944 0.955518 0.761782
O O5 0.141399 0.822989 0.832574
O O6 0.500000 0.000000 0.500000
O O7 0.321220 0.898054 0.927367
O O8 0.388042 0.356860 0.844532
O O9 0.763969 0.701901 0.293065
O O10 0.709482 0.524177 0.683585
O O11 0.219477 0.410796 0.860385
O O12 0.116079 0.671851 0.432322
O O13 0.418068 0.768436 0.082730
O O14 0.500000 0.000000 0.000000
O O15 0.970884 0.321349 0.253282
O O16 0.086574 0.519383 0.795606
O O17 0.754508 0.386131 0.954450
#
# Coordination Sequence:
#
# PCOD8013587 Si02
#       8
#     2   2   2   2   2   2   2   2
#     4  11  24  43  71  99 132 184 236 277 349 410
#     4  11  21  41  67  95 140 175 221 285 342 410
#     4  11  25  46  68 100 136 185 233 286 341 415
#     4  10  24  43  70  95 135 181 239 280 340 411
#     4  12  26  40  64 106 140 178 228 284 349 412
#     4  10  21  40  69  95 132 184 220 283 342 415
#     4  11  23  40  69 101 136 179 229 279 353 408
#     4  12  25  44  68  99 142 180 225 290 347 409
#
# _framework density 22.318117000000001
#
# number of rings (size 3 to 8) (size 9 to 14) (size 15 to 20)
#    0.000    1.000    2.500    3.375    5.250    5.500 
#    2.250    0.000    0.000    0.000    0.000    0.000 
#    0.000    0.000    0.000    0.000    0.000    0.000 
#
# Total GULP energy -198264.413674 kJ/mol
# GULP energy per Si atom -12391.525855 kJ/mol
# Density = 2.226732 g / cm^3
# Si number density = 22.318117 Si / 1000 Ang^3
#
#
#
# Elastic Constant Matrix: (Units=GPa)
#
#
# Indices 1 2 3 4 5 6 
#
# 1 71.8278 41.5281 23.0177 5.9503 14.0050 -17.2921
# 2 41.5281 147.3961 46.8430 14.1074 3.1293 -15.5064
# 3 23.0177 46.8430 110.1267 13.3341 -6.2037 8.5626
# 4 5.9503 14.1074 13.3341 39.1859 -0.3761 1.3579
# 5 14.0050 3.1293 -6.2037 -0.3761 29.8109 -1.1335
# 6 -17.2921 -15.5064 8.5626 1.3579 -1.1335 37.4291
#
#
#
# Elastic Compliance Matrix: (Units=1/GPa)
#
#
# Indices 1 2 3 4 5 6 
#
# 1 0.021591 -0.003454 -0.004220 -0.001018 -0.010321 0.009234
# 2 -0.003454 0.009282 -0.003240 -0.001820 0.000068 0.003059
# 3 -0.004220 -0.003240 0.012318 -0.002136 0.004635 -0.005892
# 4 -0.001018 -0.001820 -0.002136 0.027120 0.000502 -0.001704
# 5 -0.010321 0.000068 0.004635 0.000502 0.039181 -0.004632
# 6 0.009234 0.003059 -0.005892 -0.001704 -0.004632 0.033520
#
#
# Mechanical properties :
#
#
# Convention : Reuss Voigt Hill
#
# Bulk Modulus (GPa) = 46.80752 61.34759 54.07755
# Shear Modulus (GPa) = 29.07650 35.81597 32.44623
#
# Velocity S-wave (km/s) = 3.61338 4.01033 3.81702
# Velocity P-wave (km/s) = 6.19896 6.99937 6.61129
#
# Compressibility (1/GPa) = 0.02136409
#
# Stress axis : x y z
#
# Youngs Moduli (GPa) = 46.31537 107.73782 81.18042
#
# Poissons Ratio (x) = 0.37215 0.34255
# Poissons Ratio (y) = 0.15998 0.26300
# Poissons Ratio (z) = 0.19543 0.34904
#
# Static dielectric constant tensor:
#      x y z
#    x 4.234170 -0.264320 -0.318640 
#    y -0.264320 4.074460 0.101310 
#    z -0.318640 0.101310 3.907830 
# 
# 
# High freq. dielectric constant tensor:
#      x y z
#    x 1.881920 -0.009300 -0.004050 
#    y -0.009300 1.888160 0.010690 
#    z -0.004050 0.010690 1.877260 
# 
# From -- ./inp_files/272138.got.cif
#   From: 2010.06.25/outbox.cif.g09.slc.cpg/sg2_137_cif.got.tgz:272138.got - 2010.06.27 13:26:56.
