data_PCOD8013630
_publ_section_title
;
Structure prediction by ZEFSAII (Michael W. Deem and Ramdas Pophale) SiO2 
 PCOD8013630
Probable space group: P -1
;
_chemical_formula_sum "Si O2"
_cell_formula_units_Z 10
_cell_length_a 12.404663
_cell_length_b 10.251026
_cell_length_c 12.770162
_cell_angle_alpha 34.246110
_cell_angle_beta 156.759856
_cell_angle_gamma 146.494821
_cell_volume 339.808796
_symmetry_space_group_name_H-M "P -1"
_symmetry_group_IT_number 2
_symmetry_cell_setting 'triclinic'
loop_
_space_group_symop_operation_xyz
x,y,z
-x,-y,-z
loop_
_atom_site_type_symbol
_atom_site_label
_atom_site_fract_x
_atom_site_fract_y
_atom_site_fract_z
Si Si1 0.483153 0.316322 0.426968
Si Si2 0.536155 0.276257 0.064015
Si Si3 0.936260 0.411732 0.119718
Si Si4 0.671050 0.835607 0.828724
Si Si5 0.973608 0.028477 0.597318
O O1 0.798234 0.422063 0.684684
O O2 0.503938 0.165388 0.438060
O O3 0.244520 0.171198 0.391560
O O4 0.362185 0.543766 0.135667
O O5 0.470681 0.108049 0.225986
O O6 0.789149 0.202447 0.276123
O O7 0.664996 0.557816 0.025063
O O8 0.237997 0.206771 0.780524
O O9 0.922610 0.123454 0.299234
O O10 0.000000 0.500000 0.000000
O O11 0.000000 0.000000 0.000000
#
# Coordination Sequence:
#
# PCOD8013630 Si02
#       5
#     2   2   2   2   2
#     4  11  22  40  71 104 136 186 231 275 346 417
#     4  11  26  45  71 103 139 183 228 290 347 401
#     4  10  21  40  70 106 138 179 229 284 347 411
#     4  11  26  49  69 103 143 184 234 286 343 414
#     4  11  21  44  69 102 140 177 230 289 342 408
#
# _framework density 29.428315999999999
#
# number of rings (size 3 to 8) (size 9 to 14) (size 15 to 20)
#    0.000    1.200    2.000    6.000    0.000    7.200 
#    0.000    6.000    0.000    0.000    0.000    0.000 
#    0.000    0.000    0.000    0.000    0.000    0.000 
#
# Total GULP energy -124072.126532 kJ/mol
# GULP energy per Si atom -12407.212653 kJ/mol
# Density = 2.936134 g / cm^3
# Si number density = 29.428316 Si / 1000 Ang^3
#
#
#
# Elastic Constant Matrix: (Units=GPa)
#
#
# Indices 1 2 3 4 5 6 
#
# 1 160.5418 27.8698 17.2490 9.5964 9.7730 -13.7237
# 2 27.8698 141.4832 17.4626 25.6850 -1.8189 -3.1237
# 3 17.2490 17.4626 127.1456 20.7071 -7.0649 -9.3623
# 4 9.5964 25.6850 20.7071 49.7437 -11.1023 -1.4130
# 5 9.7730 -1.8189 -7.0649 -11.1023 49.5694 -9.3192
# 6 -13.7237 -3.1237 -9.3623 -1.4130 -9.3192 60.2099
#
#
#
# Elastic Compliance Matrix: (Units=1/GPa)
#
#
# Indices 1 2 3 4 5 6 
#
# 1 0.006716 -0.001103 -0.000633 -0.000745 -0.001407 0.001140
# 2 -0.001103 0.008026 -0.000347 -0.003881 -0.000415 -0.000044
# 3 -0.000633 -0.000347 0.008638 -0.003060 0.000892 0.001247
# 4 -0.000745 -0.003881 -0.003060 0.024701 0.005202 0.000538
# 5 -0.001407 -0.000415 0.000892 0.005202 0.022364 0.003380
# 6 0.001140 -0.000044 0.001247 0.000538 0.003380 0.017596
#
#
# Mechanical properties :
#
#
# Convention : Reuss Voigt Hill
#
# Bulk Modulus (GPa) = 52.04012 61.59261 56.81636
# Shear Modulus (GPa) = 50.70457 56.34389 53.52423
#
# Velocity S-wave (km/s) = 4.15539 4.38038 4.26937
# Velocity P-wave (km/s) = 6.38319 6.82340 6.60696
#
# Compressibility (1/GPa) = 0.01921594
#
# Stress axis : x y z
#
# Youngs Moduli (GPa) = 148.90029 124.59103 115.76380
#
# Poissons Ratio (x) = 0.13737 0.07324
# Poissons Ratio (y) = 0.16417 0.04017
# Poissons Ratio (z) = 0.09420 0.04324
#
# Static dielectric constant tensor:
#      x y z
#    x 5.327830 -0.253460 -0.445330 
#    y -0.253460 5.959080 -1.383990 
#    z -0.445330 -1.383990 6.374490 
# 
# 
# High freq. dielectric constant tensor:
#      x y z
#    x 2.275700 0.011300 -0.015290 
#    y 0.011300 2.224780 -0.051670 
#    z -0.015290 -0.051670 2.231440 
# 
# From -- ./inp_files/19418.got.cif
#   From: 2010.06.25/outbox.cif.g09.slc.cpg/sg2_10_cif.got.tgz:19418.got - 2010.06.27 13:26:56.
