data_PCOD8013932
_publ_section_title
;
Structure prediction by ZEFSAII (Michael W. Deem and Ramdas Pophale) SiO2 
 PCOD8013932
Probable space group: P -1
;
_chemical_formula_sum "Si O2"
_cell_formula_units_Z 14
_cell_length_a 10.608035
_cell_length_b 12.748681
_cell_length_c 8.513248
_cell_angle_alpha 87.679728
_cell_angle_beta 139.376201
_cell_angle_gamma 74.414113
_cell_volume 664.955797
_symmetry_space_group_name_H-M "P -1"
_symmetry_group_IT_number 2
_symmetry_cell_setting 'triclinic'
loop_
_space_group_symop_operation_xyz
x,y,z
-x,-y,-z
loop_
_atom_site_type_symbol
_atom_site_label
_atom_site_fract_x
_atom_site_fract_y
_atom_site_fract_z
Si Si1 0.054674 0.630493 0.175554
Si Si2 0.089241 0.336826 0.610503
Si Si3 0.325952 0.470882 0.922919
Si Si4 0.793690 0.191698 0.795274
Si Si5 0.345771 0.405119 0.294481
Si Si6 0.756189 0.933296 0.252827
Si Si7 0.984810 0.997805 0.738085
O O1 0.039459 0.629938 0.348461
O O2 0.051047 0.751001 0.108412
O O3 0.279444 0.517928 0.339526
O O4 0.851774 0.626841 0.900163
O O5 0.914178 0.415872 0.308362
O O6 0.295248 0.365733 0.812450
O O7 0.172480 0.203588 0.646856
O O8 0.500000 0.500000 0.000000
O O9 0.409171 0.433243 0.180922
O O10 0.545144 0.291520 0.564157
O O11 0.865099 0.129708 0.035480
O O12 0.820781 0.091659 0.701058
O O13 0.831521 0.984991 0.464803
O O14 0.857169 0.953151 0.187055
O O15 0.500000 0.000000 0.000000
#
# Coordination Sequence:
#
# PCOD8013932 Si02
#       7
#     2   2   2   2   2   2   2
#     4  10  21  41  63  94 131 165 212 260 317 386
#     4  10  22  42  62  93 132 162 212 266 310 384
#     4  10  22  38  66  98 126 168 204 258 329 376
#     4  11  22  43  67  94 132 166 210 270 315 377
#     4  10  23  39  67  96 127 171 207 259 327 383
#     4  11  25  46  67  92 128 173 216 265 320 375
#     4  10  26  43  66  98 124 170 223 261 314 377
#
# _framework density 21.054030000000001
#
# number of rings (size 3 to 8) (size 9 to 14) (size 15 to 20)
#    0.000    1.714    1.429    1.286    6.000    2.286 
#    7.714    2.857    0.000    0.000    0.000    0.000 
#    0.000    0.000    0.000    0.000    0.000    0.000 
#
# Total GULP energy -173658.715226 kJ/mol
# GULP energy per Si atom -12404.193945 kJ/mol
# Density = 2.100611 g / cm^3
# Si number density = 21.054030 Si / 1000 Ang^3
#
#
#
# Elastic Constant Matrix: (Units=GPa)
#
#
# Indices 1 2 3 4 5 6 
#
# 1 68.4530 20.8884 21.9588 1.1256 13.9810 15.3168
# 2 20.8884 101.7384 19.8853 -13.0843 7.2849 12.9198
# 3 21.9588 19.8853 90.4022 -17.3929 3.5185 2.2194
# 4 1.1256 -13.0843 -17.3929 32.3083 3.6732 -0.9437
# 5 13.9810 7.2849 3.5185 3.6732 26.5703 -2.6335
# 6 15.3168 12.9198 2.2194 -0.9437 -2.6335 37.2050
#
#
#
# Elastic Compliance Matrix: (Units=1/GPa)
#
#
# Indices 1 2 3 4 5 6 
#
# 1 0.020663 -0.001956 -0.004580 -0.003070 -0.010133 -0.008349
# 2 -0.001956 0.011634 -0.001029 0.004468 -0.002966 -0.003270
# 3 -0.004580 -0.001029 0.013741 0.007183 0.000039 0.001608
# 4 -0.003070 0.004468 0.007183 0.037383 -0.005746 -0.000175
# 5 -0.010133 -0.002966 0.000039 -0.005746 0.045390 0.008266
# 6 -0.008349 -0.003270 0.001608 -0.000175 0.008266 0.031936
#
#
# Mechanical properties :
#
#
# Convention : Reuss Voigt Hill
#
# Bulk Modulus (GPa) = 32.35323 42.89542 37.62432
# Shear Modulus (GPa) = 26.85580 32.40745 29.63163
#
# Velocity S-wave (km/s) = 3.57538 3.92759 3.75561
# Velocity P-wave (km/s) = 5.69602 6.40204 6.05932
#
# Compressibility (1/GPa) = 0.03090882
#
# Stress axis : x y z
#
# Youngs Moduli (GPa) = 48.39582 85.95491 72.77248
#
# Poissons Ratio (x) = 0.16814 0.33330
# Poissons Ratio (y) = 0.09467 0.07486
# Poissons Ratio (z) = 0.22165 0.08842
#
# Static dielectric constant tensor:
#      x y z
#    x 3.827550 0.201930 -0.110050 
#    y 0.201930 3.999180 -0.008260 
#    z -0.110050 -0.008260 3.882590 
# 
# 
# High freq. dielectric constant tensor:
#      x y z
#    x 1.823140 0.012700 -0.001080 
#    y 0.012700 1.837770 0.003470 
#    z -0.001080 0.003470 1.827530 
# 
# From -- ./inp_files/258662.got.cif
#   From: 2010.06.25/outbox.cif.g09.slc.cpg/sg2_130_cif.got.tgz:258662.got - 2010.06.27 13:26:56.
