data_PCOD8013120
_publ_section_title
;
Structure prediction by ZEFSAII (Michael W. Deem and Ramdas Pophale) SiO2 
 PCOD8013120
Probable space group: P -1
;
_chemical_formula_sum "Si O2"
_cell_formula_units_Z 16
_cell_length_a 8.089119
_cell_length_b 15.549576
_cell_length_c 9.157673
_cell_angle_alpha 124.091745
_cell_angle_beta 60.753242
_cell_angle_gamma 86.154705
_cell_volume 733.850317
_symmetry_space_group_name_H-M "P -1"
_symmetry_group_IT_number 2
_symmetry_cell_setting 'triclinic'
loop_
_space_group_symop_operation_xyz
x,y,z
-x,-y,-z
loop_
_atom_site_type_symbol
_atom_site_label
_atom_site_fract_x
_atom_site_fract_y
_atom_site_fract_z
Si Si1 0.909383 0.991763 0.876956
Si Si2 0.182277 0.204764 0.187796
Si Si3 0.032456 0.556483 0.897610
Si Si4 0.377296 0.584216 0.913339
Si Si5 0.733659 0.051229 0.523673
Si Si6 0.828595 0.428766 0.705557
Si Si7 0.242506 0.181505 0.804947
Si Si8 0.632294 0.183953 0.978920
O O1 0.776493 0.918934 0.877196
O O2 0.106333 0.920409 0.613420
O O3 0.755337 0.126255 0.020788
O O4 0.000000 0.000000 0.000000
O O5 0.970453 0.308641 0.446779
O O6 0.148065 0.199210 0.025058
O O7 0.382014 0.227682 0.155061
O O8 0.280906 0.532904 0.778414
O O9 0.968081 0.499601 0.734179
O O10 0.000000 0.500000 0.000000
O O11 0.872942 0.695361 0.111059
O O12 0.629374 0.503166 0.754407
O O13 0.250369 0.598335 0.133005
O O14 0.332127 0.710297 0.993565
O O15 0.496187 0.136568 0.647863
O O16 0.741369 0.076746 0.714714
O O17 0.806040 0.912861 0.347018
#
# Coordination Sequence:
#
# PCOD8013120 Si02
#       8
#     2   2   2   2   2   2   2   2
#     4  12  24  42  62  97 135 169 215 276 331 388
#     4  11  24  42  65  94 134 173 209 278 335 385
#     4  10  22  40  64  96 127 169 223 272 320 390
#     4  10  22  43  70  96 128 177 227 270 322 403
#     4  10  21  40  68  92 124 180 217 264 325 394
#     4  10  22  44  68  97 134 171 222 276 332 385
#     4  10  21  40  65  94 130 166 221 268 324 392
#     4  11  24  42  67  95 131 176 223 264 329 402
#
# _framework density 21.802814000000001
#
# number of rings (size 3 to 8) (size 9 to 14) (size 15 to 20)
#    0.000    1.500    1.250    3.750    0.000    6.000 
#    6.750    1.250    0.000    0.000    0.000    0.000 
#    0.000    0.000    0.000    0.000    0.000    0.000 
#
# Total GULP energy -198379.657378 kJ/mol
# GULP energy per Si atom -12398.728586 kJ/mol
# Density = 2.175319 g / cm^3
# Si number density = 21.802814 Si / 1000 Ang^3
#
#
#
# Elastic Constant Matrix: (Units=GPa)
#
#
# Indices 1 2 3 4 5 6 
#
# 1 140.7851 61.7886 30.6274 10.7441 4.9449 1.3590
# 2 61.7886 149.8969 35.1078 23.6623 -5.1383 -5.4763
# 3 30.6274 35.1078 85.0959 6.1291 -10.7629 -4.1120
# 4 10.7441 23.6623 6.1291 28.3471 5.6192 -4.5332
# 5 4.9449 -5.1383 -10.7629 5.6192 18.5692 0.9126
# 6 1.3590 -5.4763 -4.1120 -4.5332 0.9126 39.0194
#
#
#
# Elastic Compliance Matrix: (Units=1/GPa)
#
#
# Indices 1 2 3 4 5 6 
#
# 1 0.009389 -0.003606 -0.002670 0.000935 -0.005286 -0.000882
# 2 -0.003606 0.009899 -0.001594 -0.007490 0.005025 0.000359
# 3 -0.002670 -0.001594 0.014818 -0.002622 0.009608 0.000902
# 4 0.000935 -0.007490 -0.002622 0.046010 -0.017981 0.004406
# 5 -0.005286 0.005025 0.009608 -0.017981 0.067747 -0.001772
# 6 -0.000882 0.000359 0.000902 0.004406 -0.001772 0.026358
#
#
# Mechanical properties :
#
#
# Convention : Reuss Voigt Hill
#
# Bulk Modulus (GPa) = 54.44893 70.09173 62.27033
# Shear Modulus (GPa) = 25.49944 33.73742 29.61843
#
# Velocity S-wave (km/s) = 3.42358 3.93795 3.68974
# Velocity P-wave (km/s) = 6.37616 7.27286 6.83922
#
# Compressibility (1/GPa) = 0.01836583
#
# Stress axis : x y z
#
# Youngs Moduli (GPa) = 106.50396 101.02389 67.48760
#
# Poissons Ratio (x) = 0.36429 0.18020
# Poissons Ratio (y) = 0.38406 0.10755
# Poissons Ratio (z) = 0.28438 0.16100
#
# Static dielectric constant tensor:
#      x y z
#    x 4.612080 0.195290 0.085600 
#    y 0.195290 4.019660 0.081710 
#    z 0.085600 0.081710 3.613260 
# 
# 
# High freq. dielectric constant tensor:
#      x y z
#    x 1.875650 0.004590 -0.006380 
#    y 0.004590 1.866440 0.003450 
#    z -0.006380 0.003450 1.837250 
# 
# From -- ./inp_files/208620.got.cif
#   From: 2010.06.25/outbox.cif.g09.slc.cpg/sg2_105_cif.got.tgz:208620.got - 2010.06.27 13:26:56.
