data_PCOD8013866
_publ_section_title
;
Structure prediction by ZEFSAII (Michael W. Deem and Ramdas Pophale) SiO2 
 PCOD8013866
Probable space group: P -1
;
_chemical_formula_sum "Si O2"
_cell_formula_units_Z 16
_cell_length_a 8.732369
_cell_length_b 13.364101
_cell_length_c 11.359385
_cell_angle_alpha 97.950378
_cell_angle_beta 61.440630
_cell_angle_gamma 138.806687
_cell_volume 708.433074
_symmetry_space_group_name_H-M "P -1"
_symmetry_group_IT_number 2
_symmetry_cell_setting 'triclinic'
loop_
_space_group_symop_operation_xyz
x,y,z
-x,-y,-z
loop_
_atom_site_type_symbol
_atom_site_label
_atom_site_fract_x
_atom_site_fract_y
_atom_site_fract_z
Si Si1 0.244211 0.915577 0.924834
Si Si2 0.584660 0.573900 0.109036
Si Si3 0.939564 0.559583 0.678645
Si Si4 0.762064 0.106148 0.335596
Si Si5 0.821291 0.535244 0.457443
Si Si6 0.194006 0.252533 0.582473
Si Si7 0.292516 0.258758 0.282072
Si Si8 0.354143 0.074332 0.139408
O O1 0.327624 0.983594 0.771564
O O2 0.399048 0.882539 0.893999
O O3 0.909988 0.746909 0.033675
O O4 0.333062 0.046133 0.001986
O O5 0.398829 0.590755 0.199567
O O6 0.492749 0.446983 0.217278
O O7 0.500000 0.500000 0.000000
O O8 0.990680 0.607402 0.529602
O O9 0.098761 0.721377 0.717524
O O10 0.069373 0.511939 0.664486
O O11 0.982890 0.132071 0.319419
O O12 0.500000 0.000000 0.500000
O O13 0.480592 0.375672 0.574476
O O14 0.904923 0.676116 0.382837
O O15 0.256598 0.228875 0.430170
O O16 0.946944 0.082691 0.713220
O O17 0.436500 0.227317 0.162956
#
# Coordination Sequence:
#
# PCOD8013866 Si02
#       8
#     2   2   2   2   2   2   2   2
#     4  11  25  47  65  92 141 177 221 276 330 393
#     4  11  21  45  67  94 134 171 225 275 322 397
#     4  10  21  41  63 100 125 169 226 268 333 389
#     4  11  23  42  67  95 130 172 221 278 330 392
#     4  10  22  38  65 101 130 170 217 276 332 381
#     4  11  22  43  68  97 140 170 219 277 329 395
#     4  11  24  43  67 101 129 176 225 271 336 389
#     4  11  27  44  65 101 136 180 221 269 338 401
#
# _framework density 22.585054
#
# number of rings (size 3 to 8) (size 9 to 14) (size 15 to 20)
#    0.000    1.250    5.000    1.875    5.250    1.000 
#    4.500    0.000    0.000    0.000    0.000    0.000 
#    0.000    0.000    0.000    0.000    0.000    0.000 
#
# Total GULP energy -198412.190774 kJ/mol
# GULP energy per Si atom -12400.761923 kJ/mol
# Density = 2.253365 g / cm^3
# Si number density = 22.585054 Si / 1000 Ang^3
#
#
#
# Elastic Constant Matrix: (Units=GPa)
#
#
# Indices 1 2 3 4 5 6 
#
# 1 85.7392 28.2554 25.8262 12.0908 -24.2898 -5.9668
# 2 28.2554 54.8196 20.0061 12.0984 -9.3602 2.4114
# 3 25.8262 20.0061 112.4903 7.8331 -5.3659 0.1395
# 4 12.0908 12.0984 7.8331 42.5776 4.3704 -5.9824
# 5 -24.2898 -9.3602 -5.3659 4.3704 43.8134 14.4081
# 6 -5.9668 2.4114 0.1395 -5.9824 14.4081 33.8953
#
#
#
# Elastic Compliance Matrix: (Units=1/GPa)
#
#
# Indices 1 2 3 4 5 6 
#
# 1 0.017152 -0.005626 -0.002248 -0.003892 0.008740 -0.000973
# 2 -0.005626 0.024331 -0.002403 -0.006093 0.004229 -0.005584
# 3 -0.002248 -0.002403 0.009844 -0.000464 -0.000457 -0.000153
# 4 -0.003892 -0.006093 -0.000464 0.028582 -0.009235 0.008720
# 5 0.008740 0.004229 -0.000457 -0.009235 0.034371 -0.015001
# 6 -0.000973 -0.005584 -0.000153 0.008720 -0.015001 0.037645
#
#
# Mechanical properties :
#
#
# Convention : Reuss Voigt Hill
#
# Bulk Modulus (GPa) = 32.49620 44.58048 38.53834
# Shear Modulus (GPa) = 27.36221 35.98804 31.67512
#
# Velocity S-wave (km/s) = 3.48446 3.99613 3.74904
# Velocity P-wave (km/s) = 5.53247 6.40889 5.98674
#
# Compressibility (1/GPa) = 0.03077283
#
# Stress axis : x y z
#
# Youngs Moduli (GPa) = 58.30391 41.10064 101.58694
#
# Poissons Ratio (x) = 0.23122 0.22837
# Poissons Ratio (y) = 0.32801 0.24407
# Poissons Ratio (z) = 0.13107 0.09875
#
# Static dielectric constant tensor:
#      x y z
#    x 4.212440 0.302030 -0.306910 
#    y 0.302030 4.864640 0.209290 
#    z -0.306910 0.209290 4.367760 
# 
# 
# High freq. dielectric constant tensor:
#      x y z
#    x 1.888620 0.015540 -0.014790 
#    y 0.015540 1.880800 0.017920 
#    z -0.014790 0.017920 1.896080 
# 
# From -- ./inp_files/399181.got.cif
#   From: 2010.06.25/outbox.cif.g09.slc.cpg/sg2_200_cif.got.tgz:399181.got - 2010.06.27 13:26:56.
