data_PCOD8013985
_publ_section_title
;
Structure prediction by ZEFSAII (Michael W. Deem and Ramdas Pophale) SiO2 
 PCOD8013985
Probable space group: P -1
;
_chemical_formula_sum "Si O2"
_cell_formula_units_Z 16
_cell_length_a 19.679595
_cell_length_b 8.717133
_cell_length_c 17.386542
_cell_angle_alpha 128.144578
_cell_angle_beta 21.461141
_cell_angle_gamma 117.347050
_cell_volume 786.126100
_symmetry_space_group_name_H-M "P -1"
_symmetry_group_IT_number 2
_symmetry_cell_setting 'triclinic'
loop_
_space_group_symop_operation_xyz
x,y,z
-x,-y,-z
loop_
_atom_site_type_symbol
_atom_site_label
_atom_site_fract_x
_atom_site_fract_y
_atom_site_fract_z
Si Si1 0.851334 0.400439 0.050713
Si Si2 0.731634 0.837859 0.551011
Si Si3 0.952979 0.787341 0.065607
Si Si4 0.838409 0.237954 0.750512
Si Si5 0.440766 0.621226 0.771262
Si Si6 0.170162 0.389550 0.464967
Si Si7 0.536037 0.296856 0.949266
Si Si8 0.790161 0.263971 0.369738
O O1 0.052290 0.265203 0.748936
O O2 0.869341 0.288574 0.080388
O O3 0.824072 0.644159 0.166105
O O4 0.651088 0.409445 0.222249
O O5 0.580856 0.746953 0.641862
O O6 0.745459 0.780775 0.608477
O O7 0.642450 0.092896 0.719033
O O8 0.804937 0.034421 0.311033
O O9 0.043374 0.756759 0.876070
O O10 0.671074 0.298771 0.880181
O O11 0.948998 0.402254 0.678077
O O12 0.739484 0.247440 0.940814
O O13 0.000000 0.000000 0.500000
O O14 0.568553 0.395590 0.608392
O O15 0.160366 0.618570 0.573350
O O16 0.321267 0.304247 0.207439
O O17 0.500000 0.500000 0.000000
#
# Coordination Sequence:
#
# PCOD8013985 Si02
#       8
#     2   2   2   2   2   2   2   2
#     4  11  22  40  65  92 123 157 209 254 307 358
#     4  11  21  41  64  89 124 164 202 253 304 369
#     4  10  22  41  63  90 125 164 197 262 309 352
#     4  12  21  38  67  90 119 170 208 242 303 375
#     4  11  21  38  67  93 117 163 212 246 301 372
#     4  11  21  41  65  88 123 166 205 246 300 378
#     4  12  26  40  62  94 128 157 205 259 306 357
#     4  10  21  41  64  88 127 163 203 250 310 360
#
# _framework density 20.352967
#
# number of rings (size 3 to 8) (size 9 to 14) (size 15 to 20)
#    0.000    1.000    7.500    1.125    1.750    1.500 
#    2.250    0.000    0.000    0.000    0.000    0.000 
#    0.000    0.000    0.000    0.000    0.000    0.000 
#
# Total GULP energy -198443.401040 kJ/mol
# GULP energy per Si atom -12402.712565 kJ/mol
# Density = 2.030664 g / cm^3
# Si number density = 20.352967 Si / 1000 Ang^3
#
#
#
# Elastic Constant Matrix: (Units=GPa)
#
#
# Indices 1 2 3 4 5 6 
#
# 1 81.2300 30.6308 -8.8598 2.4983 -18.7904 19.5356
# 2 30.6308 106.7817 26.3422 27.2126 -10.7295 4.9234
# 3 -8.8598 26.3422 52.7365 9.1653 -3.8859 12.4151
# 4 2.4983 27.2126 9.1653 42.0712 6.0684 -3.4401
# 5 -18.7904 -10.7295 -3.8859 6.0684 26.1493 -7.3742
# 6 19.5356 4.9234 12.4151 -3.4401 -7.3742 33.6165
#
#
#
# Elastic Compliance Matrix: (Units=1/GPa)
#
#
# Indices 1 2 3 4 5 6 
#
# 1 0.022284 -0.006926 0.011720 -0.002195 0.011482 -0.013970
# 2 -0.006926 0.015565 -0.008445 -0.007907 0.003340 0.004788
# 3 0.011720 -0.008445 0.029968 -0.003897 0.005872 -0.015752
# 4 -0.002195 -0.007907 -0.003897 0.031899 -0.011502 0.004614
# 5 0.011482 0.003340 0.005872 -0.011502 0.051636 0.000820
# 6 -0.013970 0.004788 -0.015752 0.004614 0.000820 0.043634
#
#
# Mechanical properties :
#
#
# Convention : Reuss Voigt Hill
#
# Bulk Modulus (GPa) = 16.52530 37.44163 26.98346
# Shear Modulus (GPa) = 22.47586 33.20972 27.84279
#
# Velocity S-wave (km/s) = 3.32671 4.04380 3.70266
# Velocity P-wave (km/s) = 4.78466 6.34344 5.61837
#
# Compressibility (1/GPa) = 0.06051326
#
# Stress axis : x y z
#
# Youngs Moduli (GPa) = 44.87505 64.24702 33.36902
#
# Poissons Ratio (x) = 0.44499 -0.39108
# Poissons Ratio (y) = 0.31081 0.28181
# Poissons Ratio (z) = -0.52592 0.54259
#
# Static dielectric constant tensor:
#      x y z
#    x 4.547820 0.500090 -0.264560 
#    y 0.500090 3.995780 -0.018770 
#    z -0.264560 -0.018770 3.886370 
# 
# 
# High freq. dielectric constant tensor:
#      x y z
#    x 1.791420 0.011980 0.009660 
#    y 0.011980 1.790240 0.005700 
#    z 0.009660 0.005700 1.798070 
# 
# From -- ./inp_files/208161.got.cif
#   From: 2010.06.25/outbox.cif.g09.slc.cpg/sg2_105_cif.got.tgz:208161.got - 2010.06.27 13:26:56.
