data_PCOD8013582
_publ_section_title
;
Structure prediction by ZEFSAII (Michael W. Deem and Ramdas Pophale) SiO2 
 PCOD8013582
Probable space group: P -1
;
_chemical_formula_sum "Si O2"
_cell_formula_units_Z 16
_cell_length_a 9.347775
_cell_length_b 14.598718
_cell_length_c 6.434259
_cell_angle_alpha 92.568818
_cell_angle_beta 79.884195
_cell_angle_gamma 117.834418
_cell_volume 763.696115
_symmetry_space_group_name_H-M "P -1"
_symmetry_group_IT_number 2
_symmetry_cell_setting 'triclinic'
loop_
_space_group_symop_operation_xyz
x,y,z
-x,-y,-z
loop_
_atom_site_type_symbol
_atom_site_label
_atom_site_fract_x
_atom_site_fract_y
_atom_site_fract_z
Si Si1 0.059552 0.733828 0.398077
Si Si2 0.083763 0.978416 0.782945
Si Si3 0.976038 0.560137 0.701156
Si Si4 0.848162 0.831791 0.502685
Si Si5 0.398350 0.051789 0.931656
Si Si6 0.211117 0.630459 0.029324
Si Si7 0.469950 0.216338 0.232457
Si Si8 0.599380 0.123070 0.524562
O O1 0.126919 0.686999 0.194141
O O2 0.209540 0.836714 0.468609
O O3 0.963150 0.655240 0.604742
O O4 0.926000 0.768496 0.349236
O O5 0.154903 0.077647 0.623474
O O6 0.238426 0.966914 0.839282
O O7 0.960957 0.875621 0.683817
O O8 0.000000 0.000000 0.000000
O O9 0.816569 0.476257 0.860343
O O10 0.000000 0.500000 0.500000
O O11 0.130278 0.604209 0.820696
O O12 0.658638 0.755399 0.611927
O O13 0.516978 0.141982 0.753270
O O14 0.350585 0.110511 0.127668
O O15 0.500000 0.000000 0.000000
O O16 0.406881 0.695887 0.947984
O O17 0.586125 0.191953 0.351372
O O18 0.500000 0.000000 0.500000
#
# Coordination Sequence:
#
# PCOD8013582 Si02
#       8
#     2   2   2   2   2   2   2   2
#     4  11  23  39  64  95 124 168 212 262 313 382
#     4  11  24  41  56  83 131 184 213 257 309 370
#     4   9  20  41  68  98 120 153 211 274 327 373
#     4  11  26  40  59  88 135 173 213 253 324 380
#     4  12  24  37  60  88 120 170 228 264 300 360
#     4  10  21  40  69  94 122 158 215 270 321 379
#     4  12  23  40  59  92 125 169 207 262 323 369
#     4  12  23  37  58  90 131 167 218 261 297 368
#
# _framework density 20.950742000000002
#
# number of rings (size 3 to 8) (size 9 to 14) (size 15 to 20)
#    0.000    1.000    6.250    0.750    3.500    1.000 
#    0.000    0.625    0.000    6.750    0.000    0.000 
#    0.000    0.000    0.000    0.000    0.000    0.000 
#
# Total GULP energy -198237.855824 kJ/mol
# GULP energy per Si atom -12389.865989 kJ/mol
# Density = 2.090306 g / cm^3
# Si number density = 20.950742 Si / 1000 Ang^3
#
#
#
# Elastic Constant Matrix: (Units=GPa)
#
#
# Indices 1 2 3 4 5 6 
#
# 1 122.4966 36.0914 31.4395 -5.0574 -10.2043 7.8601
# 2 36.0914 80.9489 23.5608 -9.0416 -6.2984 12.1397
# 3 31.4395 23.5608 89.4854 -4.0392 -2.6004 11.6741
# 4 -5.0574 -9.0416 -4.0392 32.9718 6.3848 -2.1219
# 5 -10.2043 -6.2984 -2.6004 6.3848 41.1303 -2.2674
# 6 7.8601 12.1397 11.6741 -2.1219 -2.2674 21.7263
#
#
#
# Elastic Compliance Matrix: (Units=1/GPa)
#
#
# Indices 1 2 3 4 5 6 
#
# 1 0.010018 -0.003594 -0.002515 -0.000109 0.001788 -0.000089
# 2 -0.003594 0.015830 -0.001950 0.003040 0.000599 -0.006138
# 3 -0.002515 -0.001950 0.013248 0.000458 -0.000438 -0.005120
# 4 -0.000109 0.003040 0.000458 0.032118 -0.004476 0.000765
# 5 0.001788 0.000599 -0.000438 -0.004476 0.025598 0.001488
# 6 -0.000089 -0.006138 -0.005120 0.000765 0.001488 0.052470
#
#
# Mechanical properties :
#
#
# Convention : Reuss Voigt Hill
#
# Bulk Modulus (GPa) = 43.51948 52.79046 48.15497
# Shear Modulus (GPa) = 28.89192 32.62161 30.75677
#
# Velocity S-wave (km/s) = 3.71757 3.95024 3.83567
# Velocity P-wave (km/s) = 6.26454 6.78661 6.53079
#
# Compressibility (1/GPa) = 0.02297821
#
# Stress axis : x y z
#
# Youngs Moduli (GPa) = 99.81945 63.17059 75.48435
#
# Poissons Ratio (x) = 0.22706 0.18982
# Poissons Ratio (y) = 0.35879 0.14718
# Poissons Ratio (z) = 0.25102 0.12317
#
# Static dielectric constant tensor:
#      x y z
#    x 3.947110 0.163860 0.013750 
#    y 0.163860 3.942130 -0.187980 
#    z 0.013750 -0.187980 4.465160 
# 
# 
# High freq. dielectric constant tensor:
#      x y z
#    x 1.802070 0.015830 -0.001910 
#    y 0.015830 1.797140 -0.004490 
#    z -0.001910 -0.004490 1.845620 
# 
# From -- ./inp_files/38636.got.cif
#   From: 2010.06.25/outbox.cif.g09.slc.cpg/sg2_20_cif.got.tgz:38636.got - 2010.06.27 13:26:56.
