data_PCOD8013931
_publ_section_title
;
Structure prediction by ZEFSAII (Michael W. Deem and Ramdas Pophale) SiO2 
 PCOD8013931
Probable space group: P -1
;
_chemical_formula_sum "Si O2"
_cell_formula_units_Z 16
_cell_length_a 18.755641
_cell_length_b 19.507123
_cell_length_c 8.651886
_cell_angle_alpha 53.691966
_cell_angle_beta 42.758056
_cell_angle_gamma 21.764572
_cell_volume 744.470512
_symmetry_space_group_name_H-M "P -1"
_symmetry_group_IT_number 2
_symmetry_cell_setting 'triclinic'
loop_
_space_group_symop_operation_xyz
x,y,z
-x,-y,-z
loop_
_atom_site_type_symbol
_atom_site_label
_atom_site_fract_x
_atom_site_fract_y
_atom_site_fract_z
Si Si1 0.029306 0.550997 0.007288
Si Si2 0.206572 0.850510 0.742097
Si Si3 0.500876 0.215512 0.254851
Si Si4 0.495354 0.964164 0.389866
Si Si5 0.021066 0.067021 0.272687
Si Si6 0.126163 0.082942 0.375528
Si Si7 0.366592 0.226201 0.141441
Si Si8 0.716279 0.506904 0.524907
O O1 0.765629 0.782870 0.139865
O O2 0.130870 0.438107 0.154390
O O3 0.210936 0.490576 0.741644
O O4 0.000000 0.500000 0.000000
O O5 0.462308 0.648400 0.691560
O O6 0.176890 0.796005 0.734193
O O7 0.184179 0.956114 0.548268
O O8 0.000000 0.000000 0.000000
O O9 0.587157 0.075006 0.421929
O O10 0.315076 0.412244 0.380273
O O11 0.368687 0.268308 0.250384
O O12 0.720766 0.113939 0.984592
O O13 0.500000 0.000000 0.500000
O O14 0.325567 0.153057 0.308722
O O15 0.997831 0.161517 0.305238
O O16 0.000000 0.000000 0.500000
O O17 0.931758 0.281356 0.516743
O O18 0.385615 0.938602 0.129836
#
# Coordination Sequence:
#
# PCOD8013931 Si02
#       8
#     2   2   2   2   2   2   2   2
#     4  12  24  42  63  96 132 166 211 261 316 383
#     4  11  22  41  65  92 130 165 207 269 321 361
#     4  10  21  41  63  94 131 163 212 263 313 380
#     4  10  22  41  66  93 128 169 210 257 309 385
#     4   9  20  41  66  89 123 172 206 255 317 372
#     4  10  22  41  66  91 126 166 214 256 313 384
#     4  10  22  43  66  88 128 177 206 253 323 376
#     4  12  23  41  64  97 129 162 214 265 314 378
#
# _framework density 21.491783999999999
#
# number of rings (size 3 to 8) (size 9 to 14) (size 15 to 20)
#    0.000    1.500    5.000    0.000    0.000    3.500 
#    2.250    2.500    0.000    0.000    0.000    0.000 
#    0.000    0.000    0.000    0.000    0.000    0.000 
#
# Total GULP energy -198250.901802 kJ/mol
# GULP energy per Si atom -12390.681363 kJ/mol
# Density = 2.144287 g / cm^3
# Si number density = 21.491784 Si / 1000 Ang^3
#
#
#
# Elastic Constant Matrix: (Units=GPa)
#
#
# Indices 1 2 3 4 5 6 
#
# 1 69.5165 7.2711 1.9158 2.7306 7.0273 6.1391
# 2 7.2711 60.4714 -3.0775 -3.4267 10.7581 11.8349
# 3 1.9158 -3.0775 94.3737 -1.6298 3.9672 10.7916
# 4 2.7306 -3.4267 -1.6298 32.4949 7.3560 7.2998
# 5 7.0273 10.7581 3.9672 7.3560 27.7729 3.6828
# 6 6.1391 11.8349 10.7916 7.2998 3.6828 32.3752
#
#
#
# Elastic Compliance Matrix: (Units=1/GPa)
#
#
# Indices 1 2 3 4 5 6 
#
# 1 0.014986 -0.000823 0.000047 -0.000143 -0.003155 -0.002165
# 2 -0.000823 0.020220 0.002090 0.006089 -0.008429 -0.008346
# 3 0.000047 0.002090 0.011360 0.002425 -0.002446 -0.004828
# 4 -0.000143 0.006089 0.002425 0.036262 -0.010956 -0.009937
# 5 -0.003155 -0.008429 -0.002446 -0.010956 0.043047 0.002068
# 6 -0.002165 -0.008346 -0.004828 -0.009937 0.002068 0.037964
#
#
# Mechanical properties :
#
#
# Convention : Reuss Voigt Hill
#
# Bulk Modulus (GPa) = 20.32769 26.28674 23.30722
# Shear Modulus (GPa) = 28.15182 33.07874 30.61528
#
# Velocity S-wave (km/s) = 3.62316 3.92744 3.77836
# Velocity P-wave (km/s) = 5.19442 5.72922 5.46836
#
# Compressibility (1/GPa) = 0.04919397
#
# Stress axis : x y z
#
# Youngs Moduli (GPa) = 66.73082 49.45583 88.02708
#
# Poissons Ratio (x) = 0.04068 -0.00411
# Poissons Ratio (y) = 0.05489 -0.18397
# Poissons Ratio (z) = -0.00312 -0.10336
#
# Static dielectric constant tensor:
#      x y z
#    x 4.266400 0.204570 0.037120 
#    y 0.204570 3.446130 0.157940 
#    z 0.037120 0.157940 3.795780 
# 
# 
# High freq. dielectric constant tensor:
#      x y z
#    x 1.843880 0.009810 0.005400 
#    y 0.009810 1.818860 -0.001780 
#    z 0.005400 -0.001780 1.865710 
# 
# From -- ./inp_files/138513.got.cif
#   From: 2010.06.25/outbox.cif.g09.slc.cpg/sg2_70_cif.got.tgz:138513.got - 2010.06.27 13:26:56.
