data_PCOD8013150
_publ_section_title
;
Structure prediction by ZEFSAII (Michael W. Deem and Ramdas Pophale) SiO2 
 PCOD8013150
Probable space group: P -1
;
_chemical_formula_sum "Si O2"
_cell_formula_units_Z 16
_cell_length_a 9.629363
_cell_length_b 14.200065
_cell_length_c 10.998590
_cell_angle_alpha 70.635852
_cell_angle_beta 61.946539
_cell_angle_gamma 121.082261
_cell_volume 738.822377
_symmetry_space_group_name_H-M "P -1"
_symmetry_group_IT_number 2
_symmetry_cell_setting 'triclinic'
loop_
_space_group_symop_operation_xyz
x,y,z
-x,-y,-z
loop_
_atom_site_type_symbol
_atom_site_label
_atom_site_fract_x
_atom_site_fract_y
_atom_site_fract_z
Si Si1 0.929994 0.157934 0.642289
Si Si2 0.136458 0.971113 0.905823
Si Si3 0.236773 0.305373 0.220772
Si Si4 0.581513 0.826031 0.792409
Si Si5 0.287580 0.981236 0.578352
Si Si6 0.815406 0.658098 0.302963
Si Si7 0.072605 0.574420 0.256169
Si Si8 0.310185 0.756875 0.321668
O O1 0.739978 0.155052 0.726581
O O2 0.157619 0.297759 0.390954
O O3 0.077754 0.218788 0.683007
O O4 0.744222 0.969700 0.766099
O O5 0.241056 0.022869 0.701522
O O6 0.381401 0.085799 0.845932
O O7 0.936110 0.773639 0.084547
O O8 0.000000 0.000000 0.000000
O O9 0.284731 0.212495 0.244615
O O10 0.997367 0.208820 0.267039
O O11 0.500000 0.500000 0.000000
O O12 0.601143 0.886886 0.626462
O O13 0.268126 0.658732 0.025554
O O14 0.500000 0.000000 0.500000
O O15 0.500000 0.500000 0.500000
O O16 0.908242 0.591984 0.302320
O O17 0.250256 0.660444 0.268362
O O18 0.861546 0.375126 0.437544
#
# Coordination Sequence:
#
# PCOD8013150 Si02
#       8
#     2   2   2   2   2   2   2   2
#     4  10  21  40  67  91 128 170 219 265 324 396
#     4  12  26  39  65  97 135 172 218 279 347 394
#     4  11  25  43  70  95 130 178 229 281 330 408
#     4  11  23  43  71  94 131 177 229 272 331 407
#     4  11  25  45  68  98 139 179 229 283 342 411
#     4  11  24  40  63  96 135 170 215 274 331 399
#     4  10  21  40  66  94 129 174 218 268 323 398
#     4  10  21  40  65  96 132 168 217 267 329 400
#
# _framework density 21.656085999999998
#
# number of rings (size 3 to 8) (size 9 to 14) (size 15 to 20)
#    0.000    1.250    0.000    6.750    7.000    2.000 
#    0.000    1.250    0.000    0.000    0.000    0.000 
#    0.000    0.000    0.000    0.000    0.000    0.000 
#
# Total GULP energy -198399.197406 kJ/mol
# GULP energy per Si atom -12399.949838 kJ/mol
# Density = 2.160680 g / cm^3
# Si number density = 21.656086 Si / 1000 Ang^3
#
#
#
# Elastic Constant Matrix: (Units=GPa)
#
#
# Indices 1 2 3 4 5 6 
#
# 1 117.1582 45.3391 49.2746 -8.9561 -11.8891 6.8772
# 2 45.3391 72.4571 24.6953 7.1616 -8.3193 1.8168
# 3 49.2746 24.6953 134.1044 -11.9166 -11.2163 16.4273
# 4 -8.9561 7.1616 -11.9166 43.3273 -2.9874 2.5801
# 5 -11.8891 -8.3193 -11.2163 -2.9874 38.9154 -3.3963
# 6 6.8772 1.8168 16.4273 2.5801 -3.3963 19.3306
#
#
#
# Elastic Compliance Matrix: (Units=1/GPa)
#
#
# Indices 1 2 3 4 5 6 
#
# 1 0.013082 -0.007321 -0.002803 0.003366 0.001731 -0.001729
# 2 -0.007321 0.019542 -0.001648 -0.005290 0.001331 0.003108
# 3 -0.002803 -0.001648 0.010096 0.003010 0.001268 -0.007606
# 4 0.003366 -0.005290 0.003010 0.026008 0.002208 -0.006342
# 5 0.001731 0.001331 0.001268 0.002208 0.027279 0.002679
# 6 -0.001729 0.003108 -0.007606 -0.006342 0.002679 0.059835
#
#
# Mechanical properties :
#
#
# Convention : Reuss Voigt Hill
#
# Bulk Modulus (GPa) = 52.15093 62.48197 57.31645
# Shear Modulus (GPa) = 26.91388 33.94206 30.42797
#
# Velocity S-wave (km/s) = 3.52914 3.96324 3.75247
# Velocity P-wave (km/s) = 6.38280 7.06099 6.73044
#
# Compressibility (1/GPa) = 0.01917511
#
# Stress axis : x y z
#
# Youngs Moduli (GPa) = 76.44094 51.17218 99.05374
#
# Poissons Ratio (x) = 0.37464 0.27764
# Poissons Ratio (y) = 0.55963 0.16325
# Poissons Ratio (z) = 0.21426 0.08434
#
# Static dielectric constant tensor:
#      x y z
#    x 3.807940 -0.072620 0.070020 
#    y -0.072620 3.948690 0.046990 
#    z 0.070020 0.046990 4.145450 
# 
# 
# High freq. dielectric constant tensor:
#      x y z
#    x 1.856830 -0.004540 -0.001460 
#    y -0.004540 1.839230 0.001290 
#    z -0.001460 0.001290 1.873080 
# 
# From -- ./inp_files/398919.got.cif
#   From: 2010.06.25/outbox.cif.g09.slc.cpg/sg2_200_cif.got.tgz:398919.got - 2010.06.27 13:26:56.
