data_PCOD8013518
_publ_section_title
;
Structure prediction by ZEFSAII (Michael W. Deem and Ramdas Pophale) SiO2 
 PCOD8013518
Probable space group: P -1
;
_chemical_formula_sum "Si O2"
_cell_formula_units_Z 14
_cell_length_a 22.171751
_cell_length_b 14.165194
_cell_length_c 13.504961
_cell_angle_alpha 29.746619
_cell_angle_beta 21.650304
_cell_angle_gamma 20.076613
_cell_volume 536.798344
_symmetry_space_group_name_H-M "P -1"
_symmetry_group_IT_number 2
_symmetry_cell_setting 'triclinic'
loop_
_space_group_symop_operation_xyz
x,y,z
-x,-y,-z
loop_
_atom_site_type_symbol
_atom_site_label
_atom_site_fract_x
_atom_site_fract_y
_atom_site_fract_z
Si Si1 0.821958 0.869286 0.857855
Si Si2 0.335488 0.931202 0.718935
Si Si3 0.463147 0.262480 0.208414
Si Si4 0.328023 0.784874 0.413255
Si Si5 0.867509 0.406515 0.905504
Si Si6 0.726206 0.516846 0.359425
Si Si7 0.993212 0.738278 0.396244
O O1 0.084227 0.699194 0.648930
O O2 0.781533 0.968964 0.717827
O O3 0.783185 0.677272 0.086978
O O4 0.638794 0.136692 0.962707
O O5 0.410754 0.766783 0.857252
O O6 0.469818 0.714779 0.620832
O O7 0.412130 0.084386 0.463738
O O8 0.055246 0.153468 0.925398
O O9 0.221822 0.576415 0.265761
O O10 0.258817 0.632586 0.621739
O O11 0.610501 0.562529 0.194970
O O12 0.207557 0.938340 0.562561
O O13 0.924954 0.283851 0.819532
O O14 0.884519 0.620295 0.681215
#
# Coordination Sequence:
#
# PCOD8013518 Si02
#       7
#     2   2   2   2   2   2   2
#     4  10  21  42  69  97 139 174 220 286 337 395
#     4   9  19  38  63  90 137 170 217 283 328 389
#     4   9  17  37  66  94 121 179 225 266 336 394
#     4  12  23  42  70  98 133 180 224 277 338 404
#     4  10  22  41  67  96 135 182 221 276 341 399
#     4  10  23  40  63 102 134 173 226 280 333 405
#     4  10  21  40  68  97 131 178 230 271 337 407
#
# _framework density 26.080556999999999
#
# number of rings (size 3 to 8) (size 9 to 14) (size 15 to 20)
#    0.000    2.000    1.429    1.714    2.000    4.000 
#    5.143    2.143    0.000    0.000    0.000    0.000 
#    0.000    0.000    0.000    0.000    0.000    0.000 
#
# Total GULP energy -173658.546751 kJ/mol
# GULP energy per Si atom -12404.181911 kJ/mol
# Density = 2.602120 g / cm^3
# Si number density = 26.080557 Si / 1000 Ang^3
#
#
#
# Elastic Constant Matrix: (Units=GPa)
#
#
# Indices 1 2 3 4 5 6 
#
# 1 125.3908 65.2162 25.1823 10.0711 -5.5932 16.6786
# 2 65.2162 134.1014 44.6083 42.9907 -9.8062 7.7913
# 3 25.1823 44.6083 66.7742 26.4323 -22.2377 16.6831
# 4 10.0711 42.9907 26.4323 25.0144 4.0734 10.1725
# 5 -5.5932 -9.8062 -22.2377 4.0734 31.5108 5.5874
# 6 16.6786 7.7913 16.6831 10.1725 5.5874 49.9113
#
#
#
# Elastic Compliance Matrix: (Units=1/GPa)
#
#
# Indices 1 2 3 4 5 6 
#
# 1 0.024813 -0.035159 -0.044007 0.106900 -0.050667 -0.004209
# 2 -0.035159 0.077271 0.089102 -0.232741 0.109881 0.005038
# 3 -0.044007 0.089102 0.175083 -0.348077 0.189899 -0.008043
# 4 0.106900 -0.232741 -0.348077 0.833870 -0.405546 -0.007596
# 5 -0.050667 0.109881 0.189899 -0.405546 0.244876 -0.008455
# 6 -0.004209 0.005038 -0.008043 -0.007596 -0.008455 0.025839
#
#
# Mechanical properties :
#
#
# Convention : Reuss Voigt Hill
#
# Bulk Modulus (GPa) = 3.36656 66.25334 34.80995
# Shear Modulus (GPa) = 3.42256 34.03794 18.73025
#
# Velocity S-wave (km/s) = 1.14680 3.61655 2.68278
# Velocity P-wave (km/s) = 1.74561 6.54963 4.79296
#
# Compressibility (1/GPa) = 0.29703949
#
# Stress axis : x y z
#
# Youngs Moduli (GPa) = 40.30083 12.94140 5.71158
#
# Poissons Ratio (x) = 0.45501 0.25135
# Poissons Ratio (y) = 1.41695 -0.50892
# Poissons Ratio (z) = 1.77353 -1.15311
#
# Static dielectric constant tensor:
#      x y z
#    x 4.789670 -0.090380 -0.086830 
#    y -0.090380 4.809850 0.156470 
#    z -0.086830 0.156470 4.509330 
# 
# 
# High freq. dielectric constant tensor:
#      x y z
#    x 2.047300 -0.003150 -0.003880 
#    y -0.003150 2.056500 0.001730 
#    z -0.003880 0.001730 2.044230 
# 
# From -- ./inp_files/535362.got.cif
#   From: 2010.06.25/outbox.cif.g09.slc.cpg/sg2_268_cif.got.tgz:535362.got - 2010.06.27 13:26:56.
