data_PCOD8013665
_publ_section_title
;
Structure prediction by ZEFSAII (Michael W. Deem and Ramdas Pophale) SiO2 
 PCOD8013665
Probable space group: P -1
;
_chemical_formula_sum "Si O2"
_cell_formula_units_Z 14
_cell_length_a 5.024331
_cell_length_b 9.320462
_cell_length_c 18.282568
_cell_angle_alpha 124.096798
_cell_angle_beta 96.448648
_cell_angle_gamma 92.685235
_cell_volume 698.188460
_symmetry_space_group_name_H-M "P -1"
_symmetry_group_IT_number 2
_symmetry_cell_setting 'triclinic'
loop_
_space_group_symop_operation_xyz
x,y,z
-x,-y,-z
loop_
_atom_site_type_symbol
_atom_site_label
_atom_site_fract_x
_atom_site_fract_y
_atom_site_fract_z
Si Si1 0.327052 0.246556 0.471921
Si Si2 0.488260 0.335213 0.900756
Si Si3 0.223551 0.309025 0.741562
Si Si4 0.245100 0.261514 0.314614
Si Si5 0.254903 0.539208 0.671386
Si Si6 0.941831 0.146510 0.815543
Si Si7 0.188840 0.966220 0.564182
O O1 0.400837 0.314142 0.411486
O O2 0.290982 0.391982 0.571381
O O3 0.564145 0.140604 0.479455
O O4 0.029546 0.137167 0.417355
O O5 0.448434 0.391566 0.830742
O O6 0.761148 0.250795 0.892074
O O7 0.241417 0.183917 0.870881
O O8 0.500000 0.500000 0.000000
O O9 0.171610 0.456921 0.724459
O O10 0.954384 0.228654 0.756457
O O11 0.326694 0.146434 0.655691
O O12 0.461072 0.332944 0.279071
O O13 0.979950 0.353646 0.329235
O O14 0.173953 0.055218 0.244664
O O15 0.000000 0.000000 0.500000
#
# Coordination Sequence:
#
# PCOD8013665 Si02
#       7
#     2   2   2   2   2   2   2
#     4  12  23  40  58  84 123 176 219 254 299 360
#     4  10  21  40  71 100 117 149 207 264 308 371
#     4  10  25  38  66  91 123 161 210 256 319 353
#     4  12  24  42  59  90 127 175 208 252 307 371
#     4  12  26  37  61  88 131 164 217 260 305 354
#     4  10  22  40  68  89 123 157 206 246 317 373
#     4  12  23  37  63  87 126 161 217 264 305 356
#
# _framework density 20.051893
#
# number of rings (size 3 to 8) (size 9 to 14) (size 15 to 20)
#    0.857    0.000    2.857    5.143    2.000    0.000 
#    0.000    0.000    0.000    5.143    0.000    0.000 
#    0.000    0.000    0.000    0.000    0.000    0.000 
#
# Total GULP energy -173482.101936 kJ/mol
# GULP energy per Si atom -12391.578710 kJ/mol
# Density = 2.000625 g / cm^3
# Si number density = 20.051893 Si / 1000 Ang^3
#
#
#
# Elastic Constant Matrix: (Units=GPa)
#
#
# Indices 1 2 3 4 5 6 
#
# 1 117.3758 48.9193 36.1597 18.8453 -13.5590 -5.9286
# 2 48.9193 92.0733 47.5605 12.9173 -16.5730 5.7242
# 3 36.1597 47.5605 122.3320 12.7307 -6.4672 -3.2556
# 4 18.8453 12.9173 12.7307 15.9952 -8.7456 0.0518
# 5 -13.5590 -16.5730 -6.4672 -8.7456 25.7339 13.5159
# 6 -5.9286 5.7242 -3.2556 0.0518 13.5159 38.7157
#
#
#
# Elastic Compliance Matrix: (Units=1/GPa)
#
#
# Indices 1 2 3 4 5 6 
#
# 1 0.012755 -0.005725 -0.000376 -0.011818 -0.003109 0.003869
# 2 -0.005725 0.019493 -0.005727 0.003243 0.013996 -0.009131
# 3 -0.000376 -0.005727 0.011013 -0.006556 -0.005207 0.003542
# 4 -0.011818 0.003243 -0.006556 0.098728 0.035913 -0.015510
# 5 -0.003109 0.013996 -0.005207 0.035913 0.071908 -0.028135
# 6 0.003869 -0.009131 0.003542 -0.015510 -0.028135 0.037912
#
#
# Mechanical properties :
#
#
# Convention : Reuss Voigt Hill
#
# Bulk Modulus (GPa) = 51.00567 66.34002 58.67284
# Shear Modulus (GPa) = 17.73050 29.36507 23.54778
#
# Velocity S-wave (km/s) = 2.97683 3.83097 3.43059
# Velocity P-wave (km/s) = 6.10798 7.26116 6.70939
#
# Compressibility (1/GPa) = 0.01960566
#
# Stress axis : x y z
#
# Youngs Moduli (GPa) = 78.39934 51.30142 90.79876
#
# Poissons Ratio (x) = 0.29370 0.03414
# Poissons Ratio (y) = 0.44883 0.51998
# Poissons Ratio (z) = 0.02948 0.29379
#
# Static dielectric constant tensor:
#      x y z
#    x 3.982420 0.275040 -0.023660 
#    y 0.275040 3.788450 0.038560 
#    z -0.023660 0.038560 3.357420 
# 
# 
# High freq. dielectric constant tensor:
#      x y z
#    x 1.798120 0.006300 -0.005520 
#    y 0.006300 1.773060 0.011920 
#    z -0.005520 0.011920 1.758270 
# 
# From -- ./inp_files/369410.got.cif
#   From: 2010.06.25/outbox.cif.g09.slc.cpg/sg2_185_cif.got.tgz:369410.got - 2010.06.27 13:26:56.
