data_PCOD8013549
_publ_section_title
;
Structure prediction by ZEFSAII (Michael W. Deem and Ramdas Pophale) SiO2 
 PCOD8013549
Probable space group: P -1
;
_chemical_formula_sum "Si O2"
_cell_formula_units_Z 14
_cell_length_a 8.292980
_cell_length_b 12.907371
_cell_length_c 9.509394
_cell_angle_alpha 144.975311
_cell_angle_beta 95.384839
_cell_angle_gamma 76.506218
_cell_volume 559.381702
_symmetry_space_group_name_H-M "P -1"
_symmetry_group_IT_number 2
_symmetry_cell_setting 'triclinic'
loop_
_space_group_symop_operation_xyz
x,y,z
-x,-y,-z
loop_
_atom_site_type_symbol
_atom_site_label
_atom_site_fract_x
_atom_site_fract_y
_atom_site_fract_z
Si Si1 0.150634 0.115151 0.447142
Si Si2 0.332447 0.622881 0.191628
Si Si3 0.563847 0.048394 0.910327
Si Si4 0.885969 0.293687 0.994559
Si Si5 0.646708 0.970859 0.368633
Si Si6 0.127062 0.530795 0.297360
Si Si7 0.315553 0.611028 0.657407
O O1 0.007356 0.294294 0.588776
O O2 0.311439 0.112002 0.354707
O O3 0.190349 0.135087 0.641013
O O4 0.087755 0.926738 0.216654
O O5 0.343378 0.828086 0.466686
O O6 0.296631 0.502941 0.187793
O O7 0.500000 0.500000 0.000000
O O8 0.176388 0.651291 0.105377
O O9 0.399776 0.137757 0.894255
O O10 0.681997 0.175835 0.104602
O O11 0.500000 0.000000 0.000000
O O12 0.742645 0.427459 0.233316
O O13 0.063452 0.343272 0.085970
O O14 0.500000 0.000000 0.500000
O O15 0.169240 0.578253 0.510690
O O16 0.500000 0.500000 0.500000
#
# Coordination Sequence:
#
# PCOD8013549 Si02
#       7
#     2   2   2   2   2   2   2
#     4   9  23  44  67  98 138 172 231 275 336 414
#     4  11  24  43  68 101 134 172 231 277 333 416
#     4  10  21  40  69 101 131 182 226 275 336 396
#     4  10  24  45  66 102 137 176 223 283 343 394
#     4   9  20  41  66  98 134 176 218 282 337 395
#     4  12  25  45  71  99 136 182 222 286 347 392
#     4  11  25  46  66  99 138 179 228 276 339 415
#
# _framework density 25.027631
#
# number of rings (size 3 to 8) (size 9 to 14) (size 15 to 20)
#    0.000    1.714    0.000    3.429    6.000    4.571 
#   10.286    0.000    0.000    0.000    0.000    0.000 
#    0.000    0.000    0.000    0.000    0.000    0.000 
#
# Total GULP energy -173468.226729 kJ/mol
# GULP energy per Si atom -12390.587624 kJ/mol
# Density = 2.497067 g / cm^3
# Si number density = 25.027631 Si / 1000 Ang^3
#
#
#
# Elastic Constant Matrix: (Units=GPa)
#
#
# Indices 1 2 3 4 5 6 
#
# 1 83.4812 15.0705 23.8543 0.9840 22.8794 12.9067
# 2 15.0705 86.2136 31.7740 -16.3375 16.1204 11.6136
# 3 23.8543 31.7740 91.0867 -24.9735 32.6383 1.5767
# 4 0.9840 -16.3375 -24.9735 32.4397 -3.9338 -1.9495
# 5 22.8794 16.1204 32.6383 -3.9338 52.9729 -3.2644
# 6 12.9067 11.6136 1.5767 -1.9495 -3.2644 55.8923
#
#
#
# Elastic Compliance Matrix: (Units=1/GPa)
#
#
# Indices 1 2 3 4 5 6 
#
# 1 0.014903 -0.000893 -0.002829 -0.003894 -0.004933 -0.003600
# 2 -0.000893 0.014411 -0.002644 0.004825 -0.002177 -0.002672
# 3 -0.002829 -0.002644 0.019242 0.012528 -0.008863 0.000579
# 4 -0.003894 0.004825 0.012528 0.042544 -0.004298 0.000776
# 5 -0.004933 -0.002177 -0.008863 -0.004298 0.027014 0.003269
# 6 -0.003600 -0.002672 0.000579 0.000776 0.003269 0.019480
#
#
# Mechanical properties :
#
#
# Convention : Reuss Voigt Hill
#
# Bulk Modulus (GPa) = 27.91439 44.68656 36.30047
# Shear Modulus (GPa) = 30.81320 40.93317 35.87318
#
# Velocity S-wave (km/s) = 3.51261 4.04854 3.79006
# Velocity P-wave (km/s) = 5.25631 6.30459 5.80417
#
# Compressibility (1/GPa) = 0.03582382
#
# Stress axis : x y z
#
# Youngs Moduli (GPa) = 67.10159 69.39133 51.96843
#
# Poissons Ratio (x) = 0.06197 0.14703
# Poissons Ratio (y) = 0.05993 0.13740
# Poissons Ratio (z) = 0.18984 0.18347
#
# Static dielectric constant tensor:
#      x y z
#    x 5.152920 0.354200 -0.122490 
#    y 0.354200 5.562110 -1.398680 
#    z -0.122490 -1.398680 5.979550 
# 
# 
# High freq. dielectric constant tensor:
#      x y z
#    x 2.013820 0.015250 0.007990 
#    y 0.015250 1.985050 -0.017240 
#    z 0.007990 -0.017240 2.003230 
# 
# From -- ./inp_files/191145.got.cif
#   From: 2010.06.25/outbox.cif.g09.slc.cpg/sg2_96_cif.got.tgz:191145.got - 2010.06.27 13:26:56.
