data_PCOD8013733
_publ_section_title
;
Structure prediction by ZEFSAII (Michael W. Deem and Ramdas Pophale) SiO2 
 PCOD8013733
Probable space group: P -1
;
_chemical_formula_sum "Si O2"
_cell_formula_units_Z 14
_cell_length_a 6.766921
_cell_length_b 15.910164
_cell_length_c 21.878809
_cell_angle_alpha 154.349378
_cell_angle_beta 129.584542
_cell_angle_gamma 65.381665
_cell_volume 692.318698
_symmetry_space_group_name_H-M "P -1"
_symmetry_group_IT_number 2
_symmetry_cell_setting 'triclinic'
loop_
_space_group_symop_operation_xyz
x,y,z
-x,-y,-z
loop_
_atom_site_type_symbol
_atom_site_label
_atom_site_fract_x
_atom_site_fract_y
_atom_site_fract_z
Si Si1 0.678334 0.431676 0.820433
Si Si2 0.129308 0.601604 0.396709
Si Si3 0.220993 0.782592 0.664834
Si Si4 0.788648 0.634055 0.106303
Si Si5 0.420825 0.562883 0.655819
Si Si6 0.054251 0.092635 0.503165
Si Si7 0.496814 0.730663 0.909413
O O1 0.392970 0.197777 0.620721
O O2 0.633275 0.573065 0.851670
O O3 0.949942 0.395663 0.831055
O O4 0.742758 0.565663 0.983058
O O5 0.255572 0.760158 0.584616
O O6 0.357591 0.532351 0.370682
O O7 0.061931 0.730851 0.414120
O O8 0.839750 0.377523 0.208561
O O9 0.411032 0.687364 0.674247
O O10 0.886016 0.647813 0.529218
O O11 0.330438 0.033655 0.870399
O O12 0.500000 0.500000 0.000000
O O13 0.874017 0.889784 0.289793
O O14 0.517822 0.741764 0.847106
O O15 0.000000 0.000000 0.500000
#
# Coordination Sequence:
#
# PCOD8013733 Si02
#       7
#     2   2   2   2   2   2   2
#     4  10  23  39  57  84 117 155 193 243 288 341
#     4  10  23  39  59  88 118 153 198 239 290 349
#     4  10  21  41  60  87 121 151 191 243 293 349
#     4  11  22  38  58  83 113 154 199 237 287 344
#     4  10  22  38  62  89 117 153 193 238 295 351
#     4  11  22  39  59  83 118 156 193 241 290 340
#     4  10  22  38  60  87 119 151 194 240 289 351
#
# _framework density 20.221902
#
# number of rings (size 3 to 8) (size 9 to 14) (size 15 to 20)
#    0.000    1.714    1.429    2.143    2.000    2.857 
#    2.571    0.000    0.000    0.000    0.000    0.000 
#    0.000    0.000    0.000    0.000    0.000    0.000 
#
# Total GULP energy -173639.913730 kJ/mol
# GULP energy per Si atom -12402.850981 kJ/mol
# Density = 2.017588 g / cm^3
# Si number density = 20.221902 Si / 1000 Ang^3
#
#
#
# Elastic Constant Matrix: (Units=GPa)
#
#
# Indices 1 2 3 4 5 6 
#
# 1 93.9005 47.3132 28.6856 4.3644 5.9294 -16.5852
# 2 47.3132 94.9167 7.4196 -4.4793 10.0222 -2.8552
# 3 28.6856 7.4196 124.2480 0.7972 1.1858 0.8690
# 4 4.3644 -4.4793 0.7972 24.9577 -0.2666 -0.6625
# 5 5.9294 10.0222 1.1858 -0.2666 24.1404 -7.1103
# 6 -16.5852 -2.8552 0.8690 -0.6625 -7.1103 40.3302
#
#
#
# Elastic Compliance Matrix: (Units=1/GPa)
#
#
# Indices 1 2 3 4 5 6 
#
# 1 0.017313 -0.008499 -0.003523 -0.004246 0.001396 0.006770
# 2 -0.008499 0.015334 0.001094 0.004060 -0.005258 -0.003293
# 3 -0.003523 0.001094 0.008810 0.000482 -0.000500 -0.001641
# 4 -0.004246 0.004060 0.000482 0.041495 -0.000464 -0.000869
# 5 0.001396 -0.005258 -0.000500 -0.000464 0.045718 0.008265
# 6 0.006770 -0.003293 -0.001641 -0.000869 0.008265 0.028825
#
#
# Mechanical properties :
#
#
# Convention : Reuss Voigt Hill
#
# Bulk Modulus (GPa) = 51.01942 53.32247 52.17094
# Shear Modulus (GPa) = 26.89834 33.19544 30.04689
#
# Velocity S-wave (km/s) = 3.65109 4.05601 3.85887
# Velocity P-wave (km/s) = 6.56190 6.95420 6.76089
#
# Compressibility (1/GPa) = 0.01960038
#
# Stress axis : x y z
#
# Youngs Moduli (GPa) = 57.75983 65.21389 113.51191
#
# Poissons Ratio (x) = 0.55424 0.39991
# Poissons Ratio (y) = 0.49089 -0.12414
# Poissons Ratio (z) = 0.20349 -0.07132
#
# Static dielectric constant tensor:
#      x y z
#    x 3.508820 -0.035890 0.040900 
#    y -0.035890 3.806300 -0.154210 
#    z 0.040900 -0.154210 3.833440 
# 
# 
# High freq. dielectric constant tensor:
#      x y z
#    x 1.783720 -0.000020 -0.003470 
#    y -0.000020 1.800620 -0.009440 
#    z -0.003470 -0.009440 1.799970 
# 
# From -- ./inp_files/37104.got.cif
#   From: 2010.06.25/outbox.cif.g09.slc.cpg/sg2_19_cif.got.tgz:37104.got - 2010.06.27 13:26:56.
