data_PCOD8013194
_publ_section_title
;
Structure prediction by ZEFSAII (Michael W. Deem and Ramdas Pophale) SiO2 
 PCOD8013194
Probable space group: P -1
;
_chemical_formula_sum "Si O2"
_cell_formula_units_Z 14
_cell_length_a 21.571495
_cell_length_b 8.862257
_cell_length_c 15.775642
_cell_angle_alpha 39.280105
_cell_angle_beta 31.011161
_cell_angle_gamma 26.455058
_cell_volume 691.907152
_symmetry_space_group_name_H-M "P -1"
_symmetry_group_IT_number 2
_symmetry_cell_setting 'triclinic'
loop_
_space_group_symop_operation_xyz
x,y,z
-x,-y,-z
loop_
_atom_site_type_symbol
_atom_site_label
_atom_site_fract_x
_atom_site_fract_y
_atom_site_fract_z
Si Si1 0.357768 0.655962 0.343386
Si Si2 0.650167 0.480882 0.827142
Si Si3 0.831276 0.368996 0.008323
Si Si4 0.889687 0.823100 0.728657
Si Si5 0.549834 0.433620 0.374396
Si Si6 0.709491 0.707926 0.507884
Si Si7 0.373688 0.384339 0.014499
O O1 0.380067 0.685128 0.404481
O O2 0.337062 0.401867 0.467242
O O3 0.198397 0.016949 0.329995
O O4 0.530976 0.497308 0.161568
O O5 0.612968 0.748736 0.688181
O O6 0.679049 0.565207 0.847514
O O7 0.819703 0.109025 0.755569
O O8 0.500000 0.500000 0.000000
O O9 0.667217 0.498052 0.193652
O O10 0.846249 0.624601 0.902300
O O11 0.800926 0.375635 0.940090
O O12 0.000000 0.000000 0.000000
O O13 0.088673 0.580465 0.587022
O O14 0.500000 0.500000 0.500000
O O15 0.653293 0.048857 0.398029
O O16 0.500000 0.000000 0.000000
#
# Coordination Sequence:
#
# PCOD8013194 Si02
#       7
#     2   2   2   2   2   2   2
#     4  10  21  40  66  89 123 162 208 254 309 360
#     4  11  21  38  68  97 117 163 216 256 302 373
#     4  11  23  44  61  88 132 165 200 255 323 357
#     4  11  22  43  66  91 128 166 204 261 308 372
#     4  11  26  39  65  93 124 168 209 255 306 374
#     4  11  23  42  63  93 132 160 203 262 316 360
#     4  11  21  38  67  94 119 161 208 259 303 366
#
# _framework density 20.233929
#
# number of rings (size 3 to 8) (size 9 to 14) (size 15 to 20)
#    0.000    1.143    5.714    2.143    6.000    0.000 
#    5.143    2.143    0.000    0.000    0.000    0.000 
#    0.000    0.000    0.000    0.000    0.000    0.000 
#
# Total GULP energy -173565.267056 kJ/mol
# GULP energy per Si atom -12397.519075 kJ/mol
# Density = 2.018788 g / cm^3
# Si number density = 20.233929 Si / 1000 Ang^3
#
#
#
# Elastic Constant Matrix: (Units=GPa)
#
#
# Indices 1 2 3 4 5 6 
#
# 1 148.7514 45.1417 46.9940 8.6254 16.7709 -12.7418
# 2 45.1417 93.5346 16.8294 -7.7981 -0.9099 -8.6735
# 3 46.9940 16.8294 101.4326 -6.7817 -1.2760 7.4676
# 4 8.6254 -7.7981 -6.7817 28.2883 0.8025 -9.4113
# 5 16.7709 -0.9099 -1.2760 0.8025 39.1900 -1.9352
# 6 -12.7418 -8.6735 7.4676 -9.4113 -1.9352 27.1916
#
#
#
# Elastic Compliance Matrix: (Units=1/GPa)
#
#
# Indices 1 2 3 4 5 6 
#
# 1 0.010583 -0.004390 -0.004750 -0.004449 -0.004546 0.003000
# 2 -0.004390 0.013870 -0.000151 0.006686 0.002300 0.004887
# 3 -0.004750 -0.000151 0.012641 0.002843 0.002155 -0.004608
# 4 -0.004449 0.006686 0.002843 0.044051 0.001973 0.014654
# 5 -0.004546 0.002300 0.002155 0.001973 0.027578 0.000657
# 6 0.003000 0.004887 -0.004608 0.014654 0.000657 0.046125
#
#
# Mechanical properties :
#
#
# Convention : Reuss Voigt Hill
#
# Bulk Modulus (GPa) = 54.02054 62.40543 58.21298
# Shear Modulus (GPa) = 27.83947 34.58423 31.21185
#
# Velocity S-wave (km/s) = 3.71331 4.13876 3.93179
# Velocity P-wave (km/s) = 6.71869 7.33130 7.03167
#
# Compressibility (1/GPa) = 0.01851148
#
# Stress axis : x y z
#
# Youngs Moduli (GPa) = 94.49071 72.09804 79.10669
#
# Poissons Ratio (x) = 0.31650 0.37578
# Poissons Ratio (y) = 0.41480 0.01196
# Poissons Ratio (z) = 0.44886 0.01090
#
# Static dielectric constant tensor:
#      x y z
#    x 3.991060 -0.011850 -0.139270 
#    y -0.011850 3.681820 -0.318090 
#    z -0.139270 -0.318090 3.926840 
# 
# 
# High freq. dielectric constant tensor:
#      x y z
#    x 1.795430 -0.006870 -0.013900 
#    y -0.006870 1.774990 -0.024850 
#    z -0.013900 -0.024850 1.796920 
# 
# From -- ./inp_files/159767.got.cif
#   From: 2010.06.25/outbox.cif.g09.slc.cpg/sg2_80_cif.got.tgz:159767.got - 2010.06.27 13:26:56.
