data_PCOD8013109
_publ_section_title
;
Structure prediction by ZEFSAII (Michael W. Deem and Ramdas Pophale) SiO2 
 PCOD8013109
Probable space group: P -1
;
_chemical_formula_sum "Si O2"
_cell_formula_units_Z 14
_cell_length_a 7.302271
_cell_length_b 14.912034
_cell_length_c 13.660705
_cell_angle_alpha 31.815885
_cell_angle_beta 108.747457
_cell_angle_gamma 89.439323
_cell_volume 611.871313
_symmetry_space_group_name_H-M "P -1"
_symmetry_group_IT_number 2
_symmetry_cell_setting 'triclinic'
loop_
_space_group_symop_operation_xyz
x,y,z
-x,-y,-z
loop_
_atom_site_type_symbol
_atom_site_label
_atom_site_fract_x
_atom_site_fract_y
_atom_site_fract_z
Si Si1 0.924337 0.742269 0.559127
Si Si2 0.162638 0.071809 0.428599
Si Si3 0.414061 0.669497 0.745540
Si Si4 0.514229 0.016419 0.102575
Si Si5 0.264122 0.818101 0.234213
Si Si6 0.486442 0.617866 0.251720
Si Si7 0.829926 0.428791 0.894725
O O1 0.778776 0.858794 0.525621
O O2 0.782061 0.873964 0.317451
O O3 0.943866 0.527757 0.762177
O O4 0.174213 0.710640 0.622906
O O5 0.385559 0.873617 0.597423
O O6 0.000000 0.000000 0.500000
O O7 0.031589 0.259830 0.156469
O O8 0.603271 0.597579 0.760757
O O9 0.500000 0.500000 0.000000
O O10 0.372211 0.928923 0.206517
O O11 0.500000 0.000000 0.000000
O O12 0.413716 0.254040 0.895536
O O13 0.401014 0.710796 0.258185
O O14 0.306667 0.628238 0.484294
O O15 0.000000 0.000000 0.000000
O O16 0.257417 0.670200 0.104602
#
# Coordination Sequence:
#
# PCOD8013109 Si02
#       7
#     2   2   2   2   2   2   2
#     4  11  23  44  67  98 137 172 226 283 333 400
#     4  10  21  40  65  93 134 171 220 276 330 398
#     4  11  24  42  67  96 132 181 223 269 343 402
#     4  10  22  43  69  92 134 177 215 281 336 388
#     4  10  22  43  67  97 131 171 229 272 333 411
#     4  10  22  41  67  93 136 173 214 285 338 383
#     4  12  23  43  67  99 137 173 220 285 333 404
#
# _framework density 22.880627
#
# number of rings (size 3 to 8) (size 9 to 14) (size 15 to 20)
#    0.000    1.429    4.286    2.143    0.000    4.571 
#    2.571    0.000    0.000    0.000    0.000    0.000 
#    0.000    0.000    0.000    0.000    0.000    0.000 
#
# Total GULP energy -173511.484710 kJ/mol
# GULP energy per Si atom -12393.677479 kJ/mol
# Density = 2.282855 g / cm^3
# Si number density = 22.880627 Si / 1000 Ang^3
#
#
#
# Elastic Constant Matrix: (Units=GPa)
#
#
# Indices 1 2 3 4 5 6 
#
# 1 41.1975 4.3569 34.9208 -15.7821 2.4294 11.9755
# 2 4.3569 83.0592 42.2908 0.4394 -5.4564 27.4244
# 3 34.9208 42.2908 181.0288 -2.3532 -2.7869 15.4549
# 4 -15.7821 0.4394 -2.3532 51.3436 11.6276 -3.3529
# 5 2.4294 -5.4564 -2.7869 11.6276 39.9775 -3.4889
# 6 11.9755 27.4244 15.4549 -3.3529 -3.4889 29.8608
#
#
#
# Elastic Compliance Matrix: (Units=1/GPa)
#
#
# Indices 1 2 3 4 5 6 
#
# 1 0.040943 0.007541 -0.008018 0.012591 -0.007306 -0.018636
# 2 0.007541 0.020319 -0.004548 0.000650 0.000130 -0.019243
# 3 -0.008018 -0.004548 0.007849 -0.002154 0.001323 0.003243
# 4 0.012591 0.000650 -0.002154 0.024950 -0.008319 -0.002702
# 5 -0.007306 0.000130 0.001323 -0.008319 0.028381 0.004508
# 6 -0.018636 -0.019243 0.003243 -0.002702 0.004508 0.057181
#
#
# Mechanical properties :
#
#
# Convention : Reuss Voigt Hill
#
# Bulk Modulus (GPa) = 16.93145 52.04694 34.48920
# Shear Modulus (GPa) = 23.88252 39.15085 31.51669
#
# Velocity S-wave (km/s) = 3.23428 4.14102 3.71541
# Velocity P-wave (km/s) = 4.62205 6.75726 5.78895
#
# Compressibility (1/GPa) = 0.05906168
#
# Stress axis : x y z
#
# Youngs Moduli (GPa) = 24.42401 49.21619 127.41116
#
# Poissons Ratio (x) = -0.37116 1.02153
# Poissons Ratio (y) = -0.18419 0.57949
# Poissons Ratio (z) = 0.19582 0.22384
#
# Static dielectric constant tensor:
#      x y z
#    x 3.904430 0.594840 -0.601820 
#    y 0.594840 4.761210 -0.456210 
#    z -0.601820 -0.456210 4.753590 
# 
# 
# High freq. dielectric constant tensor:
#      x y z
#    x 1.876470 0.024210 -0.019840 
#    y 0.024210 1.911170 -0.001740 
#    z -0.019840 -0.001740 1.920910 
# 
# From -- ./inp_files/188137.got.cif
#   From: 2010.06.25/outbox.cif.g09.slc.cpg/sg2_95_cif.got.tgz:188137.got - 2010.06.27 13:26:56.
