data_PCOD8013746
_publ_section_title
;
Structure prediction by ZEFSAII (Michael W. Deem and Ramdas Pophale) SiO2 
 PCOD8013746
Probable space group: P -1
;
_chemical_formula_sum "Si O2"
_cell_formula_units_Z 14
_cell_length_a 6.311299
_cell_length_b 11.803290
_cell_length_c 10.622399
_cell_angle_alpha 90.416033
_cell_angle_beta 99.546353
_cell_angle_gamma 57.009109
_cell_volume 651.215255
_symmetry_space_group_name_H-M "P -1"
_symmetry_group_IT_number 2
_symmetry_cell_setting 'triclinic'
loop_
_space_group_symop_operation_xyz
x,y,z
-x,-y,-z
loop_
_atom_site_type_symbol
_atom_site_label
_atom_site_fract_x
_atom_site_fract_y
_atom_site_fract_z
Si Si1 0.735894 0.855655 0.478508
Si Si2 0.806122 0.406288 0.050964
Si Si3 0.511471 0.248617 0.699622
Si Si4 0.921123 0.616131 0.167980
Si Si5 0.172832 0.754932 0.725645
Si Si6 0.040963 0.027561 0.648343
Si Si7 0.587529 0.480939 0.649995
O O1 0.646953 0.754304 0.436169
O O2 0.947064 0.786110 0.607558
O O3 0.500000 0.000000 0.500000
O O4 0.833749 0.884950 0.356201
O O5 0.908487 0.488306 0.130065
O O6 0.886422 0.274036 0.140968
O O7 0.500000 0.500000 0.000000
O O8 0.960209 0.345695 0.934651
O O9 0.362378 0.258233 0.814766
O O10 0.516368 0.381910 0.702972
O O11 0.792258 0.111840 0.714090
O O12 0.111246 0.577360 0.306537
O O13 0.209982 0.880907 0.731874
O O14 0.439560 0.622875 0.708691
O O15 0.000000 0.000000 0.500000
O O16 0.500000 0.500000 0.500000
#
# Coordination Sequence:
#
# PCOD8013746 Si02
#       7
#     2   2   2   2   2   2   2
#     4  11  23  40  67  98 137 181 218 271 349 406
#     4  11  23  46  67  98 137 181 230 283 326 395
#     4  12  22  42  65  95 143 171 217 279 339 401
#     4  11  24  42  68  97 137 182 221 278 345 386
#     4  11  22  41  67  99 132 176 226 277 336 399
#     4  10  21  41  60  93 136 176 214 278 332 406
#     4  12  25  39  66 106 139 167 223 289 341 404
#
# _framework density 21.498270000000002
#
# number of rings (size 3 to 8) (size 9 to 14) (size 15 to 20)
#    0.000    0.857    5.714    3.429    2.000    1.143 
#    0.000    0.714    0.000    4.286    0.000    0.000 
#    0.000    0.000    0.000    0.000    0.000    0.000 
#
# Total GULP energy -173495.433910 kJ/mol
# GULP energy per Si atom -12392.530994 kJ/mol
# Density = 2.144934 g / cm^3
# Si number density = 21.498270 Si / 1000 Ang^3
#
#
#
# Elastic Constant Matrix: (Units=GPa)
#
#
# Indices 1 2 3 4 5 6 
#
# 1 118.8440 49.3151 45.0515 -0.3623 -12.0884 -11.4354
# 2 49.3151 118.7133 34.2010 -8.2610 -19.8223 -12.9036
# 3 45.0515 34.2010 90.0038 -5.8334 -19.1104 4.4729
# 4 -0.3623 -8.2610 -5.8334 33.8899 -1.0111 -17.6247
# 5 -12.0884 -19.8223 -19.1104 -1.0111 45.8547 15.3974
# 6 -11.4354 -12.9036 4.4729 -17.6247 15.3974 36.5298
#
#
#
# Elastic Compliance Matrix: (Units=1/GPa)
#
#
# Indices 1 2 3 4 5 6 
#
# 1 0.012028 -0.003248 -0.005375 0.000644 -0.001938 0.004404
# 2 -0.003248 0.011649 -0.002400 0.005159 0.001535 0.005234
# 3 -0.005375 -0.002400 0.016558 -0.002062 0.007298 -0.008629
# 4 0.000644 0.005159 -0.002062 0.043761 -0.006230 0.026016
# 5 -0.001938 0.001535 0.007298 -0.006230 0.030515 -0.016826
# 6 0.004404 0.005234 -0.008629 0.026016 -0.016826 0.051303
#
#
# Mechanical properties :
#
#
# Convention : Reuss Voigt Hill
#
# Bulk Modulus (GPa) = 54.98147 64.96626 59.97387
# Shear Modulus (GPa) = 25.78321 36.52112 31.15216
#
# Velocity S-wave (km/s) = 3.46687 4.12611 3.81077
# Velocity P-wave (km/s) = 6.45414 7.27906 6.87898
#
# Compressibility (1/GPa) = 0.01818794
#
# Stress axis : x y z
#
# Youngs Moduli (GPa) = 83.13596 85.84513 60.39351
#
# Poissons Ratio (x) = 0.27886 0.32462
# Poissons Ratio (y) = 0.27005 0.14496
# Poissons Ratio (z) = 0.44686 0.20605
#
# Static dielectric constant tensor:
#      x y z
#    x 4.599340 0.221940 -0.273860 
#    y 0.221940 4.046200 0.079460 
#    z -0.273860 0.079460 3.763150 
# 
# 
# High freq. dielectric constant tensor:
#      x y z
#    x 1.863270 0.000190 -0.009560 
#    y 0.000190 1.838880 0.018570 
#    z -0.009560 0.018570 1.818180 
# 
# From -- ./inp_files/363067.got.cif
#   From: 2010.06.25/outbox.cif.g09.slc.cpg/sg2_182_cif.got.tgz:363067.got - 2010.06.27 13:26:56.
