data_PCOD8013003
_publ_section_title
;
Structure prediction by ZEFSAII (Michael W. Deem and Ramdas Pophale) SiO2 
 PCOD8013003
Probable space group: P -1
;
_chemical_formula_sum "Si O2"
_cell_formula_units_Z 16
_cell_length_a 16.386229
_cell_length_b 9.939552
_cell_length_c 8.222541
_cell_angle_alpha 87.049294
_cell_angle_beta 88.665135
_cell_angle_gamma 144.295144
_cell_volume 775.662179
_symmetry_space_group_name_H-M "P -1"
_symmetry_group_IT_number 2
_symmetry_cell_setting 'triclinic'
loop_
_space_group_symop_operation_xyz
x,y,z
-x,-y,-z
loop_
_atom_site_type_symbol
_atom_site_label
_atom_site_fract_x
_atom_site_fract_y
_atom_site_fract_z
Si Si1 0.348554 0.741226 0.062233
Si Si2 0.521384 0.676164 0.553406
Si Si3 0.302114 0.117256 0.004314
Si Si4 0.613025 0.249972 0.565287
Si Si5 0.395452 0.526227 0.924890
Si Si6 0.122444 0.522481 0.561039
Si Si7 0.183204 0.868736 0.369323
Si Si8 0.149459 0.682234 0.901706
O O1 0.344750 0.730837 0.256469
O O2 0.319303 0.559621 0.985366
O O3 0.232204 0.686674 0.007324
O O4 0.500000 0.000000 0.000000
O O5 0.500000 0.500000 0.500000
O O6 0.449408 0.684055 0.432929
O O7 0.447688 0.604829 0.733003
O O8 0.688970 0.919779 0.532737
O O9 0.468433 0.311754 0.978297
O O10 0.225177 0.963098 0.179451
O O11 0.284306 0.254040 0.970215
O O12 0.231600 0.936084 0.875037
O O13 0.761410 0.440090 0.448963
O O14 0.500000 0.000000 0.500000
O O15 0.155013 0.670817 0.403202
O O16 0.133660 0.615707 0.723351
O O17 0.962776 0.250393 0.568314
O O18 0.000000 0.500000 0.000000
#
# Coordination Sequence:
#
# PCOD8013003 Si02
#       8
#     2   2   2   2   2   2   2   2
#     4  12  25  42  65  97 131 170 224 274 324 386
#     4  11  25  42  67 100 131 173 220 269 329 399
#     4  10  21  40  64  98 127 169 217 269 325 389
#     4  12  25  41  65  98 131 171 219 276 327 385
#     4  10  23  40  68  91 134 172 216 271 332 378
#     4  11  23  40  67  97 134 172 217 274 335 384
#     4  10  22  40  66  95 136 167 216 270 330 387
#     4  12  24  40  69  97 129 173 221 267 326 394
#
# _framework density 20.627535000000002
#
# number of rings (size 3 to 8) (size 9 to 14) (size 15 to 20)
#    0.000    1.000    3.750    3.000    8.750    0.000 
#    0.000    1.250    0.000    0.000    0.000    0.000 
#    0.000    0.000    0.000    0.000    0.000    0.000 
#
# Total GULP energy -198363.945913 kJ/mol
# GULP energy per Si atom -12397.746620 kJ/mol
# Density = 2.058059 g / cm^3
# Si number density = 20.627535 Si / 1000 Ang^3
#
#
#
# Elastic Constant Matrix: (Units=GPa)
#
#
# Indices 1 2 3 4 5 6 
#
# 1 152.3811 79.3940 34.4183 -0.4233 -5.4055 7.1327
# 2 79.3940 122.0797 36.6123 -9.2927 -4.8299 1.9486
# 3 34.4183 36.6123 87.4679 -3.5285 -4.0617 3.0760
# 4 -0.4233 -9.2927 -3.5285 25.8831 -2.2360 -1.1306
# 5 -5.4055 -4.8299 -4.0617 -2.2360 33.0035 -1.7101
# 6 7.1327 1.9486 3.0760 -1.1306 -1.7101 44.0468
#
#
#
# Elastic Compliance Matrix: (Units=1/GPa)
#
#
# Indices 1 2 3 4 5 6 
#
# 1 0.010289 -0.006418 -0.001395 -0.002354 0.000346 -0.001332
# 2 -0.006418 0.013625 -0.002982 0.004495 0.000922 0.000796
# 3 -0.001395 -0.002982 0.013326 0.000787 0.001002 -0.000514
# 4 -0.002354 0.004495 0.000787 0.040650 0.003190 0.001295
# 5 0.000346 0.000922 0.001002 0.003190 0.030889 0.001114
# 6 -0.001332 0.000796 -0.000514 0.001295 0.001114 0.022996
#
#
# Mechanical properties :
#
#
# Convention : Reuss Voigt Hill
#
# Bulk Modulus (GPa) = 63.88750 73.64198 68.76474
# Shear Modulus (GPa) = 31.52972 34.68694 33.10833
#
# Velocity S-wave (km/s) = 3.91388 4.10516 4.01066
# Velocity P-wave (km/s) = 7.17383 7.63205 7.40648
#
# Compressibility (1/GPa) = 0.01565251
#
# Stress axis : x y z
#
# Youngs Moduli (GPa) = 97.18849 73.39350 75.04126
#
# Poissons Ratio (x) = 0.47101 0.10465
# Poissons Ratio (y) = 0.62372 0.22376
# Poissons Ratio (z) = 0.13554 0.21884
#
# Static dielectric constant tensor:
#      x y z
#    x 3.959610 -0.123120 0.504710 
#    y -0.123120 2.340190 2.555010 
#    z 0.504710 2.555010 0.004090 
# 
# 
# High freq. dielectric constant tensor:
#      x y z
#    x 1.803980 0.008340 -0.000400 
#    y 0.008340 1.798890 0.000700 
#    z -0.000400 0.000700 1.817200 
# 
# From -- ./inp_files/298267.got.cif
#   From: 2010.06.25/outbox.cif.g09.slc.cpg/sg2_150_cif.got.tgz:298267.got - 2010.06.27 13:26:56.
