data_PCOD8013401
_publ_section_title
;
Structure prediction by ZEFSAII (Michael W. Deem and Ramdas Pophale) SiO2 
 PCOD8013401
Probable space group: P -1
;
_chemical_formula_sum "Si O2"
_cell_formula_units_Z 16
_cell_length_a 14.476423
_cell_length_b 11.626997
_cell_length_c 8.081021
_cell_angle_alpha 141.953093
_cell_angle_beta 121.789971
_cell_angle_gamma 57.140720
_cell_volume 691.029897
_symmetry_space_group_name_H-M "P -1"
_symmetry_group_IT_number 2
_symmetry_cell_setting 'triclinic'
loop_
_space_group_symop_operation_xyz
x,y,z
-x,-y,-z
loop_
_atom_site_type_symbol
_atom_site_label
_atom_site_fract_x
_atom_site_fract_y
_atom_site_fract_z
Si Si1 0.097255 0.085378 0.511205
Si Si2 0.592494 0.249839 0.962384
Si Si3 0.175499 0.214991 0.077651
Si Si4 0.778397 0.880565 0.652068
Si Si5 0.093943 0.591040 0.275082
Si Si6 0.752560 0.290377 0.701572
Si Si7 0.640752 0.580216 0.202552
Si Si8 0.392714 0.936544 0.892431
O O1 0.161021 0.172280 0.525528
O O2 0.965312 0.188753 0.473982
O O3 0.136214 0.853135 0.271263
O O4 0.121235 0.137997 0.780982
O O5 0.629956 0.450240 0.204795
O O6 0.573551 0.213907 0.095959
O O7 0.476774 0.269180 0.777177
O O8 0.686589 0.080871 0.774704
O O9 0.139062 0.126649 0.117209
O O10 0.143348 0.448707 0.312397
O O11 0.309907 0.132632 0.100343
O O12 0.728554 0.703285 0.459518
O O13 0.200169 0.593105 0.262934
O O14 0.000000 0.500000 0.000000
O O15 0.669139 0.162980 0.416036
O O16 0.679965 0.440292 0.926865
O O17 0.500000 0.000000 0.000000
#
# Coordination Sequence:
#
# PCOD8013401 Si02
#       8
#     2   2   2   2   2   2   2   2
#     4  10  21  42  67  92 133 175 219 280 340 377
#     4  10  24  41  59  93 133 174 223 269 327 396
#     4   9  22  40  64  96 130 171 225 265 336 391
#     4  11  22  42  67  92 140 172 218 282 329 393
#     4  10  21  40  67  96 129 172 226 280 327 394
#     4  11  23  40  67  97 133 172 229 270 331 410
#     4  11  23  38  65  94 128 181 219 268 335 394
#     4  10  24  41  66  93 136 176 212 274 338 391
#
# _framework density 23.153846999999999
#
# number of rings (size 3 to 8) (size 9 to 14) (size 15 to 20)
#    0.000    1.750    1.250    2.250    7.000    5.000 
#    0.000    0.000    0.000    6.000    0.000    0.000 
#    0.000    0.000    0.000    0.000    0.000    0.000 
#
# Total GULP energy -198246.044983 kJ/mol
# GULP energy per Si atom -12390.377811 kJ/mol
# Density = 2.310115 g / cm^3
# Si number density = 23.153847 Si / 1000 Ang^3
#
#
#
# Elastic Constant Matrix: (Units=GPa)
#
#
# Indices 1 2 3 4 5 6 
#
# 1 69.3797 35.3451 12.8764 -0.8626 -7.4120 8.5574
# 2 35.3451 162.7607 22.9285 14.6466 -15.4364 3.8121
# 3 12.8764 22.9285 54.3361 -1.1692 -8.4193 2.2732
# 4 -0.8626 14.6466 -1.1692 21.8378 5.0346 -5.5972
# 5 -7.4120 -15.4364 -8.4193 5.0346 30.8441 3.7829
# 6 8.5574 3.8121 2.2732 -5.5972 3.7829 32.2966
#
#
#
# Elastic Compliance Matrix: (Units=1/GPa)
#
#
# Indices 1 2 3 4 5 6 
#
# 1 0.017221 -0.003230 -0.002175 0.001166 0.002239 -0.004089
# 2 -0.003230 0.008221 -0.002148 -0.007138 0.004123 -0.001683
# 3 -0.002175 -0.002148 0.020490 0.001344 0.003879 -0.000834
# 4 0.001166 -0.007138 0.001344 0.056901 -0.013673 0.011902
# 5 0.002239 0.004123 0.003879 -0.013673 0.039335 -0.008330
# 6 -0.004089 -0.001683 -0.000834 0.011902 -0.008330 0.035342
#
#
# Mechanical properties :
#
#
# Convention : Reuss Voigt Hill
#
# Bulk Modulus (GPa) = 32.43946 47.64183 40.04065
# Shear Modulus (GPa) = 24.64381 31.35080 27.99731
#
# Velocity S-wave (km/s) = 3.26598 3.68369 3.48111
# Velocity P-wave (km/s) = 5.31629 6.22203 5.78691
#
# Compressibility (1/GPa) = 0.03082666
#
# Stress axis : x y z
#
# Youngs Moduli (GPa) = 58.06999 121.64149 48.80321
#
# Poissons Ratio (x) = 0.39291 0.10614
# Poissons Ratio (y) = 0.18757 0.10482
# Poissons Ratio (z) = 0.12629 0.26126
#
# Static dielectric constant tensor:
#      x y z
#    x 4.222490 -0.182120 -0.253560 
#    y -0.182120 5.121770 0.275620 
#    z -0.253560 0.275620 4.032050 
# 
# 
# High freq. dielectric constant tensor:
#      x y z
#    x 1.912240 0.003160 -0.010330 
#    y 0.003160 1.942960 0.015580 
#    z -0.010330 0.015580 1.887990 
# 
# From -- ./inp_files/308840.got.cif
#   From: 2010.06.25/outbox.cif.g09.slc.cpg/sg2_155_cif.got.tgz:308840.got - 2010.06.27 13:26:56.
