data_PCOD8013721
_publ_section_title
;
Structure prediction by ZEFSAII (Michael W. Deem and Ramdas Pophale) SiO2 
 PCOD8013721
Probable space group: P -1
;
_chemical_formula_sum "Si O2"
_cell_formula_units_Z 16
_cell_length_a 13.195664
_cell_length_b 11.961010
_cell_length_c 16.075733
_cell_angle_alpha 120.946856
_cell_angle_beta 154.083228
_cell_angle_gamma 75.311659
_cell_volume 789.597889
_symmetry_space_group_name_H-M "P -1"
_symmetry_group_IT_number 2
_symmetry_cell_setting 'triclinic'
loop_
_space_group_symop_operation_xyz
x,y,z
-x,-y,-z
loop_
_atom_site_type_symbol
_atom_site_label
_atom_site_fract_x
_atom_site_fract_y
_atom_site_fract_z
Si Si1 0.925725 0.798331 0.322416
Si Si2 0.171030 0.391048 0.232749
Si Si3 0.607226 0.062547 0.413400
Si Si4 0.247147 0.154740 0.487314
Si Si5 0.990876 0.347985 0.910058
Si Si6 0.207025 0.978066 0.760203
Si Si7 0.992852 0.890354 0.883149
Si Si8 0.242453 0.501064 0.999174
O O1 0.785100 0.611542 0.139393
O O2 0.202242 0.891266 0.507784
O O3 0.009206 0.841038 0.496314
O O4 0.732668 0.857109 0.168191
O O5 0.500000 0.500000 0.500000
O O6 0.115807 0.279446 0.225810
O O7 0.023546 0.482845 0.183933
O O8 0.045377 0.290011 0.015026
O O9 0.700284 0.209187 0.600483
O O10 0.597826 0.929962 0.410608
O O11 0.309139 0.984832 0.121599
O O12 0.960932 0.077121 0.297939
O O13 0.196514 0.133976 0.343895
O O14 0.462018 0.338428 0.735510
O O15 0.234367 0.409734 0.043204
O O16 0.000000 0.500000 0.000000
O O17 0.500000 0.000000 0.000000
O O18 0.000000 0.000000 0.000000
#
# Coordination Sequence:
#
# PCOD8013721 Si02
#       8
#     2   2   2   2   2   2   2   2
#     4   9  21  41  68  89 119 161 199 251 317 370
#     4  11  23  38  56  88 125 170 209 249 296 356
#     4  10  21  41  58  88 121 162 201 251 304 363
#     4  11  23  41  62  89 123 160 199 257 309 361
#     4   9  20  36  59  76 119 166 200 244 298 352
#     4  10  21  43  68  93 119 152 205 254 312 376
#     4  12  26  35  60  91 124 165 213 248 297 358
#     4  10  21  41  61  88 128 160 203 256 306 362
#
# _framework density 20.263477999999999
#
# number of rings (size 3 to 8) (size 9 to 14) (size 15 to 20)
#    0.000    1.750    1.250    2.250    8.750    1.500 
#    9.000    0.625    0.000    0.000    0.000    0.000 
#    0.000    0.000    0.000    0.000    0.000    0.000 
#
# Total GULP energy -198266.164136 kJ/mol
# GULP energy per Si atom -12391.635259 kJ/mol
# Density = 2.021736 g / cm^3
# Si number density = 20.263478 Si / 1000 Ang^3
#
#
#
# Elastic Constant Matrix: (Units=GPa)
#
#
# Indices 1 2 3 4 5 6 
#
# 1 66.9975 25.5995 11.2836 -0.3516 -17.2567 -2.8045
# 2 25.5995 79.0230 33.6329 8.3547 -8.3501 -8.3058
# 3 11.2836 33.6329 86.3262 8.8866 2.6117 -8.4030
# 4 -0.3516 8.3547 8.8866 37.1877 -7.5143 -0.6988
# 5 -17.2567 -8.3501 2.6117 -7.5143 33.3430 -0.4096
# 6 -2.8045 -8.3058 -8.4030 -0.6988 -0.4096 36.5133
#
#
#
# Elastic Compliance Matrix: (Units=1/GPa)
#
#
# Indices 1 2 3 4 5 6 
#
# 1 0.019657 -0.005183 -0.001196 0.003618 0.009788 0.000235
# 2 -0.005183 0.017406 -0.005709 -0.002220 0.001651 0.002224
# 3 -0.001196 -0.005709 0.014565 -0.002948 -0.003831 0.001862
# 4 0.003618 -0.002220 -0.002948 0.029792 0.008259 -0.000243
# 5 0.009788 0.001651 -0.003831 0.008259 0.037642 0.000826
# 6 0.000235 0.002224 0.001862 -0.000243 0.000826 0.028344
#
#
# Mechanical properties :
#
#
# Convention : Reuss Voigt Hill
#
# Bulk Modulus (GPa) = 36.42516 41.48650 38.95583
# Shear Modulus (GPa) = 27.66499 32.19753 29.93126
#
# Velocity S-wave (km/s) = 3.69896 3.99048 3.84748
# Velocity P-wave (km/s) = 6.02145 6.46142 6.24531
#
# Compressibility (1/GPa) = 0.02745355
#
# Stress axis : x y z
#
# Youngs Moduli (GPa) = 50.87119 57.45100 68.65666
#
# Poissons Ratio (x) = 0.29775 0.08211
# Poissons Ratio (y) = 0.26365 0.39196
# Poissons Ratio (z) = 0.06084 0.32799
#
# Static dielectric constant tensor:
#      x y z
#    x 3.782680 0.140580 -0.272250 
#    y 0.140580 4.103480 -0.141810 
#    z -0.272250 -0.141810 3.740180 
# 
# 
# High freq. dielectric constant tensor:
#      x y z
#    x 1.793720 0.006890 -0.006220 
#    y 0.006890 1.791490 0.007890 
#    z -0.006220 0.007890 1.786320 
# 
# From -- ./inp_files/338150.got.cif
#   From: 2010.06.25/outbox.cif.g09.slc.cpg/sg2_170_cif.got.tgz:338150.got - 2010.06.27 13:26:56.
