data_PCOD8013070
_publ_section_title
;
Structure prediction by ZEFSAII (Michael W. Deem and Ramdas Pophale) SiO2 
 PCOD8013070
Probable space group: P -1
;
_chemical_formula_sum "Si O2"
_cell_formula_units_Z 14
_cell_length_a 8.797340
_cell_length_b 11.568761
_cell_length_c 9.318813
_cell_angle_alpha 57.170273
_cell_angle_beta 57.679750
_cell_angle_gamma 51.803997
_cell_volume 597.077463
_symmetry_space_group_name_H-M "P -1"
_symmetry_group_IT_number 2
_symmetry_cell_setting 'triclinic'
loop_
_space_group_symop_operation_xyz
x,y,z
-x,-y,-z
loop_
_atom_site_type_symbol
_atom_site_label
_atom_site_fract_x
_atom_site_fract_y
_atom_site_fract_z
Si Si1 0.285577 0.230000 0.404577
Si Si2 0.718742 0.982564 0.942865
Si Si3 0.821790 0.555570 0.939107
Si Si4 0.535744 0.628635 0.556946
Si Si5 0.458787 0.683265 0.239849
Si Si6 0.731597 0.010472 0.240212
Si Si7 0.858024 0.239662 0.157315
O O1 0.143206 0.354699 0.273833
O O2 0.328338 0.323397 0.445903
O O3 0.181747 0.131336 0.592433
O O4 0.490367 0.109010 0.307149
O O5 0.724614 0.144007 0.798984
O O6 0.905162 0.846672 0.850978
O O7 0.500000 0.000000 0.000000
O O8 0.774952 0.936170 0.111171
O O9 0.615826 0.670264 0.045545
O O10 0.807594 0.402103 0.994949
O O11 0.000000 0.500000 0.000000
O O12 0.563154 0.665761 0.354392
O O13 0.619845 0.443859 0.655699
O O14 0.296162 0.722423 0.656442
O O15 0.832286 0.123748 0.136276
#
# Coordination Sequence:
#
# PCOD8013070 Si02
#       7
#     2   2   2   2   2   2   2
#     4  10  21  41  70  90 133 175 220 264 331 388
#     4  12  23  39  66  97 134 173 215 272 335 390
#     4  11  23  43  66  98 129 175 222 272 324 393
#     4   9  21  42  64  97 126 174 221 272 326 387
#     4  10  21  40  65  91 133 171 219 271 325 387
#     4  10  22  42  64  99 130 172 221 270 326 390
#     4  10  24  41  66  94 132 167 226 266 324 395
#
# _framework density 23.447544000000001
#
# number of rings (size 3 to 8) (size 9 to 14) (size 15 to 20)
#    0.000    1.714    1.429    2.143    2.000    2.286 
#    7.714    1.429    0.000    0.000    0.000    0.000 
#    0.000    0.000    0.000    0.000    0.000    0.000 
#
# Total GULP energy -173570.575571 kJ/mol
# GULP energy per Si atom -12397.898255 kJ/mol
# Density = 2.339418 g / cm^3
# Si number density = 23.447544 Si / 1000 Ang^3
#
#
#
# Elastic Constant Matrix: (Units=GPa)
#
#
# Indices 1 2 3 4 5 6 
#
# 1 73.0017 25.4208 40.7854 -9.7526 5.1354 9.0704
# 2 25.4208 118.1260 46.3086 -20.1506 6.0904 4.3861
# 3 40.7854 46.3086 119.2398 -38.3120 20.5207 12.5238
# 4 -9.7526 -20.1506 -38.3120 37.6312 -2.4412 3.3631
# 5 5.1354 6.0904 20.5207 -2.4412 27.0268 2.1280
# 6 9.0704 4.3861 12.5238 3.3631 2.1280 32.3984
#
#
#
# Elastic Compliance Matrix: (Units=1/GPa)
#
#
# Indices 1 2 3 4 5 6 
#
# 1 0.017587 -0.001785 -0.006134 -0.002339 0.001678 -0.002178
# 2 -0.001785 0.010286 -0.002653 0.002373 0.000260 -0.000131
# 3 -0.006134 -0.002653 0.019421 0.016626 -0.010974 -0.006436
# 4 -0.002339 0.002373 0.016626 0.044565 -0.007885 -0.010201
# 5 0.001678 0.000260 -0.010974 -0.007885 0.044112 0.001658
# 6 -0.002178 -0.000131 -0.006436 -0.010201 0.001658 0.034931
#
#
# Mechanical properties :
#
#
# Convention : Reuss Voigt Hill
#
# Bulk Modulus (GPa) = 38.23924 59.48856 48.86390
# Shear Modulus (GPa) = 24.90505 32.60145 28.75325
#
# Velocity S-wave (km/s) = 3.26262 3.73285 3.50563
# Velocity P-wave (km/s) = 5.52600 6.63362 6.10498
#
# Compressibility (1/GPa) = 0.02615115
#
# Stress axis : x y z
#
# Youngs Moduli (GPa) = 56.86047 97.22122 51.48987
#
# Poissons Ratio (x) = 0.17351 0.31584
# Poissons Ratio (y) = 0.10148 0.13659
# Poissons Ratio (z) = 0.34878 0.25790
#
# Static dielectric constant tensor:
#      x y z
#    x 3.883730 0.172180 -0.157650 
#    y 0.172180 4.577260 -0.129190 
#    z -0.157650 -0.129190 4.294030 
# 
# 
# High freq. dielectric constant tensor:
#      x y z
#    x 1.900930 0.017590 -0.003550 
#    y 0.017590 1.944900 -0.008800 
#    z -0.003550 -0.008800 1.924520 
# 
# From -- ./inp_files/183976.got.cif
#   From: 2010.06.25/outbox.cif.g09.slc.cpg/sg2_92_cif.got.tgz:183976.got - 2010.06.27 13:26:56.
