data_PCOD8013584
_publ_section_title
;
Structure prediction by ZEFSAII (Michael W. Deem and Ramdas Pophale) SiO2 
 PCOD8013584
Probable space group: P -1
;
_chemical_formula_sum "Si O2"
_cell_formula_units_Z 16
_cell_length_a 12.422038
_cell_length_b 11.893054
_cell_length_c 25.148416
_cell_angle_alpha 39.517928
_cell_angle_beta 161.437279
_cell_angle_gamma 137.120727
_cell_volume 752.584189
_symmetry_space_group_name_H-M "P -1"
_symmetry_group_IT_number 2
_symmetry_cell_setting 'triclinic'
loop_
_space_group_symop_operation_xyz
x,y,z
-x,-y,-z
loop_
_atom_site_type_symbol
_atom_site_label
_atom_site_fract_x
_atom_site_fract_y
_atom_site_fract_z
Si Si1 0.024397 0.353337 0.983699
Si Si2 0.692978 0.679141 0.510907
Si Si3 0.888073 0.029421 0.658383
Si Si4 0.325347 0.895265 0.170064
Si Si5 0.999121 0.019687 0.394382
Si Si6 0.762705 0.327625 0.313063
Si Si7 0.148493 0.404110 0.655211
Si Si8 0.906650 0.293224 0.064239
O O1 0.910370 0.556256 0.868355
O O2 0.749293 0.245513 0.860582
O O3 0.366255 0.356939 0.108008
O O4 0.101895 0.262062 0.111022
O O5 0.500000 0.500000 0.500000
O O6 0.461806 0.789325 0.322675
O O7 0.791874 0.797900 0.565201
O O8 0.054181 0.635933 0.669981
O O9 0.988434 0.023634 0.646004
O O10 0.115592 0.887085 0.847743
O O11 0.500000 0.000000 0.500000
O O12 0.963243 0.220824 0.647119
O O13 0.610268 0.028321 0.230634
O O14 0.000000 0.000000 0.000000
O O15 0.184472 0.870351 0.569598
O O16 0.930106 0.467537 0.380075
O O17 0.000000 0.500000 0.500000
O O18 0.545415 0.366663 0.849632
#
# Coordination Sequence:
#
# PCOD8013584 Si02
#       8
#     2   2   2   2   2   2   2   2
#     4  10  21  40  69  94 128 168 215 262 329 383
#     4  11  26  43  65  94 127 166 218 274 316 377
#     4  12  26  39  67  99 136 170 214 270 324 386
#     4  11  23  43  70  91 123 172 216 263 322 386
#     4  11  23  43  67  92 132 170 219 258 323 390
#     4  10  21  43  67  92 127 172 214 264 314 401
#     4  11  23  42  66  95 131 174 214 259 332 390
#     4  10  24  40  64  99 135 165 216 269 317 392
#
# _framework density 21.260079000000001
#
# number of rings (size 3 to 8) (size 9 to 14) (size 15 to 20)
#    0.000    1.250    1.250    4.875    8.750    0.000 
#    4.500    1.250    0.000    0.000    0.000    0.000 
#    0.000    0.000    0.000    0.000    0.000    0.000 
#
# Total GULP energy -198380.997801 kJ/mol
# GULP energy per Si atom -12398.812363 kJ/mol
# Density = 2.121169 g / cm^3
# Si number density = 21.260079 Si / 1000 Ang^3
#
#
#
# Elastic Constant Matrix: (Units=GPa)
#
#
# Indices 1 2 3 4 5 6 
#
# 1 80.1904 28.0366 22.7792 1.4162 11.6610 6.4283
# 2 28.0366 166.5109 30.3441 15.9866 -5.4471 -3.5330
# 3 22.7792 30.3441 77.1699 2.3578 4.9995 1.2303
# 4 1.4162 15.9866 2.3578 32.1014 0.5874 -6.9637
# 5 11.6610 -5.4471 4.9995 0.5874 32.6720 4.1627
# 6 6.4283 -3.5330 1.2303 -6.9637 4.1627 42.6793
#
#
#
# Elastic Compliance Matrix: (Units=1/GPa)
#
#
# Indices 1 2 3 4 5 6 
#
# 1 0.015015 -0.002175 -0.003235 0.000359 -0.005004 -0.001802
# 2 -0.002175 0.007178 -0.002235 -0.003311 0.002347 0.000217
# 3 -0.003235 -0.002235 0.014883 0.000202 -0.001506 0.000053
# 4 0.000359 -0.003311 0.000202 0.033979 -0.002011 0.005406
# 5 -0.005004 0.002347 -0.001506 -0.002011 0.033381 -0.002593
# 6 -0.001802 0.000217 0.000053 0.005406 -0.002593 0.024853
#
#
# Mechanical properties :
#
#
# Convention : Reuss Voigt Hill
#
# Bulk Modulus (GPa) = 45.90046 54.02122 49.96084
# Shear Modulus (GPa) = 32.92887 37.67130 35.30008
#
# Velocity S-wave (km/s) = 3.93982 4.21399 4.07921
# Velocity P-wave (km/s) = 6.50639 7.01012 6.76295
#
# Compressibility (1/GPa) = 0.02178628
#
# Stress axis : x y z
#
# Youngs Moduli (GPa) = 66.59791 139.30759 67.19206
#
# Poissons Ratio (x) = 0.30301 0.21737
# Poissons Ratio (y) = 0.14486 0.15017
# Poissons Ratio (z) = 0.21545 0.31134
#
# Static dielectric constant tensor:
#      x y z
#    x 4.000890 -0.228920 0.039740 
#    y -0.228920 4.375170 0.209930 
#    z 0.039740 0.209930 3.814010 
# 
# 
# High freq. dielectric constant tensor:
#      x y z
#    x 1.837140 -0.011620 0.010530 
#    y -0.011620 1.847180 0.013620 
#    z 0.010530 0.013620 1.827000 
# 
# From -- ./inp_files/333053.got.cif
#   From: 2010.06.25/outbox.cif.g09.slc.cpg/sg2_167_cif.got.tgz:333053.got - 2010.06.27 13:26:56.
