data_PCOD8013974
_publ_section_title
;
Structure prediction by ZEFSAII (Michael W. Deem and Ramdas Pophale) SiO2 
 PCOD8013974
Probable space group: P -1
;
_chemical_formula_sum "Si O2"
_cell_formula_units_Z 14
_cell_length_a 13.776181
_cell_length_b 26.522972
_cell_length_c 21.563082
_cell_angle_alpha 11.544022
_cell_angle_beta 21.995100
_cell_angle_gamma 23.729332
_cell_volume 587.944914
_symmetry_space_group_name_H-M "P -1"
_symmetry_group_IT_number 2
_symmetry_cell_setting 'triclinic'
loop_
_space_group_symop_operation_xyz
x,y,z
-x,-y,-z
loop_
_atom_site_type_symbol
_atom_site_label
_atom_site_fract_x
_atom_site_fract_y
_atom_site_fract_z
Si Si1 0.657250 0.325628 0.226600
Si Si2 0.350811 0.453624 0.907770
Si Si3 0.826882 0.011047 0.675485
Si Si4 0.255354 0.976806 0.834594
Si Si5 0.877513 0.196231 0.543642
Si Si6 0.508393 0.371752 0.715098
Si Si7 0.949962 0.771082 0.461991
O O1 0.534883 0.443507 0.220169
O O2 0.428298 0.204943 0.472668
O O3 0.773763 0.543638 0.853881
O O4 0.892306 0.116135 0.358959
O O5 0.201728 0.685766 0.679174
O O6 0.152557 0.249832 0.287197
O O7 0.585718 0.298669 0.916735
O O8 0.788968 0.972050 0.820789
O O9 0.610615 0.896875 0.899002
O O10 0.201994 0.005974 0.756749
O O11 0.000000 0.000000 0.000000
O O12 0.670960 0.442334 0.358625
O O13 0.928376 0.119912 0.677765
O O14 0.500000 0.500000 0.500000
O O15 0.811414 0.326291 0.608722
#
# Coordination Sequence:
#
# PCOD8013974 Si02
#       7
#     2   2   2   2   2   2   2
#     4  11  24  47  73 101 135 184 229 283 348 393
#     4  11  25  42  69 105 138 181 227 281 348 408
#     4  12  22  39  73 107 136 172 223 286 350 403
#     4  12  29  48  70  97 140 187 233 280 338 411
#     4  10  22  40  70 104 135 179 225 281 350 396
#     4  10  21  41  64 102 139 168 226 281 338 392
#     4  10  24  48  68 100 144 179 228 283 330 417
#
# _framework density 23.811751999999998
#
# number of rings (size 3 to 8) (size 9 to 14) (size 15 to 20)
#    0.000    1.143    5.714    1.286    4.000    5.143 
#    2.571    0.000    0.000    0.000    0.000    0.000 
#    0.000    0.000    0.000    0.000    0.000    0.000 
#
# Total GULP energy -173471.899382 kJ/mol
# GULP energy per Si atom -12390.849956 kJ/mol
# Density = 2.375756 g / cm^3
# Si number density = 23.811752 Si / 1000 Ang^3
#
#
#
# Elastic Constant Matrix: (Units=GPa)
#
#
# Indices 1 2 3 4 5 6 
#
# 1 55.7981 7.6339 5.0296 2.6363 -6.0675 8.5763
# 2 7.6339 126.9797 23.7296 3.4151 0.7906 18.3366
# 3 5.0296 23.7296 51.6959 0.4725 3.1921 1.8189
# 4 2.6363 3.4151 0.4725 34.2285 -5.7239 -1.9144
# 5 -6.0675 0.7906 3.1921 -5.7239 35.6765 -12.0196
# 6 8.5763 18.3366 1.8189 -1.9144 -12.0196 35.6251
#
#
#
# Elastic Compliance Matrix: (Units=1/GPa)
#
#
# Indices 1 2 3 4 5 6 
#
# 1 0.018958 -0.000253 -0.001701 -0.001305 0.001901 -0.003776
# 2 -0.000253 0.009460 -0.003997 -0.001491 -0.001932 -0.005336
# 3 -0.001701 -0.003997 0.021434 -0.000039 -0.001876 0.000737
# 4 -0.001305 -0.001491 -0.000039 0.030811 0.006409 0.004901
# 5 0.001901 -0.001932 -0.001876 0.006409 0.033758 0.012367
# 6 -0.003776 -0.005336 0.000737 0.004901 0.012367 0.036124
#
#
# Mechanical properties :
#
#
# Convention : Reuss Voigt Hill
#
# Bulk Modulus (GPa) = 26.35025 34.13999 30.24512
# Shear Modulus (GPa) = 28.55533 34.31140 31.43336
#
# Velocity S-wave (km/s) = 3.46672 3.80009 3.63723
# Velocity P-wave (km/s) = 5.20714 5.79852 5.51077
#
# Compressibility (1/GPa) = 0.03795030
#
# Stress axis : x y z
#
# Youngs Moduli (GPa) = 52.74717 105.70644 46.65400
#
# Poissons Ratio (x) = 0.02679 0.07935
# Poissons Ratio (y) = 0.01337 0.18648
# Poissons Ratio (z) = 0.08971 0.42252
#
# Static dielectric constant tensor:
#      x y z
#    x 4.181930 0.688130 0.034110 
#    y 0.688130 4.158750 -0.520570 
#    z 0.034110 -0.520570 4.123000 
# 
# 
# High freq. dielectric constant tensor:
#      x y z
#    x 1.949920 0.010140 -0.003550 
#    y 0.010140 1.947290 0.003970 
#    z -0.003550 0.003970 1.920410 
# 
# From -- ./inp_files/612468.got.cif
#   From: 2010.06.25/outbox.cif.g09.slc.cpg/sg2_307_cif.got.tgz:612468.got - 2010.06.27 13:26:56.
