data_PCOD8013819
_publ_section_title
;
Structure prediction by ZEFSAII (Michael W. Deem and Ramdas Pophale) SiO2 
 PCOD8013819
Probable space group: P -1
;
_chemical_formula_sum "Si O2"
_cell_formula_units_Z 16
_cell_length_a 14.374925
_cell_length_b 14.147927
_cell_length_c 15.355177
_cell_angle_alpha 42.283464
_cell_angle_beta 151.514464
_cell_angle_gamma 148.663849
_cell_volume 773.830941
_symmetry_space_group_name_H-M "P -1"
_symmetry_group_IT_number 2
_symmetry_cell_setting 'triclinic'
loop_
_space_group_symop_operation_xyz
x,y,z
-x,-y,-z
loop_
_atom_site_type_symbol
_atom_site_label
_atom_site_fract_x
_atom_site_fract_y
_atom_site_fract_z
Si Si1 0.027809 0.629040 0.620807
Si Si2 0.421553 0.834838 0.654733
Si Si3 0.432416 0.837402 0.943947
Si Si4 0.345745 0.349988 0.050167
Si Si5 0.181955 0.760757 0.327679
Si Si6 0.682747 0.507938 0.714337
Si Si7 0.562772 0.593437 0.228694
Si Si8 0.752656 0.226544 0.975410
O O1 0.263991 0.726553 0.684206
O O2 0.150503 0.718901 0.753817
O O3 0.872012 0.412190 0.646316
O O4 0.851270 0.676938 0.416717
O O5 0.617754 0.799571 0.824290
O O6 0.224127 0.751737 0.470225
O O7 0.574164 0.051419 0.642177
O O8 0.614877 0.049319 0.920312
O O9 0.562966 0.750726 0.082991
O O10 0.410670 0.831686 0.032894
O O11 0.421565 0.430397 0.154963
O O12 0.500000 0.500000 0.000000
O O13 0.052025 0.242746 0.869934
O O14 0.500000 0.500000 0.500000
O O15 0.567152 0.472285 0.739264
O O16 0.733284 0.370985 0.816349
O O17 0.964812 0.701167 0.821451
#
# Coordination Sequence:
#
# PCOD8013819 Si02
#       8
#     2   2   2   2   2   2   2   2
#     4  12  22  41  62  90 128 168 202 259 312 366
#     4  11  24  41  61  91 123 168 212 253 312 366
#     4  10  21  41  62  90 120 160 204 252 310 366
#     4  12  21  40  66  87 122 169 207 257 312 363
#     4  11  23  40  62  86 125 164 210 259 305 366
#     4  10  21  41  63  92 125 161 198 254 313 365
#     4  11  23  37  63  91 121 159 208 252 306 371
#     4   9  21  41  65  88 123 159 202 251 308 377
#
# _framework density 20.676351
#
# number of rings (size 3 to 8) (size 9 to 14) (size 15 to 20)
#    0.000    1.250    3.750    2.250    0.000    2.000 
#    6.750    5.000    0.000    0.000    0.000    0.000 
#    0.000    0.000    0.000    0.000    0.000    0.000 
#
# Total GULP energy -198392.264605 kJ/mol
# GULP energy per Si atom -12399.516538 kJ/mol
# Density = 2.062929 g / cm^3
# Si number density = 20.676351 Si / 1000 Ang^3
#
#
#
# Elastic Constant Matrix: (Units=GPa)
#
#
# Indices 1 2 3 4 5 6 
#
# 1 53.3016 13.9928 11.6983 -1.2201 4.0299 -0.1505
# 2 13.9928 127.5284 31.3999 10.0478 -1.3094 -11.8735
# 3 11.6983 31.3999 145.4085 13.7172 15.2282 -6.8055
# 4 -1.2201 10.0478 13.7172 29.3154 3.6963 -2.2024
# 5 4.0299 -1.3094 15.2282 3.6963 34.5283 2.9431
# 6 -0.1505 -11.8735 -6.8055 -2.2024 2.9431 14.9477
#
#
#
# Elastic Compliance Matrix: (Units=1/GPa)
#
#
# Indices 1 2 3 4 5 6 
#
# 1 0.019801 -0.002208 -0.001186 0.002286 -0.002000 -0.001364
# 2 -0.002208 0.009186 -0.001407 -0.002242 0.000945 0.006117
# 3 -0.001186 -0.001407 0.008016 -0.002679 -0.003402 0.002795
# 4 0.002286 -0.002242 -0.002679 0.036890 -0.003386 0.003125
# 5 -0.002000 0.000945 -0.003402 -0.003386 0.031739 -0.007566
# 6 -0.001364 0.006117 0.002795 0.003125 -0.007566 0.074968
#
#
# Mechanical properties :
#
#
# Convention : Reuss Voigt Hill
#
# Bulk Modulus (GPa) = 36.49629 48.93560 42.71594
# Shear Modulus (GPa) = 25.08317 33.70147 29.39232
#
# Velocity S-wave (km/s) = 3.48679 4.04165 3.77443
# Velocity P-wave (km/s) = 5.82235 6.74527 6.30073
#
# Compressibility (1/GPa) = 0.02740005
#
# Stress axis : x y z
#
# Youngs Moduli (GPa) = 50.50284 108.86078 124.74580
#
# Poissons Ratio (x) = 0.24038 0.14797
# Poissons Ratio (y) = 0.11152 0.17555
# Poissons Ratio (z) = 0.05991 0.15319
#
# Static dielectric constant tensor:
#      x y z
#    x 3.676030 -0.217000 0.086080 
#    y -0.217000 3.990040 -0.083320 
#    z 0.086080 -0.083320 3.937970 
# 
# 
# High freq. dielectric constant tensor:
#      x y z
#    x 1.798670 -0.007890 0.003090 
#    y -0.007890 1.810610 0.003110 
#    z 0.003090 0.003110 1.823320 
# 
# From -- ./inp_files/317747.got.cif
#   From: 2010.06.25/outbox.cif.g09.slc.cpg/sg2_159_cif.got.tgz:317747.got - 2010.06.27 13:26:56.
