data_PCOD8013443
_publ_section_title
;
Structure prediction by ZEFSAII (Michael W. Deem and Ramdas Pophale) SiO2 
 PCOD8013443
Probable space group: P -1
;
_chemical_formula_sum "Si O2"
_cell_formula_units_Z 16
_cell_length_a 9.160398
_cell_length_b 12.881597
_cell_length_c 8.345950
_cell_angle_alpha 60.885470
_cell_angle_beta 106.263838
_cell_angle_gamma 121.456732
_cell_volume 733.492775
_symmetry_space_group_name_H-M "P -1"
_symmetry_group_IT_number 2
_symmetry_cell_setting 'triclinic'
loop_
_space_group_symop_operation_xyz
x,y,z
-x,-y,-z
loop_
_atom_site_type_symbol
_atom_site_label
_atom_site_fract_x
_atom_site_fract_y
_atom_site_fract_z
Si Si1 0.805754 0.462352 0.972061
Si Si2 0.460289 0.214656 0.488498
Si Si3 0.259842 0.771943 0.650903
Si Si4 0.336027 0.358959 0.093211
Si Si5 0.957495 0.862400 0.004396
Si Si6 0.137954 0.962588 0.653281
Si Si7 0.751493 0.427358 0.624427
Si Si8 0.993037 0.337412 0.626263
O O1 0.807034 0.593912 0.949667
O O2 0.715791 0.443078 0.786191
O O3 0.705155 0.323411 0.142244
O O4 0.000000 0.500000 0.000000
O O5 0.561994 0.157185 0.448420
O O6 0.377671 0.291673 0.305894
O O7 0.311970 0.097544 0.630804
O O8 0.581249 0.310962 0.588693
O O9 0.110316 0.679754 0.555883
O O10 0.195984 0.871159 0.633851
O O11 0.244105 0.241701 0.016971
O O12 0.500000 0.500000 0.000000
O O13 0.065146 0.891115 0.852473
O O14 0.028467 0.800276 0.207409
O O15 0.000000 0.000000 0.000000
O O16 0.000000 0.000000 0.500000
O O17 0.808313 0.562430 0.433200
O O18 0.916080 0.398917 0.688847
#
# Coordination Sequence:
#
# PCOD8013443 Si02
#       8
#     2   2   2   2   2   2   2   2
#     4  12  23  40  72 105 137 182 234 289 350 420
#     4  11  25  45  68 101 146 186 232 291 354 414
#     4  11  23  44  72 101 140 184 234 287 351 425
#     4  12  25  45  71 103 142 182 231 291 356 419
#     4  12  27  45  71 100 142 187 238 288 355 424
#     4  12  25  46  71  99 138 189 244 281 349 430
#     4  10  22  40  67 106 138 174 230 292 345 415
#     4  10  21  40  68 100 138 176 227 286 351 411
#
# _framework density 21.813438000000001
#
# number of rings (size 3 to 8) (size 9 to 14) (size 15 to 20)
#    0.000    0.750    3.750    4.125    1.750    2.500 
#    0.000    3.125    0.000    0.000    0.000    0.000 
#    0.000    0.000    0.000    0.000    0.000    0.000 
#
# Total GULP energy -198277.696894 kJ/mol
# GULP energy per Si atom -12392.356056 kJ/mol
# Density = 2.176379 g / cm^3
# Si number density = 21.813438 Si / 1000 Ang^3
#
#
#
# Elastic Constant Matrix: (Units=GPa)
#
#
# Indices 1 2 3 4 5 6 
#
# 1 89.2714 50.7516 26.0239 -4.8846 2.2803 7.5247
# 2 50.7516 142.0334 47.2570 -7.8673 -2.5507 10.0329
# 3 26.0239 47.2570 113.9535 -13.4095 0.1525 -1.0981
# 4 -4.8846 -7.8673 -13.4095 34.6047 0.3650 1.3260
# 5 2.2803 -2.5507 0.1525 0.3650 31.3820 -13.0796
# 6 7.5247 10.0329 -1.0981 1.3260 -13.0796 44.2470
#
#
#
# Elastic Compliance Matrix: (Units=1/GPa)
#
#
# Indices 1 2 3 4 5 6 
#
# 1 0.014473 -0.004577 -0.001356 0.000584 -0.002325 -0.002162
# 2 -0.004577 0.009799 -0.002977 0.000475 0.000570 -0.001363
# 3 -0.001356 -0.002977 0.010711 0.003236 0.000245 0.001147
# 4 0.000584 0.000475 0.003236 0.030402 -0.000919 -0.001309
# 5 -0.002325 0.000570 0.000245 -0.000919 0.036742 0.011161
# 6 -0.002162 -0.001363 0.001147 -0.001309 0.011161 0.026644
#
#
# Mechanical properties :
#
#
# Convention : Reuss Voigt Hill
#
# Bulk Modulus (GPa) = 58.26195 65.92484 62.09339
# Shear Modulus (GPa) = 32.82752 36.79512 34.81132
#
# Velocity S-wave (km/s) = 3.88354 4.11153 3.99916
# Velocity P-wave (km/s) = 6.84663 7.26824 7.06059
#
# Compressibility (1/GPa) = 0.01716386
#
# Stress axis : x y z
#
# Youngs Moduli (GPa) = 69.09564 102.04913 93.36096
#
# Poissons Ratio (x) = 0.46707 0.12661
# Poissons Ratio (y) = 0.31624 0.27790
# Poissons Ratio (z) = 0.09370 0.30376
#
# Static dielectric constant tensor:
#      x y z
#    x 4.140190 0.022990 -0.209860 
#    y 0.022990 3.585190 0.383080 
#    z -0.209860 0.383080 4.009950 
# 
# 
# High freq. dielectric constant tensor:
#      x y z
#    x 1.854300 0.003350 -0.001320 
#    y 0.003350 1.866800 -0.007590 
#    z -0.001320 -0.007590 1.864830 
# 
# From -- ./inp_files/185262.got.cif
#   From: 2010.06.25/outbox.cif.g09.slc.cpg/sg2_93_cif.got.tgz:185262.got - 2010.06.27 13:26:56.
