data_PCOD8013267
_publ_section_title
;
Structure prediction by ZEFSAII (Michael W. Deem and Ramdas Pophale) SiO2 
 PCOD8013267
Probable space group: P -1
;
_chemical_formula_sum "Si O2"
_cell_formula_units_Z 14
_cell_length_a 14.585552
_cell_length_b 14.597989
_cell_length_c 5.777849
_cell_angle_alpha 78.075392
_cell_angle_beta 86.406417
_cell_angle_gamma 149.017662
_cell_volume 544.867746
_symmetry_space_group_name_H-M "P -1"
_symmetry_group_IT_number 2
_symmetry_cell_setting 'triclinic'
loop_
_space_group_symop_operation_xyz
x,y,z
-x,-y,-z
loop_
_atom_site_type_symbol
_atom_site_label
_atom_site_fract_x
_atom_site_fract_y
_atom_site_fract_z
Si Si1 0.596639 0.826988 0.574035
Si Si2 0.626812 0.487170 0.601372
Si Si3 0.576780 0.999897 0.292639
Si Si4 0.807389 0.532735 0.904925
Si Si5 0.810613 0.350843 0.766550
Si Si6 0.923472 0.808020 0.022060
Si Si7 0.254602 0.177787 0.098685
O O1 0.523645 0.714028 0.411984
O O2 0.757171 0.902870 0.635263
O O3 0.686292 0.010142 0.392716
O O4 0.419998 0.687104 0.855752
O O5 0.802066 0.583646 0.638334
O O6 0.747647 0.666119 0.318353
O O7 0.488697 0.411240 0.861373
O O8 0.500000 0.000000 0.500000
O O9 0.381100 0.788793 0.283754
O O10 0.745769 0.200338 0.998821
O O11 0.888318 0.501958 0.854915
O O12 0.933459 0.710792 0.974650
O O13 0.000000 0.500000 0.500000
O O14 0.858429 0.825839 0.826615
O O15 0.141712 0.026407 0.978688
#
# Coordination Sequence:
#
# PCOD8013267 Si02
#       7
#     2   2   2   2   2   2   2
#     4  10  21  42  70 100 136 181 227 282 343 415
#     4  10  21  40  66  94 139 176 220 280 347 397
#     4  11  23  47  74  97 139 184 226 290 353 412
#     4  10  21  43  68  98 142 175 229 288 341 407
#     4  11  25  46  71 107 135 180 236 288 348 420
#     4  10  23  43  66  99 137 181 228 283 335 412
#     4  10  23  42  67 101 135 178 236 274 339 412
#
# _framework density 25.694310000000002
#
# number of rings (size 3 to 8) (size 9 to 14) (size 15 to 20)
#    0.000    1.714    2.857    0.429    0.000    8.000 
#    7.714    4.286    0.000    0.000    0.000    0.000 
#    0.000    0.000    0.000    0.000    0.000    0.000 
#
# Total GULP energy -173536.124069 kJ/mol
# GULP energy per Si atom -12395.437434 kJ/mol
# Density = 2.563583 g / cm^3
# Si number density = 25.694310 Si / 1000 Ang^3
#
#
#
# Elastic Constant Matrix: (Units=GPa)
#
#
# Indices 1 2 3 4 5 6 
#
# 1 87.8695 7.0333 44.4924 -24.2658 10.8782 -6.1125
# 2 7.0333 64.7162 14.5795 -13.5207 -6.6335 -13.9001
# 3 44.4924 14.5795 97.9310 -12.2634 9.1022 0.6770
# 4 -24.2658 -13.5207 -12.2634 31.2840 0.0026 4.0942
# 5 10.8782 -6.6335 9.1022 0.0026 49.0668 8.0140
# 6 -6.1125 -13.9001 0.6770 4.0942 8.0140 31.5449
#
#
#
# Elastic Compliance Matrix: (Units=1/GPa)
#
#
# Indices 1 2 3 4 5 6 
#
# 1 0.018940 0.002754 -0.007181 0.012514 -0.003185 0.004223
# 2 0.002754 0.019416 -0.003292 0.008223 0.001359 0.007747
# 3 -0.007181 -0.003292 0.013928 -0.001175 -0.000990 -0.002737
# 4 0.012514 0.008223 -0.001175 0.044678 -0.001557 0.000670
# 5 -0.003185 0.001359 -0.000990 -0.001557 0.022348 -0.005472
# 6 0.004223 0.007747 -0.002737 0.000670 -0.005472 0.037295
#
#
# Mechanical properties :
#
#
# Convention : Reuss Voigt Hill
#
# Bulk Modulus (GPa) = 27.13996 42.52524 34.83260
# Shear Modulus (GPa) = 27.12626 34.67324 30.89975
#
# Velocity S-wave (km/s) = 3.25273 3.67747 3.47160
# Velocity P-wave (km/s) = 4.96916 5.88372 5.44567
#
# Compressibility (1/GPa) = 0.03684604
#
# Stress axis : x y z
#
# Youngs Moduli (GPa) = 52.79810 51.50471 71.79954
#
# Poissons Ratio (x) = -0.14186 0.51560
# Poissons Ratio (y) = -0.14543 0.23637
# Poissons Ratio (z) = 0.37915 0.16956
#
# Static dielectric constant tensor:
#      x y z
#    x 4.605940 -0.075450 0.346030 
#    y -0.075450 4.470460 0.010210 
#    z 0.346030 0.010210 4.711930 
# 
# 
# High freq. dielectric constant tensor:
#      x y z
#    x 2.019180 -0.005730 0.007980 
#    y -0.005730 2.020130 -0.000080 
#    z 0.007980 -0.000080 2.034200 
# 
# From -- ./inp_files/97957.got.cif
#   From: 2010.06.25/outbox.cif.g09.slc.cpg/sg2_49_cif.got.tgz:97957.got - 2010.06.27 13:26:56.
