data_PCOD8013902
_publ_section_title
;
Structure prediction by ZEFSAII (Michael W. Deem and Ramdas Pophale) SiO2 
 PCOD8013902
Probable space group: P -1
;
_chemical_formula_sum "Si O2"
_cell_formula_units_Z 16
_cell_length_a 12.175459
_cell_length_b 11.821232
_cell_length_c 11.761433
_cell_angle_alpha 68.601108
_cell_angle_beta 46.735071
_cell_angle_gamma 105.931011
_cell_volume 727.175894
_symmetry_space_group_name_H-M "P -1"
_symmetry_group_IT_number 2
_symmetry_cell_setting 'triclinic'
loop_
_space_group_symop_operation_xyz
x,y,z
-x,-y,-z
loop_
_atom_site_type_symbol
_atom_site_label
_atom_site_fract_x
_atom_site_fract_y
_atom_site_fract_z
Si Si1 0.200810 0.530449 0.724896
Si Si2 0.071064 0.715209 0.689758
Si Si3 0.411437 0.264164 0.459741
Si Si4 0.498540 0.579621 0.319378
Si Si5 0.249763 0.797496 0.295281
Si Si6 0.974365 0.165248 0.112602
Si Si7 0.575773 0.431621 0.046385
Si Si8 0.248131 0.530699 0.314797
O O1 0.061709 0.567355 0.785279
O O2 0.332216 0.627438 0.719086
O O3 0.395754 0.621943 0.455863
O O4 0.018173 0.302621 0.942148
O O5 0.242148 0.837894 0.415509
O O6 0.159333 0.856559 0.676520
O O7 0.810648 0.605220 0.888237
O O8 0.387816 0.378084 0.502925
O O9 0.392873 0.268682 0.332707
O O10 0.205938 0.047310 0.730500
O O11 0.421945 0.549274 0.253087
O O12 0.783078 0.754166 0.058696
O O13 0.231275 0.641048 0.360562
O O14 0.014623 0.696463 0.429775
O O15 0.500000 0.000000 0.000000
O O16 0.640657 0.371463 0.925316
O O17 0.500000 0.500000 0.000000
#
# Coordination Sequence:
#
# PCOD8013902 Si02
#       8
#     2   2   2   2   2   2   2   2
#     4  11  24  45  67  93 134 172 216 276 328 381
#     4  11  22  44  68  95 134 173 210 274 330 384
#     4  11  24  41  66 100 127 172 225 266 325 389
#     4  11  22  45  67  91 134 173 216 268 326 389
#     4  10  23  40  61  96 131 163 219 267 323 387
#     4  11  24  41  66  97 130 171 222 265 326 387
#     4  11  21  42  68  92 133 170 210 265 327 393
#     4  10  21  41  63  90 126 175 207 261 331 380
#
# _framework density 22.002928000000001
#
# number of rings (size 3 to 8) (size 9 to 14) (size 15 to 20)
#    0.000    1.250    5.000    1.875    1.750    3.500 
#    2.250    1.250    0.000    0.000    0.000    0.000 
#    0.000    0.000    0.000    0.000    0.000    0.000 
#
# Total GULP energy -198268.500149 kJ/mol
# GULP energy per Si atom -12391.781259 kJ/mol
# Density = 2.195285 g / cm^3
# Si number density = 22.002928 Si / 1000 Ang^3
#
#
#
# Elastic Constant Matrix: (Units=GPa)
#
#
# Indices 1 2 3 4 5 6 
#
# 1 109.2312 5.2180 25.9972 -10.1255 -0.7368 -11.1778
# 2 5.2180 74.1384 27.2931 1.5639 -11.1890 -2.1678
# 3 25.9972 27.2931 96.6869 -9.8930 -0.9395 -1.6433
# 4 -10.1255 1.5639 -9.8930 42.4291 3.6399 3.0184
# 5 -0.7368 -11.1890 -0.9395 3.6399 21.3563 9.1861
# 6 -11.1778 -2.1678 -1.6433 3.0184 9.1861 25.4838
#
#
#
# Elastic Compliance Matrix: (Units=1/GPa)
#
#
# Indices 1 2 3 4 5 6 
#
# 1 0.010420 -0.000015 -0.002558 0.001725 -0.002203 0.004994
# 2 -0.000015 0.016793 -0.004930 -0.002469 0.009942 -0.002187
# 3 -0.002558 -0.004930 0.012677 0.002753 -0.002522 -0.000141
# 4 0.001725 -0.002469 0.002753 0.025190 -0.005248 -0.000368
# 5 -0.002203 0.009942 -0.002522 -0.005248 0.062247 -0.022099
# 6 0.004994 -0.002187 -0.000141 -0.000368 -0.022099 0.049246
#
#
# Mechanical properties :
#
#
# Convention : Reuss Voigt Hill
#
# Bulk Modulus (GPa) = 40.18325 44.11923 42.15124
# Shear Modulus (GPa) = 25.01611 32.62374 28.81992
#
# Velocity S-wave (km/s) = 3.37552 3.85476 3.62307
# Velocity P-wave (km/s) = 5.78744 6.31722 6.05813
#
# Compressibility (1/GPa) = 0.02488599
#
# Stress axis : x y z
#
# Youngs Moduli (GPa) = 95.96534 59.54961 78.88439
#
# Poissons Ratio (x) = 0.00087 0.20177
# Poissons Ratio (y) = 0.00140 0.38887
# Poissons Ratio (z) = 0.24546 0.29356
#
# Static dielectric constant tensor:
#      x y z
#    x 4.194120 0.100780 0.076790 
#    y 0.100780 4.016990 0.347940 
#    z 0.076790 0.347940 3.773460 
# 
# 
# High freq. dielectric constant tensor:
#      x y z
#    x 1.869030 0.001470 0.002100 
#    y 0.001470 1.867340 0.033640 
#    z 0.002100 0.033640 1.845510 
# 
# From -- ./inp_files/427748.got.cif
#   From: 2010.06.25/outbox.cif.g09.slc.cpg/sg2_214_cif.got.tgz:427748.got - 2010.06.27 13:26:56.
