data_PCOD8013354
_publ_section_title
;
Structure prediction by ZEFSAII (Michael W. Deem and Ramdas Pophale) SiO2 
 PCOD8013354
Probable space group: P -1
;
_chemical_formula_sum "Si O2"
_cell_formula_units_Z 14
_cell_length_a 9.013174
_cell_length_b 17.224047
_cell_length_c 5.204394
_cell_angle_alpha 100.719244
_cell_angle_beta 125.060490
_cell_angle_gamma 102.343207
_cell_volume 595.938338
_symmetry_space_group_name_H-M "P -1"
_symmetry_group_IT_number 2
_symmetry_cell_setting 'triclinic'
loop_
_space_group_symop_operation_xyz
x,y,z
-x,-y,-z
loop_
_atom_site_type_symbol
_atom_site_label
_atom_site_fract_x
_atom_site_fract_y
_atom_site_fract_z
Si Si1 0.089860 0.219321 0.577366
Si Si2 0.550384 0.316990 0.533961
Si Si3 0.490992 0.091296 0.523544
Si Si4 0.386079 0.401323 0.066339
Si Si5 0.774620 0.468095 0.166038
Si Si6 0.801065 0.843060 0.827181
Si Si7 0.331580 0.803166 0.728843
O O1 0.047425 0.158342 0.244041
O O2 0.897331 0.235321 0.456099
O O3 0.260800 0.312297 0.737684
O O4 0.137498 0.168944 0.831366
O O5 0.420150 0.372377 0.367965
O O6 0.410890 0.234443 0.506163
O O7 0.619375 0.281019 0.324376
O O8 0.737708 0.380159 0.920544
O O9 0.262006 0.075672 0.211500
O O10 0.636474 0.142592 0.469913
O O11 0.500000 0.000000 0.500000
O O12 0.542233 0.138704 0.878861
O O13 0.608951 0.450000 0.209939
O O14 0.258537 0.459363 0.997420
O O15 0.000000 0.500000 0.500000
#
# Coordination Sequence:
#
# PCOD8013354 Si02
#       7
#     2   2   2   2   2   2   2
#     4  11  22  42  65  97 132 172 229 276 326 395
#     4  10  22  42  63  89 130 178 227 272 334 399
#     4  11  23  45  69 102 136 173 216 273 339 408
#     4  10  23  41  61  91 132 177 221 288 341 385
#     4  11  24  40  63  93 132 175 232 280 347 393
#     4  10  21  40  67  91 129 179 210 274 338 392
#     4  11  25  40  72 100 130 177 231 267 330 414
#
# _framework density 23.492363000000001
#
# number of rings (size 3 to 8) (size 9 to 14) (size 15 to 20)
#    0.000    1.429    1.429    4.286    4.000    1.714 
#    2.571    4.286    0.000    0.000    0.000    0.000 
#    0.000    0.000    0.000    0.000    0.000    0.000 
#
# Total GULP energy -173460.715676 kJ/mol
# GULP energy per Si atom -12390.051120 kJ/mol
# Density = 2.343889 g / cm^3
# Si number density = 23.492363 Si / 1000 Ang^3
#
#
#
# Elastic Constant Matrix: (Units=GPa)
#
#
# Indices 1 2 3 4 5 6 
#
# 1 105.2076 13.8037 24.7459 -7.6645 -1.4856 -12.7375
# 2 13.8037 89.1073 31.8044 -24.3048 -3.5433 -21.8057
# 3 24.7459 31.8044 85.5230 -5.1009 -5.8180 -11.6626
# 4 -7.6645 -24.3048 -5.1009 28.7153 -5.9820 -1.6761
# 5 -1.4856 -3.5433 -5.8180 -5.9820 46.9730 -4.1355
# 6 -12.7375 -21.8057 -11.6626 -1.6761 -4.1355 32.5863
#
#
#
# Elastic Compliance Matrix: (Units=1/GPa)
#
#
# Indices 1 2 3 4 5 6 
#
# 1 0.010845 0.001708 -0.002792 0.004350 0.001098 0.004746
# 2 0.001708 0.022349 -0.005132 0.020419 0.005067 0.015479
# 3 -0.002792 -0.005132 0.014438 -0.002259 0.001084 0.000664
# 4 0.004350 0.020419 -0.002259 0.056084 0.010190 0.018734
# 5 0.001098 0.005067 0.001084 0.010190 0.023820 0.007755
# 6 0.004746 0.015479 0.000664 0.018734 0.007755 0.045086
#
#
# Mechanical properties :
#
#
# Convention : Reuss Voigt Hill
#
# Bulk Modulus (GPa) = 28.40854 46.72731 37.56792
# Shear Modulus (GPa) = 25.40827 35.62050 30.51439
#
# Velocity S-wave (km/s) = 3.29227 3.89814 3.60794
# Velocity P-wave (km/s) = 5.15470 6.33990 5.77777
#
# Compressibility (1/GPa) = 0.03520068
#
# Stress axis : x y z
#
# Youngs Moduli (GPa) = 92.21219 44.74565 69.25987
#
# Poissons Ratio (x) = -0.07643 0.19335
# Poissons Ratio (y) = -0.15750 0.35542
# Poissons Ratio (z) = 0.25743 0.22962
#
# Static dielectric constant tensor:
#      x y z
#    x 4.159830 -0.207570 0.034960 
#    y -0.207570 4.461290 -0.189330 
#    z 0.034960 -0.189330 4.134540 
# 
# 
# High freq. dielectric constant tensor:
#      x y z
#    x 1.926080 -0.013060 -0.004610 
#    y -0.013060 1.932110 -0.018650 
#    z -0.004610 -0.018650 1.923070 
# 
# From -- ./inp_files/48460.got.cif
#   From: 2010.06.25/outbox.cif.g09.slc.cpg/sg2_25_cif.got.tgz:48460.got - 2010.06.27 13:26:56.
