data_PCOD8013842
_publ_section_title
;
Structure prediction by ZEFSAII (Michael W. Deem and Ramdas Pophale) SiO2 
 PCOD8013842
Probable space group: P -1
;
_chemical_formula_sum "Si O2"
_cell_formula_units_Z 16
_cell_length_a 10.673619
_cell_length_b 24.865521
_cell_length_c 11.699301
_cell_angle_alpha 157.374091
_cell_angle_beta 35.943328
_cell_angle_gamma 141.909683
_cell_volume 690.235951
_symmetry_space_group_name_H-M "P -1"
_symmetry_group_IT_number 2
_symmetry_cell_setting 'triclinic'
loop_
_space_group_symop_operation_xyz
x,y,z
-x,-y,-z
loop_
_atom_site_type_symbol
_atom_site_label
_atom_site_fract_x
_atom_site_fract_y
_atom_site_fract_z
Si Si1 0.278327 0.160354 0.082033
Si Si2 0.885321 0.776070 0.114536
Si Si3 0.603457 0.569978 0.326021
Si Si4 0.329687 0.316291 0.137515
Si Si5 0.706790 0.473377 0.724815
Si Si6 0.803946 0.083236 0.187655
Si Si7 0.867022 0.374352 0.627108
Si Si8 0.247748 0.998127 0.183697
O O1 0.297986 0.284617 0.403754
O O2 0.408536 0.211652 0.969588
O O3 0.028646 0.118658 0.155646
O O4 0.355455 0.024757 0.822315
O O5 0.786028 0.856661 0.447599
O O6 0.729985 0.768235 0.102356
O O7 0.883860 0.616211 0.848377
O O8 0.124353 0.861323 0.076268
O O9 0.520936 0.449735 0.245094
O O10 0.395168 0.593330 0.449550
O O11 0.795545 0.515667 0.006457
O O12 0.119687 0.372342 0.455516
O O13 0.826988 0.369296 0.508387
O O14 0.500000 0.500000 0.000000
O O15 0.722143 0.232343 0.512947
O O16 0.838927 0.006179 0.890701
O O17 0.500000 0.000000 0.000000
#
# Coordination Sequence:
#
# PCOD8013842 Si02
#       8
#     2   2   2   2   2   2   2   2
#     4  10  21  43  62  91 127 171 212 257 309 378
#     4  10  22  41  63  99 128 170 200 265 333 369
#     4  10  22  37  70  90 126 167 213 251 321 377
#     4  10  21  41  65  91 129 162 207 267 313 371
#     4   9  21  37  64  96 130 162 205 265 324 375
#     4  10  23  40  65  90 128 169 208 264 317 363
#     4  10  21  41  62  93 129 164 204 265 314 373
#     4  11  24  40  69  93 130 166 215 262 322 388
#
# _framework density 23.180478999999998
#
# number of rings (size 3 to 8) (size 9 to 14) (size 15 to 20)
#    0.000    2.000    2.500    0.375    8.750    4.000 
#    2.250    0.625    0.000    3.000    0.000    0.000 
#    0.000    0.000    0.000    0.000    0.000    0.000 
#
# Total GULP energy -198270.577498 kJ/mol
# GULP energy per Si atom -12391.911094 kJ/mol
# Density = 2.312772 g / cm^3
# Si number density = 23.180479 Si / 1000 Ang^3
#
#
#
# Elastic Constant Matrix: (Units=GPa)
#
#
# Indices 1 2 3 4 5 6 
#
# 1 99.8766 54.6838 46.4161 22.6698 13.9834 -22.3690
# 2 54.6838 108.2339 12.0317 16.3444 -2.4048 -16.7056
# 3 46.4161 12.0317 83.4991 21.5727 21.0625 0.8320
# 4 22.6698 16.3444 21.5727 26.8071 3.3143 -10.7973
# 5 13.9834 -2.4048 21.0625 3.3143 30.4381 7.9474
# 6 -22.3690 -16.7056 0.8320 -10.7973 7.9474 48.4091
#
#
#
# Elastic Compliance Matrix: (Units=1/GPa)
#
#
# Indices 1 2 3 4 5 6 
#
# 1 0.022165 -0.008795 -0.008914 -0.002200 -0.006544 0.007944
# 2 -0.008795 0.013944 0.003076 -0.004357 0.003720 -0.000887
# 3 -0.008914 0.003076 0.021950 -0.013011 -0.008128 -0.005002
# 4 -0.002200 -0.004357 -0.013011 0.056246 0.000908 0.010100
# 5 -0.006544 0.003720 -0.008128 0.000908 0.043927 -0.008609
# 6 0.007944 -0.000887 -0.005002 0.010100 -0.008609 0.027774
#
#
# Mechanical properties :
#
#
# Convention : Reuss Voigt Hill
#
# Bulk Modulus (GPa) = 34.73073 57.54142 46.13607
# Shear Modulus (GPa) = 22.23510 33.02939 27.63225
#
# Velocity S-wave (km/s) = 3.10048 3.77885 3.45635
# Velocity P-wave (km/s) = 5.27566 6.62697 5.98955
#
# Compressibility (1/GPa) = 0.02879295
#
# Stress axis : x y z
#
# Youngs Moduli (GPa) = 45.11638 71.71333 45.55876
#
# Poissons Ratio (x) = 0.63070 0.40612
# Poissons Ratio (y) = 0.39678 -0.14013
# Poissons Ratio (z) = 0.40217 -0.22057
#
# Static dielectric constant tensor:
#      x y z
#    x 4.749260 -0.711180 0.137790 
#    y -0.711180 4.731170 0.251630 
#    z 0.137790 0.251630 4.107770 
# 
# 
# High freq. dielectric constant tensor:
#      x y z
#    x 1.909060 -0.020880 0.014920 
#    y -0.020880 1.930990 0.011900 
#    z 0.014920 0.011900 1.896580 
# 
# From -- ./inp_files/439512.got.cif
#   From: 2010.06.25/outbox.cif.g09.slc.cpg/sg2_220_cif.got.tgz:439512.got - 2010.06.27 13:26:56.
