data_PCOD8013915
_publ_section_title
;
Structure prediction by ZEFSAII (Michael W. Deem and Ramdas Pophale) SiO2 
 PCOD8013915
Probable space group: P -1
;
_chemical_formula_sum "Si O2"
_cell_formula_units_Z 16
_cell_length_a 14.735193
_cell_length_b 10.613402
_cell_length_c 13.478455
_cell_angle_alpha 35.231465
_cell_angle_beta 41.222066
_cell_angle_gamma 58.856744
_cell_volume 774.684479
_symmetry_space_group_name_H-M "P -1"
_symmetry_group_IT_number 2
_symmetry_cell_setting 'triclinic'
loop_
_space_group_symop_operation_xyz
x,y,z
-x,-y,-z
loop_
_atom_site_type_symbol
_atom_site_label
_atom_site_fract_x
_atom_site_fract_y
_atom_site_fract_z
Si Si1 0.818617 0.596984 0.025400
Si Si2 0.883504 0.454007 0.266729
Si Si3 0.388703 0.529276 0.153060
Si Si4 0.570567 0.336664 0.266136
Si Si5 0.377211 0.928848 0.791264
Si Si6 0.936142 0.690597 0.479531
Si Si7 0.082342 0.910128 0.404554
Si Si8 0.905433 0.926683 0.031212
O O1 0.790353 0.460704 0.240383
O O2 0.686520 0.523200 0.108300
O O3 0.955895 0.546232 0.894204
O O4 0.831988 0.862807 0.868471
O O5 0.817770 0.229732 0.531803
O O6 0.883781 0.663927 0.200651
O O7 0.443991 0.452746 0.261471
O O8 0.232633 0.369695 0.360567
O O9 0.500000 0.500000 0.000000
O O10 0.391243 0.795236 0.968882
O O11 0.645383 0.248768 0.167425
O O12 0.513279 0.132134 0.522327
O O13 0.244614 0.028147 0.851671
O O14 0.000000 0.500000 0.500000
O O15 0.974588 0.727020 0.540872
O O16 0.011203 0.934411 0.217914
O O17 0.000000 0.000000 0.500000
O O18 0.000000 0.000000 0.000000
#
# Coordination Sequence:
#
# PCOD8013915 Si02
#       8
#     2   2   2   2   2   2   2   2
#     4  10  21  41  63  92 127 167 216 275 317 400
#     4  10  22  38  60  95 124 164 218 263 332 385
#     4  10  23  38  61  97 131 173 218 267 329 392
#     4  10  22  41  65  91 131 169 220 265 334 391
#     4  10  22  41  58  96 129 167 213 273 322 400
#     4  12  23  41  68 100 138 171 220 283 329 389
#     4  10  23  40  63  97 133 172 222 273 330 390
#     4  12  22  37  66  93 133 169 216 274 338 378
#
# _framework density 20.653569999999998
#
# number of rings (size 3 to 8) (size 9 to 14) (size 15 to 20)
#    0.000    1.500    2.500    2.250    7.000    3.000 
#    0.000    0.625    0.000    3.750    0.000    0.000 
#    0.000    0.000    0.000    0.000    0.000    0.000 
#
# Total GULP energy -198272.801205 kJ/mol
# GULP energy per Si atom -12392.050075 kJ/mol
# Density = 2.060656 g / cm^3
# Si number density = 20.653570 Si / 1000 Ang^3
#
#
#
# Elastic Constant Matrix: (Units=GPa)
#
#
# Indices 1 2 3 4 5 6 
#
# 1 137.9134 47.8562 43.4682 -19.5966 -1.4187 1.4127
# 2 47.8562 119.2624 37.4883 -21.9193 -2.4878 -4.2386
# 3 43.4682 37.4883 88.4450 -20.2318 7.0287 -10.5256
# 4 -19.5966 -21.9193 -20.2318 37.1696 -9.8089 4.9766
# 5 -1.4187 -2.4878 7.0287 -9.8089 36.5421 -4.6101
# 6 1.4127 -4.2386 -10.5256 4.9766 -4.6101 26.4843
#
#
#
# Elastic Compliance Matrix: (Units=1/GPa)
#
#
# Indices 1 2 3 4 5 6 
#
# 1 0.009564 -0.002346 -0.003560 0.002382 0.001216 -0.002536
# 2 -0.002346 0.011036 -0.002658 0.004403 0.002407 0.000427
# 3 -0.003560 -0.002658 0.015841 0.004075 -0.001641 0.005009
# 4 0.002382 0.004403 0.004075 0.035698 0.008815 -0.002977
# 5 0.001216 0.002407 -0.001641 0.008815 0.030682 0.003353
# 6 -0.002536 0.000427 0.005009 -0.002977 0.003353 0.041095
#
#
# Mechanical properties :
#
#
# Convention : Reuss Voigt Hill
#
# Bulk Modulus (GPa) = 51.77678 67.02736 59.40207
# Shear Modulus (GPa) = 29.85394 34.49309 32.17352
#
# Velocity S-wave (km/s) = 3.80605 4.09109 3.95114
# Velocity P-wave (km/s) = 6.66620 7.40538 7.04549
#
# Compressibility (1/GPa) = 0.01931368
#
# Stress axis : x y z
#
# Youngs Moduli (GPa) = 104.56129 90.60988 63.12635
#
# Poissons Ratio (x) = 0.21255 0.22471
# Poissons Ratio (y) = 0.24527 0.16782
# Poissons Ratio (z) = 0.37220 0.24088
#
# Static dielectric constant tensor:
#      x y z
#    x 4.046920 -0.294520 0.681230 
#    y -0.294520 3.834140 -0.455950 
#    z 0.681230 -0.455950 4.330710 
# 
# 
# High freq. dielectric constant tensor:
#      x y z
#    x 1.803450 -0.006210 0.025430 
#    y -0.006210 1.802040 -0.019000 
#    z 0.025430 -0.019000 1.810960 
# 
# From -- ./inp_files/495029.got.cif
#   From: 2010.06.25/outbox.cif.g09.slc.cpg/sg2_248_cif.got.tgz:495029.got - 2010.06.27 13:26:56.
