data_PCOD8013113
_publ_section_title
;
Structure prediction by ZEFSAII (Michael W. Deem and Ramdas Pophale) SiO2 
 PCOD8013113
Probable space group: P -1
;
_chemical_formula_sum "Si O2"
_cell_formula_units_Z 16
_cell_length_a 9.673355
_cell_length_b 11.533219
_cell_length_c 16.899468
_cell_angle_alpha 148.281082
_cell_angle_beta 125.660655
_cell_angle_gamma 67.176549
_cell_volume 779.199639
_symmetry_space_group_name_H-M "P -1"
_symmetry_group_IT_number 2
_symmetry_cell_setting 'triclinic'
loop_
_space_group_symop_operation_xyz
x,y,z
-x,-y,-z
loop_
_atom_site_type_symbol
_atom_site_label
_atom_site_fract_x
_atom_site_fract_y
_atom_site_fract_z
Si Si1 0.845923 0.788885 0.808264
Si Si2 0.905414 0.925411 0.740753
Si Si3 0.436994 0.406873 0.184201
Si Si4 0.918204 0.573664 0.854714
Si Si5 0.482062 0.685181 0.668641
Si Si6 0.768662 0.015699 0.221337
Si Si7 0.990567 0.111256 0.644022
Si Si8 0.650885 0.871681 0.485103
O O1 0.847055 0.741706 0.686695
O O2 0.672268 0.863109 0.824194
O O3 0.870546 0.574965 0.745442
O O4 0.000000 0.000000 0.000000
O O5 0.733035 0.904303 0.618889
O O6 0.071472 0.870925 0.719161
O O7 0.956169 0.183523 0.939038
O O8 0.537223 0.395044 0.293337
O O9 0.565352 0.600962 0.286271
O O10 0.257914 0.480525 0.183461
O O11 0.387619 0.167261 0.981744
O O12 0.013360 0.378978 0.794438
O O13 0.500000 0.500000 0.500000
O O14 0.319315 0.794222 0.660371
O O15 0.848522 0.900391 0.252479
O O16 0.000000 0.000000 0.500000
O O17 0.802731 0.972578 0.532610
O O18 0.500000 0.000000 0.500000
#
# Coordination Sequence:
#
# PCOD8013113 Si02
#       8
#     2   2   2   2   2   2   2   2
#     4   9  19  38  63  93 121 158 203 253 308 365
#     4   9  20  39  62  96 121 163 210 255 307 370
#     4  10  21  40  65  94 121 166 211 255 310 366
#     4   9  19  38  66  86 124 169 201 251 315 374
#     4  11  23  40  67  94 127 166 203 259 319 371
#     4  10  24  42  65  91 129 164 209 258 312 378
#     4  11  25  42  59  90 128 166 211 255 316 373
#     4  11  22  38  64  88 124 161 210 258 301 372
#
# _framework density 20.533892000000002
#
# number of rings (size 3 to 8) (size 9 to 14) (size 15 to 20)
#    0.000    2.000    1.250    1.875    5.250    2.500 
#    6.750    2.500    0.000    0.000    0.000    0.000 
#    0.000    0.000    0.000    0.000    0.000    0.000 
#
# Total GULP energy -198288.756064 kJ/mol
# GULP energy per Si atom -12393.047254 kJ/mol
# Density = 2.048716 g / cm^3
# Si number density = 20.533892 Si / 1000 Ang^3
#
#
#
# Elastic Constant Matrix: (Units=GPa)
#
#
# Indices 1 2 3 4 5 6 
#
# 1 102.7484 75.4019 36.3629 3.8054 -5.2340 1.9201
# 2 75.4019 134.9123 37.5440 -3.8356 -9.1381 -8.0309
# 3 36.3629 37.5440 77.4870 -5.7255 -3.8486 -3.8269
# 4 3.8054 -3.8356 -5.7255 34.0817 2.0058 -1.9104
# 5 -5.2340 -9.1381 -3.8486 2.0058 35.4098 0.0001
# 6 1.9201 -8.0309 -3.8269 -1.9104 0.0001 41.2055
#
#
#
# Elastic Compliance Matrix: (Units=1/GPa)
#
#
# Indices 1 2 3 4 5 6 
#
# 1 0.018409 -0.009322 -0.004583 -0.004062 0.000048 -0.003289
# 2 -0.009322 0.013473 -0.001745 0.002328 0.001778 0.003006
# 3 -0.004583 -0.001745 0.016229 0.003100 0.000461 0.001524
# 4 -0.004062 0.002328 0.003100 0.030792 -0.001407 0.002358
# 5 0.000048 0.001778 0.000461 -0.001407 0.028836 0.000322
# 6 -0.003289 0.003006 0.001524 0.002358 0.000322 0.025259
#
#
# Mechanical properties :
#
#
# Convention : Reuss Voigt Hill
#
# Bulk Modulus (GPa) = 59.47878 68.19614 63.83746
# Shear Modulus (GPa) = 29.42891 33.19533 31.31212
#
# Velocity S-wave (km/s) = 3.78985 4.02507 3.90923
# Velocity P-wave (km/s) = 6.94116 7.40846 7.17861
#
# Compressibility (1/GPa) = 0.01681272
#
# Stress axis : x y z
#
# Youngs Moduli (GPa) = 54.32038 74.22200 61.61966
#
# Poissons Ratio (x) = 0.69187 0.28239
# Poissons Ratio (y) = 0.50635 0.10751
# Poissons Ratio (z) = 0.24894 0.12950
#
# Static dielectric constant tensor:
#      x y z
#    x 2.538680 -1.114630 -0.920920 
#    y -1.114630 2.651440 -1.340450 
#    z -0.920920 -1.340450 3.017060 
# 
# 
# High freq. dielectric constant tensor:
#      x y z
#    x 1.799010 0.010360 0.016870 
#    y 0.010360 1.806470 -0.016100 
#    z 0.016870 -0.016100 1.804040 
# 
# From -- ./inp_files/207977.got.cif
#   From: 2010.06.25/outbox.cif.g09.slc.cpg/sg2_104_cif.got.tgz:207977.got - 2010.06.27 13:26:56.
