data_PCOD8013631
_publ_section_title
;
Structure prediction by ZEFSAII (Michael W. Deem and Ramdas Pophale) SiO2 
 PCOD8013631
Probable space group: P -1
;
_chemical_formula_sum "Si O2"
_cell_formula_units_Z 10
_cell_length_a 10.678131
_cell_length_b 5.109347
_cell_length_c 9.601001
_cell_angle_alpha 103.024353
_cell_angle_beta 120.543341
_cell_angle_gamma 61.867659
_cell_volume 397.765823
_symmetry_space_group_name_H-M "P -1"
_symmetry_group_IT_number 2
_symmetry_cell_setting 'triclinic'
loop_
_space_group_symop_operation_xyz
x,y,z
-x,-y,-z
loop_
_atom_site_type_symbol
_atom_site_label
_atom_site_fract_x
_atom_site_fract_y
_atom_site_fract_z
Si Si1 0.646993 0.028031 0.656574
Si Si2 0.390193 0.328821 0.927776
Si Si3 0.148034 0.583003 0.595696
Si Si4 0.741790 0.505439 0.845202
Si Si5 0.906772 0.097214 0.669550
O O1 0.687182 0.835671 0.796709
O O2 0.500000 0.000000 0.500000
O O3 0.612230 0.367877 0.718628
O O4 0.799311 0.912621 0.619922
O O5 0.305117 0.338361 0.731753
O O6 0.500000 0.500000 0.000000
O O7 0.247324 0.481834 0.980135
O O8 0.500000 0.000000 0.000000
O O9 0.189997 0.657742 0.474764
O O10 0.000000 0.500000 0.500000
O O11 0.084863 0.886523 0.691703
O O12 0.908642 0.279856 0.834829
#
# Coordination Sequence:
#
# PCOD8013631 Si02
#       5
#     2   2   2   2   2
#     4  10  21  40  70 107 145 189 244 298 360 442
#     4  12  30  49  73 109 155 195 245 310 375 433
#     4  11  25  49  75 109 151 198 245 306 368 444
#     4  10  23  43  67 107 139 190 241 305 359 432
#     4   9  24  42  76 107 143 188 254 293 366 436
#
# _framework density 25.140418
#
# number of rings (size 3 to 8) (size 9 to 14) (size 15 to 20)
#    1.200    0.400    0.000    3.000    8.400    4.000 
#    0.000    2.000    0.000    0.000    0.000    0.000 
#    0.000    0.000    0.000    0.000    0.000    0.000 
#
# Total GULP energy -123892.137828 kJ/mol
# GULP energy per Si atom -12389.213783 kJ/mol
# Density = 2.508320 g / cm^3
# Si number density = 25.140418 Si / 1000 Ang^3
#
#
#
# Elastic Constant Matrix: (Units=GPa)
#
#
# Indices 1 2 3 4 5 6 
#
# 1 76.4253 17.7365 23.2171 -9.1861 -20.4281 22.2614
# 2 17.7365 89.1642 13.3304 -16.9622 -8.9176 20.9885
# 3 23.2171 13.3304 91.1113 -18.3250 -14.9097 9.2449
# 4 -9.1861 -16.9622 -18.3250 39.1673 -7.2344 -15.9987
# 5 -20.4281 -8.9176 -14.9097 -7.2344 50.0051 2.8125
# 6 22.2614 20.9885 9.2449 -15.9987 2.8125 51.1546
#
#
#
# Elastic Compliance Matrix: (Units=1/GPa)
#
#
# Indices 1 2 3 4 5 6 
#
# 1 0.018112 -0.000594 -0.002369 0.001263 0.007175 -0.007210
# 2 -0.000594 0.013456 0.000019 0.004634 0.003057 -0.003985
# 3 -0.002369 0.000019 0.013538 0.006715 0.004018 0.000455
# 4 0.001263 0.004634 0.006715 0.035297 0.008061 0.006931
# 5 0.007175 0.003057 0.004018 0.008061 0.026065 -0.004015
# 6 -0.007210 -0.003985 0.000455 0.006931 -0.004015 0.026627
#
#
# Mechanical properties :
#
#
# Convention : Reuss Voigt Hill
#
# Bulk Modulus (GPa) = 25.49743 40.58543 33.04143
# Shear Modulus (GPa) = 32.88310 41.55984 37.22147
#
# Velocity S-wave (km/s) = 3.62052 4.07025 3.85196
# Velocity P-wave (km/s) = 5.25753 6.18610 5.74062
#
# Compressibility (1/GPa) = 0.03921964
#
# Stress axis : x y z
#
# Youngs Moduli (GPa) = 55.21267 74.31732 73.86443
#
# Poissons Ratio (x) = 0.04412 0.17496
# Poissons Ratio (y) = 0.03278 -0.00143
# Poissons Ratio (z) = 0.13078 -0.00143
#
# Static dielectric constant tensor:
#      x y z
#    x 4.584210 -0.098220 -0.673920 
#    y -0.098220 4.977010 0.032350 
#    z -0.673920 0.032350 4.398020 
# 
# 
# High freq. dielectric constant tensor:
#      x y z
#    x 1.998640 0.013220 -0.044510 
#    y 0.013220 2.010410 0.007500 
#    z -0.044510 0.007500 1.983730 
# 
# From -- ./inp_files/229784.got.cif
#   From: 2010.06.25/outbox.cif.g09.slc.cpg/sg2_115_cif.got.tgz:229784.got - 2010.06.27 13:26:56.
