data_PCOD8013157
_publ_section_title
;
Structure prediction by ZEFSAII (Michael W. Deem and Ramdas Pophale) SiO2 
 PCOD8013157
Probable space group: P -1
;
_chemical_formula_sum "Si O2"
_cell_formula_units_Z 16
_cell_length_a 8.764660
_cell_length_b 14.453420
_cell_length_c 7.644950
_cell_angle_alpha 70.655103
_cell_angle_beta 129.565204
_cell_angle_gamma 88.448283
_cell_volume 665.631995
_symmetry_space_group_name_H-M "P -1"
_symmetry_group_IT_number 2
_symmetry_cell_setting 'triclinic'
loop_
_space_group_symop_operation_xyz
x,y,z
-x,-y,-z
loop_
_atom_site_type_symbol
_atom_site_label
_atom_site_fract_x
_atom_site_fract_y
_atom_site_fract_z
Si Si1 0.721229 0.931942 0.636261
Si Si2 0.065159 0.380146 0.239099
Si Si3 0.460165 0.757168 0.966655
Si Si4 0.416552 0.556949 0.219289
Si Si5 0.746207 0.837152 0.335777
Si Si6 0.151357 0.531645 0.463465
Si Si7 0.934415 0.072377 0.571995
Si Si8 0.818592 0.713232 0.983739
O O1 0.693255 0.899900 0.437656
O O2 0.812780 0.831045 0.885910
O O3 0.500000 0.000000 0.500000
O O4 0.872187 0.002977 0.717767
O O5 0.101772 0.281341 0.452706
O O6 0.164475 0.462018 0.341289
O O7 0.191503 0.340619 0.176110
O O8 0.815268 0.441598 0.998705
O O9 0.415483 0.675923 0.120924
O O10 0.533984 0.837891 0.086719
O O11 0.254162 0.823097 0.674184
O O12 0.636738 0.701948 0.984913
O O13 0.500000 0.500000 0.500000
O O14 0.611276 0.490412 0.276134
O O15 0.868106 0.890789 0.257644
O O16 0.000000 0.500000 0.500000
O O17 0.048326 0.653268 0.268866
O O18 0.000000 0.000000 0.500000
#
# Coordination Sequence:
#
# PCOD8013157 Si02
#       8
#     2   2   2   2   2   2   2   2
#     4  10  21  40  65  97 128 171 214 274 336 382
#     4  11  23  43  67  97 135 178 219 271 338 385
#     4  12  23  45  67  97 130 174 226 273 331 403
#     4  12  25  39  67 101 133 172 225 271 331 403
#     4  10  22  41  71  93 126 178 218 270 332 393
#     4  12  24  44  67  99 135 177 224 269 328 402
#     4  10  22  41  69  95 131 169 224 273 329 392
#     4  11  23  41  67  94 138 174 218 276 327 395
#
# _framework density 24.037305
#
# number of rings (size 3 to 8) (size 9 to 14) (size 15 to 20)
#    0.000    1.000    6.250    0.375    0.000    2.500 
#    0.000    3.125    0.000    0.000    0.000    0.000 
#    0.000    0.000    0.000    0.000    0.000    0.000 
#
# Total GULP energy -198214.074620 kJ/mol
# GULP energy per Si atom -12388.379664 kJ/mol
# Density = 2.398260 g / cm^3
# Si number density = 24.037305 Si / 1000 Ang^3
#
#
#
# Elastic Constant Matrix: (Units=GPa)
#
#
# Indices 1 2 3 4 5 6 
#
# 1 96.7052 31.3512 12.7412 -7.1519 -2.8086 0.9189
# 2 31.3512 86.3916 34.2630 -25.5323 -3.3112 10.4665
# 3 12.7412 34.2630 62.2480 -17.5345 7.4189 -3.3265
# 4 -7.1519 -25.5323 -17.5345 48.2727 3.8374 -0.4003
# 5 -2.8086 -3.3112 7.4189 3.8374 37.8434 -16.0352
# 6 0.9189 10.4665 -3.3265 -0.4003 -16.0352 39.5196
#
#
#
# Elastic Compliance Matrix: (Units=1/GPa)
#
#
# Indices 1 2 3 4 5 6 
#
# 1 0.011810 -0.004574 -0.000199 -0.000825 0.001190 0.001394
# 2 -0.004574 0.018967 -0.007978 0.006421 -0.000130 -0.005576
# 3 -0.000199 -0.007978 0.022361 0.004258 -0.004607 0.002173
# 4 -0.000825 0.006421 0.004258 0.025840 -0.004111 -0.002729
# 5 0.001190 -0.000130 -0.004607 -0.004111 0.033382 0.013122
# 6 0.001394 -0.005576 0.002173 -0.002729 0.013122 0.032228
#
#
# Mechanical properties :
#
#
# Convention : Reuss Voigt Hill
#
# Bulk Modulus (GPa) = 36.18395 44.67282 40.42839
# Shear Modulus (GPa) = 27.88577 36.25975 32.07276
#
# Velocity S-wave (km/s) = 3.40972 3.88813 3.65676
# Velocity P-wave (km/s) = 5.53060 6.22751 5.88937
#
# Compressibility (1/GPa) = 0.02763656
#
# Stress axis : x y z
#
# Youngs Moduli (GPa) = 84.67325 52.72263 44.71995
#
# Poissons Ratio (x) = 0.24115 0.00892
# Poissons Ratio (y) = 0.38729 0.35676
# Poissons Ratio (z) = 0.01689 0.42061
#
# Static dielectric constant tensor:
#      x y z
#    x 4.920830 0.230050 0.067860 
#    y 0.230050 4.539350 -0.287930 
#    z 0.067860 -0.287930 4.437360 
# 
# 
# High freq. dielectric constant tensor:
#      x y z
#    x 1.974650 0.011390 0.001880 
#    y 0.011390 1.945930 -0.031680 
#    z 0.001880 -0.031680 1.944850 
# 
# From -- ./inp_files/201098.got.cif
#   From: 2010.06.25/outbox.cif.g09.slc.cpg/sg2_101_cif.got.tgz:201098.got - 2010.06.27 13:26:56.
