data_PCOD8013837
_publ_section_title
;
Structure prediction by ZEFSAII (Michael W. Deem and Ramdas Pophale) SiO2 
 PCOD8013837
Probable space group: P -1
;
_chemical_formula_sum "Si O2"
_cell_formula_units_Z 16
_cell_length_a 14.840103
_cell_length_b 8.910796
_cell_length_c 16.341417
_cell_angle_alpha 100.280401
_cell_angle_beta 49.319949
_cell_angle_gamma 141.202915
_cell_volume 739.701681
_symmetry_space_group_name_H-M "P -1"
_symmetry_group_IT_number 2
_symmetry_cell_setting 'triclinic'
loop_
_space_group_symop_operation_xyz
x,y,z
-x,-y,-z
loop_
_atom_site_type_symbol
_atom_site_label
_atom_site_fract_x
_atom_site_fract_y
_atom_site_fract_z
Si Si1 0.308850 0.334526 0.023720
Si Si2 0.709522 0.183596 0.109819
Si Si3 0.774270 0.284368 0.552556
Si Si4 0.281350 0.020469 0.584778
Si Si5 0.092864 0.382654 0.091732
Si Si6 0.832663 0.757523 0.345870
Si Si7 0.162159 0.295935 0.488134
Si Si8 0.327280 0.175231 0.839871
O O1 0.272854 0.476679 0.049691
O O2 0.500000 0.500000 0.000000
O O3 0.371771 0.361499 0.895971
O O4 0.027908 0.943237 0.174449
O O5 0.512551 0.057533 0.270559
O O6 0.610075 0.896856 0.143990
O O7 0.722292 0.272334 0.019943
O O8 0.000000 0.500000 0.000000
O O9 0.845100 0.535370 0.510268
O O10 0.000000 0.500000 0.500000
O O11 0.798076 0.194545 0.455268
O O12 0.590048 0.366882 0.445872
O O13 0.223291 0.126792 0.603831
O O14 0.131824 0.803823 0.735695
O O15 0.951188 0.141348 0.072693
O O16 0.965878 0.869553 0.363547
O O17 0.459132 0.573587 0.334162
O O18 0.000000 0.000000 0.500000
#
# Coordination Sequence:
#
# PCOD8013837 Si02
#       8
#     2   2   2   2   2   2   2   2
#     4  11  24  38  60  95 131 167 218 264 322 388
#     4   9  22  41  64  92 125 167 212 263 323 381
#     4  11  25  42  64  98 128 171 214 269 328 389
#     4  10  22  41  65  92 128 161 223 263 317 390
#     4  10  21  42  65  93 123 171 215 263 321 384
#     4  10  22  39  61  95 125 170 207 267 320 371
#     4  11  22  40  64  92 129 165 209 266 328 384
#     4  10  21  41  62  92 125 164 220 261 317 388
#
# _framework density 21.630341999999999
#
# number of rings (size 3 to 8) (size 9 to 14) (size 15 to 20)
#    0.000    1.750    1.250    1.875    3.500    7.500 
#    0.000    1.250    0.000    0.000    0.000    0.000 
#    0.000    0.000    0.000    0.000    0.000    0.000 
#
# Total GULP energy -198214.369534 kJ/mol
# GULP energy per Si atom -12388.398096 kJ/mol
# Density = 2.158111 g / cm^3
# Si number density = 21.630342 Si / 1000 Ang^3
#
#
#
# Elastic Constant Matrix: (Units=GPa)
#
#
# Indices 1 2 3 4 5 6 
#
# 1 100.2653 16.6021 30.1503 -2.0534 8.8657 12.8981
# 2 16.6021 99.6412 18.2551 14.4659 1.8324 5.9176
# 3 30.1503 18.2551 99.8571 5.8295 11.5470 -6.2198
# 4 -2.0534 14.4659 5.8295 28.3318 -1.6914 7.6935
# 5 8.8657 1.8324 11.5470 -1.6914 40.4186 -5.7328
# 6 12.8981 5.9176 -6.2198 7.6935 -5.7328 25.4815
#
#
#
# Elastic Compliance Matrix: (Units=1/GPa)
#
#
# Indices 1 2 3 4 5 6 
#
# 1 0.013045 -0.001514 -0.004224 0.004977 -0.002710 -0.009395
# 2 -0.001514 0.011364 -0.001321 -0.005494 -0.000115 -0.000562
# 3 -0.004224 -0.001321 0.012364 -0.003983 -0.001825 0.006255
# 4 0.004977 -0.005494 -0.003983 0.043445 -0.000063 -0.015347
# 5 -0.002710 -0.000115 -0.001825 -0.000063 0.026854 0.007014
# 6 -0.009395 -0.000562 0.006255 -0.015347 0.007014 0.051868
#
#
# Mechanical properties :
#
#
# Convention : Reuss Voigt Hill
#
# Bulk Modulus (GPa) = 44.14342 47.75318 45.94830
# Shear Modulus (GPa) = 27.68383 34.49679 31.09031
#
# Velocity S-wave (km/s) = 3.58140 3.99787 3.79535
# Velocity P-wave (km/s) = 6.12815 6.59056 6.36356
#
# Compressibility (1/GPa) = 0.02265343
#
# Stress axis : x y z
#
# Youngs Moduli (GPa) = 76.66008 88.00090 80.87711
#
# Poissons Ratio (x) = 0.13327 0.34163
# Poissons Ratio (y) = 0.11609 0.10684
# Poissons Ratio (z) = 0.32382 0.11626
#
# Static dielectric constant tensor:
#      x y z
#    x 4.068090 -0.202650 0.215840 
#    y -0.202650 3.568440 -0.139810 
#    z 0.215840 -0.139810 4.523550 
# 
# 
# High freq. dielectric constant tensor:
#      x y z
#    x 1.852210 -0.004100 0.008410 
#    y -0.004100 1.824570 -0.004450 
#    z 0.008410 -0.004450 1.865480 
# 
# From -- ./inp_files/205396.got.cif
#   From: 2010.06.25/outbox.cif.g09.slc.cpg/sg2_103_cif.got.tgz:205396.got - 2010.06.27 13:26:56.
