data_PCOD8013080
_publ_section_title
;
Structure prediction by ZEFSAII (Michael W. Deem and Ramdas Pophale) SiO2 
 PCOD8013080
Probable space group: P -1
;
_chemical_formula_sum "Si O2"
_cell_formula_units_Z 10
_cell_length_a 11.210575
_cell_length_b 7.548465
_cell_length_c 9.102528
_cell_angle_alpha 71.827629
_cell_angle_beta 53.149469
_cell_angle_gamma 37.922997
_cell_volume 357.897458
_symmetry_space_group_name_H-M "P -1"
_symmetry_group_IT_number 2
_symmetry_cell_setting 'triclinic'
loop_
_space_group_symop_operation_xyz
x,y,z
-x,-y,-z
loop_
_atom_site_type_symbol
_atom_site_label
_atom_site_fract_x
_atom_site_fract_y
_atom_site_fract_z
Si Si1 0.333891 0.849821 0.805096
Si Si2 0.897048 0.864364 0.502879
Si Si3 0.794072 0.438918 0.046454
Si Si4 0.368620 0.217443 0.188313
Si Si5 0.221599 0.614264 0.596825
O O1 0.331527 0.629896 0.894130
O O2 0.399498 0.899321 0.891314
O O3 0.533442 0.707004 0.573534
O O4 0.072932 0.172099 0.853389
O O5 0.673534 0.939963 0.662451
O O6 0.123220 0.580225 0.309651
O O7 0.987752 0.806155 0.618290
O O8 0.767156 0.172684 0.446156
O O9 0.804139 0.459254 0.208209
O O10 0.640283 0.759586 0.994861
#
# Coordination Sequence:
#
# PCOD8013080 Si02
#       5
#     2   2   2   2   2
#     4  10  22  41  65  91 126 166 203 254 314 366
#     4   9  20  40  64  92 127 166 204 252 315 373
#     4  11  22  39  66  96 120 160 216 255 298 373
#     4  10  21  40  65  92 127 164 204 258 312 362
#     4  10  21  41  66  90 124 166 207 253 309 369
#
# _framework density 27.940967000000001
#
# number of rings (size 3 to 8) (size 9 to 14) (size 15 to 20)
#    0.000    2.000    0.000    3.600    0.000    4.000 
#    0.000   24.000    0.000    7.200    0.000    0.000 
#    0.000    0.000    0.000    0.000    0.000    0.000 
#
# Total GULP energy -124060.480481 kJ/mol
# GULP energy per Si atom -12406.048048 kJ/mol
# Density = 2.787737 g / cm^3
# Si number density = 27.940967 Si / 1000 Ang^3
#
#
#
# Elastic Constant Matrix: (Units=GPa)
#
#
# Indices 1 2 3 4 5 6 
#
# 1 95.3910 -1.2688 18.8367 -10.4259 -3.6966 -16.6387
# 2 -1.2688 116.9915 41.0912 -30.2945 4.5893 -8.6167
# 3 18.8367 41.0912 50.0107 7.2099 -9.1143 -14.0165
# 4 -10.4259 -30.2945 7.2099 44.7682 -6.8533 6.0061
# 5 -3.6966 4.5893 -9.1143 -6.8533 37.1226 1.5823
# 6 -16.6387 -8.6167 -14.0165 6.0061 1.5823 29.0740
#
#
#
# Elastic Compliance Matrix: (Units=1/GPa)
#
#
# Indices 1 2 3 4 5 6 
#
# 1 0.014453 0.007143 -0.012121 0.009692 -0.000741 0.002583
# 2 0.007143 0.024462 -0.029014 0.023105 -0.004866 -0.007158
# 3 -0.012121 -0.029014 0.060703 -0.033351 0.010271 0.020060
# 4 0.009692 0.023105 -0.033351 0.047280 -0.000780 -0.013409
# 5 -0.000741 -0.004866 0.010271 -0.000780 0.029774 0.001627
# 6 0.002583 -0.007158 0.020060 -0.013409 0.001627 0.046104
#
#
# Mechanical properties :
#
#
# Convention : Reuss Voigt Hill
#
# Bulk Modulus (GPa) = 31.61165 42.19016 36.90091
# Shear Modulus (GPa) = 16.59451 35.77522 26.18486
#
# Velocity S-wave (km/s) = 2.43968 3.58213 3.06461
# Velocity P-wave (km/s) = 4.39025 5.67815 5.07522
#
# Compressibility (1/GPa) = 0.03163391
#
# Stress axis : x y z
#
# Youngs Moduli (GPa) = 69.19083 40.87912 16.47377
#
# Poissons Ratio (x) = -0.29200 0.19968
# Poissons Ratio (y) = -0.49423 0.47797
# Poissons Ratio (z) = 0.83866 1.18606
#
# Static dielectric constant tensor:
#      x y z
#    x 5.293260 0.121860 0.203480 
#    y 0.121860 5.077880 0.366130 
#    z 0.203480 0.366130 5.049930 
# 
# 
# High freq. dielectric constant tensor:
#      x y z
#    x 2.131200 -0.009040 0.012850 
#    y -0.009040 2.147540 0.018640 
#    z 0.012850 0.018640 2.142450 
# 
# From -- ./inp_files/147681.got.cif
#   From: 2010.06.25/outbox.cif.g09.slc.cpg/sg2_74_cif.got.tgz:147681.got - 2010.06.27 13:26:56.
