data_PCOD8013970
_publ_section_title
;
Structure prediction by ZEFSAII (Michael W. Deem and Ramdas Pophale) SiO2 
 PCOD8013970
Probable space group: P -1
;
_chemical_formula_sum "Si O2"
_cell_formula_units_Z 12
_cell_length_a 4.890814
_cell_length_b 15.908136
_cell_length_c 5.795981
_cell_angle_alpha 82.846788
_cell_angle_beta 86.017974
_cell_angle_gamma 78.062095
_cell_volume 437.318555
_symmetry_space_group_name_H-M "P -1"
_symmetry_group_IT_number 2
_symmetry_cell_setting 'triclinic'
loop_
_space_group_symop_operation_xyz
x,y,z
-x,-y,-z
loop_
_atom_site_type_symbol
_atom_site_label
_atom_site_fract_x
_atom_site_fract_y
_atom_site_fract_z
Si Si1 0.944435 0.176588 0.180805
Si Si2 0.579241 0.361269 0.424721
Si Si3 0.578481 0.211971 0.779700
Si Si4 0.852277 0.662190 0.915510
Si Si5 0.523425 0.899074 0.553861
Si Si6 0.194237 0.482922 0.710267
O O1 0.893993 0.283701 0.176494
O O2 0.269643 0.138712 0.234732
O O3 0.777208 0.124975 0.376019
O O4 0.839625 0.161007 0.933255
O O5 0.714345 0.268929 0.564061
O O6 0.306540 0.349274 0.306381
O O7 0.488076 0.424443 0.631047
O O8 0.771401 0.418163 0.246190
O O9 0.407863 0.146148 0.684589
O O10 0.343413 0.271502 0.926456
O O11 0.938382 0.567965 0.063791
O O12 0.500000 0.000000 0.500000
O O13 0.000000 0.500000 0.500000
#
# Coordination Sequence:
#
# PCOD8013970 Si02
#       6
#     2   2   2   2   2   2
#     4  12  25  48  73 110 140 191 237 294 363 431
#     4  10  21  41  64 100 145 187 242 292 353 415
#     4  11  24  45  75 101 148 187 243 289 363 422
#     4  11  23  43  69 104 143 193 241 293 356 423
#     4  12  29  50  76 108 146 185 238 300 364 435
#     4  10  22  37  63 100 142 192 237 295 349 416
#
# _framework density 27.439954
#
# number of rings (size 3 to 8) (size 9 to 14) (size 15 to 20)
#    0.000    1.000    3.333    2.000    2.333    4.667 
#    0.000    0.000    0.000    0.000    0.000    0.000 
#    0.000    0.000    0.000    0.000    0.000    0.000 
#
# Total GULP energy -148749.901726 kJ/mol
# GULP energy per Si atom -12395.825144 kJ/mol
# Density = 2.737750 g / cm^3
# Si number density = 27.439954 Si / 1000 Ang^3
#
#
#
# Elastic Constant Matrix: (Units=GPa)
#
#
# Indices 1 2 3 4 5 6 
#
# 1 95.5975 52.1043 36.8103 -8.0752 3.5720 29.7518
# 2 52.1043 251.1672 81.8148 -21.7078 -2.4511 27.3665
# 3 36.8103 81.8148 137.8978 -15.4381 19.6197 8.4284
# 4 -8.0752 -21.7078 -15.4381 45.9739 5.6454 -3.7501
# 5 3.5720 -2.4511 19.6197 5.6454 63.2477 -10.2523
# 6 29.7518 27.3665 8.4284 -3.7501 -10.2523 41.0349
#
#
#
# Elastic Compliance Matrix: (Units=1/GPa)
#
#
# Indices 1 2 3 4 5 6 
#
# 1 0.015379 -0.001256 -0.002385 0.000706 -0.001899 -0.010232
# 2 -0.001256 0.005453 -0.002757 0.001187 0.000728 -0.001870
# 3 -0.002385 -0.002757 0.010163 0.002154 -0.003173 0.000885
# 4 0.000706 0.001187 0.002154 0.023479 -0.002806 -0.000301
# 5 -0.001899 0.000728 -0.003173 -0.002806 0.018124 0.005814
# 6 -0.010232 -0.001870 0.000885 -0.000301 0.005814 0.034279
#
#
# Mechanical properties :
#
#
# Convention : Reuss Voigt Hill
#
# Bulk Modulus (GPa) = 54.94958 91.79126 73.37042
# Shear Modulus (GPa) = 39.76510 50.98019 45.37264
#
# Velocity S-wave (km/s) = 3.81092 4.31499 4.07077
# Velocity P-wave (km/s) = 6.27957 7.63871 6.99224
#
# Compressibility (1/GPa) = 0.01819850
#
# Stress axis : x y z
#
# Youngs Moduli (GPa) = 65.02512 183.37569 98.39960
#
# Poissons Ratio (x) = 0.23030 0.23473
# Poissons Ratio (y) = 0.08166 0.27126
# Poissons Ratio (z) = 0.15511 0.50551
#
# Static dielectric constant tensor:
#      x y z
#    x 5.125160 0.151410 -0.527410 
#    y 0.151410 5.699380 0.046040 
#    z -0.527410 0.046040 5.602010 
# 
# 
# High freq. dielectric constant tensor:
#      x y z
#    x 2.104980 0.012090 -0.026200 
#    y 0.012090 2.125650 0.003180 
#    z -0.026200 0.003180 2.130300 
# 
# From -- ./inp_files/4476.got.cif
#   From: 2010.06.25/outbox.cif.g09.slc.cpg/sg2_3_cif.got.tgz:4476.got - 2010.06.27 13:26:56.
