data_PCOD8013658
_publ_section_title
;
Structure prediction by ZEFSAII (Michael W. Deem and Ramdas Pophale) SiO2 
 PCOD8013658
Probable space group: P -1
;
_chemical_formula_sum "Si O2"
_cell_formula_units_Z 16
_cell_length_a 15.788152
_cell_length_b 10.815561
_cell_length_c 9.606841
_cell_angle_alpha 72.997569
_cell_angle_beta 55.949539
_cell_angle_gamma 118.817945
_cell_volume 753.152562
_symmetry_space_group_name_H-M "P -1"
_symmetry_group_IT_number 2
_symmetry_cell_setting 'triclinic'
loop_
_space_group_symop_operation_xyz
x,y,z
-x,-y,-z
loop_
_atom_site_type_symbol
_atom_site_label
_atom_site_fract_x
_atom_site_fract_y
_atom_site_fract_z
Si Si1 0.013413 0.466577 0.344216
Si Si2 0.640630 0.038779 0.145557
Si Si3 0.072991 0.264053 0.883890
Si Si4 0.257955 0.712786 0.566538
Si Si5 0.350316 0.244820 0.254616
Si Si6 0.184945 0.964635 0.241860
Si Si7 0.022541 0.056825 0.736310
Si Si8 0.707314 0.008410 0.375295
O O1 0.000000 0.500000 0.500000
O O2 0.858694 0.379677 0.431295
O O3 0.972193 0.271527 0.452143
O O4 0.210835 0.701381 0.032031
O O5 0.469051 0.930040 0.272320
O O6 0.584483 0.913862 0.385522
O O7 0.721559 0.022002 0.968122
O O8 0.204998 0.513500 0.729397
O O9 0.107079 0.251996 0.697632
O O10 0.099969 0.169677 0.991305
O O11 0.872712 0.104343 0.128293
O O12 0.218929 0.783576 0.691759
O O13 0.331195 0.146272 0.162104
O O14 0.173655 0.138780 0.488037
O O15 0.396307 0.189969 0.354089
O O16 0.500000 0.500000 0.000000
O O17 0.105110 0.011509 0.236364
#
# Coordination Sequence:
#
# PCOD8013658 Si02
#       8
#     2   2   2   2   2   2   2   2
#     4  10  22  42  66  98 141 177 216 281 337 404
#     4  11  25  40  70 103 137 178 230 275 338 410
#     4  10  21  40  70  98 128 183 222 283 331 401
#     4  12  23  40  70 103 136 177 225 280 345 387
#     4  11  26  42  67  98 136 177 223 284 335 404
#     4  11  22  45  62  97 137 180 223 274 341 404
#     4  10  22  42  68  93 133 181 228 266 345 397
#     4  11  22  46  64  99 140 174 227 283 334 402
#
# _framework density 21.244035
#
# number of rings (size 3 to 8) (size 9 to 14) (size 15 to 20)
#    0.000    1.250    3.750    1.875    1.750    4.000 
#    0.000    1.250    0.000    0.000    0.000    0.000 
#    0.000    0.000    0.000    0.000    0.000    0.000 
#
# Total GULP energy -198350.280366 kJ/mol
# GULP energy per Si atom -12396.892523 kJ/mol
# Density = 2.119568 g / cm^3
# Si number density = 21.244035 Si / 1000 Ang^3
#
#
#
# Elastic Constant Matrix: (Units=GPa)
#
#
# Indices 1 2 3 4 5 6 
#
# 1 106.0735 34.8780 45.6144 -7.2121 10.1952 11.9376
# 2 34.8780 112.4641 42.5366 -6.0170 20.4674 1.4368
# 3 45.6144 42.5366 79.6749 -17.1188 17.4162 16.7251
# 4 -7.2121 -6.0170 -17.1188 35.5734 -1.3967 1.8736
# 5 10.1952 20.4674 17.4162 -1.3967 35.2422 -5.0934
# 6 11.9376 1.4368 16.7251 1.8736 -5.0934 39.2012
#
#
#
# Elastic Compliance Matrix: (Units=1/GPa)
#
#
# Indices 1 2 3 4 5 6 
#
# 1 0.012768 -0.001587 -0.006461 -0.000727 0.000247 -0.001006
# 2 -0.001587 0.011976 -0.005326 -0.001102 -0.003634 0.001897
# 3 -0.006461 -0.005326 0.025315 0.010172 -0.008626 -0.010245
# 4 -0.000727 -0.001102 0.010172 0.032848 -0.003762 -0.006137
# 5 0.000247 -0.003634 -0.008626 -0.003762 0.035765 0.008565
# 6 -0.001006 0.001897 -0.010245 -0.006137 0.008565 0.031523
#
#
# Mechanical properties :
#
#
# Convention : Reuss Voigt Hill
#
# Bulk Modulus (GPa) = 42.89786 60.47450 51.68618
# Shear Modulus (GPa) = 27.06869 33.68226 30.37548
#
# Velocity S-wave (km/s) = 3.57344 3.98614 3.78542
# Velocity P-wave (km/s) = 6.10432 7.05083 6.59457
#
# Compressibility (1/GPa) = 0.02331118
#
# Stress axis : x y z
#
# Youngs Moduli (GPa) = 78.32171 83.49733 39.50183
#
# Poissons Ratio (x) = 0.13249 0.25523
# Poissons Ratio (y) = 0.12428 0.21039
# Poissons Ratio (z) = 0.50606 0.44472
#
# Static dielectric constant tensor:
#      x y z
#    x 3.914340 0.115190 0.263260 
#    y 0.115190 3.676950 0.053680 
#    z 0.263260 0.053680 3.950980 
# 
# 
# High freq. dielectric constant tensor:
#      x y z
#    x 1.839570 -0.002090 0.017360 
#    y -0.002090 1.842810 0.007260 
#    z 0.017360 0.007260 1.814960 
# 
# From -- ./inp_files/306999.got.cif
#   From: 2010.06.25/outbox.cif.g09.slc.cpg/sg2_154_cif.got.tgz:306999.got - 2010.06.27 13:26:56.
