data_PCOD8013422
_publ_section_title
;
Structure prediction by ZEFSAII (Michael W. Deem and Ramdas Pophale) SiO2 
 PCOD8013422
Probable space group: P -1
;
_chemical_formula_sum "Si O2"
_cell_formula_units_Z 16
_cell_length_a 8.758905
_cell_length_b 15.388532
_cell_length_c 8.553178
_cell_angle_alpha 119.270791
_cell_angle_beta 117.707458
_cell_angle_gamma 100.612561
_cell_volume 753.425422
_symmetry_space_group_name_H-M "P -1"
_symmetry_group_IT_number 2
_symmetry_cell_setting 'triclinic'
loop_
_space_group_symop_operation_xyz
x,y,z
-x,-y,-z
loop_
_atom_site_type_symbol
_atom_site_label
_atom_site_fract_x
_atom_site_fract_y
_atom_site_fract_z
Si Si1 0.920677 0.065944 0.418484
Si Si2 0.390260 0.905106 0.498639
Si Si3 0.697208 0.685728 0.189303
Si Si4 0.145942 0.673857 0.978268
Si Si5 0.700241 0.495171 0.603817
Si Si6 0.411392 0.074931 0.084937
Si Si7 0.673752 0.453841 0.896430
Si Si8 0.602929 0.297298 0.162043
O O1 0.752424 0.067238 0.445400
O O2 0.093207 0.196486 0.561956
O O3 0.000000 0.000000 0.500000
O O4 0.822654 0.993184 0.146446
O O5 0.563114 0.911723 0.702563
O O6 0.500000 0.000000 0.500000
O O7 0.256588 0.777089 0.247051
O O8 0.556353 0.633467 0.229526
O O9 0.744258 0.590119 0.063949
O O10 0.592125 0.721513 0.039779
O O11 0.246547 0.717001 0.893498
O O12 0.905816 0.625658 0.813435
O O13 0.170840 0.566494 0.949532
O O14 0.500000 0.500000 0.500000
O O15 0.683827 0.427553 0.696688
O O16 0.719245 0.426532 0.406805
O O17 0.535300 0.204291 0.185220
O O18 0.500000 0.000000 0.000000
#
# Coordination Sequence:
#
# PCOD8013422 Si02
#       8
#     2   2   2   2   2   2   2   2
#     4  11  22  42  72  97 133 179 224 275 345 396
#     4  11  25  45  66  98 136 176 230 279 332 401
#     4  10  21  40  67  97 132 178 219 278 339 406
#     4  11  24  42  68  93 132 184 220 275 342 405
#     4  12  24  41  63 100 135 166 225 282 335 398
#     4  10  22  41  65  98 127 173 224 278 326 400
#     4  10  22  41  64  94 134 177 221 272 340 403
#     4  11  22  42  67  93 136 173 225 273 344 398
#
# _framework density 21.236343999999999
#
# number of rings (size 3 to 8) (size 9 to 14) (size 15 to 20)
#    0.000    1.250    2.500    3.750    1.750    2.000 
#    6.750    0.625    0.000    0.000    0.000    0.000 
#    0.000    0.000    0.000    0.000    0.000    0.000 
#
# Total GULP energy -198414.274690 kJ/mol
# GULP energy per Si atom -12400.892168 kJ/mol
# Density = 2.118801 g / cm^3
# Si number density = 21.236344 Si / 1000 Ang^3
#
#
#
# Elastic Constant Matrix: (Units=GPa)
#
#
# Indices 1 2 3 4 5 6 
#
# 1 81.9320 29.7474 57.6114 -0.8266 8.2104 5.6717
# 2 29.7474 117.1808 57.3362 -1.3319 12.0293 13.5165
# 3 57.6114 57.3362 176.7798 -2.4597 12.5654 16.8642
# 4 -0.8266 -1.3319 -2.4597 35.6285 5.4568 -3.6488
# 5 8.2104 12.0293 12.5654 5.4568 36.3956 -0.8338
# 6 5.6717 13.5165 16.8642 -3.6488 -0.8338 34.4081
#
#
#
# Elastic Compliance Matrix: (Units=1/GPa)
#
#
# Indices 1 2 3 4 5 6 
#
# 1 0.016233 -0.001719 -0.004647 0.000252 -0.001521 0.000267
# 2 -0.001719 0.010757 -0.002491 0.000278 -0.002412 -0.002750
# 3 -0.004647 -0.002491 0.008280 0.000301 -0.001085 -0.002308
# 4 0.000252 0.000278 0.000301 0.029075 -0.004550 0.002675
# 5 -0.001521 -0.002412 -0.001085 -0.004550 0.029718 0.001968
# 6 0.000267 -0.002750 -0.002308 0.002675 0.001968 0.031562
#
#
# Mechanical properties :
#
#
# Convention : Reuss Voigt Hill
#
# Bulk Modulus (GPa) = 56.95561 73.92029 65.43795
# Shear Modulus (GPa) = 33.51378 36.69961 35.10669
#
# Velocity S-wave (km/s) = 3.97688 4.16161 4.07030
# Velocity P-wave (km/s) = 6.92572 7.61420 7.27810
#
# Compressibility (1/GPa) = 0.01755753
#
# Stress axis : x y z
#
# Youngs Moduli (GPa) = 61.60208 92.96173 120.76602
#
# Poissons Ratio (x) = 0.15982 0.56114
# Poissons Ratio (y) = 0.10590 0.30082
# Poissons Ratio (z) = 0.28624 0.23156
#
# Static dielectric constant tensor:
#      x y z
#    x 3.815020 -0.034200 0.020010 
#    y -0.034200 3.979110 -0.222860 
#    z 0.020010 -0.222860 4.128150 
# 
# 
# High freq. dielectric constant tensor:
#      x y z
#    x 1.822070 0.001550 -0.001550 
#    y 0.001550 1.839560 -0.002110 
#    z -0.001550 -0.002110 1.842320 
# 
# From -- ./inp_files/208851.got.cif
#   From: 2010.06.25/outbox.cif.g09.slc.cpg/sg2_105_cif.got.tgz:208851.got - 2010.06.27 13:26:56.
