data_PCOD8013095
_publ_section_title
;
Structure prediction by ZEFSAII (Michael W. Deem and Ramdas Pophale) SiO2 
 PCOD8013095
Probable space group: P -1
;
_chemical_formula_sum "Si O2"
_cell_formula_units_Z 16
_cell_length_a 17.088244
_cell_length_b 19.648755
_cell_length_c 7.391905
_cell_angle_alpha 128.022768
_cell_angle_beta 58.491033
_cell_angle_gamma 160.737754
_cell_volume 628.237080
_symmetry_space_group_name_H-M "P -1"
_symmetry_group_IT_number 2
_symmetry_cell_setting 'triclinic'
loop_
_space_group_symop_operation_xyz
x,y,z
-x,-y,-z
loop_
_atom_site_type_symbol
_atom_site_label
_atom_site_fract_x
_atom_site_fract_y
_atom_site_fract_z
Si Si1 0.144510 0.503337 0.642530
Si Si2 0.715828 0.201324 0.206033
Si Si3 0.739275 0.579826 0.678847
Si Si4 0.351822 0.972002 0.677042
Si Si5 0.847227 0.032216 0.912616
Si Si6 0.198829 0.546061 0.058002
Si Si7 0.714761 0.748210 0.482619
Si Si8 0.159168 0.320738 0.680632
O O1 0.185051 0.614594 0.629428
O O2 0.302872 0.560179 0.472236
O O3 0.204279 0.585035 0.906880
O O4 0.859080 0.226477 0.538397
O O5 0.616915 0.088241 0.339318
O O6 0.935053 0.326330 0.104986
O O7 0.500000 0.000000 0.000000
O O8 0.479610 0.402856 0.691624
O O9 0.896910 0.725154 0.540588
O O10 0.898810 0.758360 0.940998
O O11 0.296432 0.007578 0.927533
O O12 0.609209 0.225057 0.691329
O O13 0.911466 0.092668 0.719890
O O14 0.681487 0.799863 0.750631
O O15 0.277732 0.514643 0.921201
O O16 0.659026 0.603295 0.389166
O O17 0.000000 0.000000 0.500000
#
# Coordination Sequence:
#
# PCOD8013095 Si02
#       8
#     2   2   2   2   2   2   2   2
#     4  10  23  42  64  95 126 165 220 264 322 389
#     4  12  24  41  68  94 127 174 211 265 331 385
#     4  10  22  40  64  91 130 166 214 273 316 390
#     4  11  23  43  66  92 130 170 213 269 324 386
#     4  10  21  42  65  92 129 172 215 266 331 386
#     4  11  23  44  64  91 134 167 214 269 324 387
#     4  10  22  38  64  94 127 172 217 265 327 389
#     4  10  21  40  65  93 126 170 214 266 326 382
#
# _framework density 25.468091999999999
#
# number of rings (size 3 to 8) (size 9 to 14) (size 15 to 20)
#    0.000    1.500    2.500    2.625    0.000    3.000 
#    2.250   12.500    0.000    0.000    0.000    0.000 
#    0.000    0.000    0.000    0.000    0.000    0.000 
#
# Total GULP energy -198297.857542 kJ/mol
# GULP energy per Si atom -12393.616096 kJ/mol
# Density = 2.541013 g / cm^3
# Si number density = 25.468092 Si / 1000 Ang^3
#
#
#
# Elastic Constant Matrix: (Units=GPa)
#
#
# Indices 1 2 3 4 5 6 
#
# 1 135.9279 18.3776 32.0063 22.5266 -32.7369 0.6596
# 2 18.3776 70.8004 16.6861 23.7559 1.6909 4.7079
# 3 32.0063 16.6861 67.4217 28.3278 -17.8593 -7.2773
# 4 22.5266 23.7559 28.3278 38.2388 0.3226 2.1026
# 5 -32.7369 1.6909 -17.8593 0.3226 49.3645 5.3784
# 6 0.6596 4.7079 -7.2773 2.1026 5.3784 42.0899
#
#
#
# Elastic Compliance Matrix: (Units=1/GPa)
#
#
# Indices 1 2 3 4 5 6 
#
# 1 0.010036 -0.000923 -0.000968 -0.004632 0.006456 -0.000815
# 2 -0.000923 0.018024 0.000009 -0.010579 -0.001011 -0.001342
# 3 -0.000968 0.000009 0.025960 -0.018979 0.008397 0.004378
# 4 -0.004632 -0.010579 -0.018979 0.049773 -0.009542 -0.003293
# 5 0.006456 -0.001011 0.008397 -0.009542 0.027850 -0.001618
# 6 -0.000815 -0.001342 0.004378 -0.003293 -0.001618 0.025050
#
#
# Mechanical properties :
#
#
# Convention : Reuss Voigt Hill
#
# Bulk Modulus (GPa) = 19.89731 45.36556 32.63144
# Shear Modulus (GPa) = 28.21538 39.74399 33.97969
#
# Velocity S-wave (km/s) = 3.33208 3.95465 3.65664
# Velocity P-wave (km/s) = 4.75745 6.22123 5.53792
#
# Compressibility (1/GPa) = 0.05025806
#
# Stress axis : x y z
#
# Youngs Moduli (GPa) = 99.64262 55.48021 38.52092
#
# Poissons Ratio (x) = 0.05120 0.03727
# Poissons Ratio (y) = 0.09196 -0.00036
# Poissons Ratio (z) = 0.09641 -0.00052
#
# Static dielectric constant tensor:
#      x y z
#    x 5.101000 -0.016370 -0.516770 
#    y -0.016370 4.604460 0.112080 
#    z -0.516770 0.112080 4.608380 
# 
# 
# High freq. dielectric constant tensor:
#      x y z
#    x 2.028330 0.009160 -0.029200 
#    y 0.009160 2.015390 0.006930 
#    z -0.029200 0.006930 2.015360 
# 
# From -- ./inp_files/337823.got.cif
#   From: 2010.06.25/outbox.cif.g09.slc.cpg/sg2_169_cif.got.tgz:337823.got - 2010.06.27 13:26:56.
