data_PCOD8013612
_publ_section_title
;
Structure prediction by ZEFSAII (Michael W. Deem and Ramdas Pophale) SiO2 
 PCOD8013612
Probable space group: P -1
;
_chemical_formula_sum "Si O2"
_cell_formula_units_Z 16
_cell_length_a 19.960162
_cell_length_b 12.555491
_cell_length_c 7.616211
_cell_angle_alpha 52.640367
_cell_angle_beta 123.747800
_cell_angle_gamma 157.193322
_cell_volume 588.022088
_symmetry_space_group_name_H-M "P -1"
_symmetry_group_IT_number 2
_symmetry_cell_setting 'triclinic'
loop_
_space_group_symop_operation_xyz
x,y,z
-x,-y,-z
loop_
_atom_site_type_symbol
_atom_site_label
_atom_site_fract_x
_atom_site_fract_y
_atom_site_fract_z
Si Si1 0.915271 0.731130 0.160824
Si Si2 0.633652 0.784425 0.169294
Si Si3 0.525686 0.215183 0.897736
Si Si4 0.246274 0.589604 0.197642
Si Si5 0.098948 0.787414 0.556072
Si Si6 0.416859 0.200670 0.411624
Si Si7 0.050096 0.718093 0.091375
Si Si8 0.395851 0.713053 0.625429
O O1 0.964464 0.699665 0.113487
O O2 0.709266 0.454648 0.174661
O O3 0.983535 0.751274 0.413626
O O4 0.000000 0.000000 0.000000
O O5 0.486314 0.681619 0.080393
O O6 0.540408 0.506768 0.321966
O O7 0.762787 0.992824 0.310450
O O8 0.747028 0.960323 0.979110
O O9 0.723998 0.462318 0.884053
O O10 0.438365 0.124489 0.674379
O O11 0.414155 0.932186 0.102402
O O12 0.256781 0.512532 0.463396
O O13 0.070016 0.418493 0.117768
O O14 0.980999 0.482449 0.706908
O O15 0.211566 0.938837 0.381626
O O16 0.472916 0.218121 0.288920
O O17 0.500000 0.000000 0.500000
#
# Coordination Sequence:
#
# PCOD8013612 Si02
#       8
#     2   2   2   2   2   2   2   2
#     4  12  29  47  63  96 143 181 217 276 348 390
#     4  11  22  39  71 100 134 167 224 276 336 392
#     4   9  19  35  65  99 129 158 217 267 329 372
#     4  10  21  40  70 100 127 168 228 276 316 393
#     4  11  23  46  68  97 134 178 220 279 333 398
#     4  10  21  43  66 100 132 170 222 273 331 399
#     4  12  24  43  69 101 132 176 229 275 325 403
#     4  11  25  45  70  97 133 178 227 271 330 397
#
# _framework density 27.209862999999999
#
# number of rings (size 3 to 8) (size 9 to 14) (size 15 to 20)
#    0.000    1.250    2.500    4.500    5.250    3.000 
#    0.000    5.625    0.000    0.000    0.000    0.000 
#    0.000    0.000    0.000    0.000    0.000    0.000 
#
# Total GULP energy -198357.265377 kJ/mol
# GULP energy per Si atom -12397.329086 kJ/mol
# Density = 2.714793 g / cm^3
# Si number density = 27.209863 Si / 1000 Ang^3
#
#
#
# Elastic Constant Matrix: (Units=GPa)
#
#
# Indices 1 2 3 4 5 6 
#
# 1 183.6486 42.9310 44.0674 -8.0388 6.1557 15.1773
# 2 42.9310 85.9123 26.4359 -29.7167 19.8893 22.0806
# 3 44.0674 26.4359 76.9701 -15.8125 7.9898 12.1111
# 4 -8.0388 -29.7167 -15.8125 43.0006 -1.5099 12.2461
# 5 6.1557 19.8893 7.9898 -1.5099 54.6298 0.6840
# 6 15.1773 22.0806 12.1111 12.2461 0.6840 57.0372
#
#
#
# Elastic Compliance Matrix: (Units=1/GPa)
#
#
# Indices 1 2 3 4 5 6 
#
# 1 0.006958 -0.003941 -0.003517 -0.002977 0.001070 0.001048
# 2 -0.003941 0.026231 0.000641 0.021232 -0.008441 -0.013699
# 3 -0.003517 0.000641 0.017220 0.007330 -0.002096 -0.004517
# 4 -0.002977 0.021232 0.007330 0.045115 -0.006987 -0.018586
# 5 0.001070 -0.008441 -0.002096 -0.006987 0.021313 0.004673
# 6 0.001048 -0.013699 -0.004517 -0.018586 0.004673 0.027451
#
#
# Mechanical properties :
#
#
# Convention : Reuss Voigt Hill
#
# Bulk Modulus (GPa) = 27.19364 63.71105 45.45235
# Shear Modulus (GPa) = 29.38049 46.47331 37.92690
#
# Velocity S-wave (km/s) = 3.28956 4.13723 3.73750
# Velocity P-wave (km/s) = 4.94408 6.80351 5.94692
#
# Compressibility (1/GPa) = 0.03677330
#
# Stress axis : x y z
#
# Youngs Moduli (GPa) = 143.72411 38.12261 58.07163
#
# Poissons Ratio (x) = 0.15025 0.20426
# Poissons Ratio (y) = 0.56646 -0.03721
# Poissons Ratio (z) = 0.50553 -0.02443
#
# Static dielectric constant tensor:
#      x y z
#    x 5.427760 -0.029390 -0.684810 
#    y -0.029390 4.648570 0.403220 
#    z -0.684810 0.403220 5.231770 
# 
# 
# High freq. dielectric constant tensor:
#      x y z
#    x 2.129670 0.020090 -0.012580 
#    y 0.020090 2.091060 0.040710 
#    z -0.012580 0.040710 2.115960 
# 
# From -- ./inp_files/332927.got.cif
#   From: 2010.06.25/outbox.cif.g09.slc.cpg/sg2_167_cif.got.tgz:332927.got - 2010.06.27 13:26:56.
