data_PCOD8013997
_publ_section_title
;
Structure prediction by ZEFSAII (Michael W. Deem and Ramdas Pophale) SiO2 
 PCOD8013997
Probable space group: P -1
;
_chemical_formula_sum "Si O2"
_cell_formula_units_Z 16
_cell_length_a 8.917498
_cell_length_b 19.322285
_cell_length_c 9.448807
_cell_angle_alpha 134.884256
_cell_angle_beta 116.513391
_cell_angle_gamma 42.779259
_cell_volume 774.761012
_symmetry_space_group_name_H-M "P -1"
_symmetry_group_IT_number 2
_symmetry_cell_setting 'triclinic'
loop_
_space_group_symop_operation_xyz
x,y,z
-x,-y,-z
loop_
_atom_site_type_symbol
_atom_site_label
_atom_site_fract_x
_atom_site_fract_y
_atom_site_fract_z
Si Si1 0.035306 0.279446 0.455664
Si Si2 0.479538 0.793155 0.207788
Si Si3 0.838622 0.246607 0.074980
Si Si4 0.591290 0.722684 0.473277
Si Si5 0.711721 0.460016 0.111276
Si Si6 0.977789 0.619095 0.128446
Si Si7 0.802502 0.974204 0.752426
Si Si8 0.791533 0.055086 0.162466
O O1 0.176156 0.306977 0.469785
O O2 0.912226 0.369216 0.672172
O O3 0.215408 0.134158 0.387049
O O4 0.856483 0.292924 0.301628
O O5 0.478461 0.768488 0.337258
O O6 0.716192 0.737530 0.170053
O O7 0.326484 0.945246 0.327413
O O8 0.382247 0.735742 0.000528
O O9 0.818042 0.341870 0.092645
O O10 0.059332 0.092912 0.924499
O O11 0.647956 0.588209 0.343159
O O12 0.420547 0.838732 0.676952
O O13 0.500000 0.500000 0.000000
O O14 0.904343 0.399086 0.991084
O O15 0.000000 0.500000 0.000000
O O16 0.060212 0.905070 0.735264
O O17 0.702904 0.063989 0.980962
#
# Coordination Sequence:
#
# PCOD8013997 Si02
#       8
#     2   2   2   2   2   2   2   2
#     4  10  23  40  64  92 125 160 207 255 307 367
#     4  10  21  41  64  90 125 160 206 255 305 364
#     4  10  22  43  64  92 125 163 211 247 309 374
#     4  11  23  40  62  93 130 158 205 261 307 359
#     4  12  24  43  64  92 125 166 207 253 310 372
#     4  11  22  43  62  85 128 163 201 260 302 359
#     4   9  20  39  63  93 122 159 209 249 313 365
#     4   9  21  40  63  91 129 160 203 262 300 367
#
# _framework density 20.651527000000002
#
# number of rings (size 3 to 8) (size 9 to 14) (size 15 to 20)
#    0.000    1.750    3.750    0.750    1.750    9.500 
#    2.250    1.250    0.000    0.000    0.000    0.000 
#    0.000    0.000    0.000    0.000    0.000    0.000 
#
# Total GULP energy -198278.112325 kJ/mol
# GULP energy per Si atom -12392.382020 kJ/mol
# Density = 2.060452 g / cm^3
# Si number density = 20.651527 Si / 1000 Ang^3
#
#
#
# Elastic Constant Matrix: (Units=GPa)
#
#
# Indices 1 2 3 4 5 6 
#
# 1 54.8910 22.4640 17.1088 0.7725 -0.0542 12.7764
# 2 22.4640 74.9400 20.8507 -3.7772 -5.7177 26.2867
# 3 17.1088 20.8507 86.7114 -3.3642 -1.9038 -2.9980
# 4 0.7725 -3.7772 -3.3642 31.1949 -1.6842 9.5829
# 5 -0.0542 -5.7177 -1.9038 -1.6842 34.2251 4.8418
# 6 12.7764 26.2867 -2.9980 9.5829 4.8418 30.7838
#
#
#
# Elastic Compliance Matrix: (Units=1/GPa)
#
#
# Indices 1 2 3 4 5 6 
#
# 1 0.022375 -0.002835 -0.003946 0.001054 0.000477 -0.007653
# 2 -0.002835 0.026599 -0.006143 0.011384 0.008479 -0.027012
# 3 -0.003946 -0.006143 0.013989 -0.002033 -0.001647 0.009137
# 4 0.001054 0.011384 -0.002033 0.041036 0.007243 -0.024270
# 5 0.000477 0.008479 -0.001647 0.007243 0.033029 -0.015048
# 6 -0.007653 -0.027012 0.009137 -0.024270 -0.015048 0.069539
#
#
# Mechanical properties :
#
#
# Convention : Reuss Voigt Hill
#
# Bulk Modulus (GPa) = 26.94366 37.48771 32.21568
# Shear Modulus (GPa) = 20.42591 29.64868 25.03729
#
# Velocity S-wave (km/s) = 3.14837 3.79313 3.48569
# Velocity P-wave (km/s) = 5.12752 6.11357 5.64212
#
# Compressibility (1/GPa) = 0.03711448
#
# Stress axis : x y z
#
# Youngs Moduli (GPa) = 44.69244 37.59583 71.48455
#
# Poissons Ratio (x) = 0.10660 0.28209
# Poissons Ratio (y) = 0.12672 0.43910
# Poissons Ratio (z) = 0.17637 0.23093
#
# Static dielectric constant tensor:
#      x y z
#    x 3.554910 0.218330 0.215790 
#    y 0.218330 3.814960 0.071260 
#    z 0.215790 0.071260 3.804500 
# 
# 
# High freq. dielectric constant tensor:
#      x y z
#    x 1.803360 0.014520 0.018950 
#    y 0.014520 1.811000 0.000980 
#    z 0.018950 0.000980 1.807300 
# 
# From -- ./inp_files/218695.got.cif
#   From: 2010.06.25/outbox.cif.g09.slc.cpg/sg2_110_cif.got.tgz:218695.got - 2010.06.27 13:26:56.
