data_PCOD8013177
_publ_section_title
;
Structure prediction by ZEFSAII (Michael W. Deem and Ramdas Pophale) SiO2 
 PCOD8013177
Probable space group: P -1
;
_chemical_formula_sum "Si O2"
_cell_formula_units_Z 16
_cell_length_a 15.560047
_cell_length_b 10.986981
_cell_length_c 11.797044
_cell_angle_alpha 129.727252
_cell_angle_beta 28.174094
_cell_angle_gamma 121.710075
_cell_volume 728.384767
_symmetry_space_group_name_H-M "P -1"
_symmetry_group_IT_number 2
_symmetry_cell_setting 'triclinic'
loop_
_space_group_symop_operation_xyz
x,y,z
-x,-y,-z
loop_
_atom_site_type_symbol
_atom_site_label
_atom_site_fract_x
_atom_site_fract_y
_atom_site_fract_z
Si Si1 0.365868 0.923985 0.784197
Si Si2 0.729038 0.299183 0.423805
Si Si3 0.033057 0.994905 0.640614
Si Si4 0.414322 0.344127 0.210592
Si Si5 0.334912 0.857061 0.370467
Si Si6 0.024470 0.250282 0.619763
Si Si7 0.069053 0.422013 0.990204
Si Si8 0.543701 0.672712 0.586324
O O1 0.382908 0.822635 0.588494
O O2 0.395144 0.805288 0.786788
O O3 0.516968 0.046423 0.682599
O O4 0.165260 0.018354 0.082426
O O5 0.605817 0.466714 0.668810
O O6 0.764462 0.236805 0.473024
O O7 0.924088 0.311644 0.144334
O O8 0.185348 0.975689 0.549804
O O9 0.075710 0.855410 0.415206
O O10 0.039689 0.166470 0.676006
O O11 0.227876 0.271064 0.351557
O O12 0.464134 0.299032 0.254492
O O13 0.573232 0.270693 0.900648
O O14 0.908990 0.424409 0.863569
O O15 0.256467 0.309778 0.688992
O O16 0.000000 0.500000 0.000000
O O17 0.500000 0.500000 0.500000
#
# Coordination Sequence:
#
# PCOD8013177 Si02
#       8
#     2   2   2   2   2   2   2   2
#     4  12  26  45  70 103 137 181 232 292 339 408
#     4  11  25  48  71  97 140 185 229 286 336 415
#     4  11  25  42  67 101 142 177 225 286 346 407
#     4  11  23  45  70 102 137 179 228 290 339 410
#     4  12  28  46  68  99 142 192 228 268 354 418
#     4  10  21  40  66 100 137 174 223 293 338 398
#     4  11  21  42  71 100 134 174 234 286 341 397
#     4  12  23  40  72 109 135 174 230 292 353 391
#
# _framework density 21.966411999999998
#
# number of rings (size 3 to 8) (size 9 to 14) (size 15 to 20)
#    0.000    0.750    5.000    3.000    7.000    1.500 
#    2.250    2.500    0.000    0.000    0.000    0.000 
#    0.000    0.000    0.000    0.000    0.000    0.000 
#
# Total GULP energy -198483.079711 kJ/mol
# GULP energy per Si atom -12405.192482 kJ/mol
# Density = 2.191642 g / cm^3
# Si number density = 21.966412 Si / 1000 Ang^3
#
#
#
# Elastic Constant Matrix: (Units=GPa)
#
#
# Indices 1 2 3 4 5 6 
#
# 1 102.4092 39.2949 56.5331 -4.5572 8.4683 -4.8411
# 2 39.2949 74.2336 45.1834 -7.9284 14.7336 2.0175
# 3 56.5331 45.1834 110.3867 -13.7044 -4.6227 -2.6672
# 4 -4.5572 -7.9284 -13.7044 29.4310 -3.4167 5.5957
# 5 8.4683 14.7336 -4.6227 -3.4167 29.4275 -2.4180
# 6 -4.8411 2.0175 -2.6672 5.5957 -2.4180 38.8337
#
#
#
# Elastic Compliance Matrix: (Units=1/GPa)
#
#
# Indices 1 2 3 4 5 6 
#
# 1 0.015100 -0.003431 -0.006759 -0.002506 -0.003839 0.001718
# 2 -0.003431 0.022646 -0.007941 0.001088 -0.011722 -0.003036
# 3 -0.006759 -0.007941 0.016873 0.005653 0.009268 0.000491
# 4 -0.002506 0.001088 0.005653 0.038083 0.005063 -0.005153
# 5 -0.003839 -0.011722 0.009268 0.005063 0.043223 0.002729
# 6 0.001718 -0.003036 0.000491 -0.005153 0.002729 0.027069
#
#
# Mechanical properties :
#
#
# Convention : Reuss Voigt Hill
#
# Bulk Modulus (GPa) = 54.47951 63.22802 58.85376
# Shear Modulus (GPa) = 24.34568 29.27299 26.80934
#
# Velocity S-wave (km/s) = 3.33275 3.65447 3.49731
# Velocity P-wave (km/s) = 6.29799 6.83033 6.56955
#
# Compressibility (1/GPa) = 0.01835553
#
# Stress axis : x y z
#
# Youngs Moduli (GPa) = 66.22659 44.15762 59.26654
#
# Poissons Ratio (x) = 0.15152 0.40058
# Poissons Ratio (y) = 0.22725 0.47065
# Poissons Ratio (z) = 0.44762 0.35067
#
# Static dielectric constant tensor:
#      x y z
#    x 4.509430 0.034940 0.029310 
#    y 0.034940 3.977830 0.067720 
#    z 0.029310 0.067720 4.150050 
# 
# 
# High freq. dielectric constant tensor:
#      x y z
#    x 1.854500 0.018770 0.006710 
#    y 0.018770 1.866790 0.007140 
#    z 0.006710 0.007140 1.869770 
# 
# From -- ./inp_files/451720.got.cif
#   From: 2010.06.25/outbox.cif.g09.slc.cpg/sg2_226_cif.got.tgz:451720.got - 2010.06.27 13:26:56.
