data_PCOD8013896
_publ_section_title
;
Structure prediction by ZEFSAII (Michael W. Deem and Ramdas Pophale) SiO2 
 PCOD8013896
Probable space group: P -1
;
_chemical_formula_sum "Si O2"
_cell_formula_units_Z 12
_cell_length_a 7.027404
_cell_length_b 8.649985
_cell_length_c 12.047676
_cell_angle_alpha 82.991556
_cell_angle_beta 75.065670
_cell_angle_gamma 123.320433
_cell_volume 558.885760
_symmetry_space_group_name_H-M "P -1"
_symmetry_group_IT_number 2
_symmetry_cell_setting 'triclinic'
loop_
_space_group_symop_operation_xyz
x,y,z
-x,-y,-z
loop_
_atom_site_type_symbol
_atom_site_label
_atom_site_fract_x
_atom_site_fract_y
_atom_site_fract_z
Si Si1 0.435135 0.267660 0.220984
Si Si2 0.247457 0.290850 0.860200
Si Si3 0.311183 0.051473 0.031687
Si Si4 0.179607 0.264146 0.464644
Si Si5 0.512353 0.700048 0.393442
Si Si6 0.608988 0.024543 0.600868
O O1 0.652665 0.491753 0.135222
O O2 0.307727 0.134229 0.143847
O O3 0.230843 0.261577 0.326220
O O4 0.542426 0.175110 0.286862
O O5 0.306441 0.296092 0.721503
O O6 0.377867 0.215849 0.917375
O O7 0.955213 0.150054 0.936124
O O8 0.500000 0.000000 0.000000
O O9 0.266490 0.478436 0.467703
O O10 0.338696 0.216460 0.518977
O O11 0.892830 0.103465 0.548325
O O12 0.421512 0.822296 0.349315
O O13 0.500000 0.000000 0.500000
#
# Coordination Sequence:
#
# PCOD8013896 Si02
#       6
#     2   2   2   2   2   2
#     4  11  23  43  64  93 128 165 207 258 312 366
#     4  10  24  44  65  92 125 163 207 261 313 369
#     4  11  24  45  68  90 121 162 212 264 316 367
#     4  10  22  40  61  91 129 167 206 254 306 372
#     4  10  21  41  63  89 127 167 207 254 311 366
#     4  12  23  36  60  97 129 165 207 245 307 374
#
# _framework density 21.471295000000001
#
# number of rings (size 3 to 8) (size 9 to 14) (size 15 to 20)
#    0.000    1.333    1.667    3.500    2.333    0.667 
#    9.000    0.000    0.000    0.000    0.000    0.000 
#    0.000    0.000    0.000    0.000    0.000    0.000 
#
# Total GULP energy -148810.661912 kJ/mol
# GULP energy per Si atom -12400.888493 kJ/mol
# Density = 2.142243 g / cm^3
# Si number density = 21.471295 Si / 1000 Ang^3
#
#
#
# Elastic Constant Matrix: (Units=GPa)
#
#
# Indices 1 2 3 4 5 6 
#
# 1 116.7562 61.5618 33.3424 -11.7788 10.2095 -13.6855
# 2 61.5618 139.8289 37.8786 -24.0848 12.6842 -9.4471
# 3 33.3424 37.8786 79.9798 -5.4331 17.1251 0.2984
# 4 -11.7788 -24.0848 -5.4331 46.5312 -8.4705 9.9735
# 5 10.2095 12.6842 17.1251 -8.4705 34.6364 -2.6781
# 6 -13.6855 -9.4471 0.2984 9.9735 -2.6781 31.5077
#
#
#
# Elastic Compliance Matrix: (Units=1/GPa)
#
#
# Indices 1 2 3 4 5 6 
#
# 1 0.012163 -0.004309 -0.003009 -0.000445 -0.000308 0.004134
# 2 -0.004309 0.010535 -0.002883 0.003984 -0.000185 0.000038
# 3 -0.003009 -0.002883 0.016490 -0.000986 -0.006651 -0.002581
# 4 -0.000445 0.003984 -0.000986 0.025655 0.004916 -0.006692
# 5 -0.000308 -0.000185 -0.006651 0.004916 0.033612 0.001174
# 6 0.004134 0.000038 -0.002581 -0.006692 0.001174 0.035788
#
#
# Mechanical properties :
#
#
# Convention : Reuss Voigt Hill
#
# Bulk Modulus (GPa) = 53.23344 66.90338 60.06841
# Shear Modulus (GPa) = 31.07392 36.12054 33.59723
#
# Velocity S-wave (km/s) = 3.80838 4.10600 3.95998
# Velocity P-wave (km/s) = 6.64718 7.32844 6.99611
#
# Compressibility (1/GPa) = 0.01878519
#
# Stress axis : x y z
#
# Youngs Moduli (GPa) = 82.21694 94.91927 60.64356
#
# Poissons Ratio (x) = 0.40902 0.18250
# Poissons Ratio (y) = 0.35428 0.17483
# Poissons Ratio (z) = 0.24742 0.27365
#
# Static dielectric constant tensor:
#      x y z
#    x 3.824710 -0.344970 0.193580 
#    y -0.344970 4.434940 -0.120570 
#    z 0.193580 -0.120570 3.837600 
# 
# 
# High freq. dielectric constant tensor:
#      x y z
#    x 1.825340 -0.017440 0.014280 
#    y -0.017440 1.866650 -0.001420 
#    z 0.014280 -0.001420 1.840770 
# 
# From -- ./inp_files/27989.got.cif
#   From: 2010.06.25/outbox.cif.g09.slc.cpg/sg2_14_cif.got.tgz:27989.got - 2010.06.27 13:26:56.
