data_PCOD8013539
_publ_section_title
;
Structure prediction by ZEFSAII (Michael W. Deem and Ramdas Pophale) SiO2 
 PCOD8013539
Probable space group: P -1
;
_chemical_formula_sum "Si O2"
_cell_formula_units_Z 16
_cell_length_a 13.659162
_cell_length_b 8.850534
_cell_length_c 11.676155
_cell_angle_alpha 126.264803
_cell_angle_beta 42.298877
_cell_angle_gamma 124.005643
_cell_volume 746.416009
_symmetry_space_group_name_H-M "P -1"
_symmetry_group_IT_number 2
_symmetry_cell_setting 'triclinic'
loop_
_space_group_symop_operation_xyz
x,y,z
-x,-y,-z
loop_
_atom_site_type_symbol
_atom_site_label
_atom_site_fract_x
_atom_site_fract_y
_atom_site_fract_z
Si Si1 0.247383 0.464058 0.901145
Si Si2 0.808751 0.424621 0.744763
Si Si3 0.553603 0.463410 0.563269
Si Si4 0.317058 0.166335 0.250742
Si Si5 0.055722 0.219201 0.356067
Si Si6 0.304961 0.791029 0.806427
Si Si7 0.452021 0.886685 0.149423
Si Si8 0.999017 0.090265 0.917216
O O1 0.405293 0.396593 0.740109
O O2 0.267556 0.643784 0.878306
O O3 0.119028 0.289372 0.888325
O O4 0.202895 0.531377 0.091964
O O5 0.830994 0.621027 0.743660
O O6 0.655544 0.287865 0.767813
O O7 0.944258 0.319619 0.565986
O O8 0.500000 0.500000 0.500000
O O9 0.663838 0.652024 0.601007
O O10 0.653049 0.304648 0.391010
O O11 0.152627 0.125215 0.319353
O O12 0.335023 0.978047 0.218813
O O13 0.445318 0.210291 0.063930
O O14 0.966078 0.054961 0.274974
O O15 0.449291 0.957981 0.783877
O O16 0.166615 0.883017 0.945790
O O17 0.000000 0.000000 0.000000
#
# Coordination Sequence:
#
# PCOD8013539 Si02
#       8
#     2   2   2   2   2   2   2   2
#     4  11  22  45  68  95 131 176 214 273 329 383
#     4  11  25  44  67  93 136 176 220 269 322 391
#     4  10  21  40  68  99 133 165 213 271 332 379
#     4  11  21  41  69  96 135 166 218 274 322 388
#     4  11  27  45  64  97 134 179 221 261 331 389
#     4  11  24  44  68 102 129 171 219 272 330 391
#     4  11  21  42  68  97 129 165 219 275 321 382
#     4  12  26  46  67  93 138 177 217 268 327 394
#
# _framework density 21.435767999999999
#
# number of rings (size 3 to 8) (size 9 to 14) (size 15 to 20)
#    0.000    1.000    6.250    1.125    3.500    1.000 
#    2.250    0.625    0.000    0.000    0.000    0.000 
#    0.000    0.000    0.000    0.000    0.000    0.000 
#
# Total GULP energy -198409.824248 kJ/mol
# GULP energy per Si atom -12400.614016 kJ/mol
# Density = 2.138698 g / cm^3
# Si number density = 21.435768 Si / 1000 Ang^3
#
#
#
# Elastic Constant Matrix: (Units=GPa)
#
#
# Indices 1 2 3 4 5 6 
#
# 1 61.6365 19.6611 22.2876 3.7041 5.6215 12.8749
# 2 19.6611 114.0277 33.2412 0.7049 6.8339 34.4391
# 3 22.2876 33.2412 130.9991 15.9124 16.7316 1.0065
# 4 3.7041 0.7049 15.9124 33.3742 7.5976 0.8446
# 5 5.6215 6.8339 16.7316 7.5976 30.0307 11.9289
# 6 12.8749 34.4391 1.0065 0.8446 11.9289 31.0481
#
#
#
# Elastic Compliance Matrix: (Units=1/GPa)
#
#
# Indices 1 2 3 4 5 6 
#
# 1 0.019081 0.000250 -0.003403 -0.000721 0.001949 -0.008809
# 2 0.000250 0.015822 -0.004889 0.000920 0.006848 -0.020152
# 3 -0.003403 -0.004889 0.010678 -0.003235 -0.007073 0.009294
# 4 -0.000721 0.000920 -0.003235 0.033163 -0.007150 0.001228
# 5 0.001949 0.006848 -0.007073 -0.007150 0.047553 -0.026251
# 6 -0.008809 -0.020152 0.009294 0.001228 -0.026251 0.067965
#
#
# Mechanical properties :
#
#
# Convention : Reuss Voigt Hill
#
# Bulk Modulus (GPa) = 33.90240 50.78256 42.34248
# Shear Modulus (GPa) = 22.70891 34.32216 28.51553
#
# Velocity S-wave (km/s) = 3.25836 4.00579 3.65125
# Velocity P-wave (km/s) = 5.47778 6.71842 6.12957
#
# Compressibility (1/GPa) = 0.02949643
#
# Stress axis : x y z
#
# Youngs Moduli (GPa) = 52.40931 63.20300 93.64819
#
# Poissons Ratio (x) = -0.01582 0.31873
# Poissons Ratio (y) = -0.01312 0.45785
# Poissons Ratio (z) = 0.17837 0.30901
#
# Static dielectric constant tensor:
#      x y z
#    x 3.922330 0.130390 -0.267770 
#    y 0.130390 3.965650 0.167120 
#    z -0.267770 0.167120 4.679790 
# 
# 
# High freq. dielectric constant tensor:
#      x y z
#    x 1.827940 0.018010 -0.003730 
#    y 0.018010 1.842330 0.012710 
#    z -0.003730 0.012710 1.859300 
# 
# From -- ./inp_files/298224.got.cif
#   From: 2010.06.25/outbox.cif.g09.slc.cpg/sg2_150_cif.got.tgz:298224.got - 2010.06.27 13:26:56.
