data_PCOD8013559
_publ_section_title
;
Structure prediction by ZEFSAII (Michael W. Deem and Ramdas Pophale) SiO2 
 PCOD8013559
Probable space group: P -1
;
_chemical_formula_sum "Si O2"
_cell_formula_units_Z 14
_cell_length_a 5.080031
_cell_length_b 24.799104
_cell_length_c 6.443625
_cell_angle_alpha 49.726128
_cell_angle_beta 75.527404
_cell_angle_gamma 81.294505
_cell_volume 599.639247
_symmetry_space_group_name_H-M "P -1"
_symmetry_group_IT_number 2
_symmetry_cell_setting 'triclinic'
loop_
_space_group_symop_operation_xyz
x,y,z
-x,-y,-z
loop_
_atom_site_type_symbol
_atom_site_label
_atom_site_fract_x
_atom_site_fract_y
_atom_site_fract_z
Si Si1 0.559702 0.285153 0.225360
Si Si2 0.682460 0.017011 0.725827
Si Si3 0.288847 0.493064 0.366906
Si Si4 0.076452 0.629638 0.332359
Si Si5 0.232515 0.086834 0.381237
Si Si6 0.111688 0.237571 0.151808
Si Si7 0.374744 0.607401 0.725078
O O1 0.287923 0.245306 0.306865
O O2 0.521649 0.318826 0.377170
O O3 0.802665 0.227912 0.319097
O O4 0.637188 0.346813 0.888510
O O5 0.513131 0.068878 0.483443
O O6 0.969349 0.054555 0.635494
O O7 0.754465 0.943804 0.777813
O O8 0.500000 0.000000 0.000000
O O9 0.500000 0.500000 0.500000
O O10 0.383840 0.427341 0.365312
O O11 0.989187 0.448877 0.571041
O O12 0.269427 0.559003 0.053660
O O13 0.116285 0.621108 0.592304
O O14 0.857831 0.690806 0.171906
O O15 0.206808 0.171302 0.162432
#
# Coordination Sequence:
#
# PCOD8013559 Si02
#       7
#     2   2   2   2   2   2   2
#     4  10  23  43  66  92 136 173 221 275 333 399
#     4  10  21  40  69 103 135 172 222 271 314 382
#     4  11  22  43  65  95 126 171 223 285 341 403
#     4  10  23  41  64  93 131 168 220 279 330 399
#     4  10  21  41  68  97 139 177 214 271 326 377
#     4  10  22  44  67  95 139 179 216 273 333 395
#     4  11  24  41  68  94 126 174 226 278 350 388
#
# _framework density 23.347367999999999
#
# number of rings (size 3 to 8) (size 9 to 14) (size 15 to 20)
#    0.857    0.857    1.429    2.571    2.000    0.571 
#    7.714    2.857    0.000    0.000    0.000    0.000 
#    0.000    0.000    0.000    0.000    0.000    0.000 
#
# Total GULP energy -173543.567128 kJ/mol
# GULP energy per Si atom -12395.969081 kJ/mol
# Density = 2.329423 g / cm^3
# Si number density = 23.347368 Si / 1000 Ang^3
#
#
#
# Elastic Constant Matrix: (Units=GPa)
#
#
# Indices 1 2 3 4 5 6 
#
# 1 137.7312 50.1131 22.7087 7.4638 16.0469 8.0999
# 2 50.1131 182.3159 47.4941 -3.9315 25.3492 -5.6615
# 3 22.7087 47.4941 63.6812 13.8690 3.8809 0.1050
# 4 7.4638 -3.9315 13.8690 36.0264 -4.3156 2.9526
# 5 16.0469 25.3492 3.8809 -4.3156 35.3788 5.6570
# 6 8.0999 -5.6615 0.1050 2.9526 5.6570 38.3635
#
#
#
# Elastic Compliance Matrix: (Units=1/GPa)
#
#
# Indices 1 2 3 4 5 6 
#
# 1 0.008578 -0.001791 -0.001210 -0.001667 -0.002425 -0.001586
# 2 -0.001791 0.008245 -0.005859 0.002827 -0.004435 0.002047
# 3 -0.001210 -0.005859 0.022352 -0.008830 0.001246 -0.000175
# 4 -0.001667 0.002827 -0.008830 0.032482 0.004029 -0.002301
# 5 -0.002425 -0.004435 0.001246 0.004029 0.033767 -0.005435
# 6 -0.001586 0.002047 -0.000175 -0.002301 -0.005435 0.027682
#
#
# Mechanical properties :
#
#
# Convention : Reuss Voigt Hill
#
# Bulk Modulus (GPa) = 46.60962 69.37336 57.99149
# Shear Modulus (GPa) = 31.65023 39.51455 35.58239
#
# Velocity S-wave (km/s) = 3.68587 4.11842 3.90813
# Velocity P-wave (km/s) = 6.17423 7.23832 6.72734
#
# Compressibility (1/GPa) = 0.02145480
#
# Stress axis : x y z
#
# Youngs Moduli (GPa) = 116.58230 121.28948 44.73865
#
# Poissons Ratio (x) = 0.21719 0.05413
# Poissons Ratio (y) = 0.20876 0.26214
# Poissons Ratio (z) = 0.14104 0.71067
#
# Static dielectric constant tensor:
#      x y z
#    x 4.401110 -0.164470 -0.035910 
#    y -0.164470 4.505510 0.154660 
#    z -0.035910 0.154660 3.747630 
# 
# 
# High freq. dielectric constant tensor:
#      x y z
#    x 1.942920 -0.009680 -0.002510 
#    y -0.009680 1.948020 0.011860 
#    z -0.002510 0.011860 1.889050 
# 
# From -- ./inp_files/12212.got.cif
#   From: 2010.06.25/outbox.cif.g09.slc.cpg/sg2_7_cif.got.tgz:12212.got - 2010.06.27 13:26:56.
