data_PCOD8013082
_publ_section_title
;
Structure prediction by ZEFSAII (Michael W. Deem and Ramdas Pophale) SiO2 
 PCOD8013082
Probable space group: P -1
;
_chemical_formula_sum "Si O2"
_cell_formula_units_Z 16
_cell_length_a 7.506469
_cell_length_b 18.365705
_cell_length_c 10.219628
_cell_angle_alpha 53.499749
_cell_angle_beta 136.001774
_cell_angle_gamma 120.579930
_cell_volume 778.417868
_symmetry_space_group_name_H-M "P -1"
_symmetry_group_IT_number 2
_symmetry_cell_setting 'triclinic'
loop_
_space_group_symop_operation_xyz
x,y,z
-x,-y,-z
loop_
_atom_site_type_symbol
_atom_site_label
_atom_site_fract_x
_atom_site_fract_y
_atom_site_fract_z
Si Si1 0.237818 0.103538 0.203838
Si Si2 0.661962 0.077692 0.657980
Si Si3 0.642675 0.094449 0.924961
Si Si4 0.943447 0.267429 0.544904
Si Si5 0.354241 0.468133 0.825088
Si Si6 0.578064 0.286536 0.094600
Si Si7 0.790304 0.386074 0.578384
Si Si8 0.528583 0.271177 0.800576
O O1 0.399176 0.076708 0.440295
O O2 0.358929 0.199542 0.100978
O O3 0.232459 0.020123 0.186635
O O4 0.951018 0.110445 0.095741
O O5 0.581631 0.101667 0.733645
O O6 0.884785 0.157329 0.641154
O O7 0.506243 0.168423 0.849275
O O8 0.500000 0.000000 0.000000
O O9 0.802072 0.298922 0.307588
O O10 0.848250 0.313557 0.575824
O O11 0.246634 0.297633 0.653833
O O12 0.403957 0.549126 0.656414
O O13 0.044852 0.448602 0.702546
O O14 0.500000 0.500000 0.000000
O O15 0.445350 0.376671 0.920587
O O16 0.689772 0.277161 0.016704
O O17 0.660728 0.337751 0.688872
#
# Coordination Sequence:
#
# PCOD8013082 Si02
#       8
#     2   2   2   2   2   2   2   2
#     4  10  22  40  65  91 131 173 216 260 318 380
#     4  10  21  40  65  92 128 178 210 258 320 379
#     4  12  23  36  61  96 131 170 217 263 316 377
#     4  11  22  44  67  93 134 172 211 262 322 385
#     4  11  23  44  72  93 126 172 217 265 328 385
#     4  11  23  42  67  94 129 172 216 267 325 380
#     4  11  24  44  69  94 129 170 212 268 328 378
#     4  12  25  41  65 100 132 166 214 270 318 386
#
# _framework density 20.554511999999999
#
# number of rings (size 3 to 8) (size 9 to 14) (size 15 to 20)
#    0.000    1.000    3.750    3.375    0.000    3.000 
#    0.000    1.250    0.000    0.000    0.000    0.000 
#    0.000    0.000    0.000    0.000    0.000    0.000 
#
# Total GULP energy -198404.198427 kJ/mol
# GULP energy per Si atom -12400.262402 kJ/mol
# Density = 2.050773 g / cm^3
# Si number density = 20.554512 Si / 1000 Ang^3
#
#
#
# Elastic Constant Matrix: (Units=GPa)
#
#
# Indices 1 2 3 4 5 6 
#
# 1 100.7598 26.4628 47.3866 2.9202 -15.8736 2.5677
# 2 26.4628 90.0458 41.3013 -3.4755 0.2461 0.9388
# 3 47.3866 41.3013 92.9873 10.4447 -15.1179 6.1502
# 4 2.9202 -3.4755 10.4447 46.7028 -6.2607 -0.1436
# 5 -15.8736 0.2461 -15.1179 -6.2607 28.1976 -6.2421
# 6 2.5677 0.9388 6.1502 -0.1436 -6.2421 30.8086
#
#
#
# Elastic Compliance Matrix: (Units=1/GPa)
#
#
# Indices 1 2 3 4 5 6 
#
# 1 0.013739 -0.001395 -0.005732 0.001011 0.005139 0.001088
# 2 -0.001395 0.014688 -0.006717 0.002148 -0.003991 0.000211
# 3 -0.005732 -0.006717 0.018036 -0.003467 0.005321 -0.001856
# 4 0.001011 0.002148 -0.003467 0.022837 0.004089 0.001477
# 5 0.005139 -0.003991 0.005321 0.004089 0.043819 0.007528
# 6 0.001088 0.000211 -0.001856 0.001477 0.007528 0.034264
#
#
# Mechanical properties :
#
#
# Convention : Reuss Voigt Hill
#
# Bulk Modulus (GPa) = 53.26211 57.12158 55.19184
# Shear Modulus (GPa) = 27.57415 32.38460 29.97937
#
# Velocity S-wave (km/s) = 3.66664 3.97362 3.82321
# Velocity P-wave (km/s) = 6.62530 6.99310 6.81168
#
# Compressibility (1/GPa) = 0.01877507
#
# Stress axis : x y z
#
# Youngs Moduli (GPa) = 72.78443 68.08303 55.44464
#
# Poissons Ratio (x) = 0.09497 0.31781
# Poissons Ratio (y) = 0.10153 0.37243
# Poissons Ratio (z) = 0.41720 0.45732
#
# Static dielectric constant tensor:
#      x y z
#    x 3.437970 -0.156630 0.008880 
#    y -0.156630 4.086710 -0.036710 
#    z 0.008880 -0.036710 4.042530 
# 
# 
# High freq. dielectric constant tensor:
#      x y z
#    x 1.783380 -0.007160 -0.006540 
#    y -0.007160 1.823380 -0.001020 
#    z -0.006540 -0.001020 1.825160 
# 
# From -- ./inp_files/138799.got.cif
#   From: 2010.06.25/outbox.cif.g09.slc.cpg/sg2_70_cif.got.tgz:138799.got - 2010.06.27 13:26:56.
