data_PCOD8013069
_publ_section_title
;
Structure prediction by ZEFSAII (Michael W. Deem and Ramdas Pophale) SiO2 
 PCOD8013069
Probable space group: P -1
;
_chemical_formula_sum "Si O2"
_cell_formula_units_Z 16
_cell_length_a 15.453973
_cell_length_b 9.501327
_cell_length_c 11.256753
_cell_angle_alpha 95.439849
_cell_angle_beta 73.207311
_cell_angle_gamma 35.958696
_cell_volume 753.842348
_symmetry_space_group_name_H-M "P -1"
_symmetry_group_IT_number 2
_symmetry_cell_setting 'triclinic'
loop_
_space_group_symop_operation_xyz
x,y,z
-x,-y,-z
loop_
_atom_site_type_symbol
_atom_site_label
_atom_site_fract_x
_atom_site_fract_y
_atom_site_fract_z
Si Si1 0.754793 0.183246 0.965651
Si Si2 0.817394 0.374794 0.069814
Si Si3 0.110178 0.205211 0.950839
Si Si4 0.783043 0.837131 0.606397
Si Si5 0.489275 0.261033 0.312356
Si Si6 0.465890 0.202704 0.573977
Si Si7 0.664000 0.297604 0.753231
Si Si8 0.514538 0.021260 0.860728
O O1 0.874242 0.134105 0.993444
O O2 0.540172 0.484922 0.118112
O O3 0.840524 0.909001 0.940520
O O4 0.771181 0.198713 0.822582
O O5 0.725519 0.518407 0.249554
O O6 0.654134 0.638348 0.063796
O O7 0.984785 0.249677 0.956318
O O8 0.305300 0.948800 0.782942
O O9 0.000000 0.500000 0.000000
O O10 0.000000 0.500000 0.500000
O O11 0.659266 0.976455 0.548256
O O12 0.782650 0.006443 0.630694
O O13 0.701107 0.857098 0.749504
O O14 0.428643 0.343960 0.480601
O O15 0.342507 0.561420 0.322830
O O16 0.498622 0.094318 0.233147
O O17 0.500000 0.000000 0.500000
O O18 0.500000 0.000000 0.000000
#
# Coordination Sequence:
#
# PCOD8013069 Si02
#       8
#     2   2   2   2   2   2   2   2
#     4  10  21  40  65  91 133 168 211 268 328 386
#     4  11  21  40  63  94 128 170 212 259 333 388
#     4  11  22  37  62 102 125 157 220 272 312 378
#     4  11  25  44  69  97 131 176 221 265 330 392
#     4  11  23  41  66  94 129 170 219 266 322 393
#     4  11  21  43  66  90 134 179 209 257 336 398
#     4  10  22  41  66  94 125 173 220 265 325 384
#     4  11  22  40  66  93 131 172 216 267 325 390
#
# _framework density 21.224595999999998
#
# number of rings (size 3 to 8) (size 9 to 14) (size 15 to 20)
#    0.000    1.250    6.250    1.125    3.500    3.500 
#    0.000    0.625    2.750    0.000    0.000    0.000 
#    0.000    0.000    0.000    0.000    0.000    0.000 
#
# Total GULP energy -198250.318052 kJ/mol
# GULP energy per Si atom -12390.644878 kJ/mol
# Density = 2.117629 g / cm^3
# Si number density = 21.224596 Si / 1000 Ang^3
#
#
#
# Elastic Constant Matrix: (Units=GPa)
#
#
# Indices 1 2 3 4 5 6 
#
# 1 101.0369 25.7675 26.3486 1.2512 5.8515 13.6654
# 2 25.7675 126.5882 46.8427 -19.5342 3.4836 27.6326
# 3 26.3486 46.8427 83.9396 -30.4601 6.0715 6.9208
# 4 1.2512 -19.5342 -30.4601 46.5040 -2.2816 1.5620
# 5 5.8515 3.4836 6.0715 -2.2816 36.3391 2.4803
# 6 13.6654 27.6326 6.9208 1.5620 2.4803 36.5875
#
#
#
# Elastic Compliance Matrix: (Units=1/GPa)
#
#
# Indices 1 2 3 4 5 6 
#
# 1 0.011643 -0.000696 -0.004142 -0.003279 -0.001129 -0.002823
# 2 -0.000696 0.011956 -0.005118 0.001978 0.000486 -0.007919
# 3 -0.004142 -0.005118 0.020067 0.010986 -0.001591 0.001255
# 4 -0.003279 0.001978 0.010986 0.029772 0.000622 -0.003661
# 5 -0.001129 0.000486 -0.001591 0.000622 0.028066 -0.001573
# 6 -0.002823 -0.007919 0.001255 -0.003661 -0.001573 0.034392
#
#
# Mechanical properties :
#
#
# Convention : Reuss Voigt Hill
#
# Bulk Modulus (GPa) = 42.09634 56.60915 49.35275
# Shear Modulus (GPa) = 30.53898 38.05983 34.29940
#
# Velocity S-wave (km/s) = 3.79733 4.23921 4.02434
# Velocity P-wave (km/s) = 6.25325 7.11973 6.70051
#
# Compressibility (1/GPa) = 0.02375503
#
# Stress axis : x y z
#
# Youngs Moduli (GPa) = 85.89020 83.64323 49.83201
#
# Poissons Ratio (x) = 0.05822 0.20639
# Poissons Ratio (y) = 0.05978 0.25502
# Poissons Ratio (z) = 0.35573 0.42805
#
# Static dielectric constant tensor:
#      x y z
#    x 5.541300 -1.956050 0.186530 
#    y -1.956050 6.770430 -0.613550 
#    z 0.186530 -0.613550 3.901730 
# 
# 
# High freq. dielectric constant tensor:
#      x y z
#    x 1.837770 0.004360 -0.005860 
#    y 0.004360 1.859300 -0.010690 
#    z -0.005860 -0.010690 1.804510 
# 
# From -- ./inp_files/447491.got.cif
#   From: 2010.06.25/outbox.cif.g09.slc.cpg/sg2_224_cif.got.tgz:447491.got - 2010.06.27 13:26:56.
