data_PCOD8013640
_publ_section_title
;
Structure prediction by ZEFSAII (Michael W. Deem and Ramdas Pophale) SiO2 
 PCOD8013640
Probable space group: P -1
;
_chemical_formula_sum "Si O2"
_cell_formula_units_Z 16
_cell_length_a 9.975393
_cell_length_b 11.330613
_cell_length_c 11.404598
_cell_angle_alpha 56.683427
_cell_angle_beta 90.431938
_cell_angle_gamma 55.645758
_cell_volume 789.509163
_symmetry_space_group_name_H-M "P -1"
_symmetry_group_IT_number 2
_symmetry_cell_setting 'triclinic'
loop_
_space_group_symop_operation_xyz
x,y,z
-x,-y,-z
loop_
_atom_site_type_symbol
_atom_site_label
_atom_site_fract_x
_atom_site_fract_y
_atom_site_fract_z
Si Si1 0.415770 0.234014 0.423607
Si Si2 0.106446 0.522872 0.078871
Si Si3 0.969028 0.690802 0.388136
Si Si4 0.362071 0.471241 0.500832
Si Si5 0.349914 0.987645 0.651549
Si Si6 0.784108 0.840946 0.062102
Si Si7 0.571034 0.596918 0.994027
Si Si8 0.449402 0.259410 0.848919
O O1 0.239293 0.350132 0.270169
O O2 0.408048 0.373701 0.429196
O O3 0.437956 0.081299 0.590166
O O4 0.604683 0.118804 0.414605
O O5 0.229179 0.534739 0.991093
O O6 0.955941 0.722200 0.039722
O O7 0.000000 0.500000 0.000000
O O8 0.147346 0.661186 0.390245
O O9 0.000000 0.500000 0.500000
O O10 0.864069 0.831551 0.423493
O O11 0.841198 0.806613 0.214789
O O12 0.500000 0.500000 0.500000
O O13 0.365672 0.362390 0.668655
O O14 0.444270 0.823710 0.840268
O O15 0.664842 0.786137 0.068878
O O16 0.657436 0.069172 0.921081
O O17 0.500000 0.500000 0.000000
O O18 0.570078 0.597912 0.135650
#
# Coordination Sequence:
#
# PCOD8013640 Si02
#       8
#     2   2   2   2   2   2   2   2
#     4  10  22  40  68  96 132 170 219 277 327 381
#     4  11  22  40  69 100 128 168 223 273 324 392
#     4  12  20  41  68  97 126 173 226 264 321 394
#     4  12  27  43  64  99 142 176 213 273 340 395
#     4  10  21  40  70  93 124 175 224 267 327 384
#     4  11  21  39  69 100 124 168 227 279 314 384
#     4  11  25  42  65  94 137 176 210 271 339 388
#     4  11  24  40  67  98 134 167 225 276 330 388
#
# _framework density 20.265756
#
# number of rings (size 3 to 8) (size 9 to 14) (size 15 to 20)
#    0.000    1.000    6.250    0.000    5.250    1.000 
#    2.250    1.875    0.000    0.000    0.000    0.000 
#    0.000    0.000    0.000    0.000    0.000    0.000 
#
# Total GULP energy -198241.576882 kJ/mol
# GULP energy per Si atom -12390.098555 kJ/mol
# Density = 2.021963 g / cm^3
# Si number density = 20.265756 Si / 1000 Ang^3
#
#
#
# Elastic Constant Matrix: (Units=GPa)
#
#
# Indices 1 2 3 4 5 6 
#
# 1 117.2190 65.8390 17.0339 0.8725 13.1191 -5.0293
# 2 65.8390 187.5703 33.5933 4.0272 14.0243 -29.2450
# 3 17.0339 33.5933 58.7415 3.5630 6.7607 14.0734
# 4 0.8725 4.0272 3.5630 27.7577 -2.3717 9.8604
# 5 13.1191 14.0243 6.7607 -2.3717 17.8120 8.4485
# 6 -5.0293 -29.2450 14.0734 9.8604 8.4485 34.5593
#
#
#
# Elastic Compliance Matrix: (Units=1/GPa)
#
#
# Indices 1 2 3 4 5 6 
#
# 1 0.011137 -0.003123 -0.000962 -0.000638 -0.005941 0.001005
# 2 -0.003123 0.012266 -0.008571 -0.008728 -0.014491 0.019448
# 3 -0.000962 -0.008571 0.026067 0.006516 0.008885 -0.022040
# 4 -0.000638 -0.008728 0.006516 0.049580 0.026001 -0.030634
# 5 -0.005941 -0.014491 0.008885 0.026001 0.094427 -0.047248
# 6 0.001005 0.019448 -0.022040 -0.030634 -0.047248 0.074806
#
#
# Mechanical properties :
#
#
# Convention : Reuss Voigt Hill
#
# Bulk Modulus (GPa) = 41.39399 66.27370 53.83384
# Shear Modulus (GPa) = 16.57563 32.49677 24.53620
#
# Velocity S-wave (km/s) = 2.86302 4.00876 3.48332
# Velocity P-wave (km/s) = 5.60349 7.36207 6.54214
#
# Compressibility (1/GPa) = 0.02415810
#
# Stress axis : x y z
#
# Youngs Moduli (GPa) = 89.78723 81.52883 38.36268
#
# Poissons Ratio (x) = 0.25458 0.03691
# Poissons Ratio (y) = 0.28036 0.32882
# Poissons Ratio (z) = 0.08639 0.69881
#
# Static dielectric constant tensor:
#      x y z
#    x 3.484160 -0.256810 0.057320 
#    y -0.256810 3.704250 0.320390 
#    z 0.057320 0.320390 3.585830 
# 
# 
# High freq. dielectric constant tensor:
#      x y z
#    x 1.762570 -0.020160 0.009840 
#    y -0.020160 1.817100 0.011510 
#    z 0.009840 0.011510 1.785800 
# 
# From -- ./inp_files/392097.got.cif
#   From: 2010.06.25/outbox.cif.g09.slc.cpg/sg2_197_cif.got.tgz:392097.got - 2010.06.27 13:26:56.
