data_PCOD8013371
_publ_section_title
;
Structure prediction by ZEFSAII (Michael W. Deem and Ramdas Pophale) SiO2 
 PCOD8013371
Probable space group: P -1
;
_chemical_formula_sum "Si O2"
_cell_formula_units_Z 16
_cell_length_a 15.754656
_cell_length_b 14.936977
_cell_length_c 9.375346
_cell_angle_alpha 94.971396
_cell_angle_beta 54.924617
_cell_angle_gamma 140.923561
_cell_volume 816.412166
_symmetry_space_group_name_H-M "P -1"
_symmetry_group_IT_number 2
_symmetry_cell_setting 'triclinic'
loop_
_space_group_symop_operation_xyz
x,y,z
-x,-y,-z
loop_
_atom_site_type_symbol
_atom_site_label
_atom_site_fract_x
_atom_site_fract_y
_atom_site_fract_z
Si Si1 0.348210 0.272524 0.525827
Si Si2 0.600289 0.869171 0.111546
Si Si3 0.109234 0.553975 0.548168
Si Si4 0.656911 0.097278 0.492232
Si Si5 0.268128 0.313434 0.886210
Si Si6 0.098363 0.058633 0.254063
Si Si7 0.337284 0.885752 0.007442
Si Si8 0.778553 0.001508 0.272287
O O1 0.371046 0.320132 0.676479
O O2 0.555045 0.466481 0.252464
O O3 0.345700 0.161620 0.516956
O O4 0.115147 0.132132 0.665166
O O5 0.326727 0.657758 0.322633
O O6 0.642260 0.893333 0.242092
O O7 0.720884 0.883338 0.907036
O O8 0.700284 0.039479 0.982207
O O9 0.176511 0.692025 0.597857
O O10 0.000000 0.500000 0.500000
O O11 0.916770 0.348280 0.782605
O O12 0.800420 0.118139 0.330630
O O13 0.500000 0.000000 0.500000
O O14 0.475460 0.935593 0.766354
O O15 0.229873 0.244109 0.074018
O O16 0.033557 0.164728 0.022640
O O17 0.000000 0.000000 0.500000
O O18 0.500000 0.000000 0.000000
#
# Coordination Sequence:
#
# PCOD8013371 Si02
#       8
#     2   2   2   2   2   2   2   2
#     4  10  21  40  68  90 128 172 215 274 323 387
#     4  11  22  41  68  92 127 175 218 264 333 394
#     4  11  23  45  66  91 130 175 215 270 333 393
#     4  11  23  41  64  99 129 165 224 277 316 393
#     4  10  21  40  67  93 127 169 221 266 326 394
#     4  11  23  42  63  96 136 168 211 272 324 395
#     4  11  23  42  66  90 130 175 213 269 335 390
#     4  11  20  41  64  96 131 166 216 278 326 380
#
# _framework density 19.597944999999999
#
# number of rings (size 3 to 8) (size 9 to 14) (size 15 to 20)
#    0.000    1.250    7.500    0.750    0.000    6.000 
#    2.250    0.000    0.000    0.000    0.000    0.000 
#    0.000    0.000    0.000    0.000    0.000    0.000 
#
# Total GULP energy -198293.831260 kJ/mol
# GULP energy per Si atom -12393.364454 kJ/mol
# Density = 1.955334 g / cm^3
# Si number density = 19.597945 Si / 1000 Ang^3
#
#
#
# Elastic Constant Matrix: (Units=GPa)
#
#
# Indices 1 2 3 4 5 6 
#
# 1 118.5293 46.2809 53.6448 -4.7089 -2.9725 -2.1764
# 2 46.2809 99.3424 56.0497 -13.4173 0.7402 -3.0090
# 3 53.6448 56.0497 136.1867 -15.8943 14.5052 -5.7855
# 4 -4.7089 -13.4173 -15.8943 51.8651 -4.6954 3.1170
# 5 -2.9725 0.7402 14.5052 -4.6954 35.2996 -1.1871
# 6 -2.1764 -3.0090 -5.7855 3.1170 -1.1871 32.6006
#
#
#
# Elastic Compliance Matrix: (Units=1/GPa)
#
#
# Indices 1 2 3 4 5 6 
#
# 1 0.011356 -0.003507 -0.003358 -0.000695 0.002317 -0.000011
# 2 -0.003507 0.014528 -0.004500 0.002192 0.001546 0.000155
# 3 -0.003358 -0.004500 0.011223 0.001494 -0.004566 0.001043
# 4 -0.000695 0.002192 0.001494 0.020508 0.001960 -0.001468
# 5 0.002317 0.001546 -0.004566 0.001960 0.030643 0.000415
# 6 -0.000011 0.000155 0.001043 -0.001468 0.000415 0.031028
#
#
# Mechanical properties :
#
#
# Convention : Reuss Voigt Hill
#
# Bulk Modulus (GPa) = 69.55924 74.00101 71.78012
# Shear Modulus (GPa) = 34.05757 37.15859 35.60808
#
# Velocity S-wave (km/s) = 4.17323 4.35908 4.26717
# Velocity P-wave (km/s) = 7.66755 7.94840 7.80924
#
# Compressibility (1/GPa) = 0.01437624
#
# Stress axis : x y z
#
# Youngs Moduli (GPa) = 88.05614 68.83107 89.10447
#
# Poissons Ratio (x) = 0.24142 0.29923
# Poissons Ratio (y) = 0.30885 0.40098
# Poissons Ratio (z) = 0.29571 0.30974
#
# Static dielectric constant tensor:
#      x y z
#    x 3.224240 -0.122850 -0.039230 
#    y -0.122850 1.505010 2.551150 
#    z -0.039230 2.551150 -0.302080 
# 
# 
# High freq. dielectric constant tensor:
#      x y z
#    x 1.775810 0.001860 0.003960 
#    y 0.001860 1.751110 -0.009900 
#    z 0.003960 -0.009900 1.765400 
# 
# From -- ./inp_files/313317.got.cif
#   From: 2010.06.25/outbox.cif.g09.slc.cpg/sg2_157_cif.got.tgz:313317.got - 2010.06.27 13:26:56.
