data_PCOD8013800
_publ_section_title
;
Structure prediction by ZEFSAII (Michael W. Deem and Ramdas Pophale) SiO2 
 PCOD8013800
Probable space group: P -1
;
_chemical_formula_sum "Si O2"
_cell_formula_units_Z 10
_cell_length_a 8.666643
_cell_length_b 12.463867
_cell_length_c 12.363694
_cell_angle_alpha 47.498211
_cell_angle_beta 124.646002
_cell_angle_gamma 149.570037
_cell_volume 498.344290
_symmetry_space_group_name_H-M "P -1"
_symmetry_group_IT_number 2
_symmetry_cell_setting 'triclinic'
loop_
_space_group_symop_operation_xyz
x,y,z
-x,-y,-z
loop_
_atom_site_type_symbol
_atom_site_label
_atom_site_fract_x
_atom_site_fract_y
_atom_site_fract_z
Si Si1 0.327495 0.729657 0.424421
Si Si2 0.552694 0.694941 0.349476
Si Si3 0.257287 0.176501 0.306226
Si Si4 0.273074 0.028439 0.193022
Si Si5 0.574812 0.663130 0.138091
O O1 0.333800 0.669323 0.346481
O O2 0.586470 0.806767 0.542460
O O3 0.000000 0.500000 0.500000
O O4 0.404966 0.947108 0.305063
O O5 0.500000 0.500000 0.500000
O O6 0.465145 0.656010 0.215215
O O7 0.898715 0.951706 0.333643
O O8 0.361923 0.163578 0.246523
O O9 0.350232 0.401835 0.183385
O O10 0.433998 0.208417 0.035404
O O11 0.910433 0.799254 0.188739
#
# Coordination Sequence:
#
# PCOD8013800 Si02
#       5
#     2   2   2   2   2
#     4  12  22  40  63  92 119 157 205 251 292 351
#     4  11  23  40  64  88 122 160 201 246 299 360
#     4  11  21  41  65  86 120 164 199 240 305 357
#     4  10  22  38  62  93 121 155 202 248 294 354
#     4  10  21  41  62  87 124 162 195 242 305 359
#
# _framework density 20.066448000000001
#
# number of rings (size 3 to 8) (size 9 to 14) (size 15 to 20)
#    0.000    1.200    4.000    3.000    0.000    0.800 
#    0.000    1.000    0.000    0.000    0.000    0.000 
#    0.000    0.000    0.000    0.000    0.000    0.000 
#
# Total GULP energy -124065.950428 kJ/mol
# GULP energy per Si atom -12406.595043 kJ/mol
# Density = 2.002078 g / cm^3
# Si number density = 20.066448 Si / 1000 Ang^3
#
#
#
# Elastic Constant Matrix: (Units=GPa)
#
#
# Indices 1 2 3 4 5 6 
#
# 1 144.8477 43.0875 59.4589 -12.2870 -23.9237 -32.3818
# 2 43.0875 95.6250 35.4429 -29.9702 -2.3563 -28.1693
# 3 59.4589 35.4429 128.9779 -20.5502 -12.8301 -22.4576
# 4 -12.2870 -29.9702 -20.5502 28.3908 -4.3305 -0.2665
# 5 -23.9237 -2.3563 -12.8301 -4.3305 34.7163 5.7157
# 6 -32.3818 -28.1693 -22.4576 -0.2665 5.7157 27.8500
#
#
#
# Elastic Compliance Matrix: (Units=1/GPa)
#
#
# Indices 1 2 3 4 5 6 
#
# 1 0.011497 0.000637 -0.002127 0.005126 0.005989 0.011116
# 2 0.000637 0.029586 0.003032 0.034383 0.002433 0.032941
# 3 -0.002127 0.003032 0.011627 0.011223 0.002875 0.009487
# 4 0.005126 0.034383 0.011223 0.084236 0.012618 0.048004
# 5 0.005989 0.002433 0.002875 0.012618 0.034962 0.004688
# 6 0.011116 0.032941 0.009487 0.048004 0.004688 0.089297
#
#
# Mechanical properties :
#
#
# Convention : Reuss Voigt Hill
#
# Bulk Modulus (GPa) = 17.92319 71.71434 44.81876
# Shear Modulus (GPa) = 18.06897 33.62219 25.84558
#
# Velocity S-wave (km/s) = 3.00402 4.09778 3.59276
# Velocity P-wave (km/s) = 4.58077 7.62923 6.29240
#
# Compressibility (1/GPa) = 0.05579365
#
# Stress axis : x y z
#
# Youngs Moduli (GPa) = 86.98276 33.79937 86.00967
#
# Poissons Ratio (x) = -0.02153 0.18293
# Poissons Ratio (y) = -0.05541 -0.26078
# Poissons Ratio (z) = 0.18500 -0.10248
#
# Static dielectric constant tensor:
#      x y z
#    x 3.675760 -0.200250 -0.242480 
#    y -0.200250 3.820170 -0.193750 
#    z -0.242480 -0.193750 3.999300 
# 
# 
# High freq. dielectric constant tensor:
#      x y z
#    x 1.780170 -0.019300 -0.014320 
#    y -0.019300 1.786540 -0.010790 
#    z -0.014320 -0.010790 1.792480 
# 
# From -- ./inp_files/15199.got.cif
#   From: 2010.06.25/outbox.cif.g09.slc.cpg/sg2_8_cif.got.tgz:15199.got - 2010.06.27 13:26:56.
