data_PCOD8013831
_publ_section_title
;
Structure prediction by ZEFSAII (Michael W. Deem and Ramdas Pophale) SiO2 
 PCOD8013831
Probable space group: P -1
;
_chemical_formula_sum "Si O2"
_cell_formula_units_Z 12
_cell_length_a 10.283584
_cell_length_b 6.059198
_cell_length_c 17.542154
_cell_angle_alpha 61.534720
_cell_angle_beta 39.494242
_cell_angle_gamma 82.548588
_cell_volume 552.944420
_symmetry_space_group_name_H-M "P -1"
_symmetry_group_IT_number 2
_symmetry_cell_setting 'triclinic'
loop_
_space_group_symop_operation_xyz
x,y,z
-x,-y,-z
loop_
_atom_site_type_symbol
_atom_site_label
_atom_site_fract_x
_atom_site_fract_y
_atom_site_fract_z
Si Si1 0.468754 0.132643 0.600079
Si Si2 0.490630 0.694106 0.861602
Si Si3 0.812645 0.688198 0.405477
Si Si4 0.681385 0.904592 0.900032
Si Si5 0.586975 0.649721 0.662592
Si Si6 0.257352 0.072101 0.862514
O O1 0.718711 0.386322 0.456925
O O2 0.342882 0.158799 0.576447
O O3 0.318158 0.154412 0.734165
O O4 0.480470 0.840881 0.641170
O O5 0.653421 0.855989 0.830190
O O6 0.653995 0.738347 0.706100
O O7 0.308593 0.814904 0.906982
O O8 0.343364 0.373393 0.001080
O O9 0.790118 0.663633 0.512732
O O10 0.071166 0.853932 0.236612
O O11 0.500000 0.000000 0.000000
O O12 0.398683 0.336504 0.807117
O O13 0.000000 0.000000 0.000000
#
# Coordination Sequence:
#
# PCOD8013831 Si02
#       6
#     2   2   2   2   2   2
#     4   9  21  38  62  98 124 164 211 254 323 368
#     4  10  24  42  61  95 125 165 219 250 318 372
#     4  10  22  40  63  92 128 167 207 263 310 373
#     4  11  25  43  65  91 129 171 211 259 308 376
#     4  10  21  41  62  91 129 159 212 263 311 374
#     4  10  22  37  65  95 127 165 205 263 314 373
#
# _framework density 21.702000999999999
#
# number of rings (size 3 to 8) (size 9 to 14) (size 15 to 20)
#    0.000    2.000    0.000    1.500    7.000    4.667 
#    0.000   11.667    0.000    0.000    0.000    0.000 
#    0.000    0.000    0.000    0.000    0.000    0.000 
#
# Total GULP energy -148781.830421 kJ/mol
# GULP energy per Si atom -12398.485868 kJ/mol
# Density = 2.165261 g / cm^3
# Si number density = 21.702001 Si / 1000 Ang^3
#
#
#
# Elastic Constant Matrix: (Units=GPa)
#
#
# Indices 1 2 3 4 5 6 
#
# 1 100.7792 41.9606 54.1183 1.4952 15.2505 6.7845
# 2 41.9606 109.6294 50.5129 -10.2816 0.4206 -3.6999
# 3 54.1183 50.5129 136.3798 -9.5346 -17.4538 5.0425
# 4 1.4952 -10.2816 -9.5346 25.3808 1.2017 11.3376
# 5 15.2505 0.4206 -17.4538 1.2017 33.0419 1.4970
# 6 6.7845 -3.6999 5.0425 11.3376 1.4970 32.8966
#
#
#
# Elastic Compliance Matrix: (Units=1/GPa)
#
#
# Indices 1 2 3 4 5 6 
#
# 1 0.017161 -0.003636 -0.007199 -0.004264 -0.011484 -0.000853
# 2 -0.003636 0.012233 -0.002925 0.003459 -0.000212 0.001391
# 3 -0.007199 -0.002925 0.013041 0.005011 0.010204 -0.003034
# 4 -0.004264 0.003459 0.005011 0.050371 0.003510 -0.017019
# 5 -0.011484 -0.000212 0.010204 0.003510 0.040934 -0.002292
# 6 -0.000853 0.001391 -0.003034 -0.017019 -0.002292 0.037166
#
#
# Mechanical properties :
#
#
# Convention : Reuss Voigt Hill
#
# Bulk Modulus (GPa) = 67.04627 71.10799 69.07713
# Shear Modulus (GPa) = 24.58240 31.61030 28.09635
#
# Velocity S-wave (km/s) = 3.36925 3.82063 3.60202
# Velocity P-wave (km/s) = 6.78947 7.23186 7.01415
#
# Compressibility (1/GPa) = 0.01491507
#
# Stress axis : x y z
#
# Youngs Moduli (GPa) = 58.27182 81.74550 76.68079
#
# Poissons Ratio (x) = 0.29720 0.55206
# Poissons Ratio (y) = 0.21186 0.22428
# Poissons Ratio (z) = 0.41952 0.23909
#
# Static dielectric constant tensor:
#      x y z
#    x 3.973180 0.127900 0.448060 
#    y 0.127900 4.067610 -0.159890 
#    z 0.448060 -0.159890 3.820670 
# 
# 
# High freq. dielectric constant tensor:
#      x y z
#    x 1.848100 0.009190 0.031320 
#    y 0.009190 1.863970 -0.007710 
#    z 0.031320 -0.007710 1.843890 
# 
# From -- ./inp_files/19257.got.cif
#   From: 2010.06.25/outbox.cif.g09.slc.cpg/sg2_10_cif.got.tgz:19257.got - 2010.06.27 13:26:56.
