data_PCOD8013954
_publ_section_title
;
Structure prediction by ZEFSAII (Michael W. Deem and Ramdas Pophale) SiO2 
 PCOD8013954
Probable space group: P -1
;
_chemical_formula_sum "Si O2"
_cell_formula_units_Z 14
_cell_length_a 9.240703
_cell_length_b 22.689277
_cell_length_c 5.526114
_cell_angle_alpha 69.320814
_cell_angle_beta 61.437197
_cell_angle_gamma 36.282400
_cell_volume 601.029082
_symmetry_space_group_name_H-M "P -1"
_symmetry_group_IT_number 2
_symmetry_cell_setting 'triclinic'
loop_
_space_group_symop_operation_xyz
x,y,z
-x,-y,-z
loop_
_atom_site_type_symbol
_atom_site_label
_atom_site_fract_x
_atom_site_fract_y
_atom_site_fract_z
Si Si1 0.442813 0.978596 0.324874
Si Si2 0.728299 0.436729 0.594270
Si Si3 0.913845 0.080992 0.771810
Si Si4 0.076557 0.366228 0.033413
Si Si5 0.429746 0.192286 0.657434
Si Si6 0.539677 0.264413 0.086718
Si Si7 0.413742 0.433472 0.101706
O O1 0.619847 0.863511 0.322845
O O2 0.500000 0.000000 0.500000
O O3 0.146165 0.039453 0.480326
O O4 0.500000 0.000000 0.000000
O O5 0.500000 0.500000 0.500000
O O6 0.708203 0.512134 0.621114
O O7 0.001920 0.347621 0.362497
O O8 0.671839 0.399497 0.892786
O O9 0.676842 0.123006 0.741988
O O10 0.817965 0.170654 0.871809
O O11 0.000000 0.000000 0.000000
O O12 0.323525 0.336267 0.944034
O O13 0.158284 0.295451 0.851714
O O14 0.826996 0.484226 0.009605
O O15 0.487223 0.218022 0.347042
O O16 0.524240 0.330238 0.170959
#
# Coordination Sequence:
#
# PCOD8013954 Si02
#       7
#     2   2   2   2   2   2   2
#     4  12  28  48  76 111 146 189 242 309 371 439
#     4   9  20  39  62  88 138 179 224 279 352 405
#     4  11  24  49  75  98 143 189 238 303 367 437
#     4  10  22  40  66  97 135 178 224 293 340 427
#     4  11  25  44  73 102 135 187 237 293 368 432
#     4  11  24  40  71 100 130 179 243 281 354 426
#     4  10  21  41  63  96 136 183 223 286 347 423
#
# _framework density 23.293379999999999
#
# number of rings (size 3 to 8) (size 9 to 14) (size 15 to 20)
#    0.000    1.429    1.429    2.571    4.000    8.000 
#    7.714    0.000    0.000    0.000    0.000    0.000 
#    0.000    0.000    0.000    0.000    0.000    0.000 
#
# Total GULP energy -173453.063654 kJ/mol
# GULP energy per Si atom -12389.504547 kJ/mol
# Density = 2.324036 g / cm^3
# Si number density = 23.293380 Si / 1000 Ang^3
#
#
#
# Elastic Constant Matrix: (Units=GPa)
#
#
# Indices 1 2 3 4 5 6 
#
# 1 69.9421 33.7687 13.6460 -4.0564 10.2707 24.5420
# 2 33.7687 119.3734 35.4350 10.4925 -6.7016 30.9398
# 3 13.6460 35.4350 129.6266 18.2624 -4.2931 17.2065
# 4 -4.0564 10.4925 18.2624 40.8387 -0.2511 1.5814
# 5 10.2707 -6.7016 -4.2931 -0.2511 36.0458 6.4809
# 6 24.5420 30.9398 17.2065 1.5814 6.4809 52.5271
#
#
#
# Elastic Compliance Matrix: (Units=1/GPa)
#
#
# Indices 1 2 3 4 5 6 
#
# 1 0.019624 -0.004463 -0.000779 0.003632 -0.005460 -0.005720
# 2 -0.004463 0.011815 -0.001633 -0.002539 0.004114 -0.004770
# 3 -0.000779 -0.001633 0.009017 -0.003617 0.001268 -0.001676
# 4 0.003632 -0.002539 -0.003617 0.027091 -0.001820 0.000392
# 5 -0.005460 0.004114 0.001268 -0.001820 0.030930 -0.004049
# 6 -0.005720 -0.004770 -0.001676 0.000392 -0.004049 0.025557
#
#
# Mechanical properties :
#
#
# Convention : Reuss Voigt Hill
#
# Bulk Modulus (GPa) = 37.44524 53.84908 45.64716
# Shear Modulus (GPa) = 34.08664 41.62181 37.85422
#
# Velocity S-wave (km/s) = 3.82954 4.23170 4.03563
# Velocity P-wave (km/s) = 5.97195 6.85889 6.43073
#
# Compressibility (1/GPa) = 0.02670566
#
# Stress axis : x y z
#
# Youngs Moduli (GPa) = 50.95761 84.63978 110.90321
#
# Poissons Ratio (x) = 0.37777 0.08640
# Poissons Ratio (y) = 0.22744 0.18108
# Poissons Ratio (z) = 0.03970 0.13820
#
# Static dielectric constant tensor:
#      x y z
#    x 4.424070 -0.081550 -0.116470 
#    y -0.081550 4.320780 0.449510 
#    z -0.116470 0.449510 4.660350 
# 
# 
# High freq. dielectric constant tensor:
#      x y z
#    x 1.917590 -0.002250 0.013490 
#    y -0.002250 1.919440 0.021970 
#    z 0.013490 0.021970 1.931210 
# 
# From -- ./inp_files/49459.got.cif
#   From: 2010.06.25/outbox.cif.g09.slc.cpg/sg2_25_cif.got.tgz:49459.got - 2010.06.27 13:26:56.
