data_PCOD8013538
_publ_section_title
;
Structure prediction by ZEFSAII (Michael W. Deem and Ramdas Pophale) SiO2 
 PCOD8013538
Probable space group: P -1
;
_chemical_formula_sum "Si O2"
_cell_formula_units_Z 14
_cell_length_a 15.257540
_cell_length_b 9.399639
_cell_length_c 11.598092
_cell_angle_alpha 48.986891
_cell_angle_beta 59.844208
_cell_angle_gamma 32.099065
_cell_volume 660.959786
_symmetry_space_group_name_H-M "P -1"
_symmetry_group_IT_number 2
_symmetry_cell_setting 'triclinic'
loop_
_space_group_symop_operation_xyz
x,y,z
-x,-y,-z
loop_
_atom_site_type_symbol
_atom_site_label
_atom_site_fract_x
_atom_site_fract_y
_atom_site_fract_z
Si Si1 0.369763 0.199721 0.082256
Si Si2 0.747812 0.174351 0.804139
Si Si3 0.052538 0.893006 0.889406
Si Si4 0.326786 0.847165 0.386012
Si Si5 0.576377 0.190931 0.076232
Si Si6 0.437257 0.892591 0.635187
Si Si7 0.146020 0.136707 0.575050
O O1 0.426626 0.278934 0.088791
O O2 0.362031 0.014756 0.252634
O O3 0.189139 0.527589 0.982017
O O4 0.500000 0.000000 0.000000
O O5 0.749595 0.135615 0.687151
O O6 0.598191 0.531669 0.741167
O O7 0.714316 0.024985 0.973469
O O8 0.910088 0.036253 0.819925
O O9 0.121860 0.989501 0.747452
O O10 0.000000 0.000000 0.000000
O O11 0.500000 0.500000 0.500000
O O12 0.174488 0.040958 0.473542
O O13 0.660328 0.964820 0.252595
O O14 0.500000 0.500000 0.000000
O O15 0.500000 0.000000 0.500000
O O16 0.320269 0.979647 0.569871
O O17 0.000000 0.500000 0.500000
#
# Coordination Sequence:
#
# PCOD8013538 Si02
#       7
#     2   2   2   2   2   2   2
#     4  12  24  45  71 103 138 183 229 288 358 414
#     4  11  23  43  68 100 136 184 233 286 350 417
#     4  12  25  46  72 100 140 182 238 291 348 427
#     4  12  25  46  71  99 147 183 232 294 355 420
#     4  10  21  40  68  99 132 176 233 282 339 417
#     4  11  21  40  68  99 136 180 237 284 344 420
#     4  12  25  44  67 101 141 183 229 290 356 416
#
# _framework density 21.181318000000001
#
# number of rings (size 3 to 8) (size 9 to 14) (size 15 to 20)
#    0.000    0.571    2.857    7.714    0.000    1.143 
#    2.571    0.000    0.000    0.000    0.000    0.000 
#    0.000    0.000    0.000    0.000    0.000    0.000 
#
# Total GULP energy -173551.990888 kJ/mol
# GULP energy per Si atom -12396.570778 kJ/mol
# Density = 2.113311 g / cm^3
# Si number density = 21.181318 Si / 1000 Ang^3
#
#
#
# Elastic Constant Matrix: (Units=GPa)
#
#
# Indices 1 2 3 4 5 6 
#
# 1 154.9756 34.6106 54.8082 2.3691 4.7643 -2.4964
# 2 34.6106 132.0916 69.3177 3.1418 8.2757 4.3147
# 3 54.8082 69.3177 167.0145 19.6758 -14.9129 10.1693
# 4 2.3691 3.1418 19.6758 50.9197 3.4567 7.8356
# 5 4.7643 8.2757 -14.9129 3.4567 46.8704 6.7853
# 6 -2.4964 4.3147 10.1693 7.8356 6.7853 30.0280
#
#
#
# Elastic Compliance Matrix: (Units=1/GPa)
#
#
# Indices 1 2 3 4 5 6 
#
# 1 0.007572 -0.000596 -0.002571 0.000514 -0.001789 0.001856
# 2 -0.000596 0.010281 -0.004553 0.001315 -0.003363 0.000432
# 3 -0.002571 -0.004553 0.009721 -0.003206 0.004845 -0.003110
# 4 0.000514 0.001315 -0.003206 0.021570 -0.002291 -0.004171
# 5 -0.001789 -0.003363 0.004845 -0.002291 0.024733 -0.006297
# 6 0.001856 0.000432 -0.003110 -0.004171 -0.006297 0.036959
#
#
# Mechanical properties :
#
#
# Convention : Reuss Voigt Hill
#
# Bulk Modulus (GPa) = 82.41037 85.72831 84.06934
# Shear Modulus (GPa) = 38.36716 45.25329 41.81022
#
# Velocity S-wave (km/s) = 4.26063 4.62721 4.44770
# Velocity P-wave (km/s) = 7.94956 8.31321 8.13342
#
# Compressibility (1/GPa) = 0.01213440
#
# Stress axis : x y z
#
# Youngs Moduli (GPa) = 132.06709 97.26476 102.87515
#
# Poissons Ratio (x) = 0.05793 0.26448
# Poissons Ratio (y) = 0.07866 0.46840
# Poissons Ratio (z) = 0.33953 0.44286
#
# Static dielectric constant tensor:
#      x y z
#    x 3.890410 -0.052900 -0.212230 
#    y -0.052900 3.857060 0.181640 
#    z -0.212230 0.181640 4.225710 
# 
# 
# High freq. dielectric constant tensor:
#      x y z
#    x 1.839930 0.006780 0.001250 
#    y 0.006780 1.821530 0.015420 
#    z 0.001250 0.015420 1.854760 
# 
# From -- ./inp_files/156925.got.cif
#   From: 2010.06.25/outbox.cif.g09.slc.cpg/sg2_79_cif.got.tgz:156925.got - 2010.06.27 13:26:56.
