data_PCOD8013222
_publ_section_title
;
Structure prediction by ZEFSAII (Michael W. Deem and Ramdas Pophale) SiO2 
 PCOD8013222
Probable space group: P -1
;
_chemical_formula_sum "Si O2"
_cell_formula_units_Z 16
_cell_length_a 14.565342
_cell_length_b 14.522395
_cell_length_c 11.205026
_cell_angle_alpha 42.485301
_cell_angle_beta 30.183802
_cell_angle_gamma 42.885693
_cell_volume 772.527588
_symmetry_space_group_name_H-M "P -1"
_symmetry_group_IT_number 2
_symmetry_cell_setting 'triclinic'
loop_
_space_group_symop_operation_xyz
x,y,z
-x,-y,-z
loop_
_atom_site_type_symbol
_atom_site_label
_atom_site_fract_x
_atom_site_fract_y
_atom_site_fract_z
Si Si1 0.971231 0.031408 0.365177
Si Si2 0.763504 0.321146 0.399517
Si Si3 0.706000 0.814776 0.523326
Si Si4 0.663489 0.515268 0.889973
Si Si5 0.105046 0.755041 0.219727
Si Si6 0.305093 0.974171 0.867238
Si Si7 0.631895 0.588860 0.125155
Si Si8 0.960898 0.734067 0.637799
O O1 0.822975 0.187081 0.369761
O O2 0.892121 0.904607 0.527541
O O3 0.000000 0.000000 0.500000
O O4 0.173204 0.024232 0.082926
O O5 0.728095 0.459991 0.227398
O O6 0.572741 0.319193 0.685588
O O7 0.935744 0.314024 0.305980
O O8 0.735980 0.646463 0.637827
O O9 0.520063 0.886115 0.745668
O O10 0.888755 0.843349 0.351828
O O11 0.683816 0.885858 0.349742
O O12 0.827131 0.366594 0.839992
O O13 0.500000 0.500000 0.000000
O O14 0.600635 0.535567 0.079174
O O15 0.112855 0.676144 0.415535
O O16 0.228732 0.866894 0.972003
O O17 0.772928 0.686278 0.875052
#
# Coordination Sequence:
#
# PCOD8013222 Si02
#       8
#     2   2   2   2   2   2   2   2
#     4   9  21  39  66  91 123 166 205 261 317 368
#     4  10  23  43  63  92 126 164 213 266 312 369
#     4  11  23  40  63  91 126 169 207 256 324 375
#     4  12  24  41  63  94 132 167 212 265 314 385
#     4  11  22  39  65  94 127 166 207 257 319 386
#     4  10  23  42  62  92 130 164 207 269 314 377
#     4  11  24  41  64  91 126 168 212 261 317 376
#     4  10  21  40  66  92 122 168 205 263 315 377
#
# _framework density 20.711234999999999
#
# number of rings (size 3 to 8) (size 9 to 14) (size 15 to 20)
#    0.000    1.500    2.500    1.875    5.250    0.500 
#    0.000    8.750    0.000    0.000    0.000    0.000 
#    0.000    0.000    0.000    0.000    0.000    0.000 
#
# Total GULP energy -198325.840818 kJ/mol
# GULP energy per Si atom -12395.365051 kJ/mol
# Density = 2.066410 g / cm^3
# Si number density = 20.711235 Si / 1000 Ang^3
#
#
#
# Elastic Constant Matrix: (Units=GPa)
#
#
# Indices 1 2 3 4 5 6 
#
# 1 84.1461 22.3297 23.0762 18.4131 -6.0727 -0.8221
# 2 22.3297 117.4346 40.9817 30.1488 1.3426 8.5492
# 3 23.0762 40.9817 103.0155 19.5296 2.2897 10.0546
# 4 18.4131 30.1488 19.5296 30.3375 -1.2306 2.6480
# 5 -6.0727 1.3426 2.2897 -1.2306 34.3152 8.7491
# 6 -0.8221 8.5492 10.0546 2.6480 8.7491 24.6728
#
#
#
# Elastic Compliance Matrix: (Units=1/GPa)
#
#
# Indices 1 2 3 4 5 6 
#
# 1 0.014208 -0.000346 -0.001879 -0.007109 0.002042 0.001398
# 2 -0.000346 0.012253 -0.002687 -0.010070 -0.000211 -0.002006
# 3 -0.001879 -0.002687 0.012275 -0.003784 -0.000255 -0.003637
# 4 -0.007109 -0.010070 -0.003784 0.049873 0.001450 -0.001072
# 5 0.002042 -0.000211 -0.000255 0.001450 0.032495 -0.011434
# 6 0.001398 -0.002006 -0.003637 -0.001072 -0.011434 0.046924
#
#
# Mechanical properties :
#
#
# Convention : Reuss Voigt Hill
#
# Bulk Modulus (GPa) = 34.58845 53.04127 43.81486
# Shear Modulus (GPa) = 26.66806 32.41234 29.54020
#
# Velocity S-wave (km/s) = 3.59223 3.96025 3.78072
# Velocity P-wave (km/s) = 5.82598 6.82473 6.34504
#
# Compressibility (1/GPa) = 0.02891138
#
# Stress axis : x y z
#
# Youngs Moduli (GPa) = 70.38359 81.61472 81.46422
#
# Poissons Ratio (x) = 0.02822 0.15309
# Poissons Ratio (y) = 0.02434 0.21892
# Poissons Ratio (z) = 0.13226 0.21932
#
# Static dielectric constant tensor:
#      x y z
#    x 3.915670 0.375230 0.110040 
#    y 0.375230 4.744150 0.102140 
#    z 0.110040 0.102140 3.850960 
# 
# 
# High freq. dielectric constant tensor:
#      x y z
#    x 1.801720 -0.002420 0.003210 
#    y -0.002420 1.816420 0.000630 
#    z 0.003210 0.000630 1.820040 
# 
# From -- ./inp_files/454468.got.cif
#   From: 2010.06.25/outbox.cif.g09.slc.cpg/sg2_228_cif.got.tgz:454468.got - 2010.06.27 13:26:56.
