data_PCOD8013382
_publ_section_title
;
Structure prediction by ZEFSAII (Michael W. Deem and Ramdas Pophale) SiO2 
 PCOD8013382
Probable space group: P -1
;
_chemical_formula_sum "Si O2"
_cell_formula_units_Z 16
_cell_length_a 11.821715
_cell_length_b 8.809715
_cell_length_c 11.055862
_cell_angle_alpha 122.892244
_cell_angle_beta 49.356832
_cell_angle_gamma 103.820915
_cell_volume 721.607953
_symmetry_space_group_name_H-M "P -1"
_symmetry_group_IT_number 2
_symmetry_cell_setting 'triclinic'
loop_
_space_group_symop_operation_xyz
x,y,z
-x,-y,-z
loop_
_atom_site_type_symbol
_atom_site_label
_atom_site_fract_x
_atom_site_fract_y
_atom_site_fract_z
Si Si1 0.779875 0.776603 0.759724
Si Si2 0.636835 0.720107 0.591747
Si Si3 0.851214 0.550887 0.850180
Si Si4 0.926805 0.172002 0.546813
Si Si5 0.677663 0.024115 0.531741
Si Si6 0.109598 0.562002 0.844329
Si Si7 0.299905 0.868401 0.879351
Si Si8 0.656705 0.852546 0.235610
O O1 0.677599 0.701088 0.696712
O O2 0.796398 0.635532 0.796460
O O3 0.946575 0.752118 0.581052
O O4 0.715356 0.988645 0.935095
O O5 0.740708 0.582156 0.366510
O O6 0.457020 0.719319 0.704983
O O7 0.655985 0.926293 0.631209
O O8 0.851880 0.333417 0.759479
O O9 0.010408 0.598648 0.806625
O O10 0.722561 0.641629 0.071333
O O11 0.806174 0.142236 0.516679
O O12 0.000000 0.000000 0.500000
O O13 0.522678 0.144753 0.642285
O O14 0.726742 0.876127 0.328525
O O15 0.163923 0.751131 0.927484
O O16 0.000000 0.500000 0.000000
O O17 0.289597 0.994651 0.821359
#
# Coordination Sequence:
#
# PCOD8013382 Si02
#       8
#     2   2   2   2   2   2   2   2
#     4  11  24  42  67  95 131 174 220 272 322 391
#     4  11  22  45  65  94 136 172 220 268 326 394
#     4  11  25  42  63  96 132 169 219 275 324 388
#     4  12  24  40  66  97 131 176 215 268 334 388
#     4  10  21  40  67  94 131 174 219 267 329 388
#     4  12  26  41  66  97 133 170 221 278 322 387
#     4  10  25  41  68  95 127 181 221 263 335 390
#     4   9  22  43  64  94 132 173 218 274 322 392
#
# _framework density 22.172704
#
# number of rings (size 3 to 8) (size 9 to 14) (size 15 to 20)
#    0.000    1.250    2.500    1.875    7.000    1.500 
#    0.000    2.500    0.000    0.000    0.000    0.000 
#    0.000    0.000    0.000    0.000    0.000    0.000 
#
# Total GULP energy -198272.670604 kJ/mol
# GULP energy per Si atom -12392.041913 kJ/mol
# Density = 2.212224 g / cm^3
# Si number density = 22.172704 Si / 1000 Ang^3
#
#
#
# Elastic Constant Matrix: (Units=GPa)
#
#
# Indices 1 2 3 4 5 6 
#
# 1 130.7693 43.0540 49.0285 9.6073 7.8115 9.3290
# 2 43.0540 60.0603 39.3614 17.5026 0.4748 -0.4737
# 3 49.0285 39.3614 142.6901 25.9443 11.3503 -7.0536
# 4 9.6073 17.5026 25.9443 30.9249 0.5777 0.1293
# 5 7.8115 0.4748 11.3503 0.5777 25.3436 1.7300
# 6 9.3290 -0.4737 -7.0536 0.1293 1.7300 13.7929
#
#
#
# Elastic Compliance Matrix: (Units=1/GPa)
#
#
# Indices 1 2 3 4 5 6 
#
# 1 0.011735 -0.007491 -0.002863 0.003066 -0.001617 -0.009485
# 2 -0.007491 0.027080 -0.003022 -0.010540 0.003111 0.004160
# 3 -0.002863 -0.003022 0.010706 -0.006336 -0.004251 0.007901
# 4 0.003066 -0.010540 -0.006336 0.042662 0.001546 -0.006270
# 5 -0.001617 0.003111 -0.004251 0.001546 0.042195 -0.006280
# 6 -0.009485 0.004160 0.007901 -0.006270 -0.006280 0.083945
#
#
# Mechanical properties :
#
#
# Convention : Reuss Voigt Hill
#
# Bulk Modulus (GPa) = 43.91984 66.26748 55.09366
# Shear Modulus (GPa) = 19.78907 27.48401 23.63654
#
# Velocity S-wave (km/s) = 2.99071 3.52453 3.26854
# Velocity P-wave (km/s) = 5.63710 6.82019 6.25667
#
# Compressibility (1/GPa) = 0.02276875
#
# Stress axis : x y z
#
# Youngs Moduli (GPa) = 85.21597 36.92795 93.40338
#
# Poissons Ratio (x) = 0.27663 0.26746
# Poissons Ratio (y) = 0.63836 0.28222
# Poissons Ratio (z) = 0.24401 0.11158
#
# Static dielectric constant tensor:
#      x y z
#    x 4.009880 0.110300 -0.205590 
#    y 0.110300 3.541340 0.211710 
#    z -0.205590 0.211710 4.145790 
# 
# 
# High freq. dielectric constant tensor:
#      x y z
#    x 1.886020 -0.007910 -0.000450 
#    y -0.007910 1.844900 0.003360 
#    z -0.000450 0.003360 1.890950 
# 
# From -- ./inp_files/419904.got.cif
#   From: 2010.06.25/outbox.cif.g09.slc.cpg/sg2_210_cif.got.tgz:419904.got - 2010.06.27 13:26:56.
