data_PCOD8013025
_publ_section_title
;
Structure prediction by ZEFSAII (Michael W. Deem and Ramdas Pophale) SiO2 
 PCOD8013025
Probable space group: P -1
;
_chemical_formula_sum "Si O2"
_cell_formula_units_Z 16
_cell_length_a 8.898590
_cell_length_b 11.155872
_cell_length_c 14.840337
_cell_angle_alpha 27.437183
_cell_angle_beta 90.589921
_cell_angle_gamma 79.504109
_cell_volume 617.516176
_symmetry_space_group_name_H-M "P -1"
_symmetry_group_IT_number 2
_symmetry_cell_setting 'triclinic'
loop_
_space_group_symop_operation_xyz
x,y,z
-x,-y,-z
loop_
_atom_site_type_symbol
_atom_site_label
_atom_site_fract_x
_atom_site_fract_y
_atom_site_fract_z
Si Si1 0.993181 0.453975 0.356076
Si Si2 0.162535 0.714848 0.684766
Si Si3 0.750845 0.018960 0.229054
Si Si4 0.283036 0.451158 0.568160
Si Si5 0.222734 0.737704 0.115976
Si Si6 0.604612 0.751778 0.905896
Si Si7 0.456013 0.836211 0.529607
Si Si8 0.640273 0.104778 0.828815
O O1 0.124632 0.117625 0.595216
O O2 0.075011 0.679903 0.198356
O O3 0.891374 0.491873 0.238745
O O4 0.877454 0.518844 0.398593
O O5 0.307726 0.758231 0.606662
O O6 0.239197 0.562736 0.883679
O O7 0.000000 0.000000 0.500000
O O8 0.702651 0.758959 0.374347
O O9 0.573112 0.270574 0.089359
O O10 0.826349 0.131621 0.071818
O O11 0.454269 0.325247 0.709106
O O12 0.264507 0.752368 0.327012
O O13 0.382585 0.438323 0.313637
O O14 0.261191 0.966883 0.026309
O O15 0.621402 0.952313 0.695720
O O16 0.625659 0.848863 0.943722
O O17 0.500000 0.000000 0.500000
#
# Coordination Sequence:
#
# PCOD8013025 Si02
#       8
#     2   2   2   2   2   2   2   2
#     4  12  25  44  67 105 156 182 239 300 354 412
#     4  12  29  49  74 108 141 182 241 310 361 419
#     4  11  24  41  71 104 146 195 239 281 359 426
#     4  10  21  40  65 102 146 195 229 296 345 416
#     4  12  24  42  70 111 143 197 242 287 354 431
#     4  11  25  48  77 107 138 197 239 292 365 434
#     4  12  26  50  80 104 140 188 248 298 353 434
#     4  10  21  42  73 103 151 193 242 281 358 443
#
# _framework density 25.910250999999999
#
# number of rings (size 3 to 8) (size 9 to 14) (size 15 to 20)
#    0.000    0.750    3.750    4.125    1.750    5.500 
#    0.000    0.000    0.000    0.000    0.000    0.000 
#    0.000    0.000    0.000    0.000    0.000    0.000 
#
# Total GULP energy -198324.117740 kJ/mol
# GULP energy per Si atom -12395.257359 kJ/mol
# Density = 2.585128 g / cm^3
# Si number density = 25.910251 Si / 1000 Ang^3
#
#
#
# Elastic Constant Matrix: (Units=GPa)
#
#
# Indices 1 2 3 4 5 6 
#
# 1 142.7294 8.5448 35.5252 12.5173 -3.9945 -6.6044
# 2 8.5448 28.5169 -14.8387 6.8540 6.3228 7.3396
# 3 35.5252 -14.8387 134.3257 35.6762 18.6376 -3.2789
# 4 12.5173 6.8540 35.6762 29.3201 3.3357 6.2652
# 5 -3.9945 6.3228 18.6376 3.3357 47.6627 8.5962
# 6 -6.6044 7.3396 -3.2789 6.2652 8.5962 34.1445
#
#
#
# Elastic Compliance Matrix: (Units=1/GPa)
#
#
# Indices 1 2 3 4 5 6 
#
# 1 0.008211 -0.005502 -0.003425 0.001336 0.002375 0.001599
# 2 -0.005502 0.056164 0.017102 -0.029574 -0.011979 -0.003052
# 3 -0.003425 0.017102 0.017986 -0.024299 -0.008613 0.004016
# 4 0.001336 -0.029574 -0.024299 0.071259 0.010618 -0.011466
# 5 0.002375 -0.011979 -0.008613 0.010618 0.026552 -0.006426
# 6 0.001599 -0.003052 0.004016 -0.011466 -0.006426 0.034360
#
#
# Mechanical properties :
#
#
# Convention : Reuss Voigt Hill
#
# Bulk Modulus (GPa) = 10.13047 40.44828 25.28938
# Shear Modulus (GPa) = 21.63688 40.64817 31.14253
#
# Velocity S-wave (km/s) = 2.89289 3.96511 3.47066
# Velocity P-wave (km/s) = 3.88288 6.05042 5.08352
#
# Compressibility (1/GPa) = 0.09871206
#
# Stress axis : x y z
#
# Youngs Moduli (GPa) = 121.78231 17.80500 55.59770
#
# Poissons Ratio (x) = 0.09796 0.19041
# Poissons Ratio (y) = 0.67002 -0.95082
# Poissons Ratio (z) = 0.41708 -0.30450
#
# Static dielectric constant tensor:
#      x y z
#    x 5.232140 0.080560 0.697700 
#    y 0.080560 4.489830 0.077190 
#    z 0.697700 0.077190 5.205220 
# 
# 
# High freq. dielectric constant tensor:
#      x y z
#    x 2.048950 0.005010 0.015390 
#    y 0.005010 2.016860 0.002350 
#    z 0.015390 0.002350 2.054680 
# 
# From -- ./inp_files/499713.got.cif
#   From: 2010.06.25/outbox.cif.g09.slc.cpg/sg2_250_cif.got.tgz:499713.got - 2010.06.27 13:26:56.
