data_PCOD8013855
_publ_section_title
;
Structure prediction by ZEFSAII (Michael W. Deem and Ramdas Pophale) SiO2 
 PCOD8013855
Probable space group: P -1
;
_chemical_formula_sum "Si O2"
_cell_formula_units_Z 16
_cell_length_a 9.260928
_cell_length_b 14.225846
_cell_length_c 16.013205
_cell_angle_alpha 38.249298
_cell_angle_beta 143.579156
_cell_angle_gamma 136.545986
_cell_volume 749.635851
_symmetry_space_group_name_H-M "P -1"
_symmetry_group_IT_number 2
_symmetry_cell_setting 'triclinic'
loop_
_space_group_symop_operation_xyz
x,y,z
-x,-y,-z
loop_
_atom_site_type_symbol
_atom_site_label
_atom_site_fract_x
_atom_site_fract_y
_atom_site_fract_z
Si Si1 0.644243 0.354538 0.400725
Si Si2 0.824464 0.623319 0.423157
Si Si3 0.670198 0.977662 0.517490
Si Si4 0.371703 0.428025 0.906095
Si Si5 0.698371 0.211242 0.218116
Si Si6 0.582314 0.225765 0.850791
Si Si7 0.922484 0.505882 0.715975
Si Si8 0.786436 0.053264 0.201407
O O1 0.727584 0.455394 0.451459
O O2 0.540468 0.453678 0.212997
O O3 0.883515 0.297810 0.516678
O O4 0.424722 0.203345 0.429723
O O5 0.655769 0.739294 0.234826
O O6 0.790626 0.598565 0.524600
O O7 0.629924 0.093907 0.345535
O O8 0.500000 0.000000 0.500000
O O9 0.966403 0.010702 0.653988
O O10 0.075405 0.406597 0.799722
O O11 0.500000 0.500000 0.000000
O O12 0.446070 0.264518 0.037034
O O13 0.797344 0.125499 0.248100
O O14 0.909021 0.368590 0.229963
O O15 0.718248 0.385056 0.757792
O O16 0.469108 0.085996 0.830099
O O17 0.777005 0.182441 0.036426
#
# Coordination Sequence:
#
# PCOD8013855 Si02
#       8
#     2   2   2   2   2   2   2   2
#     4  10  22  38  67  93 127 169 217 265 314 381
#     4  10  21  41  62  95 127 165 219 264 314 386
#     4  12  25  41  68  94 131 173 210 268 328 380
#     4   9  19  39  62  95 130 162 215 265 313 376
#     4  11  24  42  67  98 130 165 218 272 316 383
#     4  11  24  42  65  89 134 174 208 264 333 377
#     4  10  22  38  69  91 125 174 214 263 316 386
#     4  11  27  43  62  96 136 164 218 269 324 387
#
# _framework density 21.343696999999999
#
# number of rings (size 3 to 8) (size 9 to 14) (size 15 to 20)
#    0.000    1.500    0.000    5.250    8.750    0.500 
#    0.000    0.625    0.000    0.000    0.000    0.000 
#    0.000    0.000    0.000    0.000    0.000    0.000 
#
# Total GULP energy -198403.768604 kJ/mol
# GULP energy per Si atom -12400.235538 kJ/mol
# Density = 2.129512 g / cm^3
# Si number density = 21.343697 Si / 1000 Ang^3
#
#
#
# Elastic Constant Matrix: (Units=GPa)
#
#
# Indices 1 2 3 4 5 6 
#
# 1 87.8841 31.1614 37.3968 -1.2440 3.3538 -9.2307
# 2 31.1614 85.3021 26.7038 -1.0060 -13.5731 8.0822
# 3 37.3968 26.7038 121.0014 -7.7792 14.9410 4.0311
# 4 -1.2440 -1.0060 -7.7792 28.0031 -6.4172 -4.1661
# 5 3.3538 -13.5731 14.9410 -6.4172 26.9264 -3.6312
# 6 -9.2307 8.0822 4.0311 -4.1661 -3.6312 30.7464
#
#
#
# Elastic Compliance Matrix: (Units=1/GPa)
#
#
# Indices 1 2 3 4 5 6 
#
# 1 0.015586 -0.005464 -0.003595 0.000025 -0.001835 0.006373
# 2 -0.005464 0.016794 -0.003103 0.001302 0.010609 -0.004218
# 3 -0.003595 -0.003103 0.011110 0.000738 -0.007443 -0.002499
# 4 0.000025 0.001302 0.000738 0.039263 0.010427 0.006120
# 5 -0.001835 0.010609 -0.007443 0.010427 0.049997 0.004954
# 6 0.006373 -0.004218 -0.002499 0.006120 0.004954 0.037288
#
#
# Mechanical properties :
#
#
# Convention : Reuss Voigt Hill
#
# Bulk Modulus (GPa) = 52.17885 53.85683 53.01784
# Shear Modulus (GPa) = 24.90653 30.39690 27.65172
#
# Velocity S-wave (km/s) = 3.41974 3.77790 3.60327
# Velocity P-wave (km/s) = 6.33189 6.65717 6.49657
#
# Compressibility (1/GPa) = 0.01916485
#
# Stress axis : x y z
#
# Youngs Moduli (GPa) = 64.16219 59.54645 90.00831
#
# Poissons Ratio (x) = 0.32533 0.32360
# Poissons Ratio (y) = 0.35055 0.27933
# Poissons Ratio (z) = 0.23068 0.18480
#
# Static dielectric constant tensor:
#      x y z
#    x 3.845780 -0.060460 0.312800 
#    y -0.060460 3.803380 -0.007140 
#    z 0.312800 -0.007140 4.307380 
# 
# 
# High freq. dielectric constant tensor:
#      x y z
#    x 1.828150 -0.007820 0.007530 
#    y -0.007820 1.830070 0.001080 
#    z 0.007530 0.001080 1.854960 
# 
# From -- ./inp_files/503950.got.cif
#   From: 2010.06.25/outbox.cif.g09.slc.cpg/sg2_252_cif.got.tgz:503950.got - 2010.06.27 13:26:56.
