data_PCOD8013332
_publ_section_title
;
Structure prediction by ZEFSAII (Michael W. Deem and Ramdas Pophale) SiO2 
 PCOD8013332
Probable space group: P -1
;
_chemical_formula_sum "Si O2"
_cell_formula_units_Z 16
_cell_length_a 5.481551
_cell_length_b 18.435240
_cell_length_c 15.323215
_cell_angle_alpha 27.739979
_cell_angle_beta 77.408292
_cell_angle_gamma 65.576854
_cell_volume 614.967636
_symmetry_space_group_name_H-M "P -1"
_symmetry_group_IT_number 2
_symmetry_cell_setting 'triclinic'
loop_
_space_group_symop_operation_xyz
x,y,z
-x,-y,-z
loop_
_atom_site_type_symbol
_atom_site_label
_atom_site_fract_x
_atom_site_fract_y
_atom_site_fract_z
Si Si1 0.490198 0.091726 0.312699
Si Si2 0.219905 0.608306 0.169782
Si Si3 0.049551 0.775606 0.540565
Si Si4 0.151467 0.788242 0.195546
Si Si5 0.632088 0.858520 0.062656
Si Si6 0.808143 0.448291 0.392840
Si Si7 0.436037 0.471831 0.937436
Si Si8 0.769440 0.962188 0.774482
O O1 0.252751 0.101938 0.253044
O O2 0.500000 0.000000 0.500000
O O3 0.429528 0.289607 0.123526
O O4 0.786507 0.966713 0.376498
O O5 0.471590 0.547758 0.286589
O O6 0.358678 0.511285 0.169684
O O7 0.947198 0.579632 0.250630
O O8 0.087058 0.818354 0.936165
O O9 0.000714 0.687038 0.553656
O O10 0.125218 0.640574 0.760158
O O11 0.291253 0.834419 0.439447
O O12 0.488710 0.727281 0.214476
O O13 0.141204 0.671145 0.399466
O O14 0.980268 0.755403 0.163954
O O15 0.000000 0.000000 0.000000
O O16 0.552770 0.959301 0.868231
O O17 0.500000 0.000000 0.000000
O O18 0.500000 0.500000 0.000000
#
# Coordination Sequence:
#
# PCOD8013332 Si02
#       8
#     2   2   2   2   2   2   2   2
#     4  12  29  47  76 116 151 203 260 319 384 463
#     4  11  26  48  72 108 151 204 250 325 385 452
#     4  11  26  44  77 105 147 208 249 312 391 446
#     4  10  21  40  67 105 144 186 256 307 366 460
#     4  10  23  39  71 106 143 196 252 308 381 452
#     4  11  25  46  75 110 150 201 260 308 387 463
#     4  11  26  49  74 109 155 199 260 322 382 463
#     4  12  26  47  75 106 156 195 261 319 384 458
#
# _framework density 26.017631999999999
#
# number of rings (size 3 to 8) (size 9 to 14) (size 15 to 20)
#    0.000    1.000    1.250    4.500   12.250    1.500 
#    0.000    3.750    0.000    0.000    0.000    0.000 
#    0.000    0.000    0.000    0.000    0.000    0.000 
#
# Total GULP energy -198316.844740 kJ/mol
# GULP energy per Si atom -12394.802796 kJ/mol
# Density = 2.595841 g / cm^3
# Si number density = 26.017632 Si / 1000 Ang^3
#
#
#
# Elastic Constant Matrix: (Units=GPa)
#
#
# Indices 1 2 3 4 5 6 
#
# 1 162.3946 57.2501 72.8505 6.6933 -7.8557 18.9222
# 2 57.2501 90.7093 47.0547 17.7488 3.6573 41.2075
# 3 72.8505 47.0547 202.5662 6.5933 1.8614 23.6947
# 4 6.6933 17.7488 6.5933 53.7510 6.4949 5.1289
# 5 -7.8557 3.6573 1.8614 6.4949 42.0310 0.5720
# 6 18.9222 41.2075 23.6947 5.1289 0.5720 47.0362
#
#
#
# Elastic Compliance Matrix: (Units=1/GPa)
#
#
# Indices 1 2 3 4 5 6 
#
# 1 0.009016 -0.005921 -0.002208 0.000595 0.002171 0.002582
# 2 -0.005921 0.024768 -0.001321 -0.005299 -0.002139 -0.018048
# 3 -0.002208 -0.001321 0.006163 0.000126 -0.000576 -0.001066
# 4 0.000595 -0.005299 0.000126 0.020375 -0.002611 0.002149
# 5 0.002171 -0.002139 -0.000576 -0.002611 0.024796 0.001274
# 6 0.002582 -0.018048 -0.001066 0.002149 0.001274 0.036320
#
#
# Mechanical properties :
#
#
# Convention : Reuss Voigt Hill
#
# Bulk Modulus (GPa) = 47.51303 89.99785 68.75544
# Shear Modulus (GPa) = 33.93179 47.13128 40.53154
#
# Velocity S-wave (km/s) = 3.61527 4.26080 3.95124
# Velocity P-wave (km/s) = 5.97732 7.67282 6.87752
#
# Compressibility (1/GPa) = 0.02104686
#
# Stress axis : x y z
#
# Youngs Moduli (GPa) = 110.91856 40.37400 162.24558
#
# Poissons Ratio (x) = 0.23907 0.35827
# Poissons Ratio (y) = 0.65680 0.21428
# Poissons Ratio (z) = 0.24493 0.05332
#
# Static dielectric constant tensor:
#      x y z
#    x 6.807160 0.358040 -0.226510 
#    y 0.358040 7.497140 -0.885900 
#    z -0.226510 -0.885900 5.038110 
# 
# 
# High freq. dielectric constant tensor:
#      x y z
#    x 2.039940 0.001160 0.001540 
#    y 0.001160 2.077610 -0.006160 
#    z 0.001540 -0.006160 2.058640 
# 
# From -- ./inp_files/485131.got.cif
#   From: 2010.06.25/outbox.cif.g09.slc.cpg/sg2_243_cif.got.tgz:485131.got - 2010.06.27 13:26:56.
