data_PCOD8013297
_publ_section_title
;
Structure prediction by ZEFSAII (Michael W. Deem and Ramdas Pophale) SiO2 
 PCOD8013297
Probable space group: P -1
;
_chemical_formula_sum "Si O2"
_cell_formula_units_Z 14
_cell_length_a 11.652318
_cell_length_b 7.905173
_cell_length_c 11.804432
_cell_angle_alpha 39.423853
_cell_angle_beta 117.188987
_cell_angle_gamma 99.534266
_cell_volume 579.466715
_symmetry_space_group_name_H-M "P -1"
_symmetry_group_IT_number 2
_symmetry_cell_setting 'triclinic'
loop_
_space_group_symop_operation_xyz
x,y,z
-x,-y,-z
loop_
_atom_site_type_symbol
_atom_site_label
_atom_site_fract_x
_atom_site_fract_y
_atom_site_fract_z
Si Si1 0.239581 0.874423 0.497358
Si Si2 0.001682 0.327146 0.476953
Si Si3 0.515475 0.445726 0.904696
Si Si4 0.342436 0.661877 0.432547
Si Si5 0.563495 0.099498 0.848683
Si Si6 0.839676 0.539009 0.714477
Si Si7 0.783785 0.177303 0.055110
O O1 0.399510 0.709375 0.664271
O O2 0.225394 0.862271 0.359582
O O3 0.142696 0.715150 0.590476
O O4 0.208693 0.172821 0.386629
O O5 0.032403 0.480321 0.299350
O O6 0.000000 0.500000 0.500000
O O7 0.120088 0.025156 0.703249
O O8 0.500000 0.500000 0.000000
O O9 0.666657 0.427572 0.938798
O O10 0.503102 0.138169 0.031882
O O11 0.460473 0.409083 0.683018
O O12 0.408468 0.866987 0.289592
O O13 0.280565 0.494120 0.401080
O O14 0.707760 0.014880 0.024419
O O15 0.878055 0.299399 0.953455
#
# Coordination Sequence:
#
# PCOD8013297 Si02
#       7
#     2   2   2   2   2   2   2
#     4  12  25  44  71  99 140 180 221 286 346 394
#     4  12  25  47  72 100 138 184 231 280 344 409
#     4  12  25  41  69 107 135 175 230 281 342 408
#     4  10  21  42  66 101 133 181 222 283 340 399
#     4  10  21  40  66  96 141 174 225 277 342 406
#     4  11  26  46  69 103 140 178 233 282 338 412
#     4  11  25  45  71  99 138 182 227 283 337 407
#
# _framework density 24.160142
#
# number of rings (size 3 to 8) (size 9 to 14) (size 15 to 20)
#    0.000    0.857    2.857    4.286    2.000    1.714 
#    2.571    0.000    0.000    0.000    0.000    0.000 
#    0.000    0.000    0.000    0.000    0.000    0.000 
#
# Total GULP energy -173550.463695 kJ/mol
# GULP energy per Si atom -12396.461692 kJ/mol
# Density = 2.410515 g / cm^3
# Si number density = 24.160142 Si / 1000 Ang^3
#
#
#
# Elastic Constant Matrix: (Units=GPa)
#
#
# Indices 1 2 3 4 5 6 
#
# 1 131.8151 17.4293 15.3638 3.3194 -26.8390 -25.0051
# 2 17.4293 123.1543 -14.2784 -6.7147 -7.3545 -21.1101
# 3 15.3638 -14.2784 39.2164 3.2608 -14.5065 -1.5879
# 4 3.3194 -6.7147 3.2608 19.9543 -1.6984 -1.5377
# 5 -26.8390 -7.3545 -14.5065 -1.6984 45.2790 3.5953
# 6 -25.0051 -21.1101 -1.5879 -1.5377 3.5953 33.4219
#
#
#
# Elastic Compliance Matrix: (Units=1/GPa)
#
#
# Indices 1 2 3 4 5 6 
#
# 1 0.010120 -0.000240 -0.001970 -0.000513 0.004770 0.006789
# 2 -0.000240 0.010127 0.004734 0.003386 0.002645 0.006313
# 3 -0.001970 0.004734 0.031797 -0.002317 0.009551 0.001893
# 4 -0.000513 0.003386 -0.002317 0.052118 0.001147 0.003919
# 5 0.004770 0.002645 0.009551 0.001147 0.028230 0.002709
# 6 0.006789 0.006313 0.001893 0.003919 0.002709 0.038967
#
#
# Mechanical properties :
#
#
# Convention : Reuss Voigt Hill
#
# Bulk Modulus (GPa) = 17.51548 36.80170 27.15859
# Shear Modulus (GPa) = 26.97721 38.10911 32.54316
#
# Velocity S-wave (km/s) = 3.34518 3.97590 3.67410
# Velocity P-wave (km/s) = 4.71018 6.02848 5.40964
#
# Compressibility (1/GPa) = 0.05709235
#
# Stress axis : x y z
#
# Youngs Moduli (GPa) = 98.81620 98.74165 31.44932
#
# Poissons Ratio (x) = 0.02369 0.06195
# Poissons Ratio (y) = 0.02371 -0.14888
# Poissons Ratio (z) = 0.19466 -0.46743
#
# Static dielectric constant tensor:
#      x y z
#    x 4.617470 -0.135690 -0.188890 
#    y -0.135690 4.396680 0.029020 
#    z -0.188890 0.029020 4.107240 
# 
# 
# High freq. dielectric constant tensor:
#      x y z
#    x 1.971680 -0.019880 -0.017590 
#    y -0.019880 1.964360 0.012730 
#    z -0.017590 0.012730 1.941020 
# 
# From -- ./inp_files/416158.got.cif
#   From: 2010.06.25/outbox.cif.g09.slc.cpg/sg2_209_cif.got.tgz:416158.got - 2010.06.27 13:26:56.
