data_PCOD8013928
_publ_section_title
;
Structure prediction by ZEFSAII (Michael W. Deem and Ramdas Pophale) SiO2 
 PCOD8013928
Probable space group: P -1
;
_chemical_formula_sum "Si O2"
_cell_formula_units_Z 16
_cell_length_a 9.414024
_cell_length_b 19.362443
_cell_length_c 12.186758
_cell_angle_alpha 152.495805
_cell_angle_beta 43.593943
_cell_angle_gamma 134.145489
_cell_volume 697.097180
_symmetry_space_group_name_H-M "P -1"
_symmetry_group_IT_number 2
_symmetry_cell_setting 'triclinic'
loop_
_space_group_symop_operation_xyz
x,y,z
-x,-y,-z
loop_
_atom_site_type_symbol
_atom_site_label
_atom_site_fract_x
_atom_site_fract_y
_atom_site_fract_z
Si Si1 0.110126 0.361751 0.851225
Si Si2 0.091977 0.128782 0.714291
Si Si3 0.452722 0.640458 0.511299
Si Si4 0.316278 0.157322 0.156078
Si Si5 0.134749 0.829093 0.873326
Si Si6 0.299043 0.302688 0.156561
Si Si7 0.510349 0.851641 0.352841
Si Si8 0.935057 0.300667 0.639993
O O1 0.089267 0.285607 0.874299
O O2 0.347699 0.381796 0.703524
O O3 0.956245 0.266895 0.711899
O O4 0.035610 0.519934 0.137334
O O5 0.332656 0.111918 0.580963
O O6 0.000000 0.000000 0.500000
O O7 0.951708 0.120957 0.891146
O O8 0.507973 0.769747 0.754561
O O9 0.281922 0.702320 0.619601
O O10 0.353197 0.482651 0.403087
O O11 0.396636 0.200756 0.048918
O O12 0.117263 0.240586 0.390189
O O13 0.261500 0.978041 0.953417
O O14 0.948680 0.754101 0.793102
O O15 0.404578 0.276460 0.945515
O O16 0.274479 0.781738 0.418437
O O17 0.500000 0.000000 0.500000
#
# Coordination Sequence:
#
# PCOD8013928 Si02
#       8
#     2   2   2   2   2   2   2   2
#     4  10  22  40  66  90 131 167 210 266 320 381
#     4  11  24  42  64  96 128 169 220 263 328 384
#     4  11  23  43  65  98 131 167 215 268 323 387
#     4  11  24  42  68  95 129 173 219 261 323 387
#     4  11  25  44  65  94 134 169 216 270 320 389
#     4  11  24  43  64  97 130 170 216 265 325 382
#     4  11  23  41  65  93 131 167 216 268 318 390
#     4  10  21  41  63  94 127 164 214 264 316 380
#
# _framework density 22.952324000000001
#
# number of rings (size 3 to 8) (size 9 to 14) (size 15 to 20)
#    0.000    1.250    1.250    5.250    1.750    4.500 
#    0.000    0.000    0.000    0.000    0.000    0.000 
#    0.000    0.000    0.000    0.000    0.000    0.000 
#
# Total GULP energy -198419.842751 kJ/mol
# GULP energy per Si atom -12401.240172 kJ/mol
# Density = 2.290008 g / cm^3
# Si number density = 22.952324 Si / 1000 Ang^3
#
#
#
# Elastic Constant Matrix: (Units=GPa)
#
#
# Indices 1 2 3 4 5 6 
#
# 1 99.7218 23.9244 11.2472 12.9314 -6.6672 0.4782
# 2 23.9244 88.3263 13.4260 34.1432 5.2282 -10.0910
# 3 11.2472 13.4260 42.5485 17.5129 -7.9463 2.5789
# 4 12.9314 34.1432 17.5129 34.4110 -0.3269 -1.3520
# 5 -6.6672 5.2282 -7.9463 -0.3269 34.7937 10.8835
# 6 0.4782 -10.0910 2.5789 -1.3520 10.8835 41.9723
#
#
#
# Elastic Compliance Matrix: (Units=1/GPa)
#
#
# Indices 1 2 3 4 5 6 
#
# 1 0.011138 -0.002872 -0.001095 -0.000811 0.002776 -0.001496
# 2 -0.002872 0.020478 0.001019 -0.019586 -0.005346 0.005649
# 3 -0.001095 0.001019 0.032338 -0.017152 0.008244 -0.004420
# 4 -0.000811 -0.019586 -0.017152 0.057458 -0.000031 -0.001787
# 5 0.002776 -0.005346 0.008244 -0.000031 0.035401 -0.011004
# 6 -0.001496 0.005649 -0.004420 -0.001787 -0.011004 0.028268
#
#
# Mechanical properties :
#
#
# Convention : Reuss Voigt Hill
#
# Bulk Modulus (GPa) = 17.22458 36.42132 26.82295
# Shear Modulus (GPa) = 23.77211 34.36867 29.07039
#
# Velocity S-wave (km/s) = 3.22175 3.87382 3.56273
# Velocity P-wave (km/s) = 4.62172 5.99260 5.35124
#
# Compressibility (1/GPa) = 0.05805656
#
# Stress axis : x y z
#
# Youngs Moduli (GPa) = 89.77898 48.83317 30.92339
#
# Poissons Ratio (x) = 0.14027 0.03386
# Poissons Ratio (y) = 0.25788 -0.03150
# Poissons Ratio (z) = 0.09831 -0.04974
#
# Static dielectric constant tensor:
#      x y z
#    x 4.417650 -0.106290 -0.051740 
#    y -0.106290 3.910120 0.022920 
#    z -0.051740 0.022920 3.977600 
# 
# 
# High freq. dielectric constant tensor:
#      x y z
#    x 1.922200 0.002860 -0.003960 
#    y 0.002860 1.899080 0.010940 
#    z -0.003960 0.010940 1.906280 
# 
# From -- ./inp_files/274769.got.cif
#   From: 2010.06.25/outbox.cif.g09.slc.cpg/sg2_138_cif.got.tgz:274769.got - 2010.06.27 13:26:56.
