data_PCOD8013865
_publ_section_title
;
Structure prediction by ZEFSAII (Michael W. Deem and Ramdas Pophale) SiO2 
 PCOD8013865
Probable space group: P -1
;
_chemical_formula_sum "Si O2"
_cell_formula_units_Z 16
_cell_length_a 19.234091
_cell_length_b 9.222481
_cell_length_c 13.374820
_cell_angle_alpha 35.443485
_cell_angle_beta 34.760646
_cell_angle_gamma 39.958586
_cell_volume 749.750222
_symmetry_space_group_name_H-M "P -1"
_symmetry_group_IT_number 2
_symmetry_cell_setting 'triclinic'
loop_
_space_group_symop_operation_xyz
x,y,z
-x,-y,-z
loop_
_atom_site_type_symbol
_atom_site_label
_atom_site_fract_x
_atom_site_fract_y
_atom_site_fract_z
Si Si1 0.952854 0.471478 0.458768
Si Si2 0.471477 0.771402 0.825547
Si Si3 0.716277 0.941367 0.448705
Si Si4 0.785569 0.756935 0.809175
Si Si5 0.277746 0.711667 0.929916
Si Si6 0.077061 0.007276 0.154131
Si Si7 0.264761 0.245577 0.896603
Si Si8 0.221157 0.819392 0.572625
O O1 0.848668 0.719927 0.400154
O O2 0.000000 0.500000 0.500000
O O3 0.066386 0.408679 0.279992
O O4 0.893525 0.228891 0.667505
O O5 0.602836 0.828764 0.612652
O O6 0.400191 0.745854 0.822329
O O7 0.385345 0.004597 0.863040
O O8 0.500000 0.500000 0.000000
O O9 0.718736 0.188884 0.241861
O O10 0.704120 0.036738 0.523579
O O11 0.765774 0.051975 0.623410
O O12 0.712012 0.596129 0.917515
O O13 0.743695 0.757627 0.972210
O O14 0.146159 0.885714 0.037956
O O15 0.925660 0.124466 0.249821
O O16 0.135259 0.223856 0.010277
O O17 0.287131 0.508435 0.675619
#
# Coordination Sequence:
#
# PCOD8013865 Si02
#       8
#     2   2   2   2   2   2   2   2
#     4  11  20  38  71  97 134 173 218 269 324 399
#     4  11  26  49  68  89 131 178 229 280 324 395
#     4  12  22  40  68 101 130 177 226 273 325 395
#     4  11  22  42  69 103 132 174 223 267 344 387
#     4  11  22  41  69  98 130 176 229 270 328 396
#     4  10  21  41  62  98 137 175 219 269 332 390
#     4  11  25  44  65  97 135 174 220 281 331 394
#     4  11  22  40  67  96 140 173 212 277 335 396
#
# _framework density 21.340440999999998
#
# number of rings (size 3 to 8) (size 9 to 14) (size 15 to 20)
#    0.000    1.000    5.000    3.000    1.750    3.500 
#   11.250    1.250    0.000    0.000    0.000    0.000 
#    0.000    0.000    0.000    0.000    0.000    0.000 
#
# Total GULP energy -198379.061008 kJ/mol
# GULP energy per Si atom -12398.691313 kJ/mol
# Density = 2.129187 g / cm^3
# Si number density = 21.340441 Si / 1000 Ang^3
#
#
#
# Elastic Constant Matrix: (Units=GPa)
#
#
# Indices 1 2 3 4 5 6 
#
# 1 81.9643 41.4280 40.7962 4.3822 -2.6317 1.5414
# 2 41.4280 116.4038 47.9809 -23.8766 4.1840 -3.9291
# 3 40.7962 47.9809 110.4991 -24.2206 1.9938 -2.9471
# 4 4.3822 -23.8766 -24.2206 32.8808 0.4073 -0.7784
# 5 -2.6317 4.1840 1.9938 0.4073 34.1866 -0.3741
# 6 1.5414 -3.9291 -2.9471 -0.7784 -0.3741 34.6475
#
#
#
# Elastic Compliance Matrix: (Units=1/GPa)
#
#
# Indices 1 2 3 4 5 6 
#
# 1 0.020438 -0.007146 -0.007541 -0.013568 0.003020 -0.002633
# 2 -0.007146 0.013814 -0.001003 0.010320 -0.002283 0.002006
# 3 -0.007541 -0.001003 0.014805 0.011241 -0.001436 0.001718
# 4 -0.013568 0.010320 0.011241 0.048128 -0.003495 0.003774
# 5 0.003020 -0.002283 -0.001436 -0.003495 0.029886 -0.000271
# 6 -0.002633 0.002006 0.001718 0.003774 -0.000271 0.029435
#
#
# Mechanical properties :
#
#
# Convention : Reuss Voigt Hill
#
# Bulk Modulus (GPa) = 56.57262 63.25305 59.91283
# Shear Modulus (GPa) = 25.80263 32.25378 29.02820
#
# Velocity S-wave (km/s) = 3.48098 3.89188 3.69215
# Velocity P-wave (km/s) = 6.53631 7.06399 6.80527
#
# Compressibility (1/GPa) = 0.01767640
#
# Stress axis : x y z
#
# Youngs Moduli (GPa) = 48.92944 72.38948 67.54249
#
# Poissons Ratio (x) = 0.51727 0.50937
# Poissons Ratio (y) = 0.34963 0.06777
# Poissons Ratio (z) = 0.36900 0.07264
#
# Static dielectric constant tensor:
#      x y z
#    x 4.319230 -0.417760 -0.704560 
#    y -0.417760 4.275640 0.162270 
#    z -0.704560 0.162270 4.425060 
# 
# 
# High freq. dielectric constant tensor:
#      x y z
#    x 1.831940 0.002250 -0.010980 
#    y 0.002250 1.829870 -0.017830 
#    z -0.010980 -0.017830 1.846040 
# 
# From -- ./inp_files/307983.got.cif
#   From: 2010.06.25/outbox.cif.g09.slc.cpg/sg2_154_cif.got.tgz:307983.got - 2010.06.27 13:26:56.
