data_PCOD8013338
_publ_section_title
;
Structure prediction by ZEFSAII (Michael W. Deem and Ramdas Pophale) SiO2 
 PCOD8013338
Probable space group: P -1
;
_chemical_formula_sum "Si O2"
_cell_formula_units_Z 16
_cell_length_a 9.149938
_cell_length_b 17.956958
_cell_length_c 8.512285
_cell_angle_alpha 47.703119
_cell_angle_beta 87.452079
_cell_angle_gamma 59.948996
_cell_volume 796.501357
_symmetry_space_group_name_H-M "P -1"
_symmetry_group_IT_number 2
_symmetry_cell_setting 'triclinic'
loop_
_space_group_symop_operation_xyz
x,y,z
-x,-y,-z
loop_
_atom_site_type_symbol
_atom_site_label
_atom_site_fract_x
_atom_site_fract_y
_atom_site_fract_z
Si Si1 0.919017 0.296204 0.909231
Si Si2 0.204880 0.446400 0.014454
Si Si3 0.876510 0.997128 0.632671
Si Si4 0.008928 0.916377 0.253751
Si Si5 0.673880 0.000956 0.366135
Si Si6 0.213992 0.636473 0.524721
Si Si7 0.277727 0.217911 0.161971
Si Si8 0.409036 0.488314 0.170991
O O1 0.829563 0.372513 0.640780
O O2 0.756837 0.370620 0.945341
O O3 0.999557 0.148577 0.093576
O O4 0.087074 0.297569 0.953495
O O5 0.190924 0.548435 0.756736
O O6 0.308061 0.313811 0.100241
O O7 0.321199 0.421956 0.203922
O O8 0.000000 0.500000 0.000000
O O9 0.693935 0.036345 0.493886
O O10 0.000000 0.000000 0.500000
O O11 0.830818 0.102516 0.614978
O O12 0.804543 0.997497 0.235554
O O13 0.061290 0.783277 0.384605
O O14 0.000000 0.000000 0.000000
O O15 0.729966 0.858895 0.583990
O O16 0.452060 0.116970 0.176657
O O17 0.423170 0.596073 0.588001
O O18 0.500000 0.500000 0.000000
#
# Coordination Sequence:
#
# PCOD8013338 Si02
#       8
#     2   2   2   2   2   2   2   2
#     4  11  21  43  59  90 126 162 208 255 314 368
#     4  11  22  42  65  90 122 168 210 259 308 375
#     4   9  20  33  65  85 119 158 203 256 306 359
#     4  11  21  39  59  93 124 157 204 255 325 367
#     4   9  21  39  65  92 117 161 210 265 298 378
#     4  11  25  39  62  92 131 164 203 263 315 371
#     4  10  21  40  67  88 123 161 217 249 318 367
#     4  10  24  39  64  91 121 163 211 256 307 370
#
# _framework density 20.087851000000001
#
# number of rings (size 3 to 8) (size 9 to 14) (size 15 to 20)
#    0.000    1.750    2.500    1.125   10.500    3.500 
#    2.250    0.625    0.000    0.000    0.000    0.000 
#    0.000    0.000    0.000    0.000    0.000    0.000 
#
# Total GULP energy -198258.048870 kJ/mol
# GULP energy per Si atom -12391.128054 kJ/mol
# Density = 2.004213 g / cm^3
# Si number density = 20.087851 Si / 1000 Ang^3
#
#
#
# Elastic Constant Matrix: (Units=GPa)
#
#
# Indices 1 2 3 4 5 6 
#
# 1 119.8552 49.6147 50.0645 2.6678 7.3616 0.0879
# 2 49.6147 106.5107 37.2218 1.3533 3.3468 5.0278
# 3 50.0645 37.2218 92.0548 8.5698 1.8049 0.7590
# 4 2.6678 1.3533 8.5698 25.3228 3.4033 -0.6477
# 5 7.3616 3.3468 1.8049 3.4033 42.7596 -5.5964
# 6 0.0879 5.0278 0.7590 -0.6477 -5.5964 40.3635
#
#
#
# Elastic Compliance Matrix: (Units=1/GPa)
#
#
# Indices 1 2 3 4 5 6 
#
# 1 0.012148 -0.003853 -0.005102 0.000876 -0.001600 0.000342
# 2 -0.003853 0.012279 -0.002919 0.000757 -0.000433 -0.001514
# 3 -0.005102 -0.002919 0.015226 -0.004569 0.000845 0.000132
# 4 0.000876 0.000757 -0.004569 0.041350 -0.003282 0.000198
# 5 -0.001600 -0.000433 0.000845 -0.003282 0.024362 0.003367
# 6 0.000342 -0.001514 0.000132 0.000198 0.003367 0.025430
#
#
# Mechanical properties :
#
#
# Convention : Reuss Voigt Hill
#
# Bulk Modulus (GPa) = 62.87250 65.80251 64.33750
# Shear Modulus (GPa) = 31.28048 33.79048 32.53548
#
# Velocity S-wave (km/s) = 3.95040 4.10583 4.02887
# Velocity P-wave (km/s) = 7.22317 7.43678 7.33075
#
# Compressibility (1/GPa) = 0.01590521
#
# Stress axis : x y z
#
# Youngs Moduli (GPa) = 82.31903 81.43978 65.67791
#
# Poissons Ratio (x) = 0.31377 0.33508
# Poissons Ratio (y) = 0.31716 0.19172
# Poissons Ratio (z) = 0.41998 0.23773
#
# Static dielectric constant tensor:
#      x y z
#    x 3.733980 0.016290 0.149760 
#    y 0.016290 3.449210 -0.037440 
#    z 0.149760 -0.037440 3.607080 
# 
# 
# High freq. dielectric constant tensor:
#      x y z
#    x 1.796300 0.010610 0.006150 
#    y 0.010610 1.784340 -0.003040 
#    z 0.006150 -0.003040 1.765040 
# 
# From -- ./inp_files/209265.got.cif
#   From: 2010.06.25/outbox.cif.g09.slc.cpg/sg2_105_cif.got.tgz:209265.got - 2010.06.27 13:26:56.
