data_PCOD8013221
_publ_section_title
;
Structure prediction by ZEFSAII (Michael W. Deem and Ramdas Pophale) SiO2 
 PCOD8013221
Probable space group: P -1
;
_chemical_formula_sum "Si O2"
_cell_formula_units_Z 16
_cell_length_a 8.360417
_cell_length_b 11.357034
_cell_length_c 17.707849
_cell_angle_alpha 30.902806
_cell_angle_beta 55.934475
_cell_angle_gamma 66.404209
_cell_volume 702.463071
_symmetry_space_group_name_H-M "P -1"
_symmetry_group_IT_number 2
_symmetry_cell_setting 'triclinic'
loop_
_space_group_symop_operation_xyz
x,y,z
-x,-y,-z
loop_
_atom_site_type_symbol
_atom_site_label
_atom_site_fract_x
_atom_site_fract_y
_atom_site_fract_z
Si Si1 0.183917 0.832768 0.289930
Si Si2 0.535920 0.202274 0.020348
Si Si3 0.013499 0.608368 0.813774
Si Si4 0.077693 0.911186 0.436457
Si Si5 0.960229 0.412728 0.779451
Si Si6 0.686715 0.396358 0.135501
Si Si7 0.172055 0.323347 0.631452
Si Si8 0.486279 0.010374 0.695489
O O1 0.100491 0.952643 0.317613
O O2 0.219999 0.575320 0.440852
O O3 0.026161 0.830825 0.266320
O O4 0.393807 0.997719 0.123529
O O5 0.759572 0.228288 0.917763
O O6 0.476514 0.452001 0.887038
O O7 0.532938 0.155898 0.135716
O O8 0.210138 0.633209 0.796178
O O9 0.016320 0.420170 0.849461
O O10 0.998018 0.858379 0.640423
O O11 0.829229 0.523318 0.963112
O O12 0.284503 0.877221 0.438165
O O13 0.924958 0.670501 0.622702
O O14 0.132422 0.340967 0.721993
O O15 0.588008 0.138468 0.276778
O O16 0.362527 0.213071 0.628908
#
# Coordination Sequence:
#
# PCOD8013221 Si02
#       8
#     2   2   2   2   2   2   2   2
#     4   9  20  41  64  87 120 163 213 242 295 366
#     4  11  22  39  64  94 120 159 205 258 306 360
#     4  11  21  39  64  92 126 161 200 259 309 359
#     4  10  21  40  66  92 122 161 207 257 302 358
#     4  11  24  40  59  93 131 159 197 256 316 356
#     4  11  22  38  67  93 119 159 214 250 301 372
#     4  10  23  41  63  91 123 167 205 248 300 367
#     4  11  21  39  67  89 120 165 214 244 295 373
#
# _framework density 22.776997999999999
#
# number of rings (size 3 to 8) (size 9 to 14) (size 15 to 20)
#    0.000    1.500    3.750    2.250    1.750    5.500 
#    0.000    8.750    0.000    0.000    0.000    0.000 
#    0.000    0.000    0.000    0.000    0.000    0.000 
#
# Total GULP energy -198417.624085 kJ/mol
# GULP energy per Si atom -12401.101505 kJ/mol
# Density = 2.272516 g / cm^3
# Si number density = 22.776998 Si / 1000 Ang^3
#
#
#
# Elastic Constant Matrix: (Units=GPa)
#
#
# Indices 1 2 3 4 5 6 
#
# 1 114.2979 53.4732 29.4785 -6.9329 -0.9919 3.3825
# 2 53.4732 100.0861 16.1506 -18.4295 -2.0877 2.1906
# 3 29.4785 16.1506 60.4839 -5.9223 -21.0674 -0.4772
# 4 -6.9329 -18.4295 -5.9223 26.3202 2.0520 2.1492
# 5 -0.9919 -2.0877 -21.0674 2.0520 33.7098 -8.8370
# 6 3.3825 2.1906 -0.4772 2.1492 -8.8370 34.1347
#
#
#
# Elastic Compliance Matrix: (Units=1/GPa)
#
#
# Indices 1 2 3 4 5 6 
#
# 1 0.013392 -0.006509 -0.006581 -0.001990 -0.004538 -0.002051
# 2 -0.006509 0.015141 -0.000016 0.008961 -0.000046 -0.000903
# 3 -0.006581 -0.000016 0.026061 0.002328 0.017357 0.005364
# 4 -0.001990 0.008961 0.002328 0.044695 -0.001714 -0.003603
# 5 -0.004538 -0.000046 0.017357 -0.001714 0.043654 0.012105
# 6 -0.002051 -0.000903 0.005364 -0.003603 0.012105 0.032992
#
#
# Mechanical properties :
#
#
# Convention : Reuss Voigt Hill
#
# Bulk Modulus (GPa) = 35.23451 52.56360 43.89906
# Shear Modulus (GPa) = 23.62856 30.55064 27.08960
#
# Velocity S-wave (km/s) = 3.22434 3.66634 3.45242
# Velocity P-wave (km/s) = 5.41893 6.40705 5.93360
#
# Compressibility (1/GPa) = 0.02838126
#
# Stress axis : x y z
#
# Youngs Moduli (GPa) = 74.67001 66.04792 38.37154
#
# Poissons Ratio (x) = 0.42993 0.25251
# Poissons Ratio (y) = 0.48605 0.00062
# Poissons Ratio (z) = 0.49138 0.00107
#
# Static dielectric constant tensor:
#      x y z
#    x 4.169810 0.212310 -0.199060 
#    y 0.212310 4.005910 -0.099090 
#    z -0.199060 -0.099090 4.004570 
# 
# 
# High freq. dielectric constant tensor:
#      x y z
#    x 1.895030 0.013140 -0.010890 
#    y 0.013140 1.893710 -0.009390 
#    z -0.010890 -0.009390 1.892600 
# 
# From -- ./inp_files/558824.got.cif
#   From: 2010.06.25/outbox.cif.g09.slc.cpg/sg2_280_cif.got.tgz:558824.got - 2010.06.27 13:26:56.
