data_PCOD8013927
_publ_section_title
;
Structure prediction by ZEFSAII (Michael W. Deem and Ramdas Pophale) SiO2 
 PCOD8013927
Probable space group: P -1
;
_chemical_formula_sum "Si O2"
_cell_formula_units_Z 16
_cell_length_a 8.551547
_cell_length_b 14.801961
_cell_length_c 7.792954
_cell_angle_alpha 121.259586
_cell_angle_beta 127.231468
_cell_angle_gamma 68.329745
_cell_volume 669.153726
_symmetry_space_group_name_H-M "P -1"
_symmetry_group_IT_number 2
_symmetry_cell_setting 'triclinic'
loop_
_space_group_symop_operation_xyz
x,y,z
-x,-y,-z
loop_
_atom_site_type_symbol
_atom_site_label
_atom_site_fract_x
_atom_site_fract_y
_atom_site_fract_z
Si Si1 0.156652 0.173577 0.439491
Si Si2 0.176754 0.457041 0.293513
Si Si3 0.227533 0.674025 0.675045
Si Si4 0.532575 0.658112 0.164733
Si Si5 0.536462 0.732769 0.697592
Si Si6 0.736339 0.462841 0.928628
Si Si7 0.350908 0.063387 0.163789
Si Si8 0.315494 0.108120 0.817576
O O1 0.187485 0.083271 0.223707
O O2 0.150569 0.118008 0.568603
O O3 0.955389 0.241281 0.334766
O O4 0.344096 0.242532 0.624214
O O5 0.155840 0.555350 0.508347
O O6 0.308210 0.358935 0.368337
O O7 0.963081 0.420020 0.066933
O O8 0.295133 0.489683 0.234832
O O9 0.372658 0.684625 0.938155
O O10 0.325623 0.693326 0.572479
O O11 0.406620 0.633029 0.230142
O O12 0.678586 0.555517 0.117626
O O13 0.517632 0.833764 0.656966
O O14 0.630339 0.773086 0.980361
O O15 0.490131 0.958582 0.195246
O O16 0.247872 0.051365 0.894192
#
# Coordination Sequence:
#
# PCOD8013927 Si02
#       8
#     2   2   2   2   2   2   2   2
#     4  12  23  43  69  98 133 176 215 268 339 386
#     4  11  22  39  62  94 126 183 211 260 322 388
#     4  12  25  39  62  98 135 179 216 265 327 390
#     4  11  23  42  56  94 136 170 215 278 303 395
#     4  10  21  41  63  93 133 169 218 271 322 383
#     4  10  23  38  61  87 133 176 222 258 320 380
#     4   9  22  41  76  95 122 178 218 272 342 382
#     4   9  20  45  71  95 132 163 221 285 325 387
#
# _framework density 23.910799000000001
#
# number of rings (size 3 to 8) (size 9 to 14) (size 15 to 20)
#    0.750    0.750    3.750    0.750    5.250    1.500 
#    0.000    1.250    0.000    0.000    0.000    0.000 
#    0.000    0.000    0.000    0.000    0.000    0.000 
#
# Total GULP energy -198335.247304 kJ/mol
# GULP energy per Si atom -12395.952956 kJ/mol
# Density = 2.385638 g / cm^3
# Si number density = 23.910799 Si / 1000 Ang^3
#
#
#
# Elastic Constant Matrix: (Units=GPa)
#
#
# Indices 1 2 3 4 5 6 
#
# 1 69.4960 16.6293 19.5963 -13.0897 -2.7213 -16.8107
# 2 16.6293 93.4035 12.5531 -10.1995 0.5651 -30.0119
# 3 19.5963 12.5531 34.5046 -14.2807 5.9028 -8.5321
# 4 -13.0897 -10.1995 -14.2807 21.4660 -4.2346 -6.8894
# 5 -2.7213 0.5651 5.9028 -4.2346 27.7907 4.8415
# 6 -16.8107 -30.0119 -8.5321 -6.8894 4.8415 43.4087
#
#
#
# Elastic Compliance Matrix: (Units=1/GPa)
#
#
# Indices 1 2 3 4 5 6 
#
# 1 0.020507 0.001766 -0.004392 0.014353 0.003314 0.010208
# 2 0.001766 0.016727 0.003767 0.016335 -0.001216 0.015717
# 3 -0.004392 0.003767 0.051559 0.037426 -0.008885 0.017968
# 4 0.014353 0.016335 0.037426 0.101172 0.001555 0.040092
# 5 0.003314 -0.001216 -0.008885 0.001555 0.039407 -0.005452
# 6 0.010208 0.015717 0.017968 0.040092 -0.005452 0.048359
#
#
# Mechanical properties :
#
#
# Convention : Reuss Voigt Hill
#
# Bulk Modulus (GPa) = 10.97993 32.77349 21.87671
# Shear Modulus (GPa) = 16.35021 28.44143 22.39582
#
# Velocity S-wave (km/s) = 2.61779 3.45263 3.06378
# Velocity P-wave (km/s) = 3.70663 5.44339 4.65670
#
# Compressibility (1/GPa) = 0.09107530
#
# Stress axis : x y z
#
# Youngs Moduli (GPa) = 48.76271 59.78428 19.39544
#
# Poissons Ratio (x) = -0.10561 0.08518
# Poissons Ratio (y) = -0.08614 -0.07306
# Poissons Ratio (z) = 0.21416 -0.22519
#
# Static dielectric constant tensor:
#      x y z
#    x 4.330320 0.063640 -0.297160 
#    y 0.063640 4.148430 0.054550 
#    z -0.297160 0.054550 4.131120 
# 
# 
# High freq. dielectric constant tensor:
#      x y z
#    x 1.940770 -0.004610 -0.024560 
#    y -0.004610 1.942280 -0.000150 
#    z -0.024560 -0.000150 1.936030 
# 
# From -- ./inp_files/213391.got.cif
#   From: 2010.06.25/outbox.cif.g09.slc.cpg/sg2_107_cif.got.tgz:213391.got - 2010.06.27 13:26:56.
