data_PCOD8013722
_publ_section_title
;
Structure prediction by ZEFSAII (Michael W. Deem and Ramdas Pophale) SiO2 
 PCOD8013722
Probable space group: P -1
;
_chemical_formula_sum "Si O2"
_cell_formula_units_Z 14
_cell_length_a 18.221817
_cell_length_b 9.455201
_cell_length_c 12.717385
_cell_angle_alpha 67.240492
_cell_angle_beta 134.594157
_cell_angle_gamma 147.286226
_cell_volume 715.221797
_symmetry_space_group_name_H-M "P -1"
_symmetry_group_IT_number 2
_symmetry_cell_setting 'triclinic'
loop_
_space_group_symop_operation_xyz
x,y,z
-x,-y,-z
loop_
_atom_site_type_symbol
_atom_site_label
_atom_site_fract_x
_atom_site_fract_y
_atom_site_fract_z
Si Si1 0.223654 0.495595 0.859451
Si Si2 0.699106 0.658999 0.182005
Si Si3 0.303239 0.853435 0.337870
Si Si4 0.559780 0.980964 0.220729
Si Si5 0.923461 0.242883 0.229348
Si Si6 0.573701 0.912987 0.826201
Si Si7 0.149570 0.788220 0.402188
O O1 0.224019 0.337410 0.842450
O O2 0.312802 0.749597 0.808047
O O3 0.986572 0.232397 0.727000
O O4 0.362509 0.651205 0.059046
O O5 0.635081 0.462722 0.270242
O O6 0.882696 0.016008 0.293458
O O7 0.500000 0.500000 0.000000
O O8 0.289212 0.962737 0.385593
O O9 0.102469 0.482026 0.250816
O O10 0.500000 0.000000 0.500000
O O11 0.309711 0.954220 0.205473
O O12 0.487905 0.989428 0.246408
O O13 0.705938 0.035765 0.399596
O O14 0.993755 0.438005 0.343184
O O15 0.715733 0.047635 0.028363
#
# Coordination Sequence:
#
# PCOD8013722 Si02
#       7
#     2   2   2   2   2   2   2
#     4  10  20  34  56  81 113 151 183 231 286 333
#     4   9  20  36  59  83 117 144 185 231 293 337
#     4  10  19  32  56  83 111 148 192 232 271 329
#     4  10  18  32  55  82 114 141 190 234 275 327
#     4   9  19  33  57  87 110 143 189 232 282 333
#     4  10  16  34  56  85 110 149 183 234 275 338
#     4  10  20  33  57  87 110 142 198 229 277 328
#
# _framework density 19.574348000000001
#
# number of rings (size 3 to 8) (size 9 to 14) (size 15 to 20)
#    0.857    1.429    2.857    0.857    2.000    0.000 
#    0.000    6.429    6.286    8.571    0.000    0.000 
#    0.000    0.000    0.000    0.000    0.000    0.000 
#
# Total GULP energy -173469.481149 kJ/mol
# GULP energy per Si atom -12390.677225 kJ/mol
# Density = 1.952980 g / cm^3
# Si number density = 19.574348 Si / 1000 Ang^3
#
#
#
# Elastic Constant Matrix: (Units=GPa)
#
#
# Indices 1 2 3 4 5 6 
#
# 1 107.5862 23.6170 33.4798 -0.9557 20.5275 2.7227
# 2 23.6170 76.1477 8.7043 9.7795 0.3788 3.8234
# 3 33.4798 8.7043 106.9621 -0.1664 6.7070 -1.0826
# 4 -0.9557 9.7795 -0.1664 10.0094 3.8756 1.6190
# 5 20.5275 0.3788 6.7070 3.8756 33.2252 -4.8685
# 6 2.7227 3.8234 -1.0826 1.6190 -4.8685 26.0823
#
#
#
# Elastic Compliance Matrix: (Units=1/GPa)
#
#
# Indices 1 2 3 4 5 6 
#
# 1 0.013255 -0.004821 -0.003202 0.009955 -0.009107 -0.003128
# 2 -0.004821 0.017080 -0.000228 -0.019140 0.005081 0.000126
# 3 -0.003202 -0.000228 0.010377 -0.000044 0.000009 0.000803
# 4 0.009955 -0.019140 -0.000044 0.130022 -0.022633 -0.010531
# 5 -0.009107 0.005081 0.000009 -0.022633 0.039625 0.009007
# 6 -0.003128 0.000126 0.000803 -0.010531 0.009007 0.041016
#
#
# Mechanical properties :
#
#
# Convention : Reuss Voigt Hill
#
# Bulk Modulus (GPa) = 41.30386 46.92204 44.11295
# Shear Modulus (GPa) = 18.11945 28.85638 23.48792
#
# Velocity S-wave (km/s) = 3.04579 3.84369 3.46776
# Velocity P-wave (km/s) = 5.78929 6.61225 6.21441
#
# Compressibility (1/GPa) = 0.02421081
#
# Stress axis : x y z
#
# Youngs Moduli (GPa) = 75.44458 58.54765 96.36411
#
# Poissons Ratio (x) = 0.28226 0.30852
# Poissons Ratio (y) = 0.36372 0.02197
# Poissons Ratio (z) = 0.24154 0.01335
#
# Static dielectric constant tensor:
#      x y z
#    x 3.667390 0.165690 0.145250 
#    y 0.165690 3.677330 0.174820 
#    z 0.145250 0.174820 3.554460 
# 
# 
# High freq. dielectric constant tensor:
#      x y z
#    x 1.760700 0.009860 0.014130 
#    y 0.009860 1.715890 0.004220 
#    z 0.014130 0.004220 1.763860 
# 
# From -- ./inp_files/239107.got.cif
#   From: 2010.06.25/outbox.cif.g09.slc.cpg/sg2_120_cif.got.tgz:239107.got - 2010.06.27 13:26:56.
