data_PCOD8013356
_publ_section_title
;
Structure prediction by ZEFSAII (Michael W. Deem and Ramdas Pophale) SiO2 
 PCOD8013356
Probable space group: P -1
;
_chemical_formula_sum "Si O2"
_cell_formula_units_Z 12
_cell_length_a 8.661550
_cell_length_b 8.973394
_cell_length_c 11.305016
_cell_angle_alpha 140.045094
_cell_angle_beta 98.026918
_cell_angle_gamma 73.584781
_cell_volume 537.021664
_symmetry_space_group_name_H-M "P -1"
_symmetry_group_IT_number 2
_symmetry_cell_setting 'triclinic'
loop_
_space_group_symop_operation_xyz
x,y,z
-x,-y,-z
loop_
_atom_site_type_symbol
_atom_site_label
_atom_site_fract_x
_atom_site_fract_y
_atom_site_fract_z
Si Si1 0.236655 0.209509 0.538998
Si Si2 0.132251 0.742867 0.223122
Si Si3 0.877968 0.502244 0.692549
Si Si4 0.334029 0.524538 0.564547
Si Si5 0.329199 0.022611 0.935962
Si Si6 0.767855 0.758706 0.182102
O O1 0.354751 0.294678 0.513306
O O2 0.315672 0.171353 0.655865
O O3 0.071672 0.428201 0.661528
O O4 0.203815 0.965642 0.337325
O O5 0.178892 0.658247 0.311493
O O6 0.938168 0.827357 0.239896
O O7 0.206724 0.526917 0.008706
O O8 0.809476 0.459302 0.532969
O O9 0.814434 0.781976 0.894360
O O10 0.500000 0.500000 0.500000
O O11 0.288956 0.767251 0.785569
O O12 0.344295 0.089583 0.840192
O O13 0.500000 0.000000 0.000000
#
# Coordination Sequence:
#
# PCOD8013356 Si02
#       6
#     2   2   2   2   2   2
#     4  11  22  38  66  98 121 154 211 264 297 364
#     4   9  18  37  65  95 125 152 198 264 311 359
#     4  10  21  40  67  92 120 162 205 251 311 366
#     4  12  25  41  60  88 130 170 203 248 317 363
#     4  11  22  41  64  83 129 172 197 247 308 372
#     4   9  19  37  64  94 121 161 204 249 312 363
#
# _framework density 22.345469000000001
#
# number of rings (size 3 to 8) (size 9 to 14) (size 15 to 20)
#    0.000    1.667    1.667    5.500    0.000    2.000 
#    0.000    4.167    0.000    0.000    0.000    0.000 
#    0.000    0.000    0.000    0.000    0.000    0.000 
#
# Total GULP energy -148833.421641 kJ/mol
# GULP energy per Si atom -12402.785137 kJ/mol
# Density = 2.229461 g / cm^3
# Si number density = 22.345469 Si / 1000 Ang^3
#
#
#
# Elastic Constant Matrix: (Units=GPa)
#
#
# Indices 1 2 3 4 5 6 
#
# 1 50.8965 43.4629 29.2546 1.2469 10.6525 26.3480
# 2 43.4629 125.3162 45.7992 -11.2215 30.8936 10.1956
# 3 29.2546 45.7992 129.6326 9.1930 33.6744 19.7804
# 4 1.2469 -11.2215 9.1930 46.2436 -4.6291 11.5883
# 5 10.6525 30.8936 33.6744 -4.6291 25.0438 3.3895
# 6 26.3480 10.1956 19.7804 11.5883 3.3895 38.7968
#
#
#
# Elastic Compliance Matrix: (Units=1/GPa)
#
#
# Indices 1 2 3 4 5 6 
#
# 1 0.046288 -0.013797 -0.003135 0.003593 0.005974 -0.027806
# 2 -0.013797 0.015912 0.000347 0.001191 -0.014813 0.005949
# 3 -0.003135 0.000347 0.013466 -0.003724 -0.017595 -0.002178
# 4 0.003593 0.001191 -0.003724 0.025669 0.008002 -0.009221
# 5 0.005974 -0.014813 -0.017595 0.008002 0.080888 -0.000650
# 6 -0.027806 0.005949 -0.002178 -0.009221 -0.000650 0.047017
#
#
# Mechanical properties :
#
#
# Convention : Reuss Voigt Hill
#
# Bulk Modulus (GPa) = 23.53104 60.31985 41.92545
# Shear Modulus (GPa) = 18.07829 34.50540 26.29185
#
# Velocity S-wave (km/s) = 2.84744 3.93387 3.43389
# Velocity P-wave (km/s) = 4.62212 6.90555 5.87582
#
# Compressibility (1/GPa) = 0.04249705
#
# Stress axis : x y z
#
# Youngs Moduli (GPa) = 21.60396 62.84489 74.26106
#
# Poissons Ratio (x) = 0.86705 0.23283
# Poissons Ratio (y) = 0.29806 -0.02580
# Poissons Ratio (z) = 0.06773 -0.02183
#
# Static dielectric constant tensor:
#      x y z
#    x 3.563790 -0.097830 0.078700 
#    y -0.097830 4.231680 -0.076120 
#    z 0.078700 -0.076120 4.374290 
# 
# 
# High freq. dielectric constant tensor:
#      x y z
#    x 1.838470 -0.012620 0.008060 
#    y -0.012620 1.886870 -0.001570 
#    z 0.008060 -0.001570 1.898770 
# 
# From -- ./inp_files/163450.got.cif
#   From: 2010.06.25/outbox.cif.g09.slc.cpg/sg2_82_cif.got.tgz:163450.got - 2010.06.27 13:26:56.
