data_PCOD8013011
_publ_section_title
;
Structure prediction by ZEFSAII (Michael W. Deem and Ramdas Pophale) SiO2 
 PCOD8013011
Probable space group: P -1
;
_chemical_formula_sum "Si O2"
_cell_formula_units_Z 16
_cell_length_a 9.329823
_cell_length_b 15.659443
_cell_length_c 8.789671
_cell_angle_alpha 140.994224
_cell_angle_beta 73.445369
_cell_angle_gamma 102.687664
_cell_volume 774.747890
_symmetry_space_group_name_H-M "P -1"
_symmetry_group_IT_number 2
_symmetry_cell_setting 'triclinic'
loop_
_space_group_symop_operation_xyz
x,y,z
-x,-y,-z
loop_
_atom_site_type_symbol
_atom_site_label
_atom_site_fract_x
_atom_site_fract_y
_atom_site_fract_z
Si Si1 0.177615 0.240055 0.609005
Si Si2 0.093851 0.634537 0.624327
Si Si3 0.369312 0.177255 0.732849
Si Si4 0.680190 0.537941 0.330864
Si Si5 0.294467 0.888993 0.461610
Si Si6 0.111792 0.712392 0.056927
Si Si7 0.647430 0.556559 0.715623
Si Si8 0.030571 0.859245 0.716246
O O1 0.293554 0.156243 0.561985
O O2 0.279103 0.347531 0.641587
O O3 0.051924 0.304794 0.845679
O O4 0.096050 0.145029 0.380396
O O5 0.257592 0.577152 0.450212
O O6 0.019535 0.726162 0.642431
O O7 0.000000 0.500000 0.500000
O O8 0.101439 0.730673 0.903597
O O9 0.548007 0.188345 0.678819
O O10 0.322389 0.049526 0.671932
O O11 0.304988 0.312734 0.019702
O O12 0.673177 0.593912 0.582554
O O13 0.523110 0.476204 0.243377
O O14 0.805812 0.425510 0.118094
O O15 0.204229 0.839967 0.271282
O O16 0.197251 0.856121 0.593906
O O17 0.000000 0.000000 0.000000
#
# Coordination Sequence:
#
# PCOD8013011 Si02
#       8
#     2   2   2   2   2   2   2   2
#     4  11  25  38  67  95 130 168 226 267 335 387
#     4  11  24  42  70 100 132 176 223 268 335 388
#     4  11  24  44  65  97 129 181 214 277 323 402
#     4  10  21  40  64  99 130 170 215 275 332 386
#     4  10  25  44  66  93 136 170 225 264 339 388
#     4  10  21  42  66  95 132 170 214 274 327 397
#     4  10  22  40  68  93 135 171 218 271 332 386
#     4  11  27  45  67  97 135 175 219 278 322 398
#
# _framework density 20.651879000000001
#
# number of rings (size 3 to 8) (size 9 to 14) (size 15 to 20)
#    0.000    1.500    1.250    2.625    8.750    4.500 
#    0.000    0.625    0.000    0.000    0.000    0.000 
#    0.000    0.000    0.000    0.000    0.000    0.000 
#
# Total GULP energy -198420.142586 kJ/mol
# GULP energy per Si atom -12401.258912 kJ/mol
# Density = 2.060487 g / cm^3
# Si number density = 20.651879 Si / 1000 Ang^3
#
#
#
# Elastic Constant Matrix: (Units=GPa)
#
#
# Indices 1 2 3 4 5 6 
#
# 1 114.9922 48.7948 37.7597 -9.8146 3.4294 -2.7862
# 2 48.7948 92.1748 40.5911 3.3245 -2.0636 4.7471
# 3 37.7597 40.5911 119.6086 -6.4412 13.6770 -0.1046
# 4 -9.8146 3.3245 -6.4412 21.2211 -0.4237 -1.0131
# 5 3.4294 -2.0636 13.6770 -0.4237 24.3316 -4.8074
# 6 -2.7862 4.7471 -0.1046 -1.0131 -4.8074 34.8235
#
#
#
# Elastic Compliance Matrix: (Units=1/GPa)
#
#
# Indices 1 2 3 4 5 6 
#
# 1 0.012455 -0.006377 -0.001296 0.006435 -0.001080 0.001900
# 2 -0.006377 0.016682 -0.004511 -0.006962 0.004251 -0.002413
# 3 -0.001296 -0.004511 0.011226 0.003373 -0.006501 -0.000254
# 4 0.006435 -0.006962 0.003373 0.052305 -0.001943 0.002727
# 5 -0.001080 0.004251 -0.006501 -0.001943 0.046350 0.005657
# 6 0.001900 -0.002413 -0.000254 0.002727 0.005657 0.030057
#
#
# Mechanical properties :
#
#
# Convention : Reuss Voigt Hill
#
# Bulk Modulus (GPa) = 62.52326 64.56300 63.54313
# Shear Modulus (GPa) = 25.15413 29.38390 27.26901
#
# Velocity S-wave (km/s) = 3.49378 3.77612 3.63769
# Velocity P-wave (km/s) = 6.82759 7.09525 6.96270
#
# Compressibility (1/GPa) = 0.01599405
#
# Stress axis : x y z
#
# Youngs Moduli (GPa) = 80.28749 59.94519 89.08169
#
# Poissons Ratio (x) = 0.38226 0.11547
# Poissons Ratio (y) = 0.51198 0.40188
# Poissons Ratio (z) = 0.10407 0.27043
#
# Static dielectric constant tensor:
#      x y z
#    x 4.083280 -0.072830 -0.000360 
#    y -0.072830 3.618340 -0.190980 
#    z -0.000360 -0.190980 3.802290 
# 
# 
# High freq. dielectric constant tensor:
#      x y z
#    x 1.827890 0.004430 0.000670 
#    y 0.004430 1.796000 -0.007150 
#    z 0.000670 -0.007150 1.810200 
# 
# From -- ./inp_files/177701.got.cif
#   From: 2010.06.25/outbox.cif.g09.slc.cpg/sg2_89_cif.got.tgz:177701.got - 2010.06.27 13:26:56.
