data_PCOD8013828
_publ_section_title
;
Structure prediction by ZEFSAII (Michael W. Deem and Ramdas Pophale) SiO2 
 PCOD8013828
Probable space group: P -1
;
_chemical_formula_sum "Si O2"
_cell_formula_units_Z 16
_cell_length_a 24.252757
_cell_length_b 8.841847
_cell_length_c 13.510674
_cell_angle_alpha 46.688866
_cell_angle_beta 26.163954
_cell_angle_gamma 40.024371
_cell_volume 821.569934
_symmetry_space_group_name_H-M "P -1"
_symmetry_group_IT_number 2
_symmetry_cell_setting 'triclinic'
loop_
_space_group_symop_operation_xyz
x,y,z
-x,-y,-z
loop_
_atom_site_type_symbol
_atom_site_label
_atom_site_fract_x
_atom_site_fract_y
_atom_site_fract_z
Si Si1 0.874770 0.865805 0.013677
Si Si2 0.646829 0.493885 0.781902
Si Si3 0.631374 0.903810 0.757930
Si Si4 0.148340 0.475741 0.297027
Si Si5 0.865368 0.119487 0.730627
Si Si6 0.799697 0.457379 0.346679
Si Si7 0.694319 0.367237 0.164056
Si Si8 0.380372 0.620350 0.499382
O O1 0.803787 0.701434 0.223508
O O2 0.796017 0.093268 0.106612
O O3 0.040711 0.751894 0.825246
O O4 0.850822 0.924763 0.908569
O O5 0.620959 0.736147 0.765940
O O6 0.726236 0.266801 0.825046
O O7 0.733945 0.449187 0.561251
O O8 0.500000 0.500000 0.000000
O O9 0.770653 0.758503 0.663887
O O10 0.645448 0.113847 0.588158
O O11 0.500000 0.000000 0.000000
O O12 0.112566 0.709401 0.308309
O O13 0.000000 0.500000 0.500000
O O14 0.238208 0.470081 0.057788
O O15 0.000000 0.000000 0.500000
O O16 0.700713 0.440042 0.428529
O O17 0.548070 0.442312 0.305917
O O18 0.676015 0.414039 0.288986
#
# Coordination Sequence:
#
# PCOD8013828 Si02
#       8
#     2   2   2   2   2   2   2   2
#     4  10  23  43  64  90 129 160 208 260 302 373
#     4  11  24  41  64  95 125 163 207 253 310 369
#     4  11  22  41  64  93 126 160 206 257 305 369
#     4  10  23  39  64  92 123 161 203 253 310 366
#     4  10  21  41  62  91 124 159 202 256 306 365
#     4  11  24  42  65  93 123 167 208 254 314 367
#     4  10  23  45  61  91 128 162 209 259 305 368
#     4  11  24  42  66  91 126 166 207 256 312 367
#
# _framework density 19.474910000000001
#
# number of rings (size 3 to 8) (size 9 to 14) (size 15 to 20)
#    0.000    1.500    2.500    1.500    7.000    3.000 
#    6.750    0.000    0.000    0.000    0.000    0.000 
#    0.000    0.000    0.000    0.000    0.000    0.000 
#
# Total GULP energy -198412.064800 kJ/mol
# GULP energy per Si atom -12400.754050 kJ/mol
# Density = 1.943058 g / cm^3
# Si number density = 19.474910 Si / 1000 Ang^3
#
#
#
# Elastic Constant Matrix: (Units=GPa)
#
#
# Indices 1 2 3 4 5 6 
#
# 1 124.9727 31.0951 57.9124 1.7010 -15.8441 -17.7734
# 2 31.0951 83.5562 28.1145 2.9627 -10.6895 -12.6367
# 3 57.9124 28.1145 120.5578 -0.5748 -9.6278 -8.4320
# 4 1.7010 2.9627 -0.5748 30.2115 -4.7049 10.2212
# 5 -15.8441 -10.6895 -9.6278 -4.7049 38.0505 2.5114
# 6 -17.7734 -12.6367 -8.4320 10.2212 2.5114 16.9744
#
#
#
# Elastic Compliance Matrix: (Units=1/GPa)
#
#
# Indices 1 2 3 4 5 6 
#
# 1 0.012586 -0.000656 -0.004831 -0.004673 0.002415 0.012747
# 2 -0.000656 0.015318 -0.002245 -0.005468 0.001954 0.012605
# 3 -0.004831 -0.002245 0.011028 0.001539 0.000487 -0.002251
# 4 -0.004673 -0.005468 0.001539 0.047450 0.005253 -0.037548
# 5 0.002415 0.001954 0.000487 0.005253 0.028819 -0.003202
# 6 0.012747 0.012605 -0.002251 -0.037548 -0.003202 0.103608
#
#
# Mechanical properties :
#
#
# Convention : Reuss Voigt Hill
#
# Bulk Modulus (GPa) = 42.61291 62.59230 52.60261
# Shear Modulus (GPa) = 20.65290 31.17827 25.91558
#
# Velocity S-wave (km/s) = 3.26005 4.00552 3.65186
# Velocity P-wave (km/s) = 6.00824 7.32134 6.69705
#
# Compressibility (1/GPa) = 0.02346707
#
# Stress axis : x y z
#
# Youngs Moduli (GPa) = 79.45162 65.28356 90.67941
#
# Poissons Ratio (x) = 0.04283 0.43807
# Poissons Ratio (y) = 0.05212 0.20362
# Poissons Ratio (z) = 0.38383 0.14659
#
# Static dielectric constant tensor:
#      x y z
#    x 3.614320 -0.284730 0.194790 
#    y -0.284730 3.991150 -0.100810 
#    z 0.194790 -0.100810 3.766370 
# 
# 
# High freq. dielectric constant tensor:
#      x y z
#    x 1.757670 -0.014000 0.009430 
#    y -0.014000 1.773470 0.004980 
#    z 0.009430 0.004980 1.773270 
# 
# From -- ./inp_files/187484.got.cif
#   From: 2010.06.25/outbox.cif.g09.slc.cpg/sg2_94_cif.got.tgz:187484.got - 2010.06.27 13:26:56.
