data_PCOD8013480
_publ_section_title
;
Structure prediction by ZEFSAII (Michael W. Deem and Ramdas Pophale) SiO2 
 PCOD8013480
Probable space group: P -1
;
_chemical_formula_sum "Si O2"
_cell_formula_units_Z 16
_cell_length_a 18.789327
_cell_length_b 8.517827
_cell_length_c 19.877310
_cell_angle_alpha 55.520912
_cell_angle_beta 21.030682
_cell_angle_gamma 44.427015
_cell_volume 732.458539
_symmetry_space_group_name_H-M "P -1"
_symmetry_group_IT_number 2
_symmetry_cell_setting 'triclinic'
loop_
_space_group_symop_operation_xyz
x,y,z
-x,-y,-z
loop_
_atom_site_type_symbol
_atom_site_label
_atom_site_fract_x
_atom_site_fract_y
_atom_site_fract_z
Si Si1 0.406585 0.795978 0.567683
Si Si2 0.114939 0.080176 0.428801
Si Si3 0.116747 0.675602 0.292793
Si Si4 0.734480 0.546565 0.211569
Si Si5 0.452684 0.764384 0.903222
Si Si6 0.182134 0.335642 0.659082
Si Si7 0.341662 0.250213 0.913869
Si Si8 0.200193 0.414403 0.474023
O O1 0.525280 0.749645 0.399716
O O2 0.243969 0.697246 0.739795
O O3 0.641729 0.658590 0.445272
O O4 0.227020 0.081879 0.675451
O O5 0.976924 0.137361 0.608592
O O6 0.048838 0.318661 0.393802
O O7 0.414535 0.867496 0.225162
O O8 0.000000 0.000000 0.500000
O O9 0.294440 0.398481 0.233393
O O10 0.867360 0.753944 0.454413
O O11 0.266824 0.705250 0.098231
O O12 0.635646 0.642281 0.200405
O O13 0.000000 0.500000 0.000000
O O14 0.537150 0.682578 0.770730
O O15 0.308735 0.049246 0.971996
O O16 0.240508 0.399952 0.521049
O O17 0.892396 0.538185 0.886588
#
# Coordination Sequence:
#
# PCOD8013480 Si02
#       8
#     2   2   2   2   2   2   2   2
#     4  10  25  51  71 101 145 177 235 303 353 422
#     4  11  25  42  67 104 150 181 229 290 345 409
#     4  10  21  42  67  92 134 191 230 277 332 406
#     4  11  24  48  79 102 132 187 239 290 355 424
#     4  10  21  40  68  93 131 182 236 274 330 414
#     4  11  26  44  71 107 141 185 232 297 364 404
#     4  12  24  42  71 107 139 185 235 285 349 422
#     4  11  22  45  66  97 141 184 228 281 345 414
#
# _framework density 21.844239999999999
#
# number of rings (size 3 to 8) (size 9 to 14) (size 15 to 20)
#    0.000    1.250    3.750    1.500    3.500    5.000 
#    0.000    0.000    0.000    0.000    0.000    0.000 
#    0.000    0.000    0.000    0.000    0.000    0.000 
#
# Total GULP energy -198382.199499 kJ/mol
# GULP energy per Si atom -12398.887469 kJ/mol
# Density = 2.179452 g / cm^3
# Si number density = 21.844240 Si / 1000 Ang^3
#
#
#
# Elastic Constant Matrix: (Units=GPa)
#
#
# Indices 1 2 3 4 5 6 
#
# 1 118.5863 30.7201 51.6697 -0.8181 17.5910 -1.4258
# 2 30.7201 92.9381 57.3315 12.3731 7.3015 2.6875
# 3 51.6697 57.3315 111.3136 12.8665 17.5673 -4.9918
# 4 -0.8181 12.3731 12.8665 33.8909 -2.0738 3.6813
# 5 17.5910 7.3015 17.5673 -2.0738 41.9671 -4.0711
# 6 -1.4258 2.6875 -4.9918 3.6813 -4.0711 32.5694
#
#
#
# Elastic Compliance Matrix: (Units=1/GPa)
#
#
# Indices 1 2 3 4 5 6 
#
# 1 0.011030 -0.000929 -0.004535 0.002250 -0.002521 -0.000705
# 2 -0.000929 0.016275 -0.007810 -0.002730 0.000478 -0.002212
# 3 -0.004535 -0.007810 0.016245 -0.003957 -0.003450 0.002952
# 4 0.002250 -0.002730 -0.003957 0.032607 0.002444 -0.003663
# 5 -0.002521 0.000478 -0.003450 0.002444 0.026596 0.002370
# 6 -0.000705 -0.002212 0.002952 -0.003663 0.002370 0.032018
#
#
# Mechanical properties :
#
#
# Convention : Reuss Voigt Hill
#
# Bulk Modulus (GPa) = 58.81853 66.92006 62.86930
# Shear Modulus (GPa) = 29.94219 33.89325 31.91772
#
# Velocity S-wave (km/s) = 3.70633 3.94329 3.82665
# Velocity P-wave (km/s) = 6.73058 7.17178 6.95467
#
# Compressibility (1/GPa) = 0.01700144
#
# Stress axis : x y z
#
# Youngs Moduli (GPa) = 90.65779 61.44529 61.55557
#
# Poissons Ratio (x) = 0.05711 0.27917
# Poissons Ratio (y) = 0.08426 0.48074
# Poissons Ratio (z) = 0.41116 0.47988
#
# Static dielectric constant tensor:
#      x y z
#    x 3.772380 -0.402940 -0.024510 
#    y -0.402940 3.444110 -0.222120 
#    z -0.024510 -0.222120 3.913740 
# 
# 
# High freq. dielectric constant tensor:
#      x y z
#    x 1.863610 -0.000810 0.008760 
#    y -0.000810 1.860440 0.000350 
#    z 0.008760 0.000350 1.857720 
# 
# From -- ./inp_files/556078.got.cif
#   From: 2010.06.25/outbox.cif.g09.slc.cpg/sg2_279_cif.got.tgz:556078.got - 2010.06.27 13:26:56.
