data_PCOD8013198
_publ_section_title
;
Structure prediction by ZEFSAII (Michael W. Deem and Ramdas Pophale) SiO2 
 PCOD8013198
Probable space group: P -1
;
_chemical_formula_sum "Si O2"
_cell_formula_units_Z 14
_cell_length_a 9.535825
_cell_length_b 23.227866
_cell_length_c 6.627748
_cell_angle_alpha 117.584207
_cell_angle_beta 50.722906
_cell_angle_gamma 146.522396
_cell_volume 619.540475
_symmetry_space_group_name_H-M "P -1"
_symmetry_group_IT_number 2
_symmetry_cell_setting 'triclinic'
loop_
_space_group_symop_operation_xyz
x,y,z
-x,-y,-z
loop_
_atom_site_type_symbol
_atom_site_label
_atom_site_fract_x
_atom_site_fract_y
_atom_site_fract_z
Si Si1 0.857682 0.756845 0.642248
Si Si2 0.821424 0.683490 0.146892
Si Si3 0.718919 0.116846 0.195047
Si Si4 0.738171 0.845877 0.661039
Si Si5 0.773316 0.995243 0.819815
Si Si6 0.884487 0.368979 0.265469
Si Si7 0.342132 0.599698 0.172817
O O1 0.816866 0.688967 0.402703
O O2 0.906774 0.842982 0.646925
O O3 0.151149 0.822398 0.610468
O O4 0.566003 0.676108 0.913034
O O5 0.498546 0.606360 0.228238
O O6 0.036671 0.801115 0.065904
O O7 0.931797 0.645336 0.904536
O O8 0.421892 0.068468 0.313368
O O9 0.659077 0.022355 0.103685
O O10 0.408537 0.726192 0.749477
O O11 0.893450 0.896894 0.382332
O O12 0.741296 0.920993 0.864552
O O13 0.796071 0.371783 0.572099
O O14 0.079067 0.477404 0.143825
#
# Coordination Sequence:
#
# PCOD8013198 Si02
#       7
#     2   2   2   2   2   2   2
#     4  11  23  42  68  99 135 167 220 280 324 389
#     4  11  21  44  66  98 136 170 216 279 325 396
#     4  10  21  41  64  92 130 178 215 265 331 389
#     4  11  21  39  64  95 131 171 218 272 321 387
#     4  10  21  40  66  89 132 178 216 266 327 389
#     4  11  22  44  69  94 133 180 216 267 337 391
#     4  10  24  44  68  96 133 176 218 271 331 397
#
# _framework density 22.597391999999999
#
# number of rings (size 3 to 8) (size 9 to 14) (size 15 to 20)
#    0.000    1.429    4.286    1.286    0.000    2.286 
#    5.143    0.000    0.000    0.000    0.000    0.000 
#    0.000    0.000    0.000    0.000    0.000    0.000 
#
# Total GULP energy -173532.868402 kJ/mol
# GULP energy per Si atom -12395.204886 kJ/mol
# Density = 2.254596 g / cm^3
# Si number density = 22.597392 Si / 1000 Ang^3
#
#
#
# Elastic Constant Matrix: (Units=GPa)
#
#
# Indices 1 2 3 4 5 6 
#
# 1 78.2085 28.7347 44.8492 12.0644 -11.8866 -6.3581
# 2 28.7347 99.9781 36.0170 5.5610 -3.4919 -6.2018
# 3 44.8492 36.0170 100.7085 17.0985 -5.3400 -3.2435
# 4 12.0644 5.5610 17.0985 27.6359 -5.8741 -8.5718
# 5 -11.8866 -3.4919 -5.3400 -5.8741 35.3059 5.1387
# 6 -6.3581 -6.2018 -3.2435 -8.5718 5.1387 30.5896
#
#
#
# Elastic Compliance Matrix: (Units=1/GPa)
#
#
# Indices 1 2 3 4 5 6 
#
# 1 0.018739 -0.002588 -0.006783 -0.002104 0.004487 0.001308
# 2 -0.002588 0.011975 -0.003304 0.001316 -0.000252 0.001951
# 3 -0.006783 -0.003304 0.015131 -0.006639 -0.001114 -0.002149
# 4 -0.002104 0.001316 -0.006639 0.045310 0.004342 0.011093
# 5 0.004487 -0.000252 -0.001114 0.004342 0.030829 -0.003199
# 6 0.001308 0.001951 -0.002149 0.011093 -0.003199 0.036776
#
#
# Mechanical properties :
#
#
# Convention : Reuss Voigt Hill
#
# Bulk Modulus (GPa) = 48.78911 55.34411 52.06661
# Shear Modulus (GPa) = 26.18598 29.99257 28.08927
#
# Velocity S-wave (km/s) = 3.40782 3.64711 3.52949
# Velocity P-wave (km/s) = 6.09276 6.50229 6.30085
#
# Compressibility (1/GPa) = 0.02049638
#
# Stress axis : x y z
#
# Youngs Moduli (GPa) = 53.36331 83.50512 66.08994
#
# Poissons Ratio (x) = 0.21608 0.44827
# Poissons Ratio (y) = 0.13808 0.21839
# Poissons Ratio (z) = 0.36195 0.27593
#
# Static dielectric constant tensor:
#      x y z
#    x 4.114770 0.027080 -0.233510 
#    y 0.027080 4.272330 -0.000730 
#    z -0.233510 -0.000730 3.735350 
# 
# 
# High freq. dielectric constant tensor:
#      x y z
#    x 1.881710 0.004050 -0.024830 
#    y 0.004050 1.905200 -0.002490 
#    z -0.024830 -0.002490 1.865130 
# 
# From -- ./inp_files/39062.got.cif
#   From: 2010.06.25/outbox.cif.g09.slc.cpg/sg2_20_cif.got.tgz:39062.got - 2010.06.27 13:26:56.
