data_PCOD8013594
_publ_section_title
;
Structure prediction by ZEFSAII (Michael W. Deem and Ramdas Pophale) SiO2 
 PCOD8013594
Probable space group: P -1
;
_chemical_formula_sum "Si O2"
_cell_formula_units_Z 16
_cell_length_a 19.221726
_cell_length_b 22.035403
_cell_length_c 8.691702
_cell_angle_alpha 41.773951
_cell_angle_beta 147.782043
_cell_angle_gamma 157.278544
_cell_volume 747.336101
_symmetry_space_group_name_H-M "P -1"
_symmetry_group_IT_number 2
_symmetry_cell_setting 'triclinic'
loop_
_space_group_symop_operation_xyz
x,y,z
-x,-y,-z
loop_
_atom_site_type_symbol
_atom_site_label
_atom_site_fract_x
_atom_site_fract_y
_atom_site_fract_z
Si Si1 0.993613 0.133814 0.292561
Si Si2 0.567402 0.616602 0.791695
Si Si3 0.910471 0.654710 0.732359
Si Si4 0.738104 0.094112 0.318986
Si Si5 0.029655 0.265860 0.819915
Si Si6 0.336905 0.185040 0.874805
Si Si7 0.145613 0.494302 0.799868
Si Si8 0.247388 0.106955 0.216902
O O1 0.988763 0.187011 0.340434
O O2 0.246653 0.234850 0.579346
O O3 0.793893 0.946736 0.253497
O O4 0.949317 0.181857 0.988951
O O5 0.584288 0.723315 0.708915
O O6 0.361849 0.505849 0.495453
O O7 0.500000 0.500000 0.000000
O O8 0.802480 0.715651 0.969740
O O9 0.061908 0.729769 0.721164
O O10 0.955302 0.609775 0.038179
O O11 0.803342 0.149419 0.514139
O O12 0.721291 0.974721 0.493566
O O13 0.500000 0.000000 0.000000
O O14 0.139205 0.426654 0.762798
O O15 0.595725 0.325339 0.044214
O O16 0.285033 0.124506 0.068574
O O17 0.000000 0.500000 0.500000
O O18 0.000000 0.000000 0.000000
#
# Coordination Sequence:
#
# PCOD8013594 Si02
#       8
#     2   2   2   2   2   2   2   2
#     4  10  21  40  69  96 136 166 227 288 339 399
#     4  12  21  39  71 105 139 172 228 293 347 400
#     4  11  25  43  65  99 133 183 226 283 345 406
#     4  12  27  45  66 101 142 186 232 285 348 416
#     4  11  22  44  66  98 135 181 223 289 344 408
#     4  11  22  39  68 105 132 173 230 284 342 407
#     4  11  27  44  67  94 139 186 230 275 348 427
#     4  12  23  42  72 106 141 180 236 289 345 407
#
# _framework density 21.409376999999999
#
# number of rings (size 3 to 8) (size 9 to 14) (size 15 to 20)
#    0.000    0.750    3.750    3.750    1.750    7.000 
#    0.000    3.750    0.000    0.000    0.000    0.000 
#    0.000    0.000    0.000    0.000    0.000    0.000 
#
# Total GULP energy -198214.248922 kJ/mol
# GULP energy per Si atom -12388.390558 kJ/mol
# Density = 2.136065 g / cm^3
# Si number density = 21.409377 Si / 1000 Ang^3
#
#
#
# Elastic Constant Matrix: (Units=GPa)
#
#
# Indices 1 2 3 4 5 6 
#
# 1 52.9961 26.5235 34.6635 -1.3306 -3.1835 -10.2467
# 2 26.5235 95.5302 50.7187 -2.2242 2.2579 -5.0177
# 3 34.6635 50.7187 160.0689 4.5252 7.8293 -5.4307
# 4 -1.3306 -2.2242 4.5252 37.7385 -0.6539 -0.9873
# 5 -3.1835 2.2579 7.8293 -0.6539 32.2396 1.6340
# 6 -10.2467 -5.0177 -5.4307 -0.9873 1.6340 37.7860
#
#
#
# Elastic Compliance Matrix: (Units=1/GPa)
#
#
# Indices 1 2 3 4 5 6 
#
# 1 0.025098 -0.004611 -0.003996 0.001297 0.003519 0.005501
# 2 -0.004611 0.013537 -0.003287 0.001022 -0.000591 0.000127
# 3 -0.003996 -0.003287 0.008291 -0.001374 -0.002192 -0.000270
# 4 0.001297 0.001022 -0.001374 0.026809 0.000886 0.000952
# 5 0.003519 -0.000591 -0.002192 0.000886 0.031998 -0.000800
# 6 0.005501 0.000127 -0.000270 0.000952 -0.000800 0.027994
#
#
# Mechanical properties :
#
#
# Convention : Reuss Voigt Hill
#
# Bulk Modulus (GPa) = 43.21632 59.15630 51.18631
# Shear Modulus (GPa) = 30.26115 34.66546 32.46331
#
# Velocity S-wave (km/s) = 3.76367 4.02826 3.89821
# Velocity P-wave (km/s) = 6.25432 7.02331 6.64994
#
# Compressibility (1/GPa) = 0.02313941
#
# Stress axis : x y z
#
# Youngs Moduli (GPa) = 39.84313 73.86929 120.61219
#
# Poissons Ratio (x) = 0.34059 0.48201
# Poissons Ratio (y) = 0.18371 0.39641
# Poissons Ratio (z) = 0.15923 0.24278
#
# Static dielectric constant tensor:
#      x y z
#    x 3.387770 -0.181100 0.118100 
#    y -0.181100 3.951230 -0.335210 
#    z 0.118100 -0.335210 3.601110 
# 
# 
# High freq. dielectric constant tensor:
#      x y z
#    x 1.831590 -0.011500 -0.020550 
#    y -0.011500 1.852240 -0.004380 
#    z -0.020550 -0.004380 1.841810 
# 
# From -- ./inp_files/186724.got.cif
#   From: 2010.06.25/outbox.cif.g09.slc.cpg/sg2_94_cif.got.tgz:186724.got - 2010.06.27 13:26:56.
