data_PCOD8013255
_publ_section_title
;
Structure prediction by ZEFSAII (Michael W. Deem and Ramdas Pophale) SiO2 
 PCOD8013255
Probable space group: P -1
;
_chemical_formula_sum "Si O2"
_cell_formula_units_Z 16
_cell_length_a 14.115081
_cell_length_b 12.323958
_cell_length_c 11.326371
_cell_angle_alpha 83.000060
_cell_angle_beta 146.988809
_cell_angle_gamma 118.134602
_cell_volume 778.147970
_symmetry_space_group_name_H-M "P -1"
_symmetry_group_IT_number 2
_symmetry_cell_setting 'triclinic'
loop_
_space_group_symop_operation_xyz
x,y,z
-x,-y,-z
loop_
_atom_site_type_symbol
_atom_site_label
_atom_site_fract_x
_atom_site_fract_y
_atom_site_fract_z
Si Si1 0.280006 0.875125 0.996464
Si Si2 0.914176 0.389083 0.598390
Si Si3 0.705591 0.309419 0.133856
Si Si4 0.183083 0.895210 0.462847
Si Si5 0.120245 0.152303 0.041739
Si Si6 0.315624 0.636157 0.408042
Si Si7 0.982144 0.305362 0.024986
Si Si8 0.780602 0.982095 0.278536
O O1 0.202780 0.759204 0.828112
O O2 0.094857 0.785889 0.921393
O O3 0.278218 0.993356 0.915028
O O4 0.544562 0.968872 0.312589
O O5 0.790467 0.354211 0.349722
O O6 0.908633 0.262740 0.650164
O O7 0.779097 0.404665 0.551518
O O8 0.191559 0.545023 0.854494
O O9 0.421768 0.185094 0.859137
O O10 0.173542 0.902249 0.593732
O O11 0.002879 0.900707 0.209385
O O12 0.400615 0.251909 0.311917
O O13 0.060361 0.241617 0.029387
O O14 0.000000 0.000000 0.000000
O O15 0.206782 0.482793 0.250911
O O16 0.236155 0.714891 0.250278
O O17 0.000000 0.000000 0.500000
#
# Coordination Sequence:
#
# PCOD8013255 Si02
#       8
#     2   2   2   2   2   2   2   2
#     4  11  21  43  65  91 129 174 214 258 334 396
#     4  11  20  41  69  94 125 169 221 267 328 389
#     4  10  21  40  66  94 124 170 213 262 326 394
#     4  11  23  41  66  92 130 174 215 272 330 385
#     4  12  28  43  66 103 133 170 230 280 320 393
#     4  11  25  46  69  96 135 176 222 272 334 394
#     4  11  25  46  70  94 132 183 218 269 340 388
#     4  11  24  41  61  97 135 171 215 270 330 392
#
# _framework density 20.561641999999999
#
# number of rings (size 3 to 8) (size 9 to 14) (size 15 to 20)
#    0.000    1.000    5.000    1.875    5.250    1.000 
#    2.250    0.625    0.000    0.000    0.000    0.000 
#    0.000    0.000    0.000    0.000    0.000    0.000 
#
# Total GULP energy -198339.475449 kJ/mol
# GULP energy per Si atom -12396.217216 kJ/mol
# Density = 2.051484 g / cm^3
# Si number density = 20.561642 Si / 1000 Ang^3
#
#
#
# Elastic Constant Matrix: (Units=GPa)
#
#
# Indices 1 2 3 4 5 6 
#
# 1 96.2082 40.9761 45.7161 3.3944 5.7810 14.0182
# 2 40.9761 102.6586 49.2672 12.4434 2.8686 6.4500
# 3 45.7161 49.2672 132.8476 -3.3115 11.6600 10.2616
# 4 3.3944 12.4434 -3.3115 29.1384 0.9112 -2.0968
# 5 5.7810 2.8686 11.6600 0.9112 31.7359 1.8908
# 6 14.0182 6.4500 10.2616 -2.0968 1.8908 34.6033
#
#
#
# Elastic Compliance Matrix: (Units=1/GPa)
#
#
# Indices 1 2 3 4 5 6 
#
# 1 0.014153 -0.003811 -0.003083 -0.000641 -0.000838 -0.004102
# 2 -0.003811 0.013939 -0.004086 -0.006028 0.001125 -0.000269
# 3 -0.003083 -0.004086 0.010506 0.003338 -0.002981 -0.000740
# 4 -0.000641 -0.006028 0.003338 0.037603 -0.001810 0.002771
# 5 -0.000838 0.001125 -0.002981 -0.001810 0.032761 -0.000886
# 6 -0.004102 -0.000269 -0.000740 0.002771 -0.000886 0.031047
#
#
# Mechanical properties :
#
#
# Convention : Reuss Voigt Hill
#
# Bulk Modulus (GPa) = 60.10241 67.07036 63.58638
# Shear Modulus (GPa) = 29.84838 32.14584 30.99711
#
# Velocity S-wave (km/s) = 3.81419 3.95826 3.88689
# Velocity P-wave (km/s) = 6.97791 7.31986 7.15093
#
# Compressibility (1/GPa) = 0.01663827
#
# Stress axis : x y z
#
# Youngs Moduli (GPa) = 70.65840 71.73974 95.18784
#
# Poissons Ratio (x) = 0.27339 0.29342
# Poissons Ratio (y) = 0.26927 0.38896
# Poissons Ratio (z) = 0.21781 0.29314
#
# Static dielectric constant tensor:
#      x y z
#    x 3.963920 0.248010 -0.118680 
#    y 0.248010 3.983600 0.274300 
#    z -0.118680 0.274300 3.803710 
# 
# 
# High freq. dielectric constant tensor:
#      x y z
#    x 1.811460 0.007980 -0.013330 
#    y 0.007980 1.807080 0.015490 
#    z -0.013330 0.015490 1.799920 
# 
# From -- ./inp_files/273507.got.cif
#   From: 2010.06.25/outbox.cif.g09.slc.cpg/sg2_137_cif.got.tgz:273507.got - 2010.06.27 13:26:56.
