data_PCOD8013877
_publ_section_title
;
Structure prediction by ZEFSAII (Michael W. Deem and Ramdas Pophale) SiO2 
 PCOD8013877
Probable space group: P -1
;
_chemical_formula_sum "Si O2"
_cell_formula_units_Z 16
_cell_length_a 12.471148
_cell_length_b 15.997011
_cell_length_c 12.669766
_cell_angle_alpha 120.524988
_cell_angle_beta 79.546473
_cell_angle_gamma 151.582465
_cell_volume 789.977326
_symmetry_space_group_name_H-M "P -1"
_symmetry_group_IT_number 2
_symmetry_cell_setting 'triclinic'
loop_
_space_group_symop_operation_xyz
x,y,z
-x,-y,-z
loop_
_atom_site_type_symbol
_atom_site_label
_atom_site_fract_x
_atom_site_fract_y
_atom_site_fract_z
Si Si1 0.068140 0.454618 0.769639
Si Si2 0.813421 0.042966 0.509766
Si Si3 0.273200 0.979116 0.054504
Si Si4 0.903176 0.021613 0.076846
Si Si5 0.149496 0.202236 0.372736
Si Si6 0.776086 0.412478 0.781714
Si Si7 0.099533 0.939039 0.251899
Si Si8 0.305362 0.559716 0.983272
O O1 0.956812 0.267314 0.606881
O O2 0.837027 0.348802 0.720946
O O3 0.398550 0.765695 0.884369
O O4 0.057280 0.414327 0.868929
O O5 0.839912 0.023021 0.610446
O O6 0.992776 0.123350 0.448788
O O7 0.457906 0.751052 0.371095
O O8 0.336997 0.085234 0.224073
O O9 0.049251 0.856591 0.941459
O O10 0.094008 0.729575 0.932136
O O11 0.052656 0.168721 0.256907
O O12 0.553527 0.733230 0.968724
O O13 0.000000 0.000000 0.000000
O O14 0.500000 0.500000 0.500000
O O15 0.051055 0.009480 0.273735
O O16 0.595753 0.289196 0.842071
O O17 0.808760 0.637454 0.078157
#
# Coordination Sequence:
#
# PCOD8013877 Si02
#       8
#     2   2   2   2   2   2   2   2
#     4  10  21  41  63  85 123 163 198 245 309 350
#     4  11  24  40  60  91 126 157 201 245 298 362
#     4  10  22  40  63  90 120 155 206 250 292 357
#     4  11  22  39  62  89 118 157 199 245 298 353
#     4  12  25  39  61  87 125 163 194 238 306 367
#     4  11  21  39  63  92 117 157 207 255 291 348
#     4  10  22  40  59  86 122 161 192 244 302 357
#     4   9  21  39  63  88 118 153 204 253 290 356
#
# _framework density 20.253746
#
# number of rings (size 3 to 8) (size 9 to 14) (size 15 to 20)
#    0.000    1.500    2.500    2.250    5.250    1.500 
#    0.000    0.625    0.000    0.000    0.000    0.000 
#    0.000    0.000    0.000    0.000    0.000    0.000 
#
# Total GULP energy -198231.746637 kJ/mol
# GULP energy per Si atom -12389.484165 kJ/mol
# Density = 2.020765 g / cm^3
# Si number density = 20.253746 Si / 1000 Ang^3
#
#
#
# Elastic Constant Matrix: (Units=GPa)
#
#
# Indices 1 2 3 4 5 6 
#
# 1 102.4206 33.5208 29.4291 -3.3434 -7.2667 3.7594
# 2 33.5208 80.7085 27.3555 -8.5845 0.5288 -1.3168
# 3 29.4291 27.3555 85.8983 -12.7208 1.5512 3.4628
# 4 -3.3434 -8.5845 -12.7208 38.1739 -4.8404 2.8978
# 5 -7.2667 0.5288 1.5512 -4.8404 35.4718 2.5300
# 6 3.7594 -1.3168 3.4628 2.8978 2.5300 21.4931
#
#
#
# Elastic Compliance Matrix: (Units=1/GPa)
#
#
# Indices 1 2 3 4 5 6 
#
# 1 0.012230 -0.004197 -0.002859 -0.000300 0.002811 -0.002226
# 2 -0.004197 0.015478 -0.003301 0.001747 -0.000856 0.002079
# 3 -0.002859 -0.003301 0.014362 0.003925 -0.000451 -0.002492
# 4 -0.000300 0.001747 0.003925 0.028744 0.004007 -0.004820
# 5 0.002811 -0.000856 -0.000451 0.004007 0.029668 -0.004504
# 6 -0.002226 0.002079 -0.002492 -0.004820 -0.004504 0.048625
#
#
# Mechanical properties :
#
#
# Convention : Reuss Voigt Hill
#
# Bulk Modulus (GPa) = 46.82474 49.95979 48.39227
# Shear Modulus (GPa) = 28.25823 30.94256 29.60040
#
# Velocity S-wave (km/s) = 3.73930 3.91288 3.82708
# Velocity P-wave (km/s) = 6.46625 6.71823 6.59345
#
# Compressibility (1/GPa) = 0.02135623
#
# Stress axis : x y z
#
# Youngs Moduli (GPa) = 81.76507 64.60948 69.62704
#
# Poissons Ratio (x) = 0.27118 0.19906
# Poissons Ratio (y) = 0.34319 0.22982
# Poissons Ratio (z) = 0.23376 0.21326
#
# Static dielectric constant tensor:
#      x y z
#    x 3.789570 -0.182960 0.058480 
#    y -0.182960 3.858770 -0.209870 
#    z 0.058480 -0.209870 3.740700 
# 
# 
# High freq. dielectric constant tensor:
#      x y z
#    x 1.791570 -0.003350 -0.004690 
#    y -0.003350 1.795370 -0.010540 
#    z -0.004690 -0.010540 1.791120 
# 
# From -- ./inp_files/259044.got.cif
#   From: 2010.06.25/outbox.cif.g09.slc.cpg/sg2_130_cif.got.tgz:259044.got - 2010.06.27 13:26:56.
