data_PCOD8013528
_publ_section_title
;
Structure prediction by ZEFSAII (Michael W. Deem and Ramdas Pophale) SiO2 
 PCOD8013528
Probable space group: P -1
;
_chemical_formula_sum "Si O2"
_cell_formula_units_Z 16
_cell_length_a 20.597246
_cell_length_b 9.599160
_cell_length_c 5.316602
_cell_angle_alpha 79.977200
_cell_angle_beta 53.187898
_cell_angle_gamma 59.854379
_cell_volume 715.432022
_symmetry_space_group_name_H-M "P -1"
_symmetry_group_IT_number 2
_symmetry_cell_setting 'triclinic'
loop_
_space_group_symop_operation_xyz
x,y,z
-x,-y,-z
loop_
_atom_site_type_symbol
_atom_site_label
_atom_site_fract_x
_atom_site_fract_y
_atom_site_fract_z
Si Si1 0.429236 0.247956 0.712488
Si Si2 0.225303 0.270975 0.638772
Si Si3 0.048643 0.320788 0.333007
Si Si4 0.922918 0.183864 0.564827
Si Si5 0.811378 0.217638 0.307378
Si Si6 0.366442 0.013323 0.753482
Si Si7 0.198023 0.069573 0.395714
Si Si8 0.334922 0.437403 0.367790
O O1 0.394312 0.115391 0.852616
O O2 0.395936 0.347010 0.498351
O O3 0.541939 0.154171 0.487480
O O4 0.394764 0.368273 0.995249
O O5 0.320294 0.125577 0.583098
O O6 0.217219 0.212500 0.400516
O O7 0.239698 0.426585 0.558042
O O8 0.128290 0.311470 0.973798
O O9 0.097714 0.167151 0.459583
O O10 0.000000 0.500000 0.500000
O O11 0.969313 0.298020 0.385321
O O12 0.874772 0.192753 0.410487
O O13 0.850052 0.248524 0.947893
O O14 0.000000 0.000000 0.500000
O O15 0.706745 0.369042 0.556858
O O16 0.806025 0.050740 0.348310
O O17 0.290440 0.964578 0.042889
#
# Coordination Sequence:
#
# PCOD8013528 Si02
#       8
#     2   2   2   2   2   2   2   2
#     4  10  21  40  68  98 127 161 217 256 319 378
#     4  10  22  39  64  90 127 161 212 262 322 368
#     4  11  25  40  63  94 125 164 215 271 313 370
#     4  12  25  46  65  92 125 173 220 257 311 383
#     4  12  27  43  66  89 135 171 211 261 317 380
#     4   9  21  38  66  96 126 164 206 270 311 379
#     4  11  23  41  62  92 125 169 209 259 320 377
#     4  11  23  42  64  96 128 170 206 262 318 378
#
# _framework density 22.364108999999999
#
# number of rings (size 3 to 8) (size 9 to 14) (size 15 to 20)
#    0.000    1.250    2.500    2.625    7.000    2.000 
#    0.000    1.250    0.000    0.000    0.000    0.000 
#    0.000    0.000    0.000    0.000    0.000    0.000 
#
# Total GULP energy -198307.269216 kJ/mol
# GULP energy per Si atom -12394.204326 kJ/mol
# Density = 2.231321 g / cm^3
# Si number density = 22.364109 Si / 1000 Ang^3
#
#
#
# Elastic Constant Matrix: (Units=GPa)
#
#
# Indices 1 2 3 4 5 6 
#
# 1 56.2026 -1.0928 31.9153 -0.0294 -1.6328 -3.4209
# 2 -1.0928 63.2809 28.2372 14.0460 -15.1145 5.7582
# 3 31.9153 28.2372 92.0529 20.2630 3.2299 -11.7245
# 4 -0.0294 14.0460 20.2630 36.7278 -1.8666 -1.6535
# 5 -1.6328 -15.1145 3.2299 -1.8666 36.6379 4.4443
# 6 -3.4209 5.7582 -11.7245 -1.6535 4.4443 22.2674
#
#
#
# Elastic Compliance Matrix: (Units=1/GPa)
#
#
# Indices 1 2 3 4 5 6 
#
# 1 0.025001 0.007097 -0.012736 0.004389 0.006066 -0.005585
# 2 0.007097 0.027116 -0.012515 -0.003435 0.014326 -0.015626
# 3 -0.012736 -0.012515 0.023072 -0.007791 -0.009961 0.014838
# 4 0.004389 -0.003435 -0.007791 0.032888 0.001181 -0.000333
# 5 0.006066 0.014326 -0.009961 0.001181 0.036253 -0.015165
# 6 -0.005585 -0.015626 0.014838 -0.000333 -0.015165 0.058906
#
#
# Mechanical properties :
#
#
# Convention : Reuss Voigt Hill
#
# Bulk Modulus (GPa) = 25.71832 36.62842 31.17337
# Shear Modulus (GPa) = 19.80172 29.29174 24.54673
#
# Velocity S-wave (km/s) = 2.97884 3.62299 3.31659
# Velocity P-wave (km/s) = 4.83281 5.82368 5.35123
#
# Compressibility (1/GPa) = 0.03888279
#
# Stress axis : x y z
#
# Youngs Moduli (GPa) = 39.99778 36.87899 43.34215
#
# Poissons Ratio (x) = -0.26175 0.55199
# Poissons Ratio (y) = -0.28388 0.54244
# Poissons Ratio (z) = 0.50939 0.46155
#
# Static dielectric constant tensor:
#      x y z
#    x 4.076130 0.108500 0.022440 
#    y 0.108500 4.100200 -0.199070 
#    z 0.022440 -0.199070 4.236110 
# 
# 
# High freq. dielectric constant tensor:
#      x y z
#    x 1.879960 -0.005580 -0.002750 
#    y -0.005580 1.874250 0.010390 
#    z -0.002750 0.010390 1.883880 
# 
# From -- ./inp_files/48669.got.cif
#   From: 2010.06.25/outbox.cif.g09.slc.cpg/sg2_25_cif.got.tgz:48669.got - 2010.06.27 13:26:56.
