data_PCOD8013750
_publ_section_title
;
Structure prediction by ZEFSAII (Michael W. Deem and Ramdas Pophale) SiO2 
 PCOD8013750
Probable space group: P -1
;
_chemical_formula_sum "Si O2"
_cell_formula_units_Z 16
_cell_length_a 27.734698
_cell_length_b 6.203515
_cell_length_c 29.920595
_cell_angle_alpha 113.380223
_cell_angle_beta 8.879971
_cell_angle_gamma 113.419425
_cell_volume 728.883293
_symmetry_space_group_name_H-M "P -1"
_symmetry_group_IT_number 2
_symmetry_cell_setting 'triclinic'
loop_
_space_group_symop_operation_xyz
x,y,z
-x,-y,-z
loop_
_atom_site_type_symbol
_atom_site_label
_atom_site_fract_x
_atom_site_fract_y
_atom_site_fract_z
Si Si1 0.767864 0.203322 0.717639
Si Si2 0.307512 0.879622 0.627034
Si Si3 0.749793 0.098019 0.550036
Si Si4 0.991567 0.124259 0.863901
Si Si5 0.132280 0.813525 0.114434
Si Si6 0.086888 0.295443 0.343379
Si Si7 0.433729 0.342602 0.786996
Si Si8 0.690195 0.595222 0.191239
O O1 0.830534 0.426063 0.711021
O O2 0.824958 0.259528 0.618021
O O3 0.395256 0.142565 0.058623
O O4 0.000000 0.000000 0.500000
O O5 0.482257 0.655670 0.429310
O O6 0.500000 0.000000 0.500000
O O7 0.283327 0.070054 0.624354
O O8 0.972959 0.789030 0.944258
O O9 0.948881 0.222039 0.416416
O O10 0.725155 0.288420 0.547800
O O11 0.415844 0.006880 0.866867
O O12 0.923238 0.873583 0.353382
O O13 0.081146 0.188336 0.735639
O O14 0.810611 0.337539 0.068929
O O15 0.778980 0.890803 0.038381
O O16 0.252768 0.555821 0.992044
O O17 0.523610 0.406704 0.658460
#
# Coordination Sequence:
#
# PCOD8013750 Si02
#       8
#     2   2   2   2   2   2   2   2
#     4  10  21  41  61  81 114 155 192 231 279 332
#     4  11  23  38  58  86 115 147 192 240 285 334
#     4  11  22  37  57  87 119 144 184 240 282 331
#     4   9  21  39  60  82 114 153 191 234 281 340
#     4  10  22  38  58  84 116 152 189 228 285 346
#     4  10  22  37  59  88 113 146 194 234 278 336
#     4   9  21  39  60  84 114 152 188 228 285 343
#     4  10  22  39  60  83 112 152 191 228 284 345
#
# _framework density 21.951387
#
# number of rings (size 3 to 8) (size 9 to 14) (size 15 to 20)
#    0.000    2.000    0.000    2.250    0.000   16.000 
#    0.000    0.000    0.000    0.000    0.000    0.000 
#    0.000    0.000    0.000    0.000    0.000    0.000 
#
# Total GULP energy -198373.096194 kJ/mol
# GULP energy per Si atom -12398.318512 kJ/mol
# Density = 2.190142 g / cm^3
# Si number density = 21.951387 Si / 1000 Ang^3
#
#
#
# Elastic Constant Matrix: (Units=GPa)
#
#
# Indices 1 2 3 4 5 6 
#
# 1 110.9502 45.4130 31.9081 13.8152 -27.9720 33.8709
# 2 45.4130 101.0361 18.2680 29.6542 -26.0761 8.7848
# 3 31.9081 18.2680 75.5914 14.4580 -13.7490 12.9114
# 4 13.8152 29.6542 14.4580 30.5746 2.8855 3.8901
# 5 -27.9720 -26.0761 -13.7490 2.8855 38.9840 -1.1432
# 6 33.8709 8.7848 12.9114 3.8901 -1.1432 31.6407
#
#
#
# Elastic Compliance Matrix: (Units=1/GPa)
#
#
# Indices 1 2 3 4 5 6 
#
# 1 0.019777 -0.002740 -0.001553 -0.004240 0.011572 -0.018837
# 2 -0.002740 0.020755 0.003079 -0.021609 0.014576 -0.000903
# 3 -0.001553 0.003079 0.017382 -0.010636 0.007725 -0.004699
# 4 -0.004240 -0.021609 -0.010636 0.062231 -0.025669 0.006300
# 5 0.011572 0.014576 0.007725 -0.025669 0.047898 -0.014700
# 6 -0.018837 -0.000903 -0.004699 0.006300 -0.014700 0.052632
#
#
# Mechanical properties :
#
#
# Convention : Reuss Voigt Hill
#
# Bulk Modulus (GPa) = 18.02218 53.19509 35.60863
# Shear Modulus (GPa) = 20.69558 33.03910 26.86734
#
# Velocity S-wave (km/s) = 3.07382 3.88377 3.50229
# Velocity P-wave (km/s) = 4.56352 6.66313 5.71065
#
# Compressibility (1/GPa) = 0.05548719
#
# Stress axis : x y z
#
# Youngs Moduli (GPa) = 50.56383 48.18212 57.52979
#
# Poissons Ratio (x) = 0.13200 0.08933
# Poissons Ratio (y) = 0.13852 -0.17713
# Poissons Ratio (z) = 0.07851 -0.14835
#
# Static dielectric constant tensor:
#      x y z
#    x 4.236800 -0.181440 -0.170590 
#    y -0.181440 4.063370 0.236780 
#    z -0.170590 0.236780 3.948940 
# 
# 
# High freq. dielectric constant tensor:
#      x y z
#    x 1.856020 0.004750 0.001180 
#    y 0.004750 1.866690 0.014490 
#    z 0.001180 0.014490 1.859050 
# 
# From -- ./inp_files/12907.got.cif
#   From: 2010.06.25/outbox.cif.g09.slc.cpg/sg2_7_cif.got.tgz:12907.got - 2010.06.27 13:26:56.
