data_PCOD8013618
_publ_section_title
;
Structure prediction by ZEFSAII (Michael W. Deem and Ramdas Pophale) SiO2 
 PCOD8013618
Probable space group: P -1
;
_chemical_formula_sum "Si O2"
_cell_formula_units_Z 16
_cell_length_a 8.960445
_cell_length_b 9.026762
_cell_length_c 15.619968
_cell_angle_alpha 39.259971
_cell_angle_beta 82.255043
_cell_angle_gamma 69.094647
_cell_volume 725.183135
_symmetry_space_group_name_H-M "P -1"
_symmetry_group_IT_number 2
_symmetry_cell_setting 'triclinic'
loop_
_space_group_symop_operation_xyz
x,y,z
-x,-y,-z
loop_
_atom_site_type_symbol
_atom_site_label
_atom_site_fract_x
_atom_site_fract_y
_atom_site_fract_z
Si Si1 0.349929 0.309978 0.779556
Si Si2 0.890498 0.054698 0.809736
Si Si3 0.854383 0.590048 0.538110
Si Si4 0.349690 0.821790 0.083119
Si Si5 0.589417 0.951184 0.280810
Si Si6 0.992072 0.729278 0.635335
Si Si7 0.749993 0.271527 0.039346
Si Si8 0.215354 0.227876 0.198798
O O1 0.495497 0.369834 0.786780
O O2 0.365700 0.278576 0.689665
O O3 0.176552 0.520438 0.727542
O O4 0.389693 0.024186 0.934426
O O5 0.801952 0.354601 0.660942
O O6 0.801345 0.009796 0.920178
O O7 0.875599 0.885479 0.808868
O O8 0.081173 0.981040 0.850527
O O9 0.700628 0.836038 0.406622
O O10 0.000000 0.500000 0.500000
O O11 0.909708 0.665339 0.588777
O O12 0.299757 0.662494 0.086511
O O13 0.615720 0.205006 0.133088
O O14 0.402054 0.030883 0.288164
O O15 0.885766 0.720768 0.728872
O O16 0.000000 0.000000 0.500000
O O17 0.781046 0.516265 0.959712
#
# Coordination Sequence:
#
# PCOD8013618 Si02
#       8
#     2   2   2   2   2   2   2   2
#     4  10  21  43  69  96 137 175 225 275 331 407
#     4  12  23  42  72 100 136 183 225 280 334 409
#     4  12  23  45  72  95 132 183 233 265 333 414
#     4  10  21  40  70 101 127 179 231 272 331 398
#     4  11  24  45  73  98 137 186 226 276 333 412
#     4  12  27  45  69 102 140 176 225 288 345 394
#     4  11  23  42  69 102 144 174 222 286 344 396
#     4  12  27  44  65 109 140 173 227 285 347 395
#
# _framework density 22.063390999999999
#
# number of rings (size 3 to 8) (size 9 to 14) (size 15 to 20)
#    0.000    0.750    3.750    4.125    0.000    3.000 
#    0.000    0.000    0.000    0.000    0.000    0.000 
#    0.000    0.000    0.000    0.000    0.000    0.000 
#
# Total GULP energy -198422.673131 kJ/mol
# GULP energy per Si atom -12401.417071 kJ/mol
# Density = 2.201317 g / cm^3
# Si number density = 22.063391 Si / 1000 Ang^3
#
#
#
# Elastic Constant Matrix: (Units=GPa)
#
#
# Indices 1 2 3 4 5 6 
#
# 1 119.2084 47.0880 31.7656 2.0240 14.7979 -1.7858
# 2 47.0880 116.3586 33.0376 6.8693 -2.0683 10.1272
# 3 31.7656 33.0376 77.9585 -7.2370 5.5662 14.7141
# 4 2.0240 6.8693 -7.2370 33.5247 2.6413 -0.0740
# 5 14.7979 -2.0683 5.5662 2.6413 34.1498 -1.1814
# 6 -1.7858 10.1272 14.7141 -0.0740 -1.1814 53.0221
#
#
#
# Elastic Compliance Matrix: (Units=1/GPa)
#
#
# Indices 1 2 3 4 5 6 
#
# 1 0.011358 -0.003987 -0.002976 -0.000144 -0.004603 0.001867
# 2 -0.003987 0.011574 -0.003558 -0.003154 0.003208 -0.001290
# 3 -0.002976 -0.003558 0.016929 0.004727 -0.002195 -0.004161
# 4 -0.000144 -0.003154 0.004727 0.031769 -0.003382 -0.000745
# 5 -0.004603 0.003208 -0.002195 -0.003382 0.032110 0.000552
# 6 0.001867 -0.001290 -0.004161 -0.000745 0.000552 0.020335
#
#
# Mechanical properties :
#
#
# Convention : Reuss Voigt Hill
#
# Bulk Modulus (GPa) = 53.14078 59.70088 56.42083
# Shear Modulus (GPa) = 33.02724 37.58160 35.30442
#
# Velocity S-wave (km/s) = 3.87321 4.13164 4.00451
# Velocity P-wave (km/s) = 6.64380 7.06244 6.85632
#
# Compressibility (1/GPa) = 0.01881794
#
# Stress axis : x y z
#
# Youngs Moduli (GPa) = 88.04049 86.40333 59.07172
#
# Poissons Ratio (x) = 0.34453 0.17577
# Poissons Ratio (y) = 0.35106 0.21020
# Poissons Ratio (z) = 0.26197 0.30745
#
# Static dielectric constant tensor:
#      x y z
#    x 4.230180 0.196260 0.142140 
#    y 0.196260 4.007520 0.147510 
#    z 0.142140 0.147510 4.045660 
# 
# 
# High freq. dielectric constant tensor:
#      x y z
#    x 1.885620 0.004460 0.005670 
#    y 0.004460 1.867360 0.006900 
#    z 0.005670 0.006900 1.860860 
# 
# From -- ./inp_files/189904.got.cif
#   From: 2010.06.25/outbox.cif.g09.slc.cpg/sg2_95_cif.got.tgz:189904.got - 2010.06.27 13:26:56.
