data_PCOD8013952
_publ_section_title
;
Structure prediction by ZEFSAII (Michael W. Deem and Ramdas Pophale) SiO2 
 PCOD8013952
Probable space group: P -1
;
_chemical_formula_sum "Si O2"
_cell_formula_units_Z 16
_cell_length_a 16.072880
_cell_length_b 9.056723
_cell_length_c 11.569490
_cell_angle_alpha 84.450975
_cell_angle_beta 93.742825
_cell_angle_gamma 27.039405
_cell_volume 718.100717
_symmetry_space_group_name_H-M "P -1"
_symmetry_group_IT_number 2
_symmetry_cell_setting 'triclinic'
loop_
_space_group_symop_operation_xyz
x,y,z
-x,-y,-z
loop_
_atom_site_type_symbol
_atom_site_label
_atom_site_fract_x
_atom_site_fract_y
_atom_site_fract_z
Si Si1 0.242650 0.634375 0.334543
Si Si2 0.218900 0.601771 0.074509
Si Si3 0.464965 0.729010 0.000703
Si Si4 0.288641 0.157847 0.164702
Si Si5 0.170095 0.043422 0.417360
Si Si6 0.999824 0.231327 0.620361
Si Si7 0.614229 0.014885 0.557070
Si Si8 0.915009 0.663027 0.213275
O O1 0.286901 0.544414 0.211088
O O2 0.046981 0.860703 0.336108
O O3 0.421226 0.279125 0.451367
O O4 0.216673 0.849363 0.338031
O O5 0.349080 0.474867 0.001617
O O6 0.247363 0.379719 0.080275
O O7 0.000000 0.000000 0.000000
O O8 0.281656 0.076019 0.881841
O O9 0.500000 0.500000 0.000000
O O10 0.418387 0.840814 0.121518
O O11 0.084116 0.405104 0.152198
O O12 0.401003 0.006137 0.307492
O O13 0.133319 0.015377 0.535547
O O14 0.977824 0.442646 0.332265
O O15 0.353314 0.859523 0.460082
O O16 0.113620 0.131288 0.742309
O O17 0.798599 0.639159 0.544641
#
# Coordination Sequence:
#
# PCOD8013952 Si02
#       8
#     2   2   2   2   2   2   2   2
#     4  12  24  41  67  98 132 178 214 269 337 387
#     4  12  28  47  67  96 139 176 226 277 329 397
#     4  12  28  42  73  98 125 183 228 273 333 400
#     4  10  23  49  67 100 137 173 217 285 330 387
#     4  10  23  38  66 102 133 170 213 276 326 393
#     4  10  21  41  63  96 136 170 212 271 328 394
#     4  10  22  42  68  96 134 168 218 272 329 395
#     4  10  22  44  69  95 136 173 218 274 333 398
#
# _framework density 22.280995999999998
#
# number of rings (size 3 to 8) (size 9 to 14) (size 15 to 20)
#    0.000    1.500    2.500    4.125    8.750    1.000 
#    2.250    0.000    0.000    0.000    0.000    0.000 
#    0.000    0.000    0.000    0.000    0.000    0.000 
#
# Total GULP energy -198454.414229 kJ/mol
# GULP energy per Si atom -12403.400889 kJ/mol
# Density = 2.223028 g / cm^3
# Si number density = 22.280996 Si / 1000 Ang^3
#
#
#
# Elastic Constant Matrix: (Units=GPa)
#
#
# Indices 1 2 3 4 5 6 
#
# 1 75.3235 26.5704 3.4855 11.8091 -10.3953 -0.3772
# 2 26.5704 83.1146 37.3819 18.0773 2.5019 -2.0047
# 3 3.4855 37.3819 88.8701 0.4410 6.4197 -11.4182
# 4 11.8091 18.0773 0.4410 39.9503 -7.8842 4.4202
# 5 -10.3953 2.5019 6.4197 -7.8842 36.6349 1.9460
# 6 -0.3772 -2.0047 -11.4182 4.4202 1.9460 40.8240
#
#
#
# Elastic Compliance Matrix: (Units=1/GPa)
#
#
# Indices 1 2 3 4 5 6 
#
# 1 0.016000 -0.005590 0.001444 -0.001380 0.004360 0.000219
# 2 -0.005590 0.018889 -0.007497 -0.007402 -0.003141 -0.000270
# 3 0.001444 -0.007497 0.014912 0.002114 -0.001431 0.003655
# 4 -0.001380 -0.007402 0.002114 0.030416 0.006469 -0.003387
# 5 0.004360 -0.003141 -0.001431 0.006469 0.030533 -0.002670
# 6 0.000219 -0.000270 0.003655 -0.003387 -0.002670 0.026000
#
#
# Mechanical properties :
#
#
# Convention : Reuss Voigt Hill
#
# Bulk Modulus (GPa) = 37.71624 42.46488 40.09056
# Shear Modulus (GPa) = 29.60767 35.47319 32.54043
#
# Velocity S-wave (km/s) = 3.64927 3.99442 3.82574
# Velocity P-wave (km/s) = 5.89241 6.35406 6.12758
#
# Compressibility (1/GPa) = 0.02651378
#
# Stress axis : x y z
#
# Youngs Moduli (GPa) = 62.49821 52.94216 67.06140
#
# Poissons Ratio (x) = 0.29597 -0.09683
# Poissons Ratio (y) = 0.34939 0.50276
# Poissons Ratio (z) = -0.09025 0.39691
#
# Static dielectric constant tensor:
#      x y z
#    x 4.123720 0.048350 0.038550 
#    y 0.048350 3.822390 0.033040 
#    z 0.038550 0.033040 3.922360 
# 
# 
# High freq. dielectric constant tensor:
#      x y z
#    x 1.886850 0.005110 0.001250 
#    y 0.005110 1.866240 0.005680 
#    z 0.001250 0.005680 1.873730 
# 
# From -- ./inp_files/185698.got.cif
#   From: 2010.06.25/outbox.cif.g09.slc.cpg/sg2_93_cif.got.tgz:185698.got - 2010.06.27 13:26:56.
