data_PCOD8013279
_publ_section_title
;
Structure prediction by ZEFSAII (Michael W. Deem and Ramdas Pophale) SiO2 
 PCOD8013279
Probable space group: P -1
;
_chemical_formula_sum "Si O2"
_cell_formula_units_Z 16
_cell_length_a 14.925877
_cell_length_b 17.661539
_cell_length_c 24.303874
_cell_angle_alpha 19.370392
_cell_angle_beta 159.319740
_cell_angle_gamma 148.772439
_cell_volume 729.478278
_symmetry_space_group_name_H-M "P -1"
_symmetry_group_IT_number 2
_symmetry_cell_setting 'triclinic'
loop_
_space_group_symop_operation_xyz
x,y,z
-x,-y,-z
loop_
_atom_site_type_symbol
_atom_site_label
_atom_site_fract_x
_atom_site_fract_y
_atom_site_fract_z
Si Si1 0.716674 0.966764 0.871545
Si Si2 0.419532 0.432814 0.439554
Si Si3 0.077877 0.088277 0.261618
Si Si4 0.806864 0.572399 0.986512
Si Si5 0.136345 0.241189 0.707618
Si Si6 0.653725 0.645161 0.146400
Si Si7 0.537709 0.261027 0.845351
Si Si8 0.513746 0.739907 0.812309
O O1 0.583540 0.936009 0.757764
O O2 0.550542 0.169341 0.675914
O O3 0.734230 0.722408 0.080405
O O4 0.000000 0.000000 0.000000
O O5 0.500000 0.500000 0.500000
O O6 0.519903 0.602782 0.338545
O O7 0.110977 0.451032 0.247075
O O8 0.234195 0.869977 0.536695
O O9 0.255321 0.233488 0.231617
O O10 0.902963 0.000823 0.173951
O O11 0.836200 0.255549 0.042264
O O12 0.643861 0.380250 0.009419
O O13 0.720102 0.686264 0.918028
O O14 0.297495 0.172450 0.904174
O O15 0.313089 0.382951 0.675990
O O16 0.845540 0.397574 0.442153
O O17 0.500000 0.000000 0.000000
O O18 0.500000 0.500000 0.000000
#
# Coordination Sequence:
#
# PCOD8013279 Si02
#       8
#     2   2   2   2   2   2   2   2
#     4  12  27  44  69  99 137 182 231 277 351 406
#     4  11  26  45  70 101 138 181 227 286 349 409
#     4  10  22  40  71  96 127 181 227 274 346 392
#     4  11  24  44  66 100 139 177 226 284 341 404
#     4  10  21  40  66  95 135 170 232 274 333 404
#     4  11  24  40  64 101 134 178 223 282 338 407
#     4   9  21  41  65  97 127 172 223 276 334 399
#     4  12  24  45  68 101 141 178 228 284 339 412
#
# _framework density 21.933482999999999
#
# number of rings (size 3 to 8) (size 9 to 14) (size 15 to 20)
#    0.000    1.250    2.500    1.875    7.000    6.500 
#    0.000    2.500    0.000    0.000    0.000    0.000 
#    0.000    0.000    0.000    0.000    0.000    0.000 
#
# Total GULP energy -198275.989803 kJ/mol
# GULP energy per Si atom -12392.249363 kJ/mol
# Density = 2.188356 g / cm^3
# Si number density = 21.933483 Si / 1000 Ang^3
#
#
#
# Elastic Constant Matrix: (Units=GPa)
#
#
# Indices 1 2 3 4 5 6 
#
# 1 88.4925 39.2315 33.3576 18.0984 -1.8911 10.2921
# 2 39.2315 116.8254 30.7995 21.0123 -4.8459 1.7291
# 3 33.3576 30.7995 93.0754 13.5731 -1.4717 5.4740
# 4 18.0984 21.0123 13.5731 32.1445 5.3491 -1.8900
# 5 -1.8911 -4.8459 -1.4717 5.3491 40.1884 -2.3075
# 6 10.2921 1.7291 5.4740 -1.8900 -2.3075 53.0791
#
#
#
# Elastic Compliance Matrix: (Units=1/GPa)
#
#
# Indices 1 2 3 4 5 6 
#
# 1 0.015498 -0.003229 -0.003526 -0.005414 0.000777 -0.002695
# 2 -0.003229 0.011072 -0.001777 -0.004947 0.001797 0.000351
# 3 -0.003526 -0.001777 0.012998 -0.002445 0.000383 -0.000669
# 4 -0.005414 -0.004947 -0.002445 0.039586 -0.006060 0.002609
# 5 0.000777 0.001797 0.000383 -0.006060 0.025995 0.000666
# 6 -0.002695 0.000351 -0.000669 0.002609 0.000666 0.019542
#
#
# Mechanical properties :
#
#
# Convention : Reuss Voigt Hill
#
# Bulk Modulus (GPa) = 44.43694 56.13005 50.28350
# Shear Modulus (GPa) = 33.49957 38.08270 35.79113
#
# Velocity S-wave (km/s) = 3.91234 4.17139 4.04394
# Velocity P-wave (km/s) = 6.38063 6.98908 6.69177
#
# Compressibility (1/GPa) = 0.02250380
#
# Stress axis : x y z
#
# Youngs Moduli (GPa) = 64.52293 90.31896 76.93765
#
# Poissons Ratio (x) = 0.29165 0.27125
# Poissons Ratio (y) = 0.20835 0.13674
# Poissons Ratio (z) = 0.22748 0.16052
#
# Static dielectric constant tensor:
#      x y z
#    x 4.739550 0.047860 0.212050 
#    y 0.047860 3.936090 0.147850 
#    z 0.212050 0.147850 3.961250 
# 
# 
# High freq. dielectric constant tensor:
#      x y z
#    x 1.876160 0.010660 0.003700 
#    y 0.010660 1.858550 0.008930 
#    z 0.003700 0.008930 1.861730 
# 
# From -- ./inp_files/612194.got.cif
#   From: 2010.06.25/outbox.cif.g09.slc.cpg/sg2_307_cif.got.tgz:612194.got - 2010.06.27 13:26:56.
