data_PCOD8013861
_publ_section_title
;
Structure prediction by ZEFSAII (Michael W. Deem and Ramdas Pophale) SiO2 
 PCOD8013861
Probable space group: P -1
;
_chemical_formula_sum "Si O2"
_cell_formula_units_Z 14
_cell_length_a 8.886995
_cell_length_b 25.247440
_cell_length_c 11.318223
_cell_angle_alpha 30.092477
_cell_angle_beta 139.055120
_cell_angle_gamma 147.717583
_cell_volume 677.357575
_symmetry_space_group_name_H-M "P -1"
_symmetry_group_IT_number 2
_symmetry_cell_setting 'triclinic'
loop_
_space_group_symop_operation_xyz
x,y,z
-x,-y,-z
loop_
_atom_site_type_symbol
_atom_site_label
_atom_site_fract_x
_atom_site_fract_y
_atom_site_fract_z
Si Si1 0.272887 0.000021 0.518817
Si Si2 0.740804 0.793631 0.740732
Si Si3 0.362525 0.576406 0.764408
Si Si4 0.637094 0.672173 0.506133
Si Si5 0.558081 0.584815 0.208646
Si Si6 0.263554 0.568059 0.280519
Si Si7 0.850312 0.042383 0.739565
O O1 0.321231 0.112802 0.413649
O O2 0.547994 0.999248 0.692756
O O3 0.200221 0.017003 0.308423
O O4 0.011221 0.864400 0.679198
O O5 0.463704 0.687532 0.707329
O O6 0.778630 0.713136 0.016993
O O7 0.435542 0.648015 0.543098
O O8 0.035790 0.462641 0.809639
O O9 0.500000 0.500000 0.000000
O O10 0.641455 0.544624 0.741740
O O11 0.492607 0.684407 0.279556
O O12 0.951412 0.801342 0.458226
O O13 0.359665 0.609429 0.121908
O O14 0.749840 0.562508 0.450466
O O15 0.000000 0.000000 0.000000
#
# Coordination Sequence:
#
# PCOD8013861 Si02
#       7
#     2   2   2   2   2   2   2
#     4  10  26  46  64  96 132 171 221 270 301 397
#     4  11  23  44  63  91 135 170 211 262 330 374
#     4  12  22  37  62  96 130 169 201 258 335 384
#     4  10  21  41  62  97 124 155 220 261 322 387
#     4   9  21  40  64  90 125 162 202 272 327 369
#     4   9  22  37  60  98 126 156 210 268 318 388
#     4  11  25  45  71  93 127 175 220 264 326 375
#
# _framework density 20.668551000000001
#
# number of rings (size 3 to 8) (size 9 to 14) (size 15 to 20)
#    0.857    0.857    2.857    0.429    4.000    4.000 
#    0.000    1.429    0.000    0.000    0.000    0.000 
#    0.000    0.000    0.000    0.000    0.000    0.000 
#
# Total GULP energy -173500.399739 kJ/mol
# GULP energy per Si atom -12392.885696 kJ/mol
# Density = 2.062151 g / cm^3
# Si number density = 20.668551 Si / 1000 Ang^3
#
#
#
# Elastic Constant Matrix: (Units=GPa)
#
#
# Indices 1 2 3 4 5 6 
#
# 1 134.9657 46.4914 34.4559 11.4384 -12.6533 4.4757
# 2 46.4914 91.2521 14.5087 6.2389 2.7161 -3.8136
# 3 34.4559 14.5087 71.4045 4.4387 -9.4898 4.0492
# 4 11.4384 6.2389 4.4387 30.3233 1.2530 1.6042
# 5 -12.6533 2.7161 -9.4898 1.2530 28.3252 0.4518
# 6 4.4757 -3.8136 4.0492 1.6042 0.4518 37.5031
#
#
#
# Elastic Compliance Matrix: (Units=1/GPa)
#
#
# Indices 1 2 3 4 5 6 
#
# 1 0.010599 -0.004875 -0.003324 -0.002612 0.004226 -0.001341
# 2 -0.004875 0.013872 -0.001052 -0.000817 -0.003859 0.002187
# 3 -0.003324 -0.001052 0.016534 -0.001045 0.004226 -0.001502
# 4 -0.002612 -0.000817 -0.001045 0.034464 -0.002946 -0.001097
# 5 0.004226 -0.003859 0.004226 -0.002946 0.039135 -0.001698
# 6 -0.001341 0.002187 -0.001502 -0.001097 -0.001698 0.027276
#
#
# Mechanical properties :
#
#
# Convention : Reuss Voigt Hill
#
# Bulk Modulus (GPa) = 44.43914 54.28159 49.36037
# Shear Modulus (GPa) = 29.78243 32.70807 31.24525
#
# Velocity S-wave (km/s) = 3.80011 3.98239 3.89231
# Velocity P-wave (km/s) = 6.38764 6.88954 6.64333
#
# Compressibility (1/GPa) = 0.02250268
#
# Stress axis : x y z
#
# Youngs Moduli (GPa) = 94.34757 72.08887 60.48043
#
# Poissons Ratio (x) = 0.35142 0.20104
# Poissons Ratio (y) = 0.45992 0.06365
# Poissons Ratio (z) = 0.31362 0.07587
#
# Static dielectric constant tensor:
#      x y z
#    x 3.981140 -0.115610 -0.319650 
#    y -0.115610 3.686320 -0.106850 
#    z -0.319650 -0.106850 3.497590 
# 
# 
# High freq. dielectric constant tensor:
#      x y z
#    x 1.825270 -0.009880 -0.020500 
#    y -0.009880 1.802340 -0.008030 
#    z -0.020500 -0.008030 1.786960 
# 
# From -- ./inp_files/407322.got.cif
#   From: 2010.06.25/outbox.cif.g09.slc.cpg/sg2_204_cif.got.tgz:407322.got - 2010.06.27 13:26:56.
