data_PCOD8013513
_publ_section_title
;
Structure prediction by ZEFSAII (Michael W. Deem and Ramdas Pophale) SiO2 
 PCOD8013513
Probable space group: P -1
;
_chemical_formula_sum "Si O2"
_cell_formula_units_Z 14
_cell_length_a 15.527860
_cell_length_b 13.206914
_cell_length_c 9.205330
_cell_angle_alpha 133.434882
_cell_angle_beta 53.877446
_cell_angle_gamma 153.143932
_cell_volume 617.631375
_symmetry_space_group_name_H-M "P -1"
_symmetry_group_IT_number 2
_symmetry_cell_setting 'triclinic'
loop_
_space_group_symop_operation_xyz
x,y,z
-x,-y,-z
loop_
_atom_site_type_symbol
_atom_site_label
_atom_site_fract_x
_atom_site_fract_y
_atom_site_fract_z
Si Si1 0.207365 0.788870 0.048759
Si Si2 0.289793 0.416010 0.683166
Si Si3 0.282965 0.168312 0.242705
Si Si4 0.790806 0.656095 0.993105
Si Si5 0.507346 0.843746 0.362900
Si Si6 0.195677 0.052523 0.889212
Si Si7 0.436195 0.805554 0.715291
O O1 0.177743 0.911958 0.140420
O O2 0.341218 0.933768 0.202922
O O3 0.324471 0.831674 0.850199
O O4 0.000000 0.500000 0.000000
O O5 0.195594 0.195414 0.457664
O O6 0.491274 0.586826 0.716043
O O7 0.316631 0.584790 0.730721
O O8 0.157868 0.298888 0.841295
O O9 0.254730 0.171842 0.106340
O O10 0.616165 0.365176 0.843528
O O11 0.966944 0.791001 0.855327
O O12 0.737248 0.757165 0.104671
O O13 0.430075 0.728461 0.487574
O O14 0.500000 0.000000 0.500000
O O15 0.718020 0.004486 0.295920
#
# Coordination Sequence:
#
# PCOD8013513 Si02
#       7
#     2   2   2   2   2   2   2
#     4  10  23  41  66  96 130 167 211 269 327 384
#     4  10  22  41  69  96 126 170 222 271 322 381
#     4  10  21  40  68  97 124 172 220 265 327 383
#     4  11  26  44  67  98 133 175 219 270 331 385
#     4  12  26  44  70  96 135 177 216 268 330 395
#     4  11  25  44  68  96 134 173 221 270 326 392
#     4  10  24  42  65  97 130 168 217 266 327 383
#
# _framework density 22.667241000000001
#
# number of rings (size 3 to 8) (size 9 to 14) (size 15 to 20)
#    0.000    1.429    1.429    2.143   12.000    2.286 
#    2.571    0.000    0.000    0.000    0.000    0.000 
#    0.000    0.000    0.000    0.000    0.000    0.000 
#
# Total GULP energy -173634.573432 kJ/mol
# GULP energy per Si atom -12402.469531 kJ/mol
# Density = 2.261565 g / cm^3
# Si number density = 22.667241 Si / 1000 Ang^3
#
#
#
# Elastic Constant Matrix: (Units=GPa)
#
#
# Indices 1 2 3 4 5 6 
#
# 1 95.4509 43.4080 44.0633 0.2185 -15.3634 -11.3865
# 2 43.4080 99.5197 42.7245 -1.7886 -15.4302 -20.3984
# 3 44.0633 42.7245 128.1443 -15.5334 -9.5801 -15.3814
# 4 0.2185 -1.7886 -15.5334 34.6619 -11.1701 -0.0736
# 5 -15.3634 -15.4302 -9.5801 -11.1701 40.1494 -9.2566
# 6 -11.3865 -20.3984 -15.3814 -0.0736 -9.2566 31.4459
#
#
#
# Elastic Compliance Matrix: (Units=1/GPa)
#
#
# Indices 1 2 3 4 5 6 
#
# 1 0.014634 -0.003988 -0.003234 -0.000568 0.003645 0.002201
# 2 -0.003988 0.015759 -0.001895 0.002264 0.006994 0.009915
# 3 -0.003234 -0.001895 0.010968 0.005874 0.003188 0.003917
# 4 -0.000568 0.002264 0.005874 0.036143 0.014035 0.008352
# 5 0.003645 0.006994 0.003188 0.014035 0.037948 0.018619
# 6 0.002201 0.009915 0.003917 0.008352 0.018619 0.046446
#
#
# Mechanical properties :
#
#
# Convention : Reuss Voigt Hill
#
# Bulk Modulus (GPa) = 43.24332 64.83406 54.03869
# Shear Modulus (GPa) = 26.61799 34.11273 30.36536
#
# Velocity S-wave (km/s) = 3.43051 3.88356 3.66404
# Velocity P-wave (km/s) = 5.90001 6.98384 6.46468
#
# Compressibility (1/GPa) = 0.02312496
#
# Stress axis : x y z
#
# Youngs Moduli (GPa) = 68.33392 63.45594 91.17209
#
# Poissons Ratio (x) = 0.25309 0.29489
# Poissons Ratio (y) = 0.27254 0.17280
# Poissons Ratio (z) = 0.22102 0.12027
#
# Static dielectric constant tensor:
#      x y z
#    x 4.140570 0.048930 -0.018720 
#    y 0.048930 3.936200 -0.159630 
#    z -0.018720 -0.159630 4.254200 
# 
# 
# High freq. dielectric constant tensor:
#      x y z
#    x 1.898980 0.000680 -0.003240 
#    y 0.000680 1.890570 -0.006710 
#    z -0.003240 -0.006710 1.895150 
# 
# From -- ./inp_files/308490.got.cif
#   From: 2010.06.25/outbox.cif.g09.slc.cpg/sg2_155_cif.got.tgz:308490.got - 2010.06.27 13:26:56.
