data_PCOD8013702
_publ_section_title
;
Structure prediction by ZEFSAII (Michael W. Deem and Ramdas Pophale) SiO2 
 PCOD8013702
Probable space group: P -1
;
_chemical_formula_sum "Si O2"
_cell_formula_units_Z 16
_cell_length_a 12.120845
_cell_length_b 19.997422
_cell_length_c 8.268966
_cell_angle_alpha 39.719438
_cell_angle_beta 67.181661
_cell_angle_gamma 37.373684
_cell_volume 635.494697
_symmetry_space_group_name_H-M "P -1"
_symmetry_group_IT_number 2
_symmetry_cell_setting 'triclinic'
loop_
_space_group_symop_operation_xyz
x,y,z
-x,-y,-z
loop_
_atom_site_type_symbol
_atom_site_label
_atom_site_fract_x
_atom_site_fract_y
_atom_site_fract_z
Si Si1 0.211704 0.474749 0.032483
Si Si2 0.964346 0.191370 0.106956
Si Si3 0.053591 0.477108 0.694730
Si Si4 0.534567 0.851588 0.754166
Si Si5 0.117705 0.113704 0.664996
Si Si6 0.730614 0.893990 0.099446
Si Si7 0.540880 0.581371 0.749346
Si Si8 0.054409 0.935846 0.325326
O O1 0.328841 0.295022 0.202105
O O2 0.405967 0.376005 0.218521
O O3 0.013845 0.573599 0.067239
O O4 0.095596 0.652143 0.664160
O O5 0.974382 0.128541 0.392902
O O6 0.743341 0.427483 0.791085
O O7 0.930005 0.133117 0.087750
O O8 0.179540 0.108486 0.105349
O O9 0.000000 0.500000 0.500000
O O10 0.915715 0.677649 0.461087
O O11 0.318441 0.293101 0.905207
O O12 0.500000 0.000000 0.500000
O O13 0.286934 0.989347 0.648209
O O14 0.271078 0.023168 0.903884
O O15 0.029909 0.057899 0.805110
O O16 0.500000 0.000000 0.000000
O O17 0.307013 0.786663 0.422996
O O18 0.500000 0.500000 0.000000
#
# Coordination Sequence:
#
# PCOD8013702 Si02
#       8
#     2   2   2   2   2   2   2   2
#     4  12  24  44  72 104 144 193 250 305 366 454
#     4  10  23  46  71 107 145 191 243 309 369 444
#     4  12  26  45  70 104 146 195 248 303 382 444
#     4  12  26  45  72 102 147 202 252 307 368 444
#     4  12  25  45  72 106 147 193 247 306 371 448
#     4  12  28  49  71 107 157 196 244 313 383 448
#     4  10  21  40  73 105 138 179 245 309 362 429
#     4  10  24  43  77 106 141 193 255 306 367 439
#
# _framework density 25.177235
#
# number of rings (size 3 to 8) (size 9 to 14) (size 15 to 20)
#    0.000    0.750    5.000    2.625    7.000    1.500 
#    2.250    0.625    0.000    0.000    0.000    0.000 
#    0.000    0.000    0.000    0.000    0.000    0.000 
#
# Total GULP energy -198225.848860 kJ/mol
# GULP energy per Si atom -12389.115554 kJ/mol
# Density = 2.511993 g / cm^3
# Si number density = 25.177235 Si / 1000 Ang^3
#
#
#
# Elastic Constant Matrix: (Units=GPa)
#
#
# Indices 1 2 3 4 5 6 
#
# 1 187.1905 67.2659 48.1800 -16.5736 19.6953 15.7443
# 2 67.2659 128.8428 30.3111 -29.2525 1.7874 2.1882
# 3 48.1800 30.3111 75.2806 -32.2335 -0.4079 3.3976
# 4 -16.5736 -29.2525 -32.2335 34.6153 -5.2359 -4.2232
# 5 19.6953 1.7874 -0.4079 -5.2359 45.6719 4.4185
# 6 15.7443 2.1882 3.3976 -4.2232 4.4185 53.7842
#
#
#
# Elastic Compliance Matrix: (Units=1/GPa)
#
#
# Indices 1 2 3 4 5 6 
#
# 1 0.008601 -0.004342 -0.006435 -0.006424 -0.004130 -0.002100
# 2 -0.004342 0.011829 0.002653 0.010930 0.002563 0.001270
# 3 -0.006435 0.002653 0.027251 0.025593 0.005694 0.001596
# 4 -0.006424 0.010930 0.025593 0.060735 0.009163 0.003835
# 5 -0.004130 0.002563 0.005694 0.009163 0.024732 -0.000567
# 6 -0.002100 0.001270 0.001596 0.003835 -0.000567 0.019403
#
#
# Mechanical properties :
#
#
# Convention : Reuss Voigt Hill
#
# Bulk Modulus (GPa) = 31.81407 75.86976 53.84191
# Shear Modulus (GPa) = 27.88996 43.18474 35.53735
#
# Velocity S-wave (km/s) = 3.33189 4.14603 3.76105
# Velocity P-wave (km/s) = 5.24075 7.28828 6.34762
#
# Compressibility (1/GPa) = 0.03143264
#
# Stress axis : x y z
#
# Youngs Moduli (GPa) = 116.26518 84.54024 36.69634
#
# Poissons Ratio (x) = 0.36709 0.23613
# Poissons Ratio (y) = 0.50484 -0.09735
# Poissons Ratio (z) = 0.74812 -0.22428
#
# Static dielectric constant tensor:
#      x y z
#    x 5.120310 0.007680 -0.283610 
#    y 0.007680 5.421340 -0.542750 
#    z -0.283610 -0.542750 4.618110 
# 
# 
# High freq. dielectric constant tensor:
#      x y z
#    x 2.025150 0.002560 -0.007550 
#    y 0.002560 2.005680 -0.015980 
#    z -0.007550 -0.015980 1.989750 
# 
# From -- ./inp_files/282740.got.cif
#   From: 2010.06.25/outbox.cif.g09.slc.cpg/sg2_142_cif.got.tgz:282740.got - 2010.06.27 13:26:56.
