data_PCOD8013408
_publ_section_title
;
Structure prediction by ZEFSAII (Michael W. Deem and Ramdas Pophale) SiO2 
 PCOD8013408
Probable space group: P -1
;
_chemical_formula_sum "Si O2"
_cell_formula_units_Z 16
_cell_length_a 16.094001
_cell_length_b 11.203269
_cell_length_c 8.235027
_cell_angle_alpha 83.807906
_cell_angle_beta 60.454861
_cell_angle_gamma 132.707273
_cell_volume 685.325292
_symmetry_space_group_name_H-M "P -1"
_symmetry_group_IT_number 2
_symmetry_cell_setting 'triclinic'
loop_
_space_group_symop_operation_xyz
x,y,z
-x,-y,-z
loop_
_atom_site_type_symbol
_atom_site_label
_atom_site_fract_x
_atom_site_fract_y
_atom_site_fract_z
Si Si1 0.695426 0.186907 0.347956
Si Si2 0.275002 0.958521 0.410577
Si Si3 0.847030 0.525537 0.389311
Si Si4 0.212302 0.310137 0.088744
Si Si5 0.663974 0.333671 0.908244
Si Si6 0.786164 0.832667 0.574385
Si Si7 0.817811 0.740592 0.233871
Si Si8 0.075892 0.554611 0.210515
O O1 0.716468 0.287637 0.474472
O O2 0.500000 0.000000 0.500000
O O3 0.718258 0.073067 0.400536
O O4 0.854320 0.393853 0.045837
O O5 0.297095 0.123956 0.352944
O O6 0.451318 0.089511 0.135276
O O7 0.092150 0.711033 0.545764
O O8 0.744447 0.476284 0.646458
O O9 0.877257 0.665206 0.214050
O O10 0.026320 0.644066 0.258765
O O11 0.279507 0.517410 0.021653
O O12 0.284568 0.303809 0.169017
O O13 0.284500 0.353634 0.829325
O O14 0.999070 0.072010 0.331626
O O15 0.761581 0.307627 0.845966
O O16 0.717801 0.689358 0.497682
O O17 0.000000 0.000000 0.000000
#
# Coordination Sequence:
#
# PCOD8013408 Si02
#       8
#     2   2   2   2   2   2   2   2
#     4  11  24  45  69 101 138 178 228 287 343 409
#     4  11  24  41  72  97 133 186 220 285 349 404
#     4  11  24  42  68 101 140 179 230 285 341 411
#     4  10  21  40  67  96 138 179 226 286 340 405
#     4  12  23  44  67 102 141 174 233 287 339 412
#     4  10  21  42  66  98 136 179 233 277 347 408
#     4  10  22  38  70 101 133 181 230 282 340 412
#     4  11  24  44  70  98 137 177 228 282 351 407
#
# _framework density 23.346575999999999
#
# number of rings (size 3 to 8) (size 9 to 14) (size 15 to 20)
#    0.000    1.250    3.750    2.625    5.250    2.500 
#    2.250    1.875    0.000    0.000    0.000    0.000 
#    0.000    0.000    0.000    0.000    0.000    0.000 
#
# Total GULP energy -198224.305391 kJ/mol
# GULP energy per Si atom -12389.019087 kJ/mol
# Density = 2.329344 g / cm^3
# Si number density = 23.346576 Si / 1000 Ang^3
#
#
#
# Elastic Constant Matrix: (Units=GPa)
#
#
# Indices 1 2 3 4 5 6 
#
# 1 153.3296 34.7688 57.7896 6.7964 15.0698 -11.7675
# 2 34.7688 68.4282 41.9568 18.3002 9.3929 -0.9083
# 3 57.7896 41.9568 112.2380 11.4721 8.9363 5.1817
# 4 6.7964 18.3002 11.4721 32.7707 8.0287 10.2794
# 5 15.0698 9.3929 8.9363 8.0287 42.1211 -2.3490
# 6 -11.7675 -0.9083 5.1817 10.2794 -2.3490 32.5070
#
#
#
# Elastic Compliance Matrix: (Units=1/GPa)
#
#
# Indices 1 2 3 4 5 6 
#
# 1 0.008861 -0.001751 -0.003921 -0.000246 -0.001693 0.003739
# 2 -0.001751 0.022716 -0.006597 -0.011295 -0.000632 0.004579
# 3 -0.003921 -0.006597 0.013501 0.001187 -0.000449 -0.004163
# 4 -0.000246 -0.011295 0.001187 0.042635 -0.006583 -0.014552
# 5 -0.001693 -0.000632 -0.000449 -0.006583 0.026027 0.003404
# 6 0.003739 0.004579 -0.004163 -0.014552 0.003404 0.037755
#
#
# Mechanical properties :
#
#
# Convention : Reuss Voigt Hill
#
# Bulk Modulus (GPa) = 48.68175 67.00292 57.84234
# Shear Modulus (GPa) = 27.34033 34.77848 31.05940
#
# Velocity S-wave (km/s) = 3.42579 3.86380 3.65137
# Velocity P-wave (km/s) = 6.04526 6.97616 6.52732
#
# Compressibility (1/GPa) = 0.02054158
#
# Stress axis : x y z
#
# Youngs Moduli (GPa) = 112.85760 44.02101 74.06808
#
# Poissons Ratio (x) = 0.07706 0.29039
# Poissons Ratio (y) = 0.19757 0.48864
# Poissons Ratio (z) = 0.44247 0.29041
#
# Static dielectric constant tensor:
#      x y z
#    x 4.261690 0.302210 0.411450 
#    y 0.302210 4.056630 0.368730 
#    z 0.411450 0.368730 4.361830 
# 
# 
# High freq. dielectric constant tensor:
#      x y z
#    x 1.930670 0.000490 0.023050 
#    y 0.000490 1.906080 0.005860 
#    z 0.023050 0.005860 1.919860 
# 
# From -- ./inp_files/333244.got.cif
#   From: 2010.06.25/outbox.cif.g09.slc.cpg/sg2_167_cif.got.tgz:333244.got - 2010.06.27 13:26:56.
