data_PCOD8013976
_publ_section_title
;
Structure prediction by ZEFSAII (Michael W. Deem and Ramdas Pophale) SiO2 
 PCOD8013976
Probable space group: P -1
;
_chemical_formula_sum "Si O2"
_cell_formula_units_Z 14
_cell_length_a 11.063918
_cell_length_b 23.147020
_cell_length_c 5.263221
_cell_angle_alpha 77.752033
_cell_angle_beta 69.162412
_cell_angle_gamma 27.506133
_cell_volume 564.869558
_symmetry_space_group_name_H-M "P -1"
_symmetry_group_IT_number 2
_symmetry_cell_setting 'triclinic'
loop_
_space_group_symop_operation_xyz
x,y,z
-x,-y,-z
loop_
_atom_site_type_symbol
_atom_site_label
_atom_site_fract_x
_atom_site_fract_y
_atom_site_fract_z
Si Si1 0.666522 0.299645 0.599531
Si Si2 0.099824 0.258223 0.242676
Si Si3 0.419366 0.296023 0.522979
Si Si4 0.811723 0.518453 0.841433
Si Si5 0.387858 0.178920 0.622986
Si Si6 0.271385 0.068785 0.415450
Si Si7 0.608748 0.499146 0.699518
O O1 0.650054 0.239909 0.555355
O O2 0.659885 0.353183 0.335102
O O3 0.953948 0.186439 0.656717
O O4 0.380304 0.430065 0.841778
O O5 0.279583 0.205956 0.400738
O O6 0.208140 0.147592 0.189514
O O7 0.770087 0.396315 0.450506
O O8 0.145459 0.278154 0.934044
O O9 0.346499 0.358682 0.256973
O O10 0.536570 0.182552 0.490213
O O11 0.125394 0.409401 0.796477
O O12 0.835016 0.456671 0.669832
O O13 0.620375 0.036996 0.681699
O O14 0.500000 0.000000 0.500000
O O15 0.500000 0.500000 0.000000
#
# Coordination Sequence:
#
# PCOD8013976 Si02
#       7
#     2   2   2   2   2   2   2
#     4  11  24  42  70 102 141 185 232 293 354 427
#     4  11  24  44  72 101 141 182 241 290 361 422
#     4  10  22  39  68 100 144 180 234 282 358 424
#     4  10  21  41  64 105 142 178 226 288 359 421
#     4  11  24  45  72 101 135 197 236 289 348 425
#     4  10  25  48  69  98 139 188 244 298 347 413
#     4  11  24  39  68 107 141 176 227 296 363 432
#
# _framework density 24.784481
#
# number of rings (size 3 to 8) (size 9 to 14) (size 15 to 20)
#    0.000    1.429    1.429    2.571    4.000    1.714 
#   12.857    0.714    0.000    0.000    0.000    0.000 
#    0.000    0.000    0.000    0.000    0.000    0.000 
#
# Total GULP energy -173449.338800 kJ/mol
# GULP energy per Si atom -12389.238486 kJ/mol
# Density = 2.472807 g / cm^3
# Si number density = 24.784481 Si / 1000 Ang^3
#
#
#
# Elastic Constant Matrix: (Units=GPa)
#
#
# Indices 1 2 3 4 5 6 
#
# 1 135.2552 71.7720 21.4950 -12.6685 -19.0775 11.7958
# 2 71.7720 123.4483 27.6762 -6.6781 -13.1147 11.1328
# 3 21.4950 27.6762 94.2094 -11.1038 -8.7682 7.4643
# 4 -12.6685 -6.6781 -11.1038 23.3702 4.3416 -11.5938
# 5 -19.0775 -13.1147 -8.7682 4.3416 32.1327 0.4479
# 6 11.7958 11.1328 7.4643 -11.5938 0.4479 66.2274
#
#
#
# Elastic Compliance Matrix: (Units=1/GPa)
#
#
# Indices 1 2 3 4 5 6 
#
# 1 0.011530 -0.006050 -0.000037 0.003566 0.003891 -0.000435
# 2 -0.006050 0.012231 -0.002219 -0.001524 0.001015 -0.001002
# 3 -0.000037 -0.002219 0.011996 0.004641 0.001721 -0.000172
# 4 0.003566 -0.001524 0.004641 0.051311 -0.004285 0.008110
# 5 0.003891 0.001015 0.001721 -0.004285 0.034922 -0.002044
# 6 -0.000435 -0.001002 -0.000172 0.008110 -0.002044 0.016798
#
#
# Mechanical properties :
#
#
# Convention : Reuss Voigt Hill
#
# Bulk Modulus (GPa) = 52.22901 66.08880 59.15890
# Shear Modulus (GPa) = 30.90602 39.81069 35.35836
#
# Velocity S-wave (km/s) = 3.53511 4.01218 3.78118
# Velocity P-wave (km/s) = 6.14668 6.94167 6.55624
#
# Compressibility (1/GPa) = 0.01914645
#
# Stress axis : x y z
#
# Youngs Moduli (GPa) = 86.72809 81.75889 83.36417
#
# Poissons Ratio (x) = 0.49464 0.00305
# Poissons Ratio (y) = 0.52471 0.18495
# Poissons Ratio (z) = 0.00318 0.18139
#
# Static dielectric constant tensor:
#      x y z
#    x 4.767690 0.306320 -0.207880 
#    y 0.306320 4.844320 -0.161690 
#    z -0.207880 -0.161690 4.094070 
# 
# 
# High freq. dielectric constant tensor:
#      x y z
#    x 2.002540 0.016990 -0.017470 
#    y 0.016990 1.990000 -0.017780 
#    z -0.017470 -0.017780 1.955890 
# 
# From -- ./inp_files/84266.got.cif
#   From: 2010.06.25/outbox.cif.g09.slc.cpg/sg2_43_cif.got.tgz:84266.got - 2010.06.27 13:26:56.
