data_PCOD8013788
_publ_section_title
;
Structure prediction by ZEFSAII (Michael W. Deem and Ramdas Pophale) SiO2 
 PCOD8013788
Probable space group: P -1
;
_chemical_formula_sum "Si O2"
_cell_formula_units_Z 14
_cell_length_a 14.661771
_cell_length_b 13.777976
_cell_length_c 6.701411
_cell_angle_alpha 69.052032
_cell_angle_beta 70.379226
_cell_angle_gamma 31.135680
_cell_volume 652.469499
_symmetry_space_group_name_H-M "P -1"
_symmetry_group_IT_number 2
_symmetry_cell_setting 'triclinic'
loop_
_space_group_symop_operation_xyz
x,y,z
-x,-y,-z
loop_
_atom_site_type_symbol
_atom_site_label
_atom_site_fract_x
_atom_site_fract_y
_atom_site_fract_z
Si Si1 0.365671 0.213046 0.096269
Si Si2 0.804354 0.070464 0.451942
Si Si3 0.933018 0.820633 0.196202
Si Si4 0.204658 0.432488 0.444044
Si Si5 0.119210 0.759258 0.748178
Si Si6 0.263515 0.187290 0.831802
Si Si7 0.428152 0.338873 0.664354
O O1 0.243519 0.377122 0.225406
O O2 0.526747 0.005548 0.232693
O O3 0.244083 0.242581 0.035295
O O4 0.450597 0.223497 0.883596
O O5 0.826644 0.170877 0.315008
O O6 0.616322 0.224025 0.583031
O O7 0.810213 0.006274 0.281887
O O8 0.956974 0.892270 0.617188
O O9 0.817962 0.852915 0.108422
O O10 0.032946 0.659235 0.403768
O O11 0.067403 0.765031 0.001524
O O12 0.166167 0.357704 0.635689
O O13 0.364507 0.350367 0.490981
O O14 0.287667 0.546808 0.698386
#
# Coordination Sequence:
#
# PCOD8013788 Si02
#       7
#     2   2   2   2   2   2   2
#     4  10  21  41  61  94 129 166 214 259 307 386
#     4  11  25  43  69  94 126 169 214 265 322 371
#     4  12  23  42  64  95 132 167 211 265 315 377
#     4  11  22  39  63  94 132 166 210 258 314 381
#     4  11  24  45  66  96 127 165 218 266 314 380
#     4  10  23  37  62  95 125 172 210 256 315 378
#     4  11  22  43  67  94 131 168 208 264 319 373
#
# _framework density 21.456942999999999
#
# number of rings (size 3 to 8) (size 9 to 14) (size 15 to 20)
#    0.000    1.143    2.857    3.429    0.000    4.000 
#    0.000    0.714    0.000    0.000    0.000    0.000 
#    0.000    0.000    0.000    0.000    0.000    0.000 
#
# Total GULP energy -173643.805949 kJ/mol
# GULP energy per Si atom -12403.128996 kJ/mol
# Density = 2.140811 g / cm^3
# Si number density = 21.456943 Si / 1000 Ang^3
#
#
#
# Elastic Constant Matrix: (Units=GPa)
#
#
# Indices 1 2 3 4 5 6 
#
# 1 122.1858 41.4880 44.2557 6.3629 1.9943 6.8241
# 2 41.4880 114.7998 40.0149 10.3981 0.1964 9.9729
# 3 44.2557 40.0149 85.2041 9.7283 5.6656 7.7866
# 4 6.3629 10.3981 9.7283 34.9773 2.4113 -1.7866
# 5 1.9943 0.1964 5.6656 2.4113 24.7276 1.8147
# 6 6.8241 9.9729 7.7866 -1.7866 1.8147 32.3937
#
#
#
# Elastic Compliance Matrix: (Units=1/GPa)
#
#
# Indices 1 2 3 4 5 6 
#
# 1 0.010564 -0.002235 -0.004398 -0.000074 0.000217 -0.000496
# 2 -0.002235 0.011208 -0.003744 -0.002091 0.001320 -0.002269
# 3 -0.004398 -0.003744 0.016438 -0.002546 -0.002998 -0.001845
# 4 -0.000074 -0.002091 -0.002546 0.030268 -0.002572 0.003085
# 5 0.000217 0.001320 -0.002998 -0.002572 0.041512 -0.002199
# 6 -0.000496 -0.002269 -0.001845 0.003085 -0.002199 0.032410
#
#
# Mechanical properties :
#
#
# Convention : Reuss Voigt Hill
#
# Bulk Modulus (GPa) = 57.29017 63.74519 60.51768
# Shear Modulus (GPa) = 29.59043 31.51512 30.55278
#
# Velocity S-wave (km/s) = 3.71760 3.83660 3.77757
# Velocity P-wave (km/s) = 6.72201 7.02844 6.87693
#
# Compressibility (1/GPa) = 0.01745500
#
# Stress axis : x y z
#
# Youngs Moduli (GPa) = 94.65868 89.22192 60.83498
#
# Poissons Ratio (x) = 0.19945 0.26755
# Poissons Ratio (y) = 0.21160 0.22778
# Poissons Ratio (z) = 0.41630 0.33407
#
# Static dielectric constant tensor:
#      x y z
#    x 3.916770 0.159140 0.115930 
#    y 0.159140 3.840010 -0.143910 
#    z 0.115930 -0.143910 3.749820 
# 
# 
# High freq. dielectric constant tensor:
#      x y z
#    x 1.849150 0.012500 0.008660 
#    y 0.012500 1.850280 -0.008120 
#    z 0.008660 -0.008120 1.838600 
# 
# From -- ./inp_files/32688.got.cif
#   From: 2010.06.25/outbox.cif.g09.slc.cpg/sg2_17_cif.got.tgz:32688.got - 2010.06.27 13:26:56.
