data_PCOD8013517
_publ_section_title
;
Structure prediction by ZEFSAII (Michael W. Deem and Ramdas Pophale) SiO2 
 PCOD8013517
Probable space group: P -1
;
_chemical_formula_sum "Si O2"
_cell_formula_units_Z 14
_cell_length_a 8.839791
_cell_length_b 9.093353
_cell_length_c 18.133516
_cell_angle_alpha 55.765379
_cell_angle_beta 147.430674
_cell_angle_gamma 118.564010
_cell_volume 648.694031
_symmetry_space_group_name_H-M "P -1"
_symmetry_group_IT_number 2
_symmetry_cell_setting 'triclinic'
loop_
_space_group_symop_operation_xyz
x,y,z
-x,-y,-z
loop_
_atom_site_type_symbol
_atom_site_label
_atom_site_fract_x
_atom_site_fract_y
_atom_site_fract_z
Si Si1 0.266726 0.159817 0.162256
Si Si2 0.767937 0.014084 0.336512
Si Si3 0.027687 0.496213 0.924255
Si Si4 0.554927 0.416406 0.321830
Si Si5 0.914327 0.738117 0.347514
Si Si6 0.407588 0.696171 0.924414
Si Si7 0.785012 0.935689 0.098901
O O1 0.454975 0.003880 0.247439
O O2 0.464198 0.257754 0.275312
O O3 0.177258 0.306380 0.021423
O O4 0.981873 0.086284 0.102041
O O5 0.770884 0.205314 0.241267
O O6 0.807922 0.857079 0.338658
O O7 0.000000 0.000000 0.500000
O O8 0.197437 0.668251 0.915742
O O9 0.708577 0.510893 0.758993
O O10 0.000000 0.500000 0.000000
O O11 0.688069 0.581275 0.284258
O O12 0.781802 0.342931 0.491961
O O13 0.960848 0.844774 0.261474
O O14 0.500000 0.500000 0.000000
O O15 0.687578 0.805272 0.030278
O O16 0.500000 0.000000 0.000000
#
# Coordination Sequence:
#
# PCOD8013517 Si02
#       7
#     2   2   2   2   2   2   2
#     4  11  23  42  70  98 140 177 228 285 340 413
#     4  12  26  45  68 104 141 182 226 286 349 403
#     4  10  21  40  68  97 131 177 231 276 334 410
#     4  10  22  41  67  99 128 184 224 278 343 404
#     4  11  24  42  72  94 140 178 228 285 343 407
#     4  12  26  45  70  99 142 183 223 287 343 411
#     4  12  24  42  67 106 130 175 236 284 337 404
#
# _framework density 21.581824999999998
#
# number of rings (size 3 to 8) (size 9 to 14) (size 15 to 20)
#    0.000    0.857    4.286    4.286    0.000    3.429 
#    0.000    0.000    0.000    4.286    0.000    0.000 
#    0.000    0.000    0.000    0.000    0.000    0.000 
#
# Total GULP energy -173506.806116 kJ/mol
# GULP energy per Si atom -12393.343294 kJ/mol
# Density = 2.153270 g / cm^3
# Si number density = 21.581825 Si / 1000 Ang^3
#
#
#
# Elastic Constant Matrix: (Units=GPa)
#
#
# Indices 1 2 3 4 5 6 
#
# 1 77.4914 32.1255 48.2903 3.4421 -1.0769 19.0960
# 2 32.1255 110.6457 47.6016 10.1409 -3.8642 15.6528
# 3 48.2903 47.6016 126.3886 -9.8456 6.5536 9.0617
# 4 3.4421 10.1409 -9.8456 39.2050 1.7512 2.5176
# 5 -1.0769 -3.8642 6.5536 1.7512 43.5182 -4.6861
# 6 19.0960 15.6528 9.0617 2.5176 -4.6861 47.0582
#
#
#
# Elastic Compliance Matrix: (Units=1/GPa)
#
#
# Indices 1 2 3 4 5 6 
#
# 1 0.019223 -0.001693 -0.006534 -0.002556 0.000792 -0.005764
# 2 -0.001693 0.012018 -0.004112 -0.003924 0.001571 -0.002152
# 3 -0.006534 -0.004112 0.012376 0.004782 -0.002461 0.001135
# 4 -0.002556 -0.003924 0.004782 0.028070 -0.002295 -0.000309
# 5 0.000792 0.001571 -0.002461 -0.002295 0.023830 0.002126
# 6 -0.005764 -0.002152 0.001135 -0.000309 0.002126 0.024315
#
#
# Mechanical properties :
#
#
# Convention : Reuss Voigt Hill
#
# Bulk Modulus (GPa) = 52.80260 63.39559 58.09909
# Shear Modulus (GPa) = 33.15159 38.39018 35.77089
#
# Velocity S-wave (km/s) = 3.92355 4.22218 4.07560
# Velocity P-wave (km/s) = 6.71156 7.29434 7.00901
#
# Compressibility (1/GPa) = 0.01893846
#
# Stress axis : x y z
#
# Youngs Moduli (GPa) = 52.02040 83.21176 80.80081
#
# Poissons Ratio (x) = 0.14088 0.52795
# Poissons Ratio (y) = 0.08807 0.33226
# Poissons Ratio (z) = 0.33990 0.34218
#
# Static dielectric constant tensor:
#      x y z
#    x 4.351670 0.136390 0.341890 
#    y 0.136390 4.109470 -0.367220 
#    z 0.341890 -0.367220 4.161250 
# 
# 
# High freq. dielectric constant tensor:
#      x y z
#    x 1.849800 0.001720 0.011060 
#    y 0.001720 1.848150 -0.013440 
#    z 0.011060 -0.013440 1.855570 
# 
# From -- ./inp_files/316160.got.cif
#   From: 2010.06.25/outbox.cif.g09.slc.cpg/sg2_159_cif.got.tgz:316160.got - 2010.06.27 13:26:56.
