data_PCOD8013577
_publ_section_title
;
Structure prediction by ZEFSAII (Michael W. Deem and Ramdas Pophale) SiO2 
 PCOD8013577
Probable space group: P -1
;
_chemical_formula_sum "Si O2"
_cell_formula_units_Z 12
_cell_length_a 8.597532
_cell_length_b 14.394427
_cell_length_c 8.166421
_cell_angle_alpha 132.563374
_cell_angle_beta 50.461834
_cell_angle_gamma 101.321627
_cell_volume 522.957060
_symmetry_space_group_name_H-M "P -1"
_symmetry_group_IT_number 2
_symmetry_cell_setting 'triclinic'
loop_
_space_group_symop_operation_xyz
x,y,z
-x,-y,-z
loop_
_atom_site_type_symbol
_atom_site_label
_atom_site_fract_x
_atom_site_fract_y
_atom_site_fract_z
Si Si1 0.354232 0.422813 0.564352
Si Si2 0.751369 0.976620 0.318260
Si Si3 0.807736 0.879140 0.514693
Si Si4 0.368037 0.864023 0.856639
Si Si5 0.940157 0.390772 0.758797
Si Si6 0.132264 0.809499 0.650254
O O1 0.500000 0.500000 0.500000
O O2 0.509259 0.261030 0.250020
O O3 0.130057 0.442527 0.637507
O O4 0.266033 0.478469 0.872830
O O5 0.875012 0.889998 0.294024
O O6 0.500000 0.000000 0.500000
O O7 0.776948 0.122409 0.473707
O O8 0.873559 0.901390 0.977984
O O9 0.550430 0.907319 0.705228
O O10 0.961452 0.732031 0.316276
O O11 0.816467 0.005017 0.768689
O O12 0.266723 0.796889 0.710305
O O13 0.849249 0.338867 0.601019
#
# Coordination Sequence:
#
# PCOD8013577 Si02
#       6
#     2   2   2   2   2   2
#     4  10  24  44  67  87 124 173 213 250 320 381
#     4  11  23  37  61  99 135 162 203 261 325 367
#     4  10  21  40  69  92 128 168 207 259 314 372
#     4  10  22  41  65  98 125 163 216 258 308 380
#     4  10  24  44  64  93 129 162 212 266 307 378
#     4  11  24  38  61  99 130 159 213 266 309 370
#
# _framework density 22.946435000000001
#
# number of rings (size 3 to 8) (size 9 to 14) (size 15 to 20)
#    0.000    1.667    1.667    2.000    9.333    2.000 
#    0.000    0.833    0.000    0.000    0.000    0.000 
#    0.000    0.000    0.000    0.000    0.000    0.000 
#
# Total GULP energy -148705.337641 kJ/mol
# GULP energy per Si atom -12392.111470 kJ/mol
# Density = 2.289421 g / cm^3
# Si number density = 22.946435 Si / 1000 Ang^3
#
#
#
# Elastic Constant Matrix: (Units=GPa)
#
#
# Indices 1 2 3 4 5 6 
#
# 1 96.2301 24.3445 20.1097 -9.0610 20.5638 28.3100
# 2 24.3445 108.2090 18.6905 -13.8498 2.5370 23.3643
# 3 20.1097 18.6905 71.3275 9.8442 8.6434 17.1290
# 4 -9.0610 -13.8498 9.8442 33.0622 7.3229 2.7046
# 5 20.5638 2.5370 8.6434 7.3229 44.1755 6.5854
# 6 28.3100 23.3643 17.1290 2.7046 6.5854 44.6054
#
#
#
# Elastic Compliance Matrix: (Units=1/GPa)
#
#
# Indices 1 2 3 4 5 6 
#
# 1 0.015457 -0.000225 -0.002500 0.007026 -0.006639 -0.008178
# 2 -0.000225 0.011660 -0.002517 0.006071 -0.000285 -0.005324
# 3 -0.002500 -0.002517 0.017104 -0.006462 -0.000490 -0.003199
# 4 0.007026 0.006071 -0.006462 0.038898 -0.007855 -0.006356
# 5 -0.006639 -0.000285 -0.000490 -0.007855 0.026986 0.001043
# 6 -0.008178 -0.005324 -0.003199 -0.006356 0.001043 0.031858
#
#
# Mechanical properties :
#
#
# Convention : Reuss Voigt Hill
#
# Bulk Modulus (GPa) = 29.64071 44.67288 37.15680
# Shear Modulus (GPa) = 30.54497 38.54341 34.54419
#
# Velocity S-wave (km/s) = 3.65244 4.10288 3.88419
# Velocity P-wave (km/s) = 5.54369 6.47730 6.02859
#
# Compressibility (1/GPa) = 0.03373738
#
# Stress axis : x y z
#
# Youngs Moduli (GPa) = 64.69399 85.76354 58.46729
#
# Poissons Ratio (x) = 0.01929 0.14618
# Poissons Ratio (y) = 0.01455 0.14714
# Poissons Ratio (z) = 0.16175 0.21584
#
# Static dielectric constant tensor:
#      x y z
#    x 4.026530 0.378390 0.010180 
#    y 0.378390 4.164230 -0.019860 
#    z 0.010180 -0.019860 4.141880 
# 
# 
# High freq. dielectric constant tensor:
#      x y z
#    x 1.906120 0.033880 -0.002220 
#    y 0.033880 1.897490 -0.002770 
#    z -0.002220 -0.002770 1.896810 
# 
# From -- ./inp_files/204633.got.cif
#   From: 2010.06.25/outbox.cif.g09.slc.cpg/sg2_103_cif.got.tgz:204633.got - 2010.06.27 13:26:56.
