data_PCOD8013039
_publ_section_title
;
Structure prediction by ZEFSAII (Michael W. Deem and Ramdas Pophale) SiO2 
 PCOD8013039
Probable space group: P -1
;
_chemical_formula_sum "Si O2"
_cell_formula_units_Z 16
_cell_length_a 28.372231
_cell_length_b 15.539344
_cell_length_c 18.982352
_cell_angle_alpha 161.336966
_cell_angle_beta 160.505519
_cell_angle_gamma 19.832377
_cell_volume 800.100029
_symmetry_space_group_name_H-M "P -1"
_symmetry_group_IT_number 2
_symmetry_cell_setting 'triclinic'
loop_
_space_group_symop_operation_xyz
x,y,z
-x,-y,-z
loop_
_atom_site_type_symbol
_atom_site_label
_atom_site_fract_x
_atom_site_fract_y
_atom_site_fract_z
Si Si1 0.882024 0.865062 0.240635
Si Si2 0.520957 0.078636 0.253955
Si Si3 0.056527 0.169248 0.960630
Si Si4 0.336380 0.157652 0.433149
Si Si5 0.502509 0.070373 0.382299
Si Si6 0.721494 0.263835 0.584265
Si Si7 0.635831 0.236260 0.288345
Si Si8 0.265232 0.838912 0.873439
O O1 0.797366 0.990725 0.292651
O O2 0.757102 0.976524 0.087647
O O3 0.000000 0.000000 0.500000
O O4 0.981603 0.514349 0.104281
O O5 0.564914 0.977851 0.318837
O O6 0.659684 0.150219 0.475899
O O7 0.350108 0.372169 0.233979
O O8 0.509840 0.815533 0.988152
O O9 0.911929 0.107091 0.736970
O O10 0.119530 0.984848 0.834605
O O11 0.199912 0.083596 0.150838
O O12 0.286913 0.509297 0.633011
O O13 0.500000 0.000000 0.500000
O O14 0.351550 0.032753 0.437640
O O15 0.392756 0.427571 0.510648
O O16 0.417106 0.874828 0.142725
O O17 0.654877 0.177712 0.353211
#
# Coordination Sequence:
#
# PCOD8013039 Si02
#       8
#     2   2   2   2   2   2   2   2
#     4  12  20  35  58  93 128 152 191 244 318 365
#     4  10  21  40  65  88 127 158 202 260 297 370
#     4  12  24  39  60  92 130 163 196 256 304 369
#     4  12  26  42  61  89 123 171 210 245 300 365
#     4  11  23  39  62  91 118 165 216 243 299 361
#     4  10  22  39  61  97 121 159 204 247 320 361
#     4  11  20  38  63  92 123 159 196 255 309 364
#     4  12  23  40  62  89 127 162 198 258 304 369
#
# _framework density 19.997499999999999
#
# number of rings (size 3 to 8) (size 9 to 14) (size 15 to 20)
#    0.000    0.750    5.000    4.125    0.000    0.000 
#    0.000    0.625    0.000    1.500    0.000    0.000 
#    0.000    0.000    0.000    0.000    0.000    0.000 
#
# Total GULP energy -198379.047389 kJ/mol
# GULP energy per Si atom -12398.690462 kJ/mol
# Density = 1.995198 g / cm^3
# Si number density = 19.997500 Si / 1000 Ang^3
#
#
#
# Elastic Constant Matrix: (Units=GPa)
#
#
# Indices 1 2 3 4 5 6 
#
# 1 113.8382 39.9784 40.9037 -12.7749 -6.5515 -3.3194
# 2 39.9784 70.0859 28.8475 -9.0362 -8.3361 -7.2407
# 3 40.9037 28.8475 89.4417 -3.3682 -12.2083 -3.8016
# 4 -12.7749 -9.0362 -3.3682 34.6249 -2.0053 -8.8679
# 5 -6.5515 -8.3361 -12.2083 -2.0053 31.2168 -3.1421
# 6 -3.3194 -7.2407 -3.8016 -8.8679 -3.1421 30.4760
#
#
#
# Elastic Compliance Matrix: (Units=1/GPa)
#
#
# Indices 1 2 3 4 5 6 
#
# 1 0.012272 -0.004964 -0.003878 0.002993 -0.000020 0.000542
# 2 -0.004964 0.020103 -0.003260 0.004764 0.003923 0.005620
# 3 -0.003878 -0.003260 0.014589 -0.000387 0.004090 0.000932
# 4 0.002993 0.004764 -0.000387 0.034564 0.005177 0.012001
# 5 -0.000020 0.003923 0.004090 0.005177 0.035676 0.006625
# 6 0.000542 0.005620 0.000932 0.012001 0.006625 0.038498
#
#
# Mechanical properties :
#
#
# Convention : Reuss Voigt Hill
#
# Bulk Modulus (GPa) = 43.93807 54.75833 49.34820
# Shear Modulus (GPa) = 26.66765 30.17262 28.42014
#
# Velocity S-wave (km/s) = 3.65574 3.88857 3.77395
# Velocity P-wave (km/s) = 6.31179 6.89951 6.61219
#
# Compressibility (1/GPa) = 0.02275931
#
# Stress axis : x y z
#
# Youngs Moduli (GPa) = 81.48820 49.74330 68.54656
#
# Poissons Ratio (x) = 0.24695 0.26582
# Poissons Ratio (y) = 0.40454 0.22344
# Poissons Ratio (z) = 0.31601 0.16215
#
# Static dielectric constant tensor:
#      x y z
#    x 3.482550 -0.118080 -0.162690 
#    y -0.118080 3.480660 -0.032880 
#    z -0.162690 -0.032880 3.794810 
# 
# 
# High freq. dielectric constant tensor:
#      x y z
#    x 1.779790 -0.006140 -0.015200 
#    y -0.006140 1.757750 0.002630 
#    z -0.015200 0.002630 1.796220 
# 
# From -- ./inp_files/81666.got.cif
#   From: 2010.06.25/outbox.cif.g09.slc.cpg/sg2_41_cif.got.tgz:81666.got - 2010.06.27 13:26:56.
