data_PCOD8013680
_publ_section_title
;
Structure prediction by ZEFSAII (Michael W. Deem and Ramdas Pophale) SiO2 
 PCOD8013680
Probable space group: P -1
;
_chemical_formula_sum "Si O2"
_cell_formula_units_Z 16
_cell_length_a 16.151864
_cell_length_b 9.583859
_cell_length_c 14.262705
_cell_angle_alpha 87.504841
_cell_angle_beta 151.875662
_cell_angle_gamma 72.580126
_cell_volume 724.550615
_symmetry_space_group_name_H-M "P -1"
_symmetry_group_IT_number 2
_symmetry_cell_setting 'triclinic'
loop_
_space_group_symop_operation_xyz
x,y,z
-x,-y,-z
loop_
_atom_site_type_symbol
_atom_site_label
_atom_site_fract_x
_atom_site_fract_y
_atom_site_fract_z
Si Si1 0.285760 0.822038 0.254469
Si Si2 0.143161 0.656746 0.825141
Si Si3 0.580177 0.525101 0.711120
Si Si4 0.181147 0.753202 0.446619
Si Si5 0.391585 0.940288 0.697662
Si Si6 0.529415 0.654253 0.182197
Si Si7 0.280509 0.367686 0.817720
Si Si8 0.388949 0.939959 0.180965
O O1 0.497525 0.695089 0.551821
O O2 0.283825 0.678991 0.199558
O O3 0.376656 0.898418 0.277769
O O4 0.000000 0.000000 0.000000
O O5 0.271081 0.507724 0.870099
O O6 0.230262 0.532968 0.014394
O O7 0.253883 0.750074 0.929006
O O8 0.844621 0.831792 0.511700
O O9 0.315036 0.623675 0.488184
O O10 0.297788 0.840064 0.579514
O O11 0.261996 0.589070 0.607245
O O12 0.885328 0.923573 0.141289
O O13 0.520028 0.950231 0.738071
O O14 0.594174 0.825598 0.988220
O O15 0.533313 0.720507 0.081679
O O16 0.578919 0.740338 0.311053
O O17 0.000000 0.500000 0.500000
#
# Coordination Sequence:
#
# PCOD8013680 Si02
#       8
#     2   2   2   2   2   2   2   2
#     4  11  21  39  72 105 135 174 233 279 337 413
#     4  11  23  44  68  96 136 182 229 280 339 409
#     4  10  21  40  71  98 130 183 223 277 341 403
#     4  11  21  44  69  93 138 181 223 276 341 406
#     4  12  26  42  71  98 141 180 226 287 344 404
#     4  11  23  43  70  94 136 187 227 274 347 399
#     4  12  26  44  66 102 137 180 237 286 336 411
#     4  12  24  43  68 106 135 181 228 283 347 405
#
# _framework density 22.082654000000002
#
# number of rings (size 3 to 8) (size 9 to 14) (size 15 to 20)
#    0.000    0.750    7.500    1.875    0.000    3.500 
#    0.000    1.250    0.000    0.000    0.000    0.000 
#    0.000    0.000    0.000    0.000    0.000    0.000 
#
# Total GULP energy -198260.611964 kJ/mol
# GULP energy per Si atom -12391.288248 kJ/mol
# Density = 2.203239 g / cm^3
# Si number density = 22.082654 Si / 1000 Ang^3
#
#
#
# Elastic Constant Matrix: (Units=GPa)
#
#
# Indices 1 2 3 4 5 6 
#
# 1 142.4292 30.6626 38.8388 -13.7961 -6.9544 9.7091
# 2 30.6626 68.6042 21.6788 -6.9828 5.6540 3.5237
# 3 38.8388 21.6788 121.9903 -11.5028 -6.2214 13.2247
# 4 -13.7961 -6.9828 -11.5028 29.4568 -2.2798 0.9828
# 5 -6.9544 5.6540 -6.2214 -2.2798 26.1329 -3.6557
# 6 9.7091 3.5237 13.2247 0.9828 -3.6557 42.8543
#
#
#
# Elastic Compliance Matrix: (Units=1/GPa)
#
#
# Indices 1 2 3 4 5 6 
#
# 1 0.008648 -0.003218 -0.001661 0.002882 0.002711 -0.001017
# 2 -0.003218 0.017266 -0.002116 0.001386 -0.005045 -0.000500
# 3 -0.001661 -0.002116 0.009730 0.002772 0.002249 -0.002324
# 4 0.002882 0.001386 0.002772 0.037094 0.004066 -0.002126
# 5 0.002711 -0.005045 0.002249 0.004066 0.041324 0.002538
# 6 -0.001017 -0.000500 -0.002324 -0.002126 0.002538 0.024589
#
#
# Mechanical properties :
#
#
# Convention : Reuss Voigt Hill
#
# Bulk Modulus (GPa) = 46.18248 57.26490 51.72369
# Shear Modulus (GPa) = 31.27746 35.81169 33.54458
#
# Velocity S-wave (km/s) = 3.76757 4.03142 3.90172
# Velocity P-wave (km/s) = 6.31545 6.90349 6.61601
#
# Compressibility (1/GPa) = 0.02165323
#
# Stress axis : x y z
#
# Youngs Moduli (GPa) = 115.63809 57.91784 102.77201
#
# Poissons Ratio (x) = 0.18638 0.17071
# Poissons Ratio (y) = 0.37213 0.21749
# Poissons Ratio (z) = 0.19208 0.12257
#
# Static dielectric constant tensor:
#      x y z
#    x 4.289180 -0.029730 -0.218650 
#    y -0.029730 3.945650 -0.261500 
#    z -0.218650 -0.261500 4.120870 
# 
# 
# High freq. dielectric constant tensor:
#      x y z
#    x 1.872710 -0.001530 -0.003220 
#    y -0.001530 1.857450 -0.025900 
#    z -0.003220 -0.025900 1.867760 
# 
# From -- ./inp_files/529698.got.cif
#   From: 2010.06.25/outbox.cif.g09.slc.cpg/sg2_265_cif.got.tgz:529698.got - 2010.06.27 13:26:56.
