data_PCOD8013655
_publ_section_title
;
Structure prediction by ZEFSAII (Michael W. Deem and Ramdas Pophale) SiO2 
 PCOD8013655
Probable space group: P -1
;
_chemical_formula_sum "Si O2"
_cell_formula_units_Z 16
_cell_length_a 15.491115
_cell_length_b 13.209647
_cell_length_c 9.481786
_cell_angle_alpha 147.611694
_cell_angle_beta 40.064498
_cell_angle_gamma 135.871497
_cell_volume 654.407726
_symmetry_space_group_name_H-M "P -1"
_symmetry_group_IT_number 2
_symmetry_cell_setting 'triclinic'
loop_
_space_group_symop_operation_xyz
x,y,z
-x,-y,-z
loop_
_atom_site_type_symbol
_atom_site_label
_atom_site_fract_x
_atom_site_fract_y
_atom_site_fract_z
Si Si1 0.478807 0.589596 0.782691
Si Si2 0.927514 0.766372 0.410461
Si Si3 0.190228 0.633573 0.814408
Si Si4 0.747422 0.590739 0.951781
Si Si5 0.631012 0.121209 0.901268
Si Si6 0.864265 0.897551 0.358669
Si Si7 0.376694 0.221943 0.924495
Si Si8 0.315212 0.786061 0.545456
O O1 0.500000 0.500000 0.500000
O O2 0.377710 0.422280 0.797076
O O3 0.416209 0.783461 0.068976
O O4 0.612294 0.664748 0.804293
O O5 0.846356 0.600045 0.417914
O O6 0.830789 0.822072 0.472826
O O7 0.990565 0.949379 0.645837
O O8 0.050799 0.705653 0.099035
O O9 0.261864 0.735093 0.707671
O O10 0.297137 0.696763 0.880583
O O11 0.875594 0.727754 0.032646
O O12 0.713655 0.677628 0.947514
O O13 0.774697 0.375567 0.636368
O O14 0.738416 0.990295 0.571904
O O15 0.500000 0.000000 0.000000
O O16 0.527427 0.236692 0.688102
O O17 0.298437 0.000314 0.780670
#
# Coordination Sequence:
#
# PCOD8013655 Si02
#       8
#     2   2   2   2   2   2   2   2
#     4  11  23  38  62  97 139 182 223 268 326 418
#     4   9  21  46  67  95 131 177 239 292 339 377
#     4  10  21  40  70  97 130 182 230 287 336 408
#     4  11  24  41  64  98 134 184 220 274 346 408
#     4  11  23  35  63 107 140 168 222 280 351 408
#     4  10  22  42  67  92 136 179 224 290 337 404
#     4  10  24  43  63  94 153 184 211 269 348 430
#     4  10  22  41  65  96 136 187 217 268 344 420
#
# _framework density 24.449590000000001
#
# number of rings (size 3 to 8) (size 9 to 14) (size 15 to 20)
#    0.000    1.750    0.000    3.750   10.500    1.000 
#    6.750    1.250    0.000    0.000    0.000    0.000 
#    0.000    0.000    0.000    0.000    0.000    0.000 
#
# Total GULP energy -198359.002089 kJ/mol
# GULP energy per Si atom -12397.437631 kJ/mol
# Density = 2.439394 g / cm^3
# Si number density = 24.449590 Si / 1000 Ang^3
#
#
#
# Elastic Constant Matrix: (Units=GPa)
#
#
# Indices 1 2 3 4 5 6 
#
# 1 112.5847 37.0541 34.1844 18.7035 21.4660 -6.2865
# 2 37.0541 141.9514 45.8628 28.9564 14.8547 -15.8764
# 3 34.1844 45.8628 69.5922 16.4452 35.7004 6.0313
# 4 18.7035 28.9564 16.4452 48.6329 12.7389 11.6964
# 5 21.4660 14.8547 35.7004 12.7389 43.9052 8.5271
# 6 -6.2865 -15.8764 6.0313 11.6964 8.5271 33.9224
#
#
#
# Elastic Compliance Matrix: (Units=1/GPa)
#
#
# Indices 1 2 3 4 5 6 
#
# 1 0.011371 -0.000337 -0.003811 -0.003346 -0.002219 0.004339
# 2 -0.000337 0.011938 -0.008552 -0.007063 0.003457 0.008612
# 3 -0.003811 -0.008552 0.032833 0.002535 -0.021508 -0.006014
# 4 -0.003346 -0.007063 0.002535 0.029494 -0.003962 -0.013550
# 5 -0.002219 0.003457 -0.021508 -0.003962 0.042145 -0.004197
# 6 0.004339 0.008612 -0.006014 -0.013550 -0.004197 0.041110
#
#
# Mechanical properties :
#
#
# Convention : Reuss Voigt Hill
#
# Bulk Modulus (GPa) = 32.52839 62.03679 47.28259
# Shear Modulus (GPa) = 24.44520 39.09391 31.76955
#
# Velocity S-wave (km/s) = 3.16542 4.00304 3.60862
# Velocity P-wave (km/s) = 5.16653 6.84063 6.06165
#
# Compressibility (1/GPa) = 0.03074238
#
# Stress axis : x y z
#
# Youngs Moduli (GPa) = 87.93985 83.76582 30.45700
#
# Poissons Ratio (x) = 0.02824 0.11606
# Poissons Ratio (y) = 0.02965 0.26048
# Poissons Ratio (z) = 0.33510 0.71640
#
# Static dielectric constant tensor:
#      x y z
#    x 4.403350 0.006850 0.136510 
#    y 0.006850 4.601110 0.447050 
#    z 0.136510 0.447050 4.437910 
# 
# 
# High freq. dielectric constant tensor:
#      x y z
#    x 1.962060 -0.005890 0.012170 
#    y -0.005890 1.982330 0.024910 
#    z 0.012170 0.024910 1.965090 
# 
# From -- ./inp_files/308693.got.cif
#   From: 2010.06.25/outbox.cif.g09.slc.cpg/sg2_155_cif.got.tgz:308693.got - 2010.06.27 13:26:56.
