data_PCOD8013292
_publ_section_title
;
Structure prediction by ZEFSAII (Michael W. Deem and Ramdas Pophale) SiO2 
 PCOD8013292
Probable space group: P -1
;
_chemical_formula_sum "Si O2"
_cell_formula_units_Z 16
_cell_length_a 14.044267
_cell_length_b 11.601033
_cell_length_c 8.231818
_cell_angle_alpha 34.760047
_cell_angle_beta 110.905100
_cell_angle_gamma 100.544331
_cell_volume 698.890094
_symmetry_space_group_name_H-M "P -1"
_symmetry_group_IT_number 2
_symmetry_cell_setting 'triclinic'
loop_
_space_group_symop_operation_xyz
x,y,z
-x,-y,-z
loop_
_atom_site_type_symbol
_atom_site_label
_atom_site_fract_x
_atom_site_fract_y
_atom_site_fract_z
Si Si1 0.134092 0.748188 0.803078
Si Si2 0.633097 0.881646 0.568212
Si Si3 0.602486 0.152538 0.550457
Si Si4 0.095483 0.613777 0.412097
Si Si5 0.622748 0.958465 0.121411
Si Si6 0.803954 0.639224 0.512056
Si Si7 0.263090 0.573385 0.814838
Si Si8 0.074951 0.022089 0.742238
O O1 0.240402 0.711522 0.804956
O O2 0.031533 0.827162 0.544528
O O3 0.140911 0.916675 0.749649
O O4 0.129729 0.522061 0.134116
O O5 0.521143 0.817595 0.560286
O O6 0.647582 0.992434 0.618467
O O7 0.652040 0.010637 0.266020
O O8 0.717218 0.669470 0.860157
O O9 0.639509 0.365612 0.289783
O O10 0.651923 0.088439 0.834008
O O11 0.188522 0.479263 0.516833
O O12 0.150548 0.635765 0.589028
O O13 0.000000 0.500000 0.500000
O O14 0.050941 0.843625 0.051503
O O15 0.682250 0.720251 0.396048
O O16 0.500000 0.000000 0.000000
O O17 0.853135 0.841390 0.287365
#
# Coordination Sequence:
#
# PCOD8013292 Si02
#       8
#     2   2   2   2   2   2   2   2
#     4  10  23  38  62  93 126 167 218 272 334 393
#     4  10  22  43  65  97 138 174 221 279 333 399
#     4  10  23  41  66  99 134 177 223 274 335 402
#     4  11  26  42  64  96 134 173 223 282 345 403
#     4  10  21  40  66  96 133 176 219 271 334 397
#     4  11  21  42  65  89 131 173 220 274 333 404
#     4  12  23  40  66  96 129 173 222 272 337 401
#     4  10  23  42  62  91 127 169 223 269 331 410
#
# _framework density 22.893442
#
# number of rings (size 3 to 8) (size 9 to 14) (size 15 to 20)
#    0.000    1.500    1.250    3.000    1.750    6.000 
#    0.000    0.000    0.000    9.000    0.000    0.000 
#    0.000    0.000    0.000    0.000    0.000    0.000 
#
# Total GULP energy -198224.651615 kJ/mol
# GULP energy per Si atom -12389.040726 kJ/mol
# Density = 2.284134 g / cm^3
# Si number density = 22.893442 Si / 1000 Ang^3
#
#
#
# Elastic Constant Matrix: (Units=GPa)
#
#
# Indices 1 2 3 4 5 6 
#
# 1 72.1172 19.1172 41.4227 -3.6030 -5.4565 -13.3638
# 2 19.1172 79.8819 38.6658 6.7687 -13.8523 -20.1281
# 3 41.4227 38.6658 132.0820 5.2115 2.1643 -6.4607
# 4 -3.6030 6.7687 5.2115 34.6716 -11.1864 -2.8736
# 5 -5.4565 -13.8523 2.1643 -11.1864 37.7022 -7.4129
# 6 -13.3638 -20.1281 -6.4607 -2.8736 -7.4129 43.5614
#
#
#
# Elastic Compliance Matrix: (Units=1/GPa)
#
#
# Indices 1 2 3 4 5 6 
#
# 1 0.019261 0.000770 -0.006252 0.005407 0.006366 0.006778
# 2 0.000770 0.019141 -0.005562 0.001161 0.009773 0.009996
# 3 -0.006252 -0.005562 0.011184 -0.003298 -0.005347 -0.003957
# 4 0.005407 0.001161 -0.003298 0.034307 0.012786 0.006145
# 5 0.006366 0.009773 -0.005347 0.012786 0.037679 0.012931
# 6 0.006778 0.009996 -0.003957 0.006145 0.012931 0.031673
#
#
# Mechanical properties :
#
#
# Convention : Reuss Voigt Hill
#
# Bulk Modulus (GPa) = 36.36503 53.61028 44.98765
# Shear Modulus (GPa) = 27.10026 35.51207 31.30616
#
# Velocity S-wave (km/s) = 3.44431 3.94279 3.70195
# Velocity P-wave (km/s) = 5.63353 6.64798 6.16166
#
# Compressibility (1/GPa) = 0.02749895
#
# Stress axis : x y z
#
# Youngs Moduli (GPa) = 51.91847 52.24263 89.41123
#
# Poissons Ratio (x) = -0.04025 0.55901
# Poissons Ratio (y) = -0.04000 0.49732
# Poissons Ratio (z) = 0.32460 0.29058
#
# Static dielectric constant tensor:
#      x y z
#    x 4.139480 -0.504990 0.033360 
#    y -0.504990 4.198850 0.251280 
#    z 0.033360 0.251280 4.290760 
# 
# 
# High freq. dielectric constant tensor:
#      x y z
#    x 1.903080 -0.027410 0.009040 
#    y -0.027410 1.899460 0.012520 
#    z 0.009040 0.012520 1.910550 
# 
# From -- ./inp_files/78075.got.cif
#   From: 2010.06.25/outbox.cif.g09.slc.cpg/sg2_40_cif.got.tgz:78075.got - 2010.06.27 13:26:56.
