data_PCOD8013739
_publ_section_title
;
Structure prediction by ZEFSAII (Michael W. Deem and Ramdas Pophale) SiO2 
 PCOD8013739
Probable space group: P -1
;
_chemical_formula_sum "Si O2"
_cell_formula_units_Z 16
_cell_length_a 5.305716
_cell_length_b 15.947483
_cell_length_c 9.086200
_cell_angle_alpha 101.374764
_cell_angle_beta 81.603441
_cell_angle_gamma 107.427331
_cell_volume 715.996905
_symmetry_space_group_name_H-M "P -1"
_symmetry_group_IT_number 2
_symmetry_cell_setting 'triclinic'
loop_
_space_group_symop_operation_xyz
x,y,z
-x,-y,-z
loop_
_atom_site_type_symbol
_atom_site_label
_atom_site_fract_x
_atom_site_fract_y
_atom_site_fract_z
Si Si1 0.920977 0.743997 0.746724
Si Si2 0.447975 0.175682 0.592274
Si Si3 0.977477 0.718270 0.404717
Si Si4 0.916023 0.962817 0.218564
Si Si5 0.171985 0.435709 0.144515
Si Si6 0.358613 0.123191 0.272397
Si Si7 0.251124 0.464276 0.804328
Si Si8 0.764758 0.084828 0.054393
O O1 0.858170 0.664979 0.841506
O O2 0.670825 0.782595 0.751003
O O3 0.004298 0.708046 0.574075
O O4 0.145201 0.824616 0.825506
O O5 0.720245 0.236831 0.663112
O O6 0.527402 0.140223 0.415903
O O7 0.219828 0.224329 0.602720
O O8 0.323772 0.094027 0.683000
O O9 0.858702 0.621762 0.314739
O O10 0.084478 0.050900 0.321696
O O11 0.104512 0.903056 0.115431
O O12 0.796023 0.996598 0.098253
O O13 0.431820 0.495636 0.229284
O O14 0.909482 0.466736 0.213102
O O15 0.204288 0.438421 0.968517
O O16 0.450944 0.074278 0.104434
#
# Coordination Sequence:
#
# PCOD8013739 Si02
#       8
#     2   2   2   2   2   2   2   2
#     4  10  23  40  64  96 128 173 213 266 327 383
#     4  11  24  41  65  96 130 178 218 267 323 382
#     4  11  24  43  65  97 134 167 221 267 319 391
#     4  10  23  38  60  95 124 177 221 268 324 377
#     4  10  23  42  68  95 129 168 210 260 329 386
#     4  10  21  41  63  90 134 171 219 274 316 386
#     4  10  23  44  64  97 131 164 211 267 318 394
#     4  10  21  41  60  90 133 164 222 272 316 385
#
# _framework density 22.346464999999998
#
# number of rings (size 3 to 8) (size 9 to 14) (size 15 to 20)
#    0.000    1.750    1.250    1.500    5.250    1.500 
#    0.000    0.000    0.000    0.000    0.000    0.000 
#    0.000    0.000    0.000    0.000    0.000    0.000 
#
# Total GULP energy -198211.914685 kJ/mol
# GULP energy per Si atom -12388.244668 kJ/mol
# Density = 2.229560 g / cm^3
# Si number density = 22.346465 Si / 1000 Ang^3
#
#
#
# Elastic Constant Matrix: (Units=GPa)
#
#
# Indices 1 2 3 4 5 6 
#
# 1 116.0591 42.0786 32.6727 -4.2956 0.8285 6.4911
# 2 42.0786 109.3179 36.3373 -8.1246 2.3457 -4.1059
# 3 32.6727 36.3373 59.0400 9.7467 -0.4416 -3.0001
# 4 -4.2956 -8.1246 9.7467 32.9395 5.6720 4.7504
# 5 0.8285 2.3457 -0.4416 5.6720 30.3423 7.2921
# 6 6.4911 -4.1059 -3.0001 4.7504 7.2921 27.3216
#
#
#
# Elastic Compliance Matrix: (Units=1/GPa)
#
#
# Indices 1 2 3 4 5 6 
#
# 1 0.011428 -0.002507 -0.005505 0.003076 0.000260 -0.004301
# 2 -0.002507 0.013110 -0.007505 0.005331 -0.002401 0.001456
# 3 -0.005505 -0.007505 0.026751 -0.011515 0.002182 0.004537
# 4 0.003076 0.005331 -0.011515 0.037422 -0.006207 -0.006044
# 5 0.000260 -0.002401 0.002182 -0.006207 0.036450 -0.008832
# 6 -0.004301 0.001456 0.004537 -0.006044 -0.008832 0.041748
#
#
# Mechanical properties :
#
#
# Convention : Reuss Voigt Hill
#
# Bulk Modulus (GPa) = 49.37482 56.28823 52.83152
# Shear Modulus (GPa) = 24.42637 29.67590 27.05113
#
# Velocity S-wave (km/s) = 3.30976 3.64811 3.48305
# Velocity P-wave (km/s) = 6.06210 6.55656 6.31418
#
# Compressibility (1/GPa) = 0.02025324
#
# Stress axis : x y z
#
# Youngs Moduli (GPa) = 87.50638 76.27864 37.38111
#
# Poissons Ratio (x) = 0.19125 0.20580
# Poissons Ratio (y) = 0.21940 0.28055
# Poissons Ratio (z) = 0.48176 0.57249
#
# Static dielectric constant tensor:
#      x y z
#    x 4.398380 0.036350 -0.049390 
#    y 0.036350 3.835770 0.130770 
#    z -0.049390 0.130770 4.055410 
# 
# 
# High freq. dielectric constant tensor:
#      x y z
#    x 1.895020 0.009000 0.002590 
#    y 0.009000 1.873950 0.014420 
#    z 0.002590 0.014420 1.876540 
# 
# From -- ./inp_files/135508.got.cif
#   From: 2010.06.25/outbox.cif.g09.slc.cpg/sg2_68_cif.got.tgz:135508.got - 2010.06.27 13:26:56.
