data_PCOD8013414
_publ_section_title
;
Structure prediction by ZEFSAII (Michael W. Deem and Ramdas Pophale) SiO2 
 PCOD8013414
Probable space group: P -1
;
_chemical_formula_sum "Si O2"
_cell_formula_units_Z 16
_cell_length_a 7.459810
_cell_length_b 16.858546
_cell_length_c 8.668134
_cell_angle_alpha 55.298440
_cell_angle_beta 127.570047
_cell_angle_gamma 117.370554
_cell_volume 699.659347
_symmetry_space_group_name_H-M "P -1"
_symmetry_group_IT_number 2
_symmetry_cell_setting 'triclinic'
loop_
_space_group_symop_operation_xyz
x,y,z
-x,-y,-z
loop_
_atom_site_type_symbol
_atom_site_label
_atom_site_fract_x
_atom_site_fract_y
_atom_site_fract_z
Si Si1 0.531515 0.737535 0.577881
Si Si2 0.152089 0.446992 0.751080
Si Si3 0.972755 0.243141 0.773601
Si Si4 0.376729 0.593626 0.925272
Si Si5 0.306610 0.225141 0.697841
Si Si6 0.245032 0.117296 0.235895
Si Si7 0.966688 0.072078 0.538221
Si Si8 0.343933 0.782646 0.862769
O O1 0.497472 0.644876 0.775989
O O2 0.626503 0.708102 0.493865
O O3 0.719393 0.828357 0.639184
O O4 0.289642 0.776601 0.393483
O O5 0.025193 0.334672 0.819057
O O6 0.173906 0.505618 0.862003
O O7 0.000000 0.500000 0.500000
O O8 0.416249 0.446958 0.832445
O O9 0.135312 0.268088 0.678138
O O10 0.030206 0.148613 0.996949
O O11 0.272799 0.670698 0.890052
O O12 0.192879 0.115344 0.706538
O O13 0.550302 0.217194 0.912126
O O14 0.474758 0.154603 0.223277
O O15 0.203696 0.999240 0.357150
O O16 0.875069 0.165200 0.315239
O O17 0.000000 0.000000 0.500000
#
# Coordination Sequence:
#
# PCOD8013414 Si02
#       8
#     2   2   2   2   2   2   2   2
#     4  11  21  39  66  91 129 170 211 264 322 378
#     4  11  20  37  73  97 126 166 216 257 327 389
#     4  11  23  42  67  96 127 173 213 265 325 381
#     4  10  21  40  67  97 128 171 207 264 324 387
#     4  11  24  41  65  93 130 169 217 267 318 383
#     4  10  22  43  59  90 128 171 219 259 322 381
#     4  12  25  39  62  95 128 171 219 269 320 376
#     4  10  23  42  65  91 129 172 215 265 322 378
#
# _framework density 22.868271
#
# number of rings (size 3 to 8) (size 9 to 14) (size 15 to 20)
#    0.000    1.250    6.250    1.875    1.750    3.500 
#    0.000    0.625    0.000    1.500    0.000    0.000 
#    0.000    0.000    0.000    0.000    0.000    0.000 
#
# Total GULP energy -198280.245638 kJ/mol
# GULP energy per Si atom -12392.515352 kJ/mol
# Density = 2.281622 g / cm^3
# Si number density = 22.868271 Si / 1000 Ang^3
#
#
#
# Elastic Constant Matrix: (Units=GPa)
#
#
# Indices 1 2 3 4 5 6 
#
# 1 60.3728 12.7959 37.6019 3.2816 4.0379 -12.6149
# 2 12.7959 117.9099 33.9306 12.6258 0.7711 -21.7278
# 3 37.6019 33.9306 115.8513 15.7349 17.0678 -13.3334
# 4 3.2816 12.6258 15.7349 31.6729 -6.8179 3.2673
# 5 4.0379 0.7711 17.0678 -6.8179 41.9135 -2.6349
# 6 -12.6149 -21.7278 -13.3334 3.2673 -2.6349 27.8235
#
#
#
# Elastic Compliance Matrix: (Units=1/GPa)
#
#
# Indices 1 2 3 4 5 6 
#
# 1 0.022071 0.000918 -0.006744 0.000153 0.001104 0.007579
# 2 0.000918 0.010996 -0.002002 -0.004290 0.000366 0.008582
# 3 -0.006744 -0.002002 0.013374 -0.006584 -0.005703 0.002021
# 4 0.000153 -0.004290 -0.006584 0.039429 0.008514 -0.010260
# 5 0.001104 0.000366 -0.005703 0.008514 0.027431 -0.000349
# 6 0.007579 0.008582 0.002021 -0.010260 -0.000349 0.048219
#
#
# Mechanical properties :
#
#
# Convention : Reuss Voigt Hill
#
# Bulk Modulus (GPa) = 32.48251 51.42117 41.95184
# Shear Modulus (GPa) = 26.67566 34.26902 30.47234
#
# Velocity S-wave (km/s) = 3.41910 3.87530 3.65432
# Velocity P-wave (km/s) = 5.46095 6.52369 6.01584
#
# Compressibility (1/GPa) = 0.03078580
#
# Stress axis : x y z
#
# Youngs Moduli (GPa) = 45.30902 90.94157 74.77221
#
# Poissons Ratio (x) = -0.08352 0.50425
# Poissons Ratio (y) = -0.04161 0.14970
# Poissons Ratio (z) = 0.30555 0.18207
#
# Static dielectric constant tensor:
#      x y z
#    x 3.829260 0.038570 0.017750 
#    y 0.038570 4.688430 0.058940 
#    z 0.017750 0.058940 4.503480 
# 
# 
# High freq. dielectric constant tensor:
#      x y z
#    x 1.871430 -0.002970 0.011930 
#    y -0.002970 1.905620 0.018620 
#    z 0.011930 0.018620 1.912310 
# 
# From -- ./inp_files/212383.got.cif
#   From: 2010.06.25/outbox.cif.g09.slc.cpg/sg2_107_cif.got.tgz:212383.got - 2010.06.27 13:26:56.
