data_PCOD8013953
_publ_section_title
;
Structure prediction by ZEFSAII (Michael W. Deem and Ramdas Pophale) SiO2 
 PCOD8013953
Probable space group: P -1
;
_chemical_formula_sum "Si O2"
_cell_formula_units_Z 16
_cell_length_a 11.555992
_cell_length_b 15.175589
_cell_length_c 12.744292
_cell_angle_alpha 27.136488
_cell_angle_beta 99.285280
_cell_angle_gamma 117.298925
_cell_volume 718.562355
_symmetry_space_group_name_H-M "P -1"
_symmetry_group_IT_number 2
_symmetry_cell_setting 'triclinic'
loop_
_space_group_symop_operation_xyz
x,y,z
-x,-y,-z
loop_
_atom_site_type_symbol
_atom_site_label
_atom_site_fract_x
_atom_site_fract_y
_atom_site_fract_z
Si Si1 0.479384 0.457102 0.417708
Si Si2 0.024084 0.437959 0.456298
Si Si3 0.081701 0.378744 0.915099
Si Si4 0.689450 0.068498 0.540011
Si Si5 0.177570 0.097909 0.115544
Si Si6 0.849160 0.283718 0.132475
Si Si7 0.384051 0.701901 0.014900
Si Si8 0.607331 0.061982 0.047408
O O1 0.500000 0.500000 0.500000
O O2 0.369577 0.488608 0.306715
O O3 0.374320 0.143941 0.718642
O O4 0.657638 0.647377 0.189461
O O5 0.000000 0.500000 0.500000
O O6 0.930394 0.483464 0.324859
O O7 0.216243 0.634024 0.255782
O O8 0.942952 0.132813 0.746573
O O9 0.237607 0.632994 0.738368
O O10 0.100482 0.189372 0.069301
O O11 0.911761 0.192956 0.155850
O O12 0.794667 0.029196 0.656839
O O13 0.702254 0.043516 0.442340
O O14 0.498590 0.821581 0.802381
O O15 0.792059 0.411878 0.924854
O O16 0.000000 0.500000 0.000000
O O17 0.476319 0.955112 0.840355
O O18 0.500000 0.000000 0.000000
#
# Coordination Sequence:
#
# PCOD8013953 Si02
#       8
#     2   2   2   2   2   2   2   2
#     4  11  23  41  68 100 137 179 222 272 337 401
#     4  11  25  41  63  97 136 180 223 269 340 401
#     4  10  21  41  63  96 136 172 223 279 337 409
#     4   9  21  40  69  94 132 173 226 280 348 393
#     4  10  23  42  67 101 134 177 227 279 333 411
#     4  10  21  43  67  97 132 179 226 286 350 392
#     4  11  22  42  67  98 134 177 226 279 333 409
#     4  12  25  42  65  98 139 178 221 273 339 402
#
# _framework density 22.266683
#
# number of rings (size 3 to 8) (size 9 to 14) (size 15 to 20)
#    0.000    1.500    2.500    1.875    5.250    2.000 
#    0.000    2.500    0.000    9.000    0.000    0.000 
#    0.000    0.000    0.000    0.000    0.000    0.000 
#
# Total GULP energy -198259.697819 kJ/mol
# GULP energy per Si atom -12391.231114 kJ/mol
# Density = 2.221600 g / cm^3
# Si number density = 22.266683 Si / 1000 Ang^3
#
#
#
# Elastic Constant Matrix: (Units=GPa)
#
#
# Indices 1 2 3 4 5 6 
#
# 1 150.1485 60.7534 47.9742 1.9510 9.7605 -11.8301
# 2 60.7534 102.3334 38.9035 15.3504 2.0957 -7.6460
# 3 47.9742 38.9035 75.8211 6.6762 2.0942 -8.3184
# 4 1.9510 15.3504 6.6762 41.3302 -5.8218 -3.9621
# 5 9.7605 2.0957 2.0942 -5.8218 31.2222 -0.5099
# 6 -11.8301 -7.6460 -8.3184 -3.9621 -0.5099 51.2343
#
#
#
# Elastic Compliance Matrix: (Units=1/GPa)
#
#
# Indices 1 2 3 4 5 6 
#
# 1 0.009964 -0.004537 -0.003940 0.001643 -0.002222 0.001089
# 2 -0.004537 0.014802 -0.004304 -0.004598 -0.000142 0.000106
# 3 -0.003940 -0.004304 0.018118 -0.000996 0.000141 0.001314
# 4 0.001643 -0.004598 -0.000996 0.026834 0.004893 0.001655
# 5 -0.002222 -0.000142 0.000141 0.004893 0.033639 0.000202
# 6 0.001089 0.000106 0.001314 0.001655 0.000202 0.020129
#
#
# Mechanical properties :
#
#
# Convention : Reuss Voigt Hill
#
# Bulk Modulus (GPa) = 57.72970 69.28502 63.50736
# Shear Modulus (GPa) = 32.29512 36.80212 34.54862
#
# Velocity S-wave (km/s) = 3.81252 4.06986 3.94329
# Velocity P-wave (km/s) = 6.73522 7.29853 7.02252
#
# Compressibility (1/GPa) = 0.01732211
#
# Stress axis : x y z
#
# Youngs Moduli (GPa) = 100.36547 67.55774 55.19253
#
# Poissons Ratio (x) = 0.30649 0.21747
# Poissons Ratio (y) = 0.45534 0.23755
# Poissons Ratio (z) = 0.39547 0.29077
#
# Static dielectric constant tensor:
#      x y z
#    x 4.394750 -0.572840 -0.233450 
#    y -0.572840 4.617620 0.394910 
#    z -0.233450 0.394910 4.311600 
# 
# 
# High freq. dielectric constant tensor:
#      x y z
#    x 1.883650 -0.007020 -0.010530 
#    y -0.007020 1.885450 0.020040 
#    z -0.010530 0.020040 1.863510 
# 
# From -- ./inp_files/433690.got.cif
#   From: 2010.06.25/outbox.cif.g09.slc.cpg/sg2_217_cif.got.tgz:433690.got - 2010.06.27 13:26:56.
