data_PCOD8013300
_publ_section_title
;
Structure prediction by ZEFSAII (Michael W. Deem and Ramdas Pophale) SiO2 
 PCOD8013300
Probable space group: P -1
;
_chemical_formula_sum "Si O2"
_cell_formula_units_Z 16
_cell_length_a 13.481250
_cell_length_b 9.166211
_cell_length_c 8.659429
_cell_angle_alpha 135.188089
_cell_angle_beta 69.833351
_cell_angle_gamma 108.232712
_cell_volume 704.143074
_symmetry_space_group_name_H-M "P -1"
_symmetry_group_IT_number 2
_symmetry_cell_setting 'triclinic'
loop_
_space_group_symop_operation_xyz
x,y,z
-x,-y,-z
loop_
_atom_site_type_symbol
_atom_site_label
_atom_site_fract_x
_atom_site_fract_y
_atom_site_fract_z
Si Si1 0.925830 0.678141 0.896880
Si Si2 0.914773 0.955998 0.827503
Si Si3 0.499176 0.733498 0.117403
Si Si4 0.099974 0.391775 0.640941
Si Si5 0.761306 0.667736 0.207379
Si Si6 0.745348 0.235212 0.249153
Si Si7 0.665230 0.038915 0.441603
Si Si8 0.571575 0.384178 0.254411
O O1 0.931766 0.757432 0.777813
O O2 0.986034 0.473611 0.736504
O O3 0.802972 0.625712 0.979071
O O4 0.983844 0.874004 0.108893
O O5 0.899273 0.847861 0.589338
O O6 0.810674 0.061456 0.009362
O O7 0.598351 0.874097 0.240975
O O8 0.395793 0.829760 0.307353
O O9 0.500000 0.500000 0.000000
O O10 0.500748 0.740082 0.932500
O O11 0.135301 0.388336 0.796929
O O12 0.191353 0.537769 0.613719
O O13 0.740874 0.910169 0.408858
O O14 0.653547 0.536767 0.222629
O O15 0.635194 0.231895 0.210027
O O16 0.729532 0.197869 0.411149
O O17 0.500000 0.500000 0.500000
#
# Coordination Sequence:
#
# PCOD8013300 Si02
#       8
#     2   2   2   2   2   2   2   2
#     4  10  21  42  63  93 132 164 213 268 314 386
#     4  10  21  40  66  97 127 171 210 262 325 378
#     4  11  24  44  67  92 131 170 219 276 325 383
#     4  10  23  40  66  93 133 168 213 260 326 378
#     4  11  23  43  64  97 130 169 216 270 315 390
#     4  10  23  41  63  96 133 166 215 268 310 391
#     4  11  24  42  67  97 128 173 223 263 327 384
#     4  11  25  45  68  94 134 173 216 272 333 379
#
# _framework density 22.722656000000001
#
# number of rings (size 3 to 8) (size 9 to 14) (size 15 to 20)
#    0.000    1.500    2.500    1.500    3.500    5.000 
#    2.250    0.000    0.000    0.000    0.000    0.000 
#    0.000    0.000    0.000    0.000    0.000    0.000 
#
# Total GULP energy -198304.831787 kJ/mol
# GULP energy per Si atom -12394.051987 kJ/mol
# Density = 2.267094 g / cm^3
# Si number density = 22.722656 Si / 1000 Ang^3
#
#
#
# Elastic Constant Matrix: (Units=GPa)
#
#
# Indices 1 2 3 4 5 6 
#
# 1 81.6179 17.6350 28.3565 1.3237 -28.0552 -11.4745
# 2 17.6350 89.6693 13.1900 -7.9561 -12.7989 -1.4967
# 3 28.3565 13.1900 118.0541 -5.4412 -6.8130 4.0051
# 4 1.3237 -7.9561 -5.4412 26.4319 0.9235 -15.5861
# 5 -28.0552 -12.7989 -6.8130 0.9235 36.9660 2.3934
# 6 -11.4745 -1.4967 4.0051 -15.5861 2.3934 36.7702
#
#
#
# Elastic Compliance Matrix: (Units=1/GPa)
#
#
# Indices 1 2 3 4 5 6 
#
# 1 0.019129 -0.001158 -0.003873 0.000912 0.012999 0.005884
# 2 -0.001158 0.012377 -0.000782 0.004714 0.003013 0.002030
# 3 -0.003873 -0.000782 0.009512 0.000899 -0.001362 -0.001807
# 4 0.000912 0.004714 0.000899 0.052846 -0.000306 0.022799
# 5 0.012999 0.003013 -0.001362 -0.000306 0.037604 0.001750
# 6 0.005884 0.002030 -0.001807 0.022799 0.001750 0.038862
#
#
# Mechanical properties :
#
#
# Convention : Reuss Voigt Hill
#
# Bulk Modulus (GPa) = 34.02246 45.30048 39.66147
# Shear Modulus (GPa) = 26.07518 35.37761 30.72640
#
# Velocity S-wave (km/s) = 3.39121 3.95008 3.68127
# Velocity P-wave (km/s) = 5.50810 6.38621 5.96334
#
# Compressibility (1/GPa) = 0.02939234
#
# Stress axis : x y z
#
# Youngs Moduli (GPa) = 52.27741 80.79418 105.12541
#
# Poissons Ratio (x) = 0.09354 0.40713
# Poissons Ratio (y) = 0.06052 0.08226
# Poissons Ratio (z) = 0.20246 0.06322
#
# Static dielectric constant tensor:
#      x y z
#    x 4.201930 -0.165020 -0.054630 
#    y -0.165020 4.248280 0.039710 
#    z -0.054630 0.039710 3.877570 
# 
# 
# High freq. dielectric constant tensor:
#      x y z
#    x 1.898320 -0.012180 -0.015090 
#    y -0.012180 1.904720 -0.001180 
#    z -0.015090 -0.001180 1.886750 
# 
# From -- ./inp_files/39414.got.cif
#   From: 2010.06.25/outbox.cif.g09.slc.cpg/sg2_20_cif.got.tgz:39414.got - 2010.06.27 13:26:56.
