data_PCOD8013936
_publ_section_title
;
Structure prediction by ZEFSAII (Michael W. Deem and Ramdas Pophale) SiO2 
 PCOD8013936
Probable space group: P -1
;
_chemical_formula_sum "Si O2"
_cell_formula_units_Z 14
_cell_length_a 11.328492
_cell_length_b 13.773989
_cell_length_c 8.563383
_cell_angle_alpha 117.968032
_cell_angle_beta 63.375281
_cell_angle_gamma 149.730653
_cell_volume 592.083276
_symmetry_space_group_name_H-M "P -1"
_symmetry_group_IT_number 2
_symmetry_cell_setting 'triclinic'
loop_
_space_group_symop_operation_xyz
x,y,z
-x,-y,-z
loop_
_atom_site_type_symbol
_atom_site_label
_atom_site_fract_x
_atom_site_fract_y
_atom_site_fract_z
Si Si1 0.666185 0.273632 0.668534
Si Si2 0.120784 0.588961 0.829824
Si Si3 0.700863 0.126838 0.268288
Si Si4 0.863100 0.814763 0.537382
Si Si5 0.979253 0.842460 0.840444
Si Si6 0.589671 0.717937 0.040642
Si Si7 0.358733 0.539376 0.723093
O O1 0.647683 0.196798 0.460077
O O2 0.543151 0.311897 0.758477
O O3 0.934093 0.461543 0.703454
O O4 0.517934 0.107007 0.765922
O O5 0.272057 0.804940 0.871854
O O6 0.288190 0.600845 0.721738
O O7 0.000000 0.500000 0.000000
O O8 0.946122 0.233804 0.248915
O O9 0.979063 0.874613 0.682099
O O10 0.597006 0.669284 0.598647
O O11 0.851561 0.693582 0.353796
O O12 0.000000 0.000000 0.500000
O O13 0.717311 0.684197 0.957581
O O14 0.177528 0.050419 0.970915
O O15 0.394717 0.583254 0.919081
#
# Coordination Sequence:
#
# PCOD8013936 Si02
#       7
#     2   2   2   2   2   2   2
#     4  10  21  41  63  95 128 173 226 268 332 397
#     4  12  24  41  64  96 136 174 218 275 327 391
#     4  10  23  41  67  93 130 180 223 271 329 399
#     4  10  22  42  69  95 127 175 217 272 340 398
#     4   9  19  40  64  92 131 169 221 274 326 403
#     4   9  18  39  62  90 132 163 214 281 323 388
#     4  10  22  41  62  95 135 163 222 276 323 400
#
# _framework density 23.645323000000001
#
# number of rings (size 3 to 8) (size 9 to 14) (size 15 to 20)
#    0.000    2.000    1.429    1.286    0.000    5.143 
#   12.857    7.143    0.000    0.000    0.000    0.000 
#    0.000    0.000    0.000    0.000    0.000    0.000 
#
# Total GULP energy -173462.199154 kJ/mol
# GULP energy per Si atom -12390.157082 kJ/mol
# Density = 2.359151 g / cm^3
# Si number density = 23.645323 Si / 1000 Ang^3
#
#
#
# Elastic Constant Matrix: (Units=GPa)
#
#
# Indices 1 2 3 4 5 6 
#
# 1 142.9563 23.6327 35.4100 -4.8208 -27.3355 -9.2145
# 2 23.6327 65.1449 8.5683 2.2915 9.4491 -11.9140
# 3 35.4100 8.5683 89.5328 9.1206 -16.2948 -5.5011
# 4 -4.8208 2.2915 9.1206 33.9090 2.9892 8.0850
# 5 -27.3355 9.4491 -16.2948 2.9892 41.4067 -9.4501
# 6 -9.2145 -11.9140 -5.5011 8.0850 -9.4501 37.1028
#
#
#
# Elastic Compliance Matrix: (Units=1/GPa)
#
#
# Indices 1 2 3 4 5 6 
#
# 1 0.009664 -0.003819 -0.002168 0.001044 0.006865 0.002373
# 2 -0.003819 0.018494 -0.000959 -0.001874 -0.006141 0.003692
# 3 -0.002168 -0.000959 0.013901 -0.005372 0.005511 0.003789
# 4 0.001044 -0.001874 -0.005372 0.034110 -0.005750 -0.010036
# 5 0.006865 -0.006141 0.005511 -0.005750 0.035121 0.010748
# 6 0.002373 0.003692 0.003789 -0.010036 0.010748 0.034213
#
#
# Mechanical properties :
#
#
# Convention : Reuss Voigt Hill
#
# Bulk Modulus (GPa) = 35.50318 48.09511 41.79915
# Shear Modulus (GPa) = 29.62332 37.81857 33.72094
#
# Velocity S-wave (km/s) = 3.54336 4.00360 3.78049
# Velocity P-wave (km/s) = 5.63809 6.46190 6.06400
#
# Compressibility (1/GPa) = 0.02816649
#
# Stress axis : x y z
#
# Youngs Moduli (GPa) = 103.47322 54.07174 71.93603
#
# Poissons Ratio (x) = 0.20651 0.15595
# Poissons Ratio (y) = 0.39519 0.06902
# Poissons Ratio (z) = 0.22432 0.05188
#
# Static dielectric constant tensor:
#      x y z
#    x 4.597030 0.063140 -0.556180 
#    y 0.063140 4.363030 0.159340 
#    z -0.556180 0.159340 4.269380 
# 
# 
# High freq. dielectric constant tensor:
#      x y z
#    x 1.937100 0.010100 -0.031740 
#    y 0.010100 1.934910 0.004570 
#    z -0.031740 0.004570 1.928770 
# 
# From -- ./inp_files/270846.got.cif
#   From: 2010.06.25/outbox.cif.g09.slc.cpg/sg2_136_cif.got.tgz:270846.got - 2010.06.27 13:26:56.
