data_PCOD8013688
_publ_section_title
;
Structure prediction by ZEFSAII (Michael W. Deem and Ramdas Pophale) SiO2 
 PCOD8013688
Probable space group: P -1
;
_chemical_formula_sum "Si O2"
_cell_formula_units_Z 16
_cell_length_a 8.768174
_cell_length_b 8.975175
_cell_length_c 15.492410
_cell_angle_alpha 65.301412
_cell_angle_beta 133.585657
_cell_angle_gamma 87.027049
_cell_volume 686.987631
_symmetry_space_group_name_H-M "P -1"
_symmetry_group_IT_number 2
_symmetry_cell_setting 'triclinic'
loop_
_space_group_symop_operation_xyz
x,y,z
-x,-y,-z
loop_
_atom_site_type_symbol
_atom_site_label
_atom_site_fract_x
_atom_site_fract_y
_atom_site_fract_z
Si Si1 0.974211 0.435663 0.337930
Si Si2 0.709730 0.572891 0.688265
Si Si3 0.808465 0.433141 0.932473
Si Si4 0.718078 0.233361 0.325961
Si Si5 0.621609 0.907665 0.331554
Si Si6 0.789372 0.876647 0.740961
Si Si7 0.316480 0.149743 0.821974
Si Si8 0.816025 0.179711 0.576061
O O1 0.874667 0.293145 0.311034
O O2 0.746923 0.633661 0.238059
O O3 0.075477 0.490410 0.281049
O O4 0.195057 0.317010 0.520778
O O5 0.779002 0.402399 0.825830
O O6 0.682225 0.749111 0.693864
O O7 0.439888 0.644136 0.525706
O O8 0.558867 0.595811 0.838544
O O9 0.000000 0.500000 0.000000
O O10 0.934276 0.235777 0.083094
O O11 0.812247 0.218938 0.463844
O O12 0.758577 0.029891 0.362145
O O13 0.544271 0.918819 0.198840
O O14 0.392213 0.988881 0.286749
O O15 0.807717 0.990254 0.639660
O O16 0.051555 0.166462 0.715717
O O17 0.500000 0.000000 0.000000
#
# Coordination Sequence:
#
# PCOD8013688 Si02
#       8
#     2   2   2   2   2   2   2   2
#     4  12  26  45  69 103 139 183 228 283 344 414
#     4  10  21  40  72 104 138 167 233 288 349 403
#     4   9  19  38  61 103 147 164 213 284 353 400
#     4  11  23  41  77 109 131 179 229 294 346 401
#     4  12  23  46  75 100 139 176 235 285 345 406
#     4  11  21  39  72 112 134 174 220 302 348 391
#     4  12  32  49  63  95 150 191 231 275 342 421
#     4  11  22  44  71 100 135 177 233 281 339 405
#
# _framework density 23.290085999999999
#
# number of rings (size 3 to 8) (size 9 to 14) (size 15 to 20)
#    0.000    1.000    6.250    1.875    5.250    0.500 
#    0.000    3.750    0.000    0.000    0.000    0.000 
#    0.000    0.000    0.000    0.000    0.000    0.000 
#
# Total GULP energy -198287.734963 kJ/mol
# GULP energy per Si atom -12392.983435 kJ/mol
# Density = 2.323708 g / cm^3
# Si number density = 23.290086 Si / 1000 Ang^3
#
#
#
# Elastic Constant Matrix: (Units=GPa)
#
#
# Indices 1 2 3 4 5 6 
#
# 1 73.5952 14.4828 13.6614 3.3479 9.1884 -13.5903
# 2 14.4828 68.4482 31.0276 -13.5762 -3.0517 -18.3039
# 3 13.6614 31.0276 152.9332 -6.4240 8.3608 -2.0043
# 4 3.3479 -13.5762 -6.4240 28.3183 -0.6367 -0.8722
# 5 9.1884 -3.0517 8.3608 -0.6367 32.6329 3.1663
# 6 -13.5903 -18.3039 -2.0043 -0.8722 3.1663 29.6934
#
#
#
# Elastic Compliance Matrix: (Units=1/GPa)
#
#
# Indices 1 2 3 4 5 6 
#
# 1 0.016144 -0.002183 -0.000756 -0.003046 -0.005243 0.006462
# 2 -0.002183 0.022416 -0.003891 0.010570 0.002694 0.012579
# 3 -0.000756 -0.003891 0.007463 -0.000188 -0.001868 -0.002047
# 4 -0.003046 0.010570 -0.000188 0.040932 0.002102 0.006087
# 5 -0.005243 0.002694 -0.001868 0.002102 0.033314 -0.004356
# 6 0.006462 0.012579 -0.002047 0.006087 -0.004356 0.044894
#
#
# Mechanical properties :
#
#
# Convention : Reuss Voigt Hill
#
# Bulk Modulus (GPa) = 30.89971 45.92447 38.41209
# Shear Modulus (GPa) = 26.36969 33.84924 30.10946
#
# Velocity S-wave (km/s) = 3.36851 3.81645 3.59946
# Velocity P-wave (km/s) = 5.33154 6.25953 5.81408
#
# Compressibility (1/GPa) = 0.03236276
#
# Stress axis : x y z
#
# Youngs Moduli (GPa) = 61.94212 44.61149 133.99102
#
# Poissons Ratio (x) = 0.09739 0.10128
# Poissons Ratio (y) = 0.13523 0.52138
# Poissons Ratio (z) = 0.04682 0.17359
#
# Static dielectric constant tensor:
#      x y z
#    x 4.347770 -0.040560 0.552280 
#    y -0.040560 3.956600 -1.317530 
#    z 0.552280 -1.317530 12.323350 
# 
# 
# High freq. dielectric constant tensor:
#      x y z
#    x 1.932290 -0.002260 0.002290 
#    y -0.002260 1.878450 -0.015830 
#    z 0.002290 -0.015830 1.936910 
# 
# From -- ./inp_files/494729.got.cif
#   From: 2010.06.25/outbox.cif.g09.slc.cpg/sg2_248_cif.got.tgz:494729.got - 2010.06.27 13:26:56.
