data_PCOD8013884
_publ_section_title
;
Structure prediction by ZEFSAII (Michael W. Deem and Ramdas Pophale) SiO2 
 PCOD8013884
Probable space group: P -1
;
_chemical_formula_sum "Si O2"
_cell_formula_units_Z 14
_cell_length_a 8.558193
_cell_length_b 19.983442
_cell_length_c 9.671854
_cell_angle_alpha 151.109843
_cell_angle_beta 54.606189
_cell_angle_gamma 120.832034
_cell_volume 651.397245
_symmetry_space_group_name_H-M "P -1"
_symmetry_group_IT_number 2
_symmetry_cell_setting 'triclinic'
loop_
_space_group_symop_operation_xyz
x,y,z
-x,-y,-z
loop_
_atom_site_type_symbol
_atom_site_label
_atom_site_fract_x
_atom_site_fract_y
_atom_site_fract_z
Si Si1 0.238322 0.093777 0.745469
Si Si2 0.167627 0.344864 0.692887
Si Si3 0.027155 0.295145 0.383793
Si Si4 0.249567 0.268886 0.796760
Si Si5 0.364452 0.797787 0.181932
Si Si6 0.348559 0.626603 0.147735
Si Si7 0.108567 0.584874 0.817044
O O1 0.257381 0.133908 0.646097
O O2 0.414513 0.155527 0.859740
O O3 0.227012 0.928634 0.461666
O O4 0.050057 0.159638 0.031174
O O5 0.124638 0.266235 0.430494
O O6 0.238944 0.234283 0.574164
O O7 0.320828 0.470601 0.822976
O O8 0.970783 0.412106 0.976155
O O9 0.143013 0.422365 0.476319
O O10 0.803794 0.335344 0.584425
O O11 0.434590 0.367899 0.898363
O O12 0.056458 0.354659 0.089938
O O13 0.322897 0.744135 0.258806
O O14 0.303898 0.679250 0.885463
#
# Coordination Sequence:
#
# PCOD8013884 Si02
#       7
#     2   2   2   2   2   2   2
#     4  10  24  35  53  84 109 141 179 225 263 321
#     4   9  17  33  56  82 104 142 173 223 259 329
#     4  11  19  34  57  88 105 129 192 228 257 302
#     4   9  20  34  54  81 111 147 171 210 282 327
#     4  10  19  40  56  71 111 155 176 203 278 334
#     4  10  16  34  58  79 105 146 177 217 263 326
#     4   9  18  34  59  75 106 146 175 214 263 326
#
# _framework density 21.492262
#
# number of rings (size 3 to 8) (size 9 to 14) (size 15 to 20)
#    0.857    1.429    2.857    1.286    0.000    2.286 
#    0.000    1.429    0.000    8.571    0.000    0.000 
#    0.000    0.000    0.000    0.000    0.000    0.000 
#
# Total GULP energy -173433.448877 kJ/mol
# GULP energy per Si atom -12388.103491 kJ/mol
# Density = 2.144334 g / cm^3
# Si number density = 21.492262 Si / 1000 Ang^3
#
#
#
# Elastic Constant Matrix: (Units=GPa)
#
#
# Indices 1 2 3 4 5 6 
#
# 1 91.4646 14.7482 -0.0458 1.5030 6.0965 -10.6545
# 2 14.7482 55.0510 7.5080 5.9184 3.6736 -18.3292
# 3 -0.0458 7.5080 39.9653 0.8451 -9.1036 -12.2347
# 4 1.5030 5.9184 0.8451 15.2190 -2.0667 -6.0572
# 5 6.0965 3.6736 -9.1036 -2.0667 17.1081 3.0183
# 6 -10.6545 -18.3292 -12.2347 -6.0572 3.0183 35.9412
#
#
#
# Elastic Compliance Matrix: (Units=1/GPa)
#
#
# Indices 1 2 3 4 5 6 
#
# 1 0.011875 -0.001974 0.000366 0.000217 -0.004119 0.003021
# 2 -0.001974 0.023722 -0.003186 -0.005984 -0.008598 0.010141
# 3 0.000366 -0.003186 0.032018 0.005214 0.016657 0.008863
# 4 0.000217 -0.005984 0.005214 0.073286 0.011034 0.010212
# 5 -0.004119 -0.008598 0.016657 0.011034 0.072701 -0.004181
# 6 0.003021 0.010141 0.008863 0.010212 -0.004181 0.038980
#
#
# Mechanical properties :
#
#
# Convention : Reuss Voigt Hill
#
# Bulk Modulus (GPa) = 17.23336 25.65575 21.44455
# Shear Modulus (GPa) = 17.76133 24.60502 21.18317
#
# Velocity S-wave (km/s) = 2.87785 3.38721 3.14286
# Velocity P-wave (km/s) = 4.36789 5.22118 4.81348
#
# Compressibility (1/GPa) = 0.05802700
#
# Stress axis : x y z
#
# Youngs Moduli (GPa) = 84.21383 42.15497 31.23252
#
# Poissons Ratio (x) = 0.08321 -0.01144
# Poissons Ratio (y) = 0.16623 0.09951
# Poissons Ratio (z) = -0.03084 0.13431
#
# Static dielectric constant tensor:
#      x y z
#    x 4.059070 0.015030 0.086130 
#    y 0.015030 3.832240 0.194730 
#    z 0.086130 0.194730 3.238300 
# 
# 
# High freq. dielectric constant tensor:
#      x y z
#    x 1.851520 -0.007850 0.003530 
#    y -0.007850 1.840860 0.013920 
#    z 0.003530 0.013920 1.779320 
# 
# From -- ./inp_files/224334.got.cif
#   From: 2010.06.25/outbox.cif.g09.slc.cpg/sg2_113_cif.got.tgz:224334.got - 2010.06.27 13:26:56.
