data_PCOD8013667
_publ_section_title
;
Structure prediction by ZEFSAII (Michael W. Deem and Ramdas Pophale) SiO2 
 PCOD8013667
Probable space group: P -1
;
_chemical_formula_sum "Si O2"
_cell_formula_units_Z 16
_cell_length_a 11.751125
_cell_length_b 14.046195
_cell_length_c 10.880741
_cell_angle_alpha 146.463767
_cell_angle_beta 129.717233
_cell_angle_gamma 63.200344
_cell_volume 748.952728
_symmetry_space_group_name_H-M "P -1"
_symmetry_group_IT_number 2
_symmetry_cell_setting 'triclinic'
loop_
_space_group_symop_operation_xyz
x,y,z
-x,-y,-z
loop_
_atom_site_type_symbol
_atom_site_label
_atom_site_fract_x
_atom_site_fract_y
_atom_site_fract_z
Si Si1 0.556236 0.727330 0.187449
Si Si2 0.567485 0.360264 0.738247
Si Si3 0.322264 0.852914 0.013946
Si Si4 0.166673 0.020647 0.282385
Si Si5 0.961145 0.286857 0.477571
Si Si6 0.436923 0.930478 0.751602
Si Si7 0.891325 0.321795 0.980863
Si Si8 0.914591 0.154345 0.576151
O O1 0.558448 0.687082 0.292524
O O2 0.691566 0.894699 0.440754
O O3 0.597153 0.569387 0.963158
O O4 0.386926 0.747516 0.054422
O O5 0.526730 0.259957 0.471106
O O6 0.713457 0.299511 0.826001
O O7 0.209624 0.736026 0.715069
O O8 0.230431 0.989638 0.158021
O O9 0.477971 0.935918 0.145704
O O10 0.078138 0.836088 0.079558
O O11 0.053200 0.155633 0.332264
O O12 0.962509 0.247322 0.580448
O O13 0.034475 0.487211 0.711177
O O14 0.261203 0.931206 0.633478
O O15 0.500000 0.000000 0.000000
O O16 0.959014 0.301215 0.870030
O O17 0.000000 0.000000 0.500000
#
# Coordination Sequence:
#
# PCOD8013667 Si02
#       8
#     2   2   2   2   2   2   2   2
#     4  11  21  41  70 102 134 171 232 278 337 402
#     4  10  21  40  71 101 131 178 228 281 328 405
#     4  12  25  43  65 103 137 176 218 286 347 398
#     4  12  23  44  71  99 135 181 224 275 339 410
#     4  12  26  45  64 102 143 175 222 279 340 401
#     4  11  23  44  69  96 136 175 225 281 342 398
#     4  11  23  42  70  98 130 180 229 272 329 405
#     4  11  23  44  72  98 128 181 231 271 330 408
#
# _framework density 21.363164000000001
#
# number of rings (size 3 to 8) (size 9 to 14) (size 15 to 20)
#    0.000    0.750    6.250    2.625    0.000    0.500 
#    4.500    0.625    0.000    0.000    0.000    0.000 
#    0.000    0.000    0.000    0.000    0.000    0.000 
#
# Total GULP energy -198325.739776 kJ/mol
# GULP energy per Si atom -12395.358736 kJ/mol
# Density = 2.131454 g / cm^3
# Si number density = 21.363164 Si / 1000 Ang^3
#
#
#
# Elastic Constant Matrix: (Units=GPa)
#
#
# Indices 1 2 3 4 5 6 
#
# 1 86.8212 22.4016 29.8553 8.8183 -13.4916 -0.5565
# 2 22.4016 76.7908 49.7731 9.6705 -1.6451 -5.2414
# 3 29.8553 49.7731 133.2712 19.9363 -9.6101 -1.7001
# 4 8.8183 9.6705 19.9363 34.0861 0.4041 0.0986
# 5 -13.4916 -1.6451 -9.6101 0.4041 38.4123 0.8727
# 6 -0.5565 -5.2414 -1.7001 0.0986 0.8727 32.8370
#
#
#
# Elastic Compliance Matrix: (Units=1/GPa)
#
#
# Indices 1 2 3 4 5 6 
#
# 1 0.013579 -0.002726 -0.001424 -0.001957 0.004326 -0.000388
# 2 -0.002726 0.018002 -0.006082 -0.000831 -0.001757 0.002561
# 3 -0.001424 -0.006082 0.010875 -0.004289 0.002016 -0.000473
# 4 -0.001957 -0.000831 -0.004289 0.032615 -0.002129 -0.000429
# 5 0.004326 -0.001757 0.002016 -0.002129 0.028023 -0.000841
# 6 -0.000388 0.002561 -0.000473 -0.000429 -0.000841 0.030855
#
#
# Mechanical properties :
#
#
# Convention : Reuss Voigt Hill
#
# Bulk Modulus (GPa) = 45.47148 55.66035 50.56591
# Shear Modulus (GPa) = 30.91304 34.05730 32.48517
#
# Velocity S-wave (km/s) = 3.80811 3.99708 3.90374
# Velocity P-wave (km/s) = 6.37705 6.88572 6.63626
#
# Compressibility (1/GPa) = 0.02199181
#
# Stress axis : x y z
#
# Youngs Moduli (GPa) = 73.64061 55.55046 91.95325
#
# Poissons Ratio (x) = 0.15140 0.13098
# Poissons Ratio (y) = 0.20071 0.55928
# Poissons Ratio (z) = 0.10490 0.33787
#
# Static dielectric constant tensor:
#      x y z
#    x 4.174260 -0.244840 0.145290 
#    y -0.244840 3.860400 -0.572390 
#    z 0.145290 -0.572390 5.086980 
# 
# 
# High freq. dielectric constant tensor:
#      x y z
#    x 1.848110 -0.005360 -0.007600 
#    y -0.005360 1.812640 0.003510 
#    z -0.007600 0.003510 1.844670 
# 
# From -- ./inp_files/433581.got.cif
#   From: 2010.06.25/outbox.cif.g09.slc.cpg/sg2_217_cif.got.tgz:433581.got - 2010.06.27 13:26:56.
