data_PCOD8013100
_publ_section_title
;
Structure prediction by ZEFSAII (Michael W. Deem and Ramdas Pophale) SiO2 
 PCOD8013100
Probable space group: P -1
;
_chemical_formula_sum "Si O2"
_cell_formula_units_Z 16
_cell_length_a 10.206647
_cell_length_b 13.634777
_cell_length_c 8.423111
_cell_angle_alpha 136.485680
_cell_angle_beta 67.880781
_cell_angle_gamma 107.486192
_cell_volume 747.013539
_symmetry_space_group_name_H-M "P -1"
_symmetry_group_IT_number 2
_symmetry_cell_setting 'triclinic'
loop_
_space_group_symop_operation_xyz
x,y,z
-x,-y,-z
loop_
_atom_site_type_symbol
_atom_site_label
_atom_site_fract_x
_atom_site_fract_y
_atom_site_fract_z
Si Si1 0.952575 0.205190 0.857458
Si Si2 0.564306 0.797291 0.846882
Si Si3 0.506599 0.832905 0.274561
Si Si4 0.751975 0.839150 0.396201
Si Si5 0.005269 0.511849 0.322871
Si Si6 0.741508 0.593567 0.354244
Si Si7 0.299730 0.951789 0.077416
Si Si8 0.224818 0.670724 0.187353
O O1 0.850971 0.134280 0.956918
O O2 0.869841 0.223826 0.750009
O O3 0.090873 0.107858 0.672856
O O4 0.015489 0.356425 0.063960
O O5 0.604601 0.646494 0.574694
O O6 0.687589 0.923172 0.913967
O O7 0.534263 0.780456 0.023996
O O8 0.424053 0.842222 0.869639
O O9 0.640187 0.777422 0.245981
O O10 0.357433 0.758340 0.309061
O O11 0.500000 0.000000 0.500000
O O12 0.790432 0.713874 0.349822
O O13 0.681457 0.972408 0.669688
O O14 0.138357 0.603953 0.297489
O O15 0.000000 0.500000 0.500000
O O16 0.862916 0.582486 0.416158
O O17 0.714124 0.445818 0.099406
#
# Coordination Sequence:
#
# PCOD8013100 Si02
#       8
#     2   2   2   2   2   2   2   2
#     4  11  20  42  68  91 124 176 217 253 324 390
#     4  10  22  40  61  94 137 159 223 259 316 373
#     4  12  25  42  64  98 133 171 212 269 320 375
#     4  11  21  40  67  93 131 165 221 264 315 385
#     4  11  24  43  65  97 130 159 214 277 320 382
#     4  10  22  42  68  92 126 175 214 261 318 387
#     4  10  21  40  65  93 127 177 210 264 318 378
#     4  11  22  45  68  91 130 173 215 258 326 387
#
# _framework density 21.418620000000001
#
# number of rings (size 3 to 8) (size 9 to 14) (size 15 to 20)
#    0.000    1.250    5.000    1.125    1.750    2.000 
#    0.000    0.625    0.000    0.000    0.000    0.000 
#    0.000    0.000    0.000    0.000    0.000    0.000 
#
# Total GULP energy -198340.901079 kJ/mol
# GULP energy per Si atom -12396.306317 kJ/mol
# Density = 2.136987 g / cm^3
# Si number density = 21.418620 Si / 1000 Ang^3
#
#
#
# Elastic Constant Matrix: (Units=GPa)
#
#
# Indices 1 2 3 4 5 6 
#
# 1 130.6853 44.4502 37.6328 3.2434 -5.8503 13.5536
# 2 44.4502 107.8948 17.5506 -7.9355 6.6692 22.0207
# 3 37.6328 17.5506 80.3845 -3.7039 -18.9410 1.6561
# 4 3.2434 -7.9355 -3.7039 28.7524 3.0307 3.0061
# 5 -5.8503 6.6692 -18.9410 3.0307 31.9986 -0.4482
# 6 13.5536 22.0207 1.6561 3.0061 -0.4482 42.8772
#
#
#
# Elastic Compliance Matrix: (Units=1/GPa)
#
#
# Indices 1 2 3 4 5 6 
#
# 1 0.010206 -0.003561 -0.003985 -0.002587 0.000479 -0.001057
# 2 -0.003561 0.012921 -0.002006 0.004853 -0.005073 -0.005826
# 3 -0.003985 -0.002006 0.017040 0.000892 0.009715 0.001671
# 4 -0.002587 0.004853 0.000892 0.037466 -0.004566 -0.004383
# 5 0.000479 -0.005073 0.009715 -0.004566 0.038618 0.002802
# 6 -0.001057 -0.005826 0.001671 -0.004383 0.002802 0.026921
#
#
# Mechanical properties :
#
#
# Convention : Reuss Voigt Hill
#
# Bulk Modulus (GPa) = 47.47517 57.58134 52.52825
# Shear Modulus (GPa) = 29.53422 35.34771 32.44096
#
# Velocity S-wave (km/s) = 3.71739 4.06683 3.89603
# Velocity P-wave (km/s) = 6.37486 6.99959 6.69451
#
# Compressibility (1/GPa) = 0.02106364
#
# Stress axis : x y z
#
# Youngs Moduli (GPa) = 97.98247 77.39346 58.68708
#
# Poissons Ratio (x) = 0.27556 0.23387
# Poissons Ratio (y) = 0.34887 0.11771
# Poissons Ratio (z) = 0.39047 0.15523
#
# Static dielectric constant tensor:
#      x y z
#    x 3.964270 0.110360 -0.188340 
#    y 0.110360 3.978300 -0.031660 
#    z -0.188340 -0.031660 3.941140 
# 
# 
# High freq. dielectric constant tensor:
#      x y z
#    x 1.831300 0.011010 -0.022370 
#    y 0.011010 1.844870 0.003390 
#    z -0.022370 0.003390 1.835570 
# 
# From -- ./inp_files/209235.got.cif
#   From: 2010.06.25/outbox.cif.g09.slc.cpg/sg2_105_cif.got.tgz:209235.got - 2010.06.27 13:26:56.
