data_PCOD8013425
_publ_section_title
;
Structure prediction by ZEFSAII (Michael W. Deem and Ramdas Pophale) SiO2 
 PCOD8013425
Probable space group: P -1
;
_chemical_formula_sum "Si O2"
_cell_formula_units_Z 16
_cell_length_a 14.481571
_cell_length_b 9.409307
_cell_length_c 8.390541
_cell_angle_alpha 91.249453
_cell_angle_beta 139.491423
_cell_angle_gamma 93.858597
_cell_volume 736.254295
_symmetry_space_group_name_H-M "P -1"
_symmetry_group_IT_number 2
_symmetry_cell_setting 'triclinic'
loop_
_space_group_symop_operation_xyz
x,y,z
-x,-y,-z
loop_
_atom_site_type_symbol
_atom_site_label
_atom_site_fract_x
_atom_site_fract_y
_atom_site_fract_z
Si Si1 0.447372 0.283495 0.811476
Si Si2 0.660222 0.914273 0.059662
Si Si3 0.851721 0.686320 0.213604
Si Si4 0.910787 0.117688 0.316213
Si Si5 0.716084 0.476002 0.289371
Si Si6 0.036621 0.621142 0.178800
Si Si7 0.431958 0.033094 0.575624
Si Si8 0.883814 0.095254 0.903600
O O1 0.358611 0.154398 0.792868
O O2 0.351857 0.413817 0.678513
O O3 0.466056 0.204297 0.665752
O O4 0.599018 0.341472 0.090666
O O5 0.748657 0.811542 0.064990
O O6 0.751746 0.074398 0.181965
O O7 0.502245 0.931899 0.790702
O O8 0.766162 0.552716 0.190833
O O9 0.003619 0.733008 0.506494
O O10 0.892119 0.642632 0.087174
O O11 0.898998 0.126300 0.111410
O O12 0.000000 0.000000 0.500000
O O13 0.846312 0.419655 0.545854
O O14 0.099713 0.760152 0.169734
O O15 0.000000 0.500000 0.000000
O O16 0.264338 0.992464 0.343321
O O17 0.500000 0.000000 0.500000
O O18 0.000000 0.000000 0.000000
#
# Coordination Sequence:
#
# PCOD8013425 Si02
#       8
#     2   2   2   2   2   2   2   2
#     4  10  24  42  72  94 136 185 236 285 340 421
#     4  10  21  42  66 101 133 175 232 280 347 409
#     4  10  23  41  72  95 138 183 235 283 342 415
#     4  10  21  40  67  98 132 176 225 277 348 413
#     4  10  23  47  67  97 133 190 242 282 341 419
#     4  12  27  41  68 103 140 182 233 290 352 415
#     4  12  26  40  67 104 142 178 224 290 357 415
#     4  12  27  44  69 103 144 178 228 294 363 409
#
# _framework density 21.731622999999999
#
# number of rings (size 3 to 8) (size 9 to 14) (size 15 to 20)
#    0.000    1.250    1.250    3.750   10.500    1.000 
#    0.000    0.000    0.000    6.000    0.000    0.000 
#    0.000    0.000    0.000    0.000    0.000    0.000 
#
# Total GULP energy -198358.605084 kJ/mol
# GULP energy per Si atom -12397.412818 kJ/mol
# Density = 2.168216 g / cm^3
# Si number density = 21.731623 Si / 1000 Ang^3
#
#
#
# Elastic Constant Matrix: (Units=GPa)
#
#
# Indices 1 2 3 4 5 6 
#
# 1 102.0248 43.6333 40.1803 22.5516 6.4613 -9.8380
# 2 43.6333 95.9614 36.0167 11.4085 0.5474 -13.3609
# 3 40.1803 36.0167 90.7706 2.4156 12.0496 -20.6743
# 4 22.5516 11.4085 2.4156 39.6259 -4.4139 -4.7923
# 5 6.4613 0.5474 12.0496 -4.4139 37.1767 3.3167
# 6 -9.8380 -13.3609 -20.6743 -4.7923 3.3167 38.4006
#
#
#
# Elastic Compliance Matrix: (Units=1/GPa)
#
#
# Indices 1 2 3 4 5 6 
#
# 1 0.015218 -0.004364 -0.004784 -0.007433 -0.001826 -0.000965
# 2 -0.004364 0.014029 -0.003409 -0.000989 0.001389 0.001684
# 3 -0.004784 -0.003409 0.016733 0.003039 -0.004841 0.007394
# 4 -0.007433 -0.000989 0.003039 0.030319 0.003666 0.002855
# 5 -0.001826 0.001389 -0.004841 0.003666 0.029618 -0.004691
# 6 -0.000965 0.001684 0.007394 0.002855 -0.004691 0.031122
#
#
# Mechanical properties :
#
#
# Convention : Reuss Voigt Hill
#
# Bulk Modulus (GPa) = 47.92790 58.71302 53.32046
# Shear Modulus (GPa) = 29.56666 34.30242 31.93454
#
# Velocity S-wave (km/s) = 3.69255 3.97729 3.83756
# Velocity P-wave (km/s) = 6.34683 6.94030 6.65019
#
# Compressibility (1/GPa) = 0.02086467
#
# Stress axis : x y z
#
# Youngs Moduli (GPa) = 65.71348 71.28144 59.76156
#
# Poissons Ratio (x) = 0.31108 0.28591
# Poissons Ratio (y) = 0.28678 0.20374
# Poissons Ratio (z) = 0.31439 0.24301
#
# Static dielectric constant tensor:
#      x y z
#    x 4.219510 0.018640 0.203000 
#    y 0.018640 4.539230 -0.028190 
#    z 0.203000 -0.028190 4.180580 
# 
# 
# High freq. dielectric constant tensor:
#      x y z
#    x 1.862870 -0.004620 0.013720 
#    y -0.004620 1.858500 0.000040 
#    z 0.013720 0.000040 1.853280 
# 
# From -- ./inp_files/299015.got.cif
#   From: 2010.06.25/outbox.cif.g09.slc.cpg/sg2_150_cif.got.tgz:299015.got - 2010.06.27 13:26:56.
