data_PCOD8013185
_publ_section_title
;
Structure prediction by ZEFSAII (Michael W. Deem and Ramdas Pophale) SiO2 
 PCOD8013185
Probable space group: P -1
;
_chemical_formula_sum "Si O2"
_cell_formula_units_Z 14
_cell_length_a 7.862694
_cell_length_b 8.826128
_cell_length_c 23.490940
_cell_angle_alpha 147.323255
_cell_angle_beta 133.641912
_cell_angle_gamma 45.444167
_cell_volume 605.785142
_symmetry_space_group_name_H-M "P -1"
_symmetry_group_IT_number 2
_symmetry_cell_setting 'triclinic'
loop_
_space_group_symop_operation_xyz
x,y,z
-x,-y,-z
loop_
_atom_site_type_symbol
_atom_site_label
_atom_site_fract_x
_atom_site_fract_y
_atom_site_fract_z
Si Si1 0.896137 0.754345 0.745492
Si Si2 0.858062 0.156464 0.960898
Si Si3 0.997993 0.784857 0.327466
Si Si4 0.286880 0.153808 0.450434
Si Si5 0.448543 0.844653 0.594442
Si Si6 0.294008 0.205729 0.843586
Si Si7 0.830652 0.382777 0.343682
O O1 0.646631 0.924101 0.707202
O O2 0.843333 0.509986 0.697157
O O3 0.125544 0.587341 0.704005
O O4 0.978562 0.987842 0.877588
O O5 0.583387 0.136146 0.894898
O O6 0.851568 0.497460 0.061177
O O7 0.000000 0.000000 0.000000
O O8 0.796631 0.719981 0.218486
O O9 0.835493 0.016515 0.408730
O O10 0.190790 0.895662 0.370889
O O11 0.525779 0.040638 0.428076
O O12 0.358995 0.330861 0.577460
O O13 0.084619 0.368201 0.430114
O O14 0.500000 0.500000 0.500000
O O15 0.235370 0.917114 0.760300
#
# Coordination Sequence:
#
# PCOD8013185 Si02
#       7
#     2   2   2   2   2   2   2
#     4  11  23  39  63  93 126 160 215 260 305 377
#     4  11  22  40  65  92 117 162 212 261 312 368
#     4  11  21  41  63  93 129 168 207 258 311 374
#     4   9  20  38  61  92 132 162 209 253 307 375
#     4  11  22  39  64  90 126 175 207 251 317 367
#     4  10  21  40  66  85 122 165 204 258 322 366
#     4   9  19  39  59  90 125 161 203 261 303 372
#
# _framework density 23.110503000000001
#
# number of rings (size 3 to 8) (size 9 to 14) (size 15 to 20)
#    0.000    1.714    2.857    3.429    0.000    2.857 
#    2.571    2.143    0.000    0.000    0.000    0.000 
#    0.000    0.000    0.000    0.000    0.000    0.000 
#
# Total GULP energy -173508.840446 kJ/mol
# GULP energy per Si atom -12393.488603 kJ/mol
# Density = 2.305790 g / cm^3
# Si number density = 23.110503 Si / 1000 Ang^3
#
#
#
# Elastic Constant Matrix: (Units=GPa)
#
#
# Indices 1 2 3 4 5 6 
#
# 1 122.0551 25.2000 43.7175 -4.2996 -14.3624 22.7045
# 2 25.2000 71.9041 26.1302 -20.4002 -0.4691 17.6076
# 3 43.7175 26.1302 147.1539 0.6969 -17.1475 16.6382
# 4 -4.2996 -20.4002 0.6969 26.0302 9.7669 0.0153
# 5 -14.3624 -0.4691 -17.1475 9.7669 37.5984 -0.5661
# 6 22.7045 17.6076 16.6382 0.0153 -0.5661 34.9873
#
#
#
# Elastic Compliance Matrix: (Units=1/GPa)
#
#
# Indices 1 2 3 4 5 6 
#
# 1 0.010546 -0.002175 -0.001795 -0.001195 0.003420 -0.004839
# 2 -0.002175 0.024450 -0.003687 0.021924 -0.008042 -0.009279
# 3 -0.001795 -0.003687 0.008651 -0.005116 0.004527 -0.001018
# 4 -0.001195 0.021924 -0.005116 0.062639 -0.018911 -0.008158
# 5 0.003420 -0.008042 0.004527 -0.018911 0.034784 0.000246
# 6 -0.004839 -0.009279 -0.001018 -0.008158 0.000246 0.036883
#
#
# Mechanical properties :
#
#
# Convention : Reuss Voigt Hill
#
# Bulk Modulus (GPa) = 35.29793 59.02315 47.16054
# Shear Modulus (GPa) = 24.66572 36.12754 30.39663
#
# Velocity S-wave (km/s) = 3.27049 3.95809 3.63060
# Velocity P-wave (km/s) = 5.43766 6.81789 6.16651
#
# Compressibility (1/GPa) = 0.02833028
#
# Stress axis : x y z
#
# Youngs Moduli (GPa) = 94.82532 40.90056 115.59993
#
# Poissons Ratio (x) = 0.08897 0.20755
# Poissons Ratio (y) = 0.20627 0.42623
# Poissons Ratio (z) = 0.17025 0.15080
#
# Static dielectric constant tensor:
#      x y z
#    x 4.219500 -0.021890 -0.417060 
#    y -0.021890 4.222850 -0.186770 
#    z -0.417060 -0.186770 4.564360 
# 
# 
# High freq. dielectric constant tensor:
#      x y z
#    x 1.903760 0.001470 -0.014720 
#    y 0.001470 1.919020 -0.004390 
#    z -0.014720 -0.004390 1.916140 
# 
# From -- ./inp_files/313956.got.cif
#   From: 2010.06.25/outbox.cif.g09.slc.cpg/sg2_157_cif.got.tgz:313956.got - 2010.06.27 13:26:56.
