data_PCOD8013881
_publ_section_title
;
Structure prediction by ZEFSAII (Michael W. Deem and Ramdas Pophale) SiO2 
 PCOD8013881
Probable space group: P -1
;
_chemical_formula_sum "Si O2"
_cell_formula_units_Z 16
_cell_length_a 14.700091
_cell_length_b 9.750972
_cell_length_c 14.339498
_cell_angle_alpha 82.983063
_cell_angle_beta 29.257843
_cell_angle_gamma 102.203046
_cell_volume 752.991028
_symmetry_space_group_name_H-M "P -1"
_symmetry_group_IT_number 2
_symmetry_cell_setting 'triclinic'
loop_
_space_group_symop_operation_xyz
x,y,z
-x,-y,-z
loop_
_atom_site_type_symbol
_atom_site_label
_atom_site_fract_x
_atom_site_fract_y
_atom_site_fract_z
Si Si1 0.742398 0.489576 0.308065
Si Si2 0.130066 0.476583 0.023298
Si Si3 0.021147 0.804778 0.668966
Si Si4 0.228829 0.309985 0.369615
Si Si5 0.362418 0.179478 0.413463
Si Si6 0.150179 0.706026 0.380934
Si Si7 0.585460 0.733479 0.970716
Si Si8 0.778055 0.812444 0.262206
O O1 0.801553 0.526616 0.142756
O O2 0.828922 0.678477 0.257099
O O3 0.454473 0.310356 0.590789
O O4 0.880544 0.442458 0.248710
O O5 0.342396 0.670077 0.866670
O O6 0.095098 0.319941 0.125055
O O7 0.072843 0.710819 0.554646
O O8 0.835724 0.836974 0.798390
O O9 0.278316 0.000952 0.449980
O O10 0.243781 0.257432 0.464458
O O11 0.398223 0.526401 0.191017
O O12 0.943929 0.211946 0.607053
O O13 0.338749 0.247097 0.206632
O O14 0.276442 0.128005 0.601217
O O15 0.443768 0.813184 0.101887
O O16 0.000000 0.500000 0.500000
O O17 0.000000 0.000000 0.000000
#
# Coordination Sequence:
#
# PCOD8013881 Si02
#       8
#     2   2   2   2   2   2   2   2
#     4   9  21  40  65  89 115 171 201 238 317 373
#     4  10  21  41  63  86 124 158 206 254 302 368
#     4  11  22  39  60  91 125 162 204 257 309 356
#     4   9  18  37  60  85 122 158 207 249 300 364
#     4  11  23  38  61  92 122 159 203 255 309 361
#     4   9  20  36  62  88 115 168 209 240 311 365
#     4   9  18  37  62  82 121 168 195 252 308 355
#     4  10  21  41  63  92 128 156 200 255 304 367
#
# _framework density 21.248591999999999
#
# number of rings (size 3 to 8) (size 9 to 14) (size 15 to 20)
#    0.000    2.250    1.250    1.500    0.000    5.000 
#    6.750    5.000    0.000    0.000    0.000    0.000 
#    0.000    0.000    0.000    0.000    0.000    0.000 
#
# Total GULP energy -198309.670041 kJ/mol
# GULP energy per Si atom -12394.354378 kJ/mol
# Density = 2.120023 g / cm^3
# Si number density = 21.248592 Si / 1000 Ang^3
#
#
#
# Elastic Constant Matrix: (Units=GPa)
#
#
# Indices 1 2 3 4 5 6 
#
# 1 92.6639 28.8795 36.5206 -2.2939 -11.0826 -5.2757
# 2 28.8795 81.7848 38.8578 4.5599 -14.8478 7.5875
# 3 36.5206 38.8578 95.0400 -3.4248 -18.5862 -10.7896
# 4 -2.2939 4.5599 -3.4248 35.2726 -6.7583 -13.1464
# 5 -11.0826 -14.8478 -18.5862 -6.7583 27.2981 0.0402
# 6 -5.2757 7.5875 -10.7896 -13.1464 0.0402 24.6032
#
#
#
# Elastic Compliance Matrix: (Units=1/GPa)
#
#
# Indices 1 2 3 4 5 6 
#
# 1 0.013632 -0.003785 -0.002510 0.003427 0.002608 0.004816
# 2 -0.003785 0.019769 -0.008494 -0.009196 0.001178 -0.015549
# 3 -0.002510 -0.008494 0.019152 0.010761 0.010041 0.016214
# 4 0.003427 -0.009196 0.010761 0.045912 0.015035 0.032798
# 5 0.002608 0.001178 0.010041 0.015035 0.048872 0.012553
# 6 0.004816 -0.015549 0.016214 0.032798 0.012553 0.071089
#
#
# Mechanical properties :
#
#
# Convention : Reuss Voigt Hill
#
# Bulk Modulus (GPa) = 43.53075 53.11162 48.32119
# Shear Modulus (GPa) = 19.55702 28.45017 24.00360
#
# Velocity S-wave (km/s) = 3.03709 3.66310 3.36468
# Velocity P-wave (km/s) = 5.72970 6.55291 6.15508
#
# Compressibility (1/GPa) = 0.02297227
#
# Stress axis : x y z
#
# Youngs Moduli (GPa) = 73.35844 50.58431 52.21514
#
# Poissons Ratio (x) = 0.19148 0.13108
# Poissons Ratio (y) = 0.27769 0.44353
# Poissons Ratio (z) = 0.18415 0.42968
#
# Static dielectric constant tensor:
#      x y z
#    x 3.983910 -0.079490 -0.380530 
#    y -0.079490 3.763740 0.174720 
#    z -0.380530 0.174720 3.916200 
# 
# 
# High freq. dielectric constant tensor:
#      x y z
#    x 1.835290 0.000660 -0.013210 
#    y 0.000660 1.822150 -0.002780 
#    z -0.013210 -0.002780 1.827370 
# 
# From -- ./inp_files/529609.got.cif
#   From: 2010.06.25/outbox.cif.g09.slc.cpg/sg2_265_cif.got.tgz:529609.got - 2010.06.27 13:26:56.
