data_PCOD8013181
_publ_section_title
;
Structure prediction by ZEFSAII (Michael W. Deem and Ramdas Pophale) SiO2 
 PCOD8013181
Probable space group: P -1
;
_chemical_formula_sum "Si O2"
_cell_formula_units_Z 14
_cell_length_a 14.795293
_cell_length_b 9.598115
_cell_length_c 8.047611
_cell_angle_alpha 101.036460
_cell_angle_beta 51.264155
_cell_angle_gamma 128.201623
_cell_volume 663.932348
_symmetry_space_group_name_H-M "P -1"
_symmetry_group_IT_number 2
_symmetry_cell_setting 'triclinic'
loop_
_space_group_symop_operation_xyz
x,y,z
-x,-y,-z
loop_
_atom_site_type_symbol
_atom_site_label
_atom_site_fract_x
_atom_site_fract_y
_atom_site_fract_z
Si Si1 0.018430 0.090887 0.825335
Si Si2 0.822276 0.529561 0.414691
Si Si3 0.366758 0.799220 0.679174
Si Si4 0.336069 0.426621 0.123788
Si Si5 0.222023 0.096571 0.374915
Si Si6 0.518019 0.386727 0.324452
Si Si7 0.156884 0.828232 0.134756
O O1 0.160123 0.319011 0.696470
O O2 0.062201 0.996476 0.630319
O O3 0.865457 0.055653 0.941360
O O4 0.000000 0.000000 0.000000
O O5 0.753043 0.338620 0.357709
O O6 0.711780 0.476898 0.685393
O O7 0.991721 0.621950 0.306091
O O8 0.443670 0.721007 0.641946
O O9 0.500000 0.000000 0.500000
O O10 0.278696 0.813887 0.926301
O O11 0.220794 0.206620 0.246538
O O12 0.500000 0.500000 0.000000
O O13 0.341632 0.470113 0.932049
O O14 0.363846 0.231666 0.365476
O O15 0.219589 0.936868 0.263729
O O16 0.500000 0.500000 0.500000
#
# Coordination Sequence:
#
# PCOD8013181 Si02
#       7
#     2   2   2   2   2   2   2
#     4   9  20  38  71  99 133 173 230 269 329 404
#     4   9  22  45  64  94 133 182 217 271 343 393
#     4  12  27  44  68  98 137 180 224 283 342 403
#     4   9  19  38  68  93 134 167 221 279 326 389
#     4  10  21  40  66 102 132 175 223 276 338 397
#     4  11  25  42  69  99 132 175 234 277 336 405
#     4  10  24  42  66  92 144 175 218 276 346 395
#
# _framework density 21.086483999999999
#
# number of rings (size 3 to 8) (size 9 to 14) (size 15 to 20)
#    0.857    1.143    0.000    3.429    8.000    1.714 
#    0.000    0.714    0.000    0.000    0.000    0.000 
#    0.000    0.000    0.000    0.000    0.000    0.000 
#
# Total GULP energy -173460.892509 kJ/mol
# GULP energy per Si atom -12390.063751 kJ/mol
# Density = 2.103849 g / cm^3
# Si number density = 21.086484 Si / 1000 Ang^3
#
#
#
# Elastic Constant Matrix: (Units=GPa)
#
#
# Indices 1 2 3 4 5 6 
#
# 1 79.7160 48.0327 37.2636 4.0915 -1.9304 0.2818
# 2 48.0327 130.5142 72.3122 28.4004 4.9301 19.7766
# 3 37.2636 72.3122 165.1343 16.8756 2.2658 -7.3257
# 4 4.0915 28.4004 16.8756 41.4044 -8.3965 2.6349
# 5 -1.9304 4.9301 2.2658 -8.3965 37.4015 2.0046
# 6 0.2818 19.7766 -7.3257 2.6349 2.0046 37.0110
#
#
#
# Elastic Compliance Matrix: (Units=1/GPa)
#
#
# Indices 1 2 3 4 5 6 
#
# 1 0.017214 -0.007193 -0.001042 0.003995 0.002632 0.003079
# 2 -0.007193 0.016510 -0.005059 -0.008737 -0.003723 -0.008945
# 3 -0.001042 -0.005059 0.008741 -0.000320 -0.000228 0.004477
# 4 0.003995 -0.008737 -0.000320 0.031452 0.008337 0.001884
# 5 0.002632 -0.003723 -0.000228 0.008337 0.029263 -0.000254
# 6 0.003079 -0.008945 0.004477 0.001884 -0.000254 0.032541
#
#
# Mechanical properties :
#
#
# Convention : Reuss Voigt Hill
#
# Bulk Modulus (GPa) = 62.99243 76.73129 69.86186
# Shear Modulus (GPa) = 29.83289 37.68044 33.75666
#
# Velocity S-wave (km/s) = 3.76545 4.23182 4.00542
# Velocity P-wave (km/s) = 6.98878 7.76824 7.38879
#
# Compressibility (1/GPa) = 0.01587492
#
# Stress axis : x y z
#
# Youngs Moduli (GPa) = 58.09330 60.57077 114.40579
#
# Poissons Ratio (x) = 0.43568 0.11926
# Poissons Ratio (y) = 0.41786 0.57881
# Poissons Ratio (z) = 0.06056 0.30644
#
# Static dielectric constant tensor:
#      x y z
#    x 3.602130 0.064130 0.150070 
#    y 0.064130 3.775130 -0.092580 
#    z 0.150070 -0.092580 4.246720 
# 
# 
# High freq. dielectric constant tensor:
#      x y z
#    x 1.803590 0.014290 -0.008100 
#    y 0.014290 1.817420 0.007680 
#    z -0.008100 0.007680 1.839750 
# 
# From -- ./inp_files/292697.got.cif
#   From: 2010.06.25/outbox.cif.g09.slc.cpg/sg2_147_cif.got.tgz:292697.got - 2010.06.27 13:26:56.
