data_PCOD8013107
_publ_section_title
;
Structure prediction by ZEFSAII (Michael W. Deem and Ramdas Pophale) SiO2 
 PCOD8013107
Probable space group: P -1
;
_chemical_formula_sum "Si O2"
_cell_formula_units_Z 12
_cell_length_a 9.112314
_cell_length_b 5.425634
_cell_length_c 21.313345
_cell_angle_alpha 57.124369
_cell_angle_beta 143.337742
_cell_angle_gamma 128.592822
_cell_volume 489.729469
_symmetry_space_group_name_H-M "P -1"
_symmetry_group_IT_number 2
_symmetry_cell_setting 'triclinic'
loop_
_space_group_symop_operation_xyz
x,y,z
-x,-y,-z
loop_
_atom_site_type_symbol
_atom_site_label
_atom_site_fract_x
_atom_site_fract_y
_atom_site_fract_z
Si Si1 0.443033 0.121735 0.318927
Si Si2 0.573406 0.549739 0.421211
Si Si3 0.880810 0.484883 0.648654
Si Si4 0.705320 0.341116 0.042073
Si Si5 0.437664 0.757566 0.853326
Si Si6 0.205811 0.520366 0.121255
O O1 0.588913 0.412167 0.376639
O O2 0.353185 0.268359 0.205865
O O3 0.621665 0.927638 0.382397
O O4 0.191028 0.879073 0.304389
O O5 0.805307 0.504158 0.547643
O O6 0.290485 0.368624 0.385569
O O7 0.196063 0.666637 0.734733
O O8 0.646644 0.585106 0.938536
O O9 0.679862 0.396368 0.098662
O O10 0.018229 0.411198 0.133637
O O11 0.500000 0.000000 0.000000
O O12 0.576475 0.131812 0.848177
O O13 0.000000 0.500000 0.000000
#
# Coordination Sequence:
#
# PCOD8013107 Si02
#       6
#     2   2   2   2   2   2
#     4  10  21  40  65  93 132 176 215 276 331 391
#     4   9  20  39  70  94 128 175 221 275 332 393
#     4   9  20  37  68  95 127 172 225 270 335 394
#     4  11  23  43  65  89 133 177 223 273 329 396
#     4  11  24  41  65  98 129 175 226 272 334 397
#     4  12  25  42  64  99 137 176 221 275 335 397
#
# _framework density 24.503323000000002
#
# number of rings (size 3 to 8) (size 9 to 14) (size 15 to 20)
#    1.000    0.667    1.667    3.000    2.333    1.333 
#    0.000    1.667    0.000    0.000    0.000    0.000 
#    0.000    0.000    0.000    0.000    0.000    0.000 
#
# Total GULP energy -148687.897698 kJ/mol
# GULP energy per Si atom -12390.658141 kJ/mol
# Density = 2.444755 g / cm^3
# Si number density = 24.503323 Si / 1000 Ang^3
#
#
#
# Elastic Constant Matrix: (Units=GPa)
#
#
# Indices 1 2 3 4 5 6 
#
# 1 15.7345 13.2878 6.9992 4.5655 -0.1198 -5.6428
# 2 13.2878 139.0741 79.1728 -21.7358 0.6055 -9.7038
# 3 6.9992 79.1728 169.6621 -11.3280 -13.9017 3.2848
# 4 4.5655 -21.7358 -11.3280 46.0321 1.9819 -1.7959
# 5 -0.1198 0.6055 -13.9017 1.9819 33.2685 4.5167
# 6 -5.6428 -9.7038 3.2848 -1.7959 4.5167 39.5743
#
#
#
# Elastic Compliance Matrix: (Units=1/GPa)
#
#
# Indices 1 2 3 4 5 6 
#
# 1 0.077082 -0.008457 -0.000163 -0.011345 -0.000105 0.008428
# 2 -0.008457 0.012027 -0.005208 0.005480 -0.003130 0.002782
# 3 -0.000163 -0.005208 0.008677 -0.000582 0.004096 -0.002514
# 4 -0.011345 0.005480 -0.000582 0.025427 -0.002057 0.001163
# 5 -0.000105 -0.003130 0.004096 -0.002057 0.032620 -0.004939
# 6 0.008428 0.002782 -0.002514 0.001163 -0.004939 0.027978
#
#
# Mechanical properties :
#
#
# Convention : Reuss Voigt Hill
#
# Bulk Modulus (GPa) = 14.25903 58.15448 36.20675
# Shear Modulus (GPa) = 21.29078 38.77571 30.03325
#
# Velocity S-wave (km/s) = 2.95090 3.98234 3.50477
# Velocity P-wave (km/s) = 4.17639 6.70300 5.58446
#
# Compressibility (1/GPa) = 0.07013100
#
# Stress axis : x y z
#
# Youngs Moduli (GPa) = 12.97313 83.14324 115.25263
#
# Poissons Ratio (x) = 0.70311 0.01877
# Poissons Ratio (y) = 0.10971 0.60026
# Poissons Ratio (z) = 0.00211 0.43302
#
# Static dielectric constant tensor:
#      x y z
#    x 4.207570 -0.118820 -0.169160 
#    y -0.118820 3.964070 -0.359320 
#    z -0.169160 -0.359320 4.530670 
# 
# 
# High freq. dielectric constant tensor:
#      x y z
#    x 1.959930 0.000710 -0.008990 
#    y 0.000710 1.956740 -0.012870 
#    z -0.008990 -0.012870 1.990050 
# 
# From -- ./inp_files/36069.got.cif
#   From: 2010.06.25/outbox.cif.g09.slc.cpg/sg2_19_cif.got.tgz:36069.got - 2010.06.27 13:26:56.
