data_PCOD8013118
_publ_section_title
;
Structure prediction by ZEFSAII (Michael W. Deem and Ramdas Pophale) SiO2 
 PCOD8013118
Probable space group: P -1
;
_chemical_formula_sum "Si O2"
_cell_formula_units_Z 16
_cell_length_a 10.831043
_cell_length_b 15.867196
_cell_length_c 14.803999
_cell_angle_alpha 142.441943
_cell_angle_beta 141.383716
_cell_angle_gamma 66.927809
_cell_volume 775.737599
_symmetry_space_group_name_H-M "P -1"
_symmetry_group_IT_number 2
_symmetry_cell_setting 'triclinic'
loop_
_space_group_symop_operation_xyz
x,y,z
-x,-y,-z
loop_
_atom_site_type_symbol
_atom_site_label
_atom_site_fract_x
_atom_site_fract_y
_atom_site_fract_z
Si Si1 0.626438 0.002441 0.165627
Si Si2 0.696318 0.291593 0.734447
Si Si3 0.308551 0.282888 0.040031
Si Si4 0.009514 0.256064 0.007711
Si Si5 0.985289 0.317705 0.753390
Si Si6 0.876042 0.524744 0.573842
Si Si7 0.877013 0.239340 0.249556
Si Si8 0.117010 0.062057 0.217993
O O1 0.844822 0.196245 0.483640
O O2 0.742230 0.900111 0.130392
O O3 0.417042 0.910384 0.045666
O O4 0.500000 0.000000 0.000000
O O5 0.779832 0.295011 0.683226
O O6 0.407719 0.194228 0.487008
O O7 0.766162 0.195540 0.760234
O O8 0.833505 0.487421 0.013161
O O9 0.235768 0.331123 0.131504
O O10 0.592429 0.433931 0.307705
O O11 0.143551 0.264750 0.847152
O O12 0.079510 0.413488 0.245540
O O13 0.961501 0.098114 0.901562
O O14 0.943434 0.391158 0.485987
O O15 0.050184 0.690484 0.751044
O O16 0.020240 0.161077 0.295266
O O17 0.000000 0.000000 0.000000
#
# Coordination Sequence:
#
# PCOD8013118 Si02
#       8
#     2   2   2   2   2   2   2   2
#     4  11  23  40  66  94 132 168 212 267 318 379
#     4  10  24  41  63  94 127 169 213 265 319 374
#     4  10  22  40  65  95 127 165 218 257 322 379
#     4  11  23  40  65  96 129 165 212 267 316 378
#     4  10  22  41  64  92 127 170 214 262 319 378
#     4  10  21  40  65  94 128 167 207 266 315 381
#     4  10  22  39  62  93 127 165 217 248 322 378
#     4  12  22  40  65  92 127 167 214 261 315 383
#
# _framework density 20.625533000000001
#
# number of rings (size 3 to 8) (size 9 to 14) (size 15 to 20)
#    0.000    1.500    1.250    3.375    3.500    0.000 
#    2.250    0.625    5.500    0.000    0.000    0.000 
#    0.000    0.000    0.000    0.000    0.000    0.000 
#
# Total GULP energy -198454.475289 kJ/mol
# GULP energy per Si atom -12403.404706 kJ/mol
# Density = 2.057859 g / cm^3
# Si number density = 20.625533 Si / 1000 Ang^3
#
#
#
# Elastic Constant Matrix: (Units=GPa)
#
#
# Indices 1 2 3 4 5 6 
#
# 1 99.1957 40.4376 52.5612 -8.2336 -2.3832 -13.1444
# 2 40.4376 132.5618 39.6559 -5.7791 -7.3954 -8.4294
# 3 52.5612 39.6559 114.0707 -6.0594 -5.0583 0.9728
# 4 -8.2336 -5.7791 -6.0594 26.0901 -1.6111 1.8262
# 5 -2.3832 -7.3954 -5.0583 -1.6111 32.7319 -0.2451
# 6 -13.1444 -8.4294 0.9728 1.8262 -0.2451 38.9310
#
#
#
# Elastic Compliance Matrix: (Units=1/GPa)
#
#
# Indices 1 2 3 4 5 6 
#
# 1 0.015062 -0.002405 -0.006021 0.002487 -0.000220 0.004597
# 2 -0.002405 0.009057 -0.001935 0.000816 0.001621 0.001169
# 3 -0.006021 -0.001935 0.012326 0.000794 0.001047 -0.002791
# 4 0.002487 0.000816 0.000794 0.039688 0.002435 -0.000850
# 5 -0.000220 0.001621 0.001047 0.002435 0.031186 0.000332
# 6 0.004597 0.001169 -0.002791 -0.000850 0.000332 0.027603
#
#
# Mechanical properties :
#
#
# Convention : Reuss Voigt Hill
#
# Bulk Modulus (GPa) = 63.60333 67.90416 65.75375
# Shear Modulus (GPa) = 31.07801 33.76217 32.42009
#
# Velocity S-wave (km/s) = 3.88593 4.05027 3.96895
# Velocity P-wave (km/s) = 7.14409 7.40721 7.27684
#
# Compressibility (1/GPa) = 0.01572245
#
# Stress axis : x y z
#
# Youngs Moduli (GPa) = 66.39119 110.41787 81.12931
#
# Poissons Ratio (x) = 0.26556 0.48849
# Poissons Ratio (y) = 0.15967 0.15698
# Poissons Ratio (z) = 0.39975 0.21366
#
# Static dielectric constant tensor:
#      x y z
#    x 3.867000 -0.165830 0.068200 
#    y -0.165830 3.929140 0.092000 
#    z 0.068200 0.092000 3.605280 
# 
# 
# High freq. dielectric constant tensor:
#      x y z
#    x 1.811780 -0.009220 0.005070 
#    y -0.009220 1.819930 0.007870 
#    z 0.005070 0.007870 1.797470 
# 
# From -- ./inp_files/308436.got.cif
#   From: 2010.06.25/outbox.cif.g09.slc.cpg/sg2_155_cif.got.tgz:308436.got - 2010.06.27 13:26:56.
