data_PCOD8013012
_publ_section_title
;
Structure prediction by ZEFSAII (Michael W. Deem and Ramdas Pophale) SiO2 
 PCOD8013012
Probable space group: P -1
;
_chemical_formula_sum "Si O2"
_cell_formula_units_Z 12
_cell_length_a 6.545395
_cell_length_b 17.535140
_cell_length_c 6.196134
_cell_angle_alpha 113.665054
_cell_angle_beta 104.864399
_cell_angle_gamma 53.567011
_cell_volume 523.889665
_symmetry_space_group_name_H-M "P -1"
_symmetry_group_IT_number 2
_symmetry_cell_setting 'triclinic'
loop_
_space_group_symop_operation_xyz
x,y,z
-x,-y,-z
loop_
_atom_site_type_symbol
_atom_site_label
_atom_site_fract_x
_atom_site_fract_y
_atom_site_fract_z
Si Si1 0.175899 0.434211 0.280982
Si Si2 0.282404 0.724831 0.559862
Si Si3 0.513541 0.063064 0.763393
Si Si4 0.973889 0.379379 0.799046
Si Si5 0.807829 0.874238 0.864242
Si Si6 0.471895 0.200042 0.565598
O O1 0.454306 0.351516 0.341344
O O2 0.195288 0.506809 0.202204
O O3 0.000000 0.500000 0.500000
O O4 0.048049 0.381641 0.070996
O O5 0.188497 0.668946 0.323631
O O6 0.302190 0.798103 0.483931
O O7 0.091697 0.788539 0.775604
O O8 0.562430 0.143020 0.758297
O O9 0.500000 0.000000 0.500000
O O10 0.738940 0.984430 0.896944
O O11 0.243811 0.124392 0.891316
O O12 0.234859 0.314535 0.661049
O O13 0.606705 0.857669 0.675773
#
# Coordination Sequence:
#
# PCOD8013012 Si02
#       6
#     2   2   2   2   2   2
#     4  11  23  45  67  93 139 176 219 280 326 396
#     4  11  23  43  70 102 130 179 225 269 339 393
#     4   9  19  41  66  92 138 173 213 282 327 387
#     4  10  24  44  63  98 135 176 222 273 332 393
#     4   9  21  42  65  95 134 175 221 271 329 397
#     4  10  21  40  64  99 134 169 223 276 327 391
#
# _framework density 22.905588999999999
#
# number of rings (size 3 to 8) (size 9 to 14) (size 15 to 20)
#    0.000    2.000    1.667    0.500    2.333    1.333 
#   12.000    7.500    0.000    0.000    0.000    0.000 
#    0.000    0.000    0.000    0.000    0.000    0.000 
#
# Total GULP energy -148755.694908 kJ/mol
# GULP energy per Si atom -12396.307909 kJ/mol
# Density = 2.285345 g / cm^3
# Si number density = 22.905589 Si / 1000 Ang^3
#
#
#
# Elastic Constant Matrix: (Units=GPa)
#
#
# Indices 1 2 3 4 5 6 
#
# 1 133.5107 67.3753 74.8431 -3.7129 -10.9211 2.7455
# 2 67.3753 119.6469 54.2411 10.2528 -7.7191 2.5303
# 3 74.8431 54.2411 156.2544 4.7757 -17.6831 -8.0847
# 4 -3.7129 10.2528 4.7757 19.4414 -1.6141 -6.8554
# 5 -10.9211 -7.7191 -17.6831 -1.6141 33.5263 -2.9784
# 6 2.7455 2.5303 -8.0847 -6.8554 -2.9784 35.1424
#
#
#
# Elastic Compliance Matrix: (Units=1/GPa)
#
#
# Indices 1 2 3 4 5 6 
#
# 1 0.013228 -0.005981 -0.004371 0.006757 0.000933 -0.000211
# 2 -0.005981 0.013245 -0.001649 -0.008671 -0.000416 -0.002592
# 3 -0.004371 -0.001649 0.009635 -0.001070 0.003472 0.002762
# 4 0.006757 -0.008671 -0.001070 0.062210 0.003729 0.012302
# 5 0.000933 -0.000416 0.003472 0.003729 0.032422 0.004231
# 6 -0.000211 -0.002592 0.002762 0.012302 0.004231 0.032053
#
#
# Mechanical properties :
#
#
# Convention : Reuss Voigt Hill
#
# Bulk Modulus (GPa) = 82.62108 89.14790 85.88449
# Shear Modulus (GPa) = 26.20144 31.81884 29.01014
#
# Velocity S-wave (km/s) = 3.38581 3.73115 3.56267
# Velocity P-wave (km/s) = 7.17172 7.58724 7.38240
#
# Compressibility (1/GPa) = 0.01210345
#
# Stress axis : x y z
#
# Youngs Moduli (GPa) = 75.59993 75.50216 103.79311
#
# Poissons Ratio (x) = 0.45161 0.45371
# Poissons Ratio (y) = 0.45219 0.17115
# Poissons Ratio (z) = 0.33047 0.12450
#
# Static dielectric constant tensor:
#      x y z
#    x 3.885470 0.255920 -0.152980 
#    y 0.255920 4.793980 -0.058650 
#    z -0.152980 -0.058650 4.344060 
# 
# 
# High freq. dielectric constant tensor:
#      x y z
#    x 1.873190 0.010070 -0.008370 
#    y 0.010070 1.919300 0.008420 
#    z -0.008370 0.008420 1.915530 
# 
# From -- ./inp_files/3290.got.cif
#   From: 2010.06.25/outbox.cif.g09.slc.cpg/sg2_2_cif.got.tgz:3290.got - 2010.06.27 13:26:56.
