data_PCOD8013661
_publ_section_title
;
Structure prediction by ZEFSAII (Michael W. Deem and Ramdas Pophale) SiO2 
 PCOD8013661
Probable space group: P -1
;
_chemical_formula_sum "Si O2"
_cell_formula_units_Z 16
_cell_length_a 7.010442
_cell_length_b 16.767886
_cell_length_c 16.112295
_cell_angle_alpha 32.100993
_cell_angle_beta 124.947322
_cell_angle_gamma 133.942379
_cell_volume 724.159435
_symmetry_space_group_name_H-M "P -1"
_symmetry_group_IT_number 2
_symmetry_cell_setting 'triclinic'
loop_
_space_group_symop_operation_xyz
x,y,z
-x,-y,-z
loop_
_atom_site_type_symbol
_atom_site_label
_atom_site_fract_x
_atom_site_fract_y
_atom_site_fract_z
Si Si1 0.508471 0.089305 0.151544
Si Si2 0.878741 0.328086 0.170997
Si Si3 0.898777 0.982735 0.299689
Si Si4 0.968616 0.772555 0.359749
Si Si5 0.109245 0.500110 0.616804
Si Si6 0.820656 0.798287 0.127419
Si Si7 0.337635 0.258196 0.400161
Si Si8 0.464525 0.166588 0.338466
O O1 0.680155 0.171260 0.203543
O O2 0.694391 0.053941 0.163985
O O3 0.256393 0.912661 0.273201
O O4 0.433860 0.223360 0.969163
O O5 0.711253 0.322111 0.216213
O O6 0.135807 0.321149 0.268677
O O7 0.000000 0.500000 0.000000
O O8 0.822855 0.910880 0.437051
O O9 0.865902 0.841614 0.348510
O O10 0.202736 0.130344 0.252074
O O11 0.987986 0.604751 0.546223
O O12 0.762137 0.726498 0.271195
O O13 0.040839 0.303487 0.795930
O O14 0.428175 0.600808 0.609897
O O15 0.000000 0.500000 0.500000
O O16 0.000000 0.000000 0.000000
O O17 0.465631 0.224871 0.380447
O O18 0.500000 0.000000 0.500000
#
# Coordination Sequence:
#
# PCOD8013661 Si02
#       8
#     2   2   2   2   2   2   2   2
#     4  11  21  42  65  94 142 181 227 283 343 411
#     4  12  26  42  66  98 144 184 227 285 348 412
#     4  12  22  38  71 105 133 179 234 282 340 413
#     4  10  21  40  70  98 131 178 231 289 341 399
#     4  10  21  42  68  95 130 172 227 289 342 395
#     4   9  21  41  69  91 131 185 224 281 349 411
#     4  12  24  40  68 100 135 177 229 280 342 405
#     4  12  23  41  68  99 136 180 228 280 339 403
#
# _framework density 22.094581999999999
#
# number of rings (size 3 to 8) (size 9 to 14) (size 15 to 20)
#    0.000    1.000    5.000    2.625    0.000    1.000 
#    0.000    2.500    8.250    0.000    0.000    0.000 
#    0.000    0.000    0.000    0.000    0.000    0.000 
#
# Total GULP energy -198228.346804 kJ/mol
# GULP energy per Si atom -12389.271675 kJ/mol
# Density = 2.204429 g / cm^3
# Si number density = 22.094582 Si / 1000 Ang^3
#
#
#
# Elastic Constant Matrix: (Units=GPa)
#
#
# Indices 1 2 3 4 5 6 
#
# 1 149.0112 46.9111 69.4290 6.6135 12.6092 -17.2835
# 2 46.9111 99.3328 29.8452 14.8415 11.5049 -2.8190
# 3 69.4290 29.8452 129.8916 -2.2092 21.8412 -5.2726
# 4 6.6135 14.8415 -2.2092 37.2336 3.2990 7.2871
# 5 12.6092 11.5049 21.8412 3.2990 47.0620 0.5760
# 6 -17.2835 -2.8190 -5.2726 7.2871 0.5760 36.1646
#
#
#
# Elastic Compliance Matrix: (Units=1/GPa)
#
#
# Indices 1 2 3 4 5 6 
#
# 1 0.010506 -0.003162 -0.004781 -0.001779 0.000247 0.004432
# 2 -0.003162 0.012725 -0.001054 -0.004494 -0.001463 0.000256
# 3 -0.004781 -0.001054 0.011127 0.002497 -0.003786 -0.001188
# 4 -0.001779 -0.004494 0.002497 0.030625 -0.001645 -0.006981
# 5 0.000247 -0.001463 -0.003786 -0.001645 0.023419 -0.000589
# 6 0.004432 0.000256 -0.001188 -0.006981 -0.000589 0.031032
#
#
# Mechanical properties :
#
#
# Convention : Reuss Voigt Hill
#
# Bulk Modulus (GPa) = 61.10750 74.51179 67.80964
# Shear Modulus (GPa) = 34.99347 39.56208 37.27777
#
# Velocity S-wave (km/s) = 3.98402 4.23611 4.11200
# Velocity P-wave (km/s) = 6.99146 7.59759 7.30082
#
# Compressibility (1/GPa) = 0.01636460
#
# Stress axis : x y z
#
# Youngs Moduli (GPa) = 95.18265 78.58392 89.86945
#
# Poissons Ratio (x) = 0.24851 0.42967
# Poissons Ratio (y) = 0.30100 0.09469
# Poissons Ratio (z) = 0.45507 0.08280
#
# Static dielectric constant tensor:
#      x y z
#    x 5.626680 -0.006530 1.650570 
#    y -0.006530 4.572790 0.089640 
#    z 1.650570 0.089640 5.280160 
# 
# 
# High freq. dielectric constant tensor:
#      x y z
#    x 1.858630 0.001460 0.033360 
#    y 0.001460 1.883570 0.011480 
#    z 0.033360 0.011480 1.859910 
# 
# From -- ./inp_files/81189.got.cif
#   From: 2010.06.25/outbox.cif.g09.slc.cpg/sg2_41_cif.got.tgz:81189.got - 2010.06.27 13:26:56.
