data_PCOD8013830
_publ_section_title
;
Structure prediction by ZEFSAII (Michael W. Deem and Ramdas Pophale) SiO2 
 PCOD8013830
Probable space group: P -1
;
_chemical_formula_sum "Si O2"
_cell_formula_units_Z 14
_cell_length_a 14.794561
_cell_length_b 11.851950
_cell_length_c 11.075757
_cell_angle_alpha 43.016083
_cell_angle_beta 52.052788
_cell_angle_gamma 28.666308
_cell_volume 633.455018
_symmetry_space_group_name_H-M "P -1"
_symmetry_group_IT_number 2
_symmetry_cell_setting 'triclinic'
loop_
_space_group_symop_operation_xyz
x,y,z
-x,-y,-z
loop_
_atom_site_type_symbol
_atom_site_label
_atom_site_fract_x
_atom_site_fract_y
_atom_site_fract_z
Si Si1 0.780480 0.236272 0.706043
Si Si2 0.360537 0.641849 0.785059
Si Si3 0.863114 0.508465 0.450723
Si Si4 0.911916 0.313715 0.966789
Si Si5 0.079258 0.360386 0.172586
Si Si6 0.285637 0.795581 0.462706
Si Si7 0.166413 0.138720 0.683489
O O1 0.581928 0.371080 0.788010
O O2 0.765606 0.443113 0.602070
O O3 0.828212 0.175842 0.569836
O O4 0.939007 0.953896 0.864632
O O5 0.279995 0.573074 0.973259
O O6 0.235237 0.809333 0.632705
O O7 0.335866 0.821844 0.757771
O O8 0.742190 0.803438 0.371725
O O9 0.903250 0.484960 0.294129
O O10 0.064234 0.299961 0.515804
O O11 0.845614 0.561712 0.884977
O O12 0.007494 0.230255 0.823880
O O13 0.249748 0.032104 0.282947
O O14 0.000000 0.500000 0.000000
O O15 0.500000 0.500000 0.500000
#
# Coordination Sequence:
#
# PCOD8013830 Si02
#       7
#     2   2   2   2   2   2   2
#     4  11  23  40  64  95 126 167 215 258 319 383
#     4  11  23  41  66  91 129 172 207 260 327 373
#     4  10  22  39  64  89 127 170 213 261 309 387
#     4  11  23  39  63  95 128 163 213 269 310 373
#     4  11  21  38  67  95 121 171 213 258 326 371
#     4  10  22  41  62  94 130 161 213 258 315 389
#     4  10  21  41  62  91 127 168 217 256 315 374
#
# _framework density 22.101016999999999
#
# number of rings (size 3 to 8) (size 9 to 14) (size 15 to 20)
#    0.000    1.429    4.286    0.429    2.000    2.286 
#    0.000    8.571    0.000    0.000    0.000    0.000 
#    0.000    0.000    0.000    0.000    0.000    0.000 
#
# Total GULP energy -173518.696705 kJ/mol
# GULP energy per Si atom -12394.192622 kJ/mol
# Density = 2.205071 g / cm^3
# Si number density = 22.101017 Si / 1000 Ang^3
#
#
#
# Elastic Constant Matrix: (Units=GPa)
#
#
# Indices 1 2 3 4 5 6 
#
# 1 80.8566 31.2664 28.0925 -2.0653 -18.2977 19.7154
# 2 31.2664 83.6132 30.3252 -6.1525 -10.7888 23.3639
# 3 28.0925 30.3252 93.7757 -1.6121 -11.5823 6.3885
# 4 -2.0653 -6.1525 -1.6121 31.1346 12.1655 -5.0395
# 5 -18.2977 -10.7888 -11.5823 12.1655 40.8842 -1.8032
# 6 19.7154 23.3639 6.3885 -5.0395 -1.8032 36.2767
#
#
#
# Elastic Compliance Matrix: (Units=1/GPa)
#
#
# Indices 1 2 3 4 5 6 
#
# 1 0.017880 -0.002801 -0.003124 -0.003514 0.007093 -0.007499
# 2 -0.002801 0.017084 -0.003903 0.001027 0.001465 -0.008578
# 3 -0.003124 -0.003903 0.012903 -0.000578 0.001485 0.001932
# 4 -0.003514 0.001027 -0.000578 0.037906 -0.012480 0.005996
# 5 0.007093 0.001465 0.001485 -0.012480 0.031925 -0.005207
# 6 -0.007499 -0.008578 0.001932 0.005996 -0.005207 0.037400
#
#
# Mechanical properties :
#
#
# Convention : Reuss Voigt Hill
#
# Bulk Modulus (GPa) = 35.44556 48.62376 42.03466
# Shear Modulus (GPa) = 27.15077 32.89653 30.02365
#
# Velocity S-wave (km/s) = 3.50878 3.86225 3.68975
# Velocity P-wave (km/s) = 5.69984 6.47593 6.10024
#
# Compressibility (1/GPa) = 0.02821228
#
# Stress axis : x y z
#
# Youngs Moduli (GPa) = 55.92883 58.53363 77.49891
#
# Poissons Ratio (x) = 0.16395 0.24211
# Poissons Ratio (y) = 0.15666 0.30245
# Poissons Ratio (z) = 0.17472 0.22843
#
# Static dielectric constant tensor:
#      x y z
#    x 4.245350 0.588070 0.058640 
#    y 0.588070 3.877390 0.059460 
#    z 0.058640 0.059460 4.300110 
# 
# 
# High freq. dielectric constant tensor:
#      x y z
#    x 1.864840 0.038370 0.000910 
#    y 0.038370 1.856950 0.000690 
#    z 0.000910 0.000690 1.877490 
# 
# From -- ./inp_files/260458.got.cif
#   From: 2010.06.25/outbox.cif.g09.slc.cpg/sg2_131_cif.got.tgz:260458.got - 2010.06.27 13:26:56.
