data_PCOD8013774
_publ_section_title
;
Structure prediction by ZEFSAII (Michael W. Deem and Ramdas Pophale) SiO2 
 PCOD8013774
Probable space group: P -1
;
_chemical_formula_sum "Si O2"
_cell_formula_units_Z 16
_cell_length_a 14.653855
_cell_length_b 12.381136
_cell_length_c 6.709006
_cell_angle_alpha 131.559780
_cell_angle_beta 69.581855
_cell_angle_gamma 89.989595
_cell_volume 805.674950
_symmetry_space_group_name_H-M "P -1"
_symmetry_group_IT_number 2
_symmetry_cell_setting 'triclinic'
loop_
_space_group_symop_operation_xyz
x,y,z
-x,-y,-z
loop_
_atom_site_type_symbol
_atom_site_label
_atom_site_fract_x
_atom_site_fract_y
_atom_site_fract_z
Si Si1 0.834106 0.086525 0.742106
Si Si2 0.759383 0.806498 0.423569
Si Si3 0.002549 0.077777 0.890837
Si Si4 0.664240 0.395819 0.258102
Si Si5 0.486954 0.406262 0.705271
Si Si6 0.726734 0.661569 0.668682
Si Si7 0.578655 0.842971 0.327192
Si Si8 0.091037 0.346562 0.200921
O O1 0.888268 0.129803 0.947175
O O2 0.800822 0.938963 0.632192
O O3 0.737776 0.231228 0.927970
O O4 0.916333 0.050247 0.458986
O O5 0.713947 0.740494 0.560540
O O6 0.668500 0.881101 0.425849
O O7 0.848980 0.667406 0.074136
O O8 0.038874 0.218535 0.084593
O O9 0.000000 0.000000 0.000000
O O10 0.585627 0.363763 0.435377
O O11 0.610982 0.490695 0.220141
O O12 0.731979 0.486396 0.424776
O O13 0.473943 0.248651 0.599194
O O14 0.500000 0.500000 0.000000
O O15 0.829323 0.673614 0.704254
O O16 0.624936 0.742250 0.974438
O O17 0.500000 0.000000 0.500000
O O18 0.000000 0.500000 0.500000
#
# Coordination Sequence:
#
# PCOD8013774 Si02
#       8
#     2   2   2   2   2   2   2   2
#     4  10  23  39  62  91 122 160 203 249 305 363
#     4  10  23  41  59  90 128 155 207 252 294 374
#     4  10  21  41  61  91 123 155 204 251 299 368
#     4  11  24  40  64  91 124 165 203 250 311 355
#     4  11  24  43  60  91 128 158 209 255 295 370
#     4  11  22  41  61  91 123 160 203 253 299 364
#     4  11  25  41  64  91 123 165 205 251 308 358
#     4  10  22  39  63  90 121 158 201 249 308 361
#
# _framework density 19.859124999999999
#
# number of rings (size 3 to 8) (size 9 to 14) (size 15 to 20)
#    0.000    1.500    2.500    1.500    3.500    3.000 
#    0.000    0.000    0.000    0.000    0.000    0.000 
#    0.000    0.000    0.000    0.000    0.000    0.000 
#
# Total GULP energy -198407.271418 kJ/mol
# GULP energy per Si atom -12400.454464 kJ/mol
# Density = 1.981392 g / cm^3
# Si number density = 19.859125 Si / 1000 Ang^3
#
#
#
# Elastic Constant Matrix: (Units=GPa)
#
#
# Indices 1 2 3 4 5 6 
#
# 1 116.2672 52.1691 52.1529 7.6305 6.2956 1.3447
# 2 52.1691 132.5424 59.8371 -12.3055 -10.9896 -3.2884
# 3 52.1529 59.8371 101.4593 8.9840 0.0766 -10.6493
# 4 7.6305 -12.3055 8.9840 33.1409 -3.6156 -4.3530
# 5 6.2956 -10.9896 0.0766 -3.6156 33.2819 7.0262
# 6 1.3447 -3.2884 -10.6493 -4.3530 7.0262 29.9164
#
#
#
# Elastic Compliance Matrix: (Units=1/GPa)
#
#
# Indices 1 2 3 4 5 6 
#
# 1 0.012645 -0.003832 -0.004120 -0.003897 -0.003612 -0.002175
# 2 -0.003832 0.013356 -0.006748 0.008218 0.006262 -0.001037
# 3 -0.004120 -0.006748 0.017042 -0.005820 -0.003267 0.005430
# 4 -0.003897 0.008218 -0.005820 0.036812 0.006884 0.002747
# 5 -0.003612 0.006262 -0.003267 0.006884 0.035150 -0.007566
# 6 -0.002175 -0.001037 0.005430 0.002747 -0.007566 0.037520
#
#
# Mechanical properties :
#
#
# Convention : Reuss Voigt Hill
#
# Bulk Modulus (GPa) = 73.30682 75.39858 74.35270
# Shear Modulus (GPa) = 26.81331 31.67516 29.24423
#
# Velocity S-wave (km/s) = 3.67846 3.99807 3.84159
# Velocity P-wave (km/s) = 7.41856 7.70467 7.56296
#
# Compressibility (1/GPa) = 0.01364130
#
# Stress axis : x y z
#
# Youngs Moduli (GPa) = 79.08171 74.87122 58.67922
#
# Poissons Ratio (x) = 0.28693 0.24177
# Poissons Ratio (y) = 0.30307 0.39599
# Poissons Ratio (z) = 0.32584 0.50526
#
# Static dielectric constant tensor:
#      x y z
#    x 3.830150 0.125390 0.064750 
#    y 0.125390 3.518760 -0.134610 
#    z 0.064750 -0.134610 3.749070 
# 
# 
# High freq. dielectric constant tensor:
#      x y z
#    x 1.791140 0.010340 0.009510 
#    y 0.010340 1.771470 -0.006190 
#    z 0.009510 -0.006190 1.781200 
# 
# From -- ./inp_files/37259.got.cif
#   From: 2010.06.25/outbox.cif.g09.slc.cpg/sg2_19_cif.got.tgz:37259.got - 2010.06.27 13:26:56.
