data_PCOD8013407
_publ_section_title
;
Structure prediction by ZEFSAII (Michael W. Deem and Ramdas Pophale) SiO2 
 PCOD8013407
Probable space group: P -1
;
_chemical_formula_sum "Si O2"
_cell_formula_units_Z 14
_cell_length_a 14.838777
_cell_length_b 8.586273
_cell_length_c 8.673030
_cell_angle_alpha 45.624646
_cell_angle_beta 121.570346
_cell_angle_gamma 97.321844
_cell_volume 619.097437
_symmetry_space_group_name_H-M "P -1"
_symmetry_group_IT_number 2
_symmetry_cell_setting 'triclinic'
loop_
_space_group_symop_operation_xyz
x,y,z
-x,-y,-z
loop_
_atom_site_type_symbol
_atom_site_label
_atom_site_fract_x
_atom_site_fract_y
_atom_site_fract_z
Si Si1 0.360854 0.850437 0.177196
Si Si2 0.626297 0.379531 0.131662
Si Si3 0.809665 0.152727 0.711098
Si Si4 0.295214 0.082169 0.654002
Si Si5 0.392288 0.383677 0.349905
Si Si6 0.994960 0.316529 0.897172
Si Si7 0.967474 0.784174 0.661494
O O1 0.256100 0.891079 0.170512
O O2 0.387824 0.621777 0.256365
O O3 0.477585 0.818248 0.394461
O O4 0.328530 0.068590 0.875434
O O5 0.721170 0.316454 0.393506
O O6 0.624623 0.148616 0.206478
O O7 0.500000 0.500000 0.000000
O O8 0.649565 0.556381 0.906602
O O9 0.890869 0.292192 0.726782
O O10 0.884397 0.891566 0.893737
O O11 0.307431 0.305033 0.429259
O O12 0.166863 0.104135 0.504828
O O13 0.999748 0.578213 0.699541
O O14 0.964276 0.318028 0.049070
O O15 0.000000 0.000000 0.500000
#
# Coordination Sequence:
#
# PCOD8013407 Si02
#       7
#     2   2   2   2   2   2   2
#     4  10  21  40  67  96 138 177 227 286 341 415
#     4  11  23  43  67 100 142 182 225 284 348 414
#     4  11  21  46  70 108 143 176 234 296 345 410
#     4  11  23  42  66  99 131 185 230 281 349 421
#     4  10  22  41  66  95 138 186 225 277 347 424
#     4  10  24  43  72 100 139 179 233 294 347 409
#     4  11  23  46  71 100 133 186 235 288 352 417
#
# _framework density 22.613564
#
# number of rings (size 3 to 8) (size 9 to 14) (size 15 to 20)
#    0.000    1.429    2.857    2.143    0.000    4.000 
#    2.571    9.286    0.000    0.000    0.000    0.000 
#    0.000    0.000    0.000    0.000    0.000    0.000 
#
# Total GULP energy -173565.546436 kJ/mol
# GULP energy per Si atom -12397.539031 kJ/mol
# Density = 2.256209 g / cm^3
# Si number density = 22.613564 Si / 1000 Ang^3
#
#
#
# Elastic Constant Matrix: (Units=GPa)
#
#
# Indices 1 2 3 4 5 6 
#
# 1 123.3974 38.2946 69.1377 0.8417 1.9519 4.1768
# 2 38.2946 102.5250 54.8585 -4.5551 6.1924 -1.0420
# 3 69.1377 54.8585 146.0933 17.8034 -10.1696 1.9657
# 4 0.8417 -4.5551 17.8034 41.8653 -1.0749 -5.6288
# 5 1.9519 6.1924 -10.1696 -1.0749 50.6318 -3.6872
# 6 4.1768 -1.0420 1.9657 -5.6288 -3.6872 33.4055
#
#
#
# Elastic Compliance Matrix: (Units=1/GPa)
#
#
# Indices 1 2 3 4 5 6 
#
# 1 0.011491 -0.001358 -0.005212 0.001662 -0.001364 -0.001043
# 2 -0.001358 0.013235 -0.004959 0.003680 -0.002395 0.001230
# 3 -0.005212 -0.004959 0.012080 -0.005604 0.003055 -0.000821
# 4 0.001662 0.003680 -0.005604 0.027256 -0.000715 0.004750
# 5 -0.001364 -0.002395 0.003055 -0.000715 0.020847 0.002097
# 6 -0.001043 0.001230 -0.000821 0.004750 0.002097 0.031184
#
#
# Mechanical properties :
#
#
# Convention : Reuss Voigt Hill
#
# Bulk Modulus (GPa) = 72.73175 77.39971 75.06573
# Shear Modulus (GPa) = 34.78678 39.16217 36.97447
#
# Velocity S-wave (km/s) = 3.92639 4.16600 4.04797
# Velocity P-wave (km/s) = 7.26554 7.57906 7.42396
#
# Compressibility (1/GPa) = 0.01374915
#
# Stress axis : x y z
#
# Youngs Moduli (GPa) = 87.02627 75.55806 82.78157
#
# Poissons Ratio (x) = 0.10259 0.43143
# Poissons Ratio (y) = 0.11816 0.41051
# Poissons Ratio (z) = 0.45355 0.37468
#
# Static dielectric constant tensor:
#      x y z
#    x 4.445350 -0.438300 0.253100 
#    y -0.438300 4.316330 -0.050550 
#    z 0.253100 -0.050550 4.669310 
# 
# 
# High freq. dielectric constant tensor:
#      x y z
#    x 1.890600 -0.006540 0.007590 
#    y -0.006540 1.883880 0.003910 
#    z 0.007590 0.003910 1.906870 
# 
# From -- ./inp_files/297339.got.cif
#   From: 2010.06.25/outbox.cif.g09.slc.cpg/sg2_149_cif.got.tgz:297339.got - 2010.06.27 13:26:56.
