data_PCOD8013565
_publ_section_title
;
Structure prediction by ZEFSAII (Michael W. Deem and Ramdas Pophale) SiO2 
 PCOD8013565
Probable space group: P -1
;
_chemical_formula_sum "Si O2"
_cell_formula_units_Z 16
_cell_length_a 9.351346
_cell_length_b 5.159753
_cell_length_c 16.303102
_cell_angle_alpha 63.176586
_cell_angle_beta 94.378484
_cell_angle_gamma 102.782237
_cell_volume 684.348011
_symmetry_space_group_name_H-M "P -1"
_symmetry_group_IT_number 2
_symmetry_cell_setting 'triclinic'
loop_
_space_group_symop_operation_xyz
x,y,z
-x,-y,-z
loop_
_atom_site_type_symbol
_atom_site_label
_atom_site_fract_x
_atom_site_fract_y
_atom_site_fract_z
Si Si1 0.769081 0.431551 0.381555
Si Si2 0.272520 0.002879 0.770182
Si Si3 0.516241 0.293640 0.853366
Si Si4 0.669224 0.845775 0.987304
Si Si5 0.506241 0.826733 0.686680
Si Si6 0.161938 0.648206 0.962395
Si Si7 0.031388 0.195868 0.393770
Si Si8 0.203545 0.756405 0.406297
O O1 0.595655 0.303164 0.377414
O O2 0.810559 0.387239 0.483404
O O3 0.874582 0.275887 0.348953
O O4 0.811742 0.786740 0.316478
O O5 0.393319 0.892723 0.738699
O O6 0.165257 0.737492 0.852590
O O7 0.358638 0.207658 0.815925
O O8 0.614886 0.044917 0.884929
O O9 0.593716 0.596918 0.767032
O O10 0.475132 0.323016 0.943731
O O11 0.741828 0.599815 0.982873
O O12 0.783539 0.070894 0.016834
O O13 0.625321 0.111465 0.622965
O O14 0.000000 0.500000 0.000000
O O15 0.146951 0.502111 0.374162
O O16 0.106679 0.011004 0.357993
O O17 0.000000 0.000000 0.500000
#
# Coordination Sequence:
#
# PCOD8013565 Si02
#       8
#     2   2   2   2   2   2   2   2
#     4  10  23  42  66  92 127 184 213 261 336 389
#     4  10  23  39  65  89 134 162 212 269 326 382
#     4   9  21  39  62  92 122 164 209 259 327 377
#     4  10  21  40  69  87 120 169 206 257 321 384
#     4  11  23  40  65  97 137 164 222 279 318 382
#     4  11  23  43  63  94 126 166 214 258 313 391
#     4  10  23  45  66  89 129 174 222 267 322 389
#     4  11  25  42  68  97 130 171 226 272 316 385
#
# _framework density 23.379918
#
# number of rings (size 3 to 8) (size 9 to 14) (size 15 to 20)
#    0.000    1.750    1.250    2.250   10.500    2.000 
#    4.500    0.000    0.000    0.000    0.000    0.000 
#    0.000    0.000    0.000    0.000    0.000    0.000 
#
# Total GULP energy -198304.029912 kJ/mol
# GULP energy per Si atom -12394.001870 kJ/mol
# Density = 2.332670 g / cm^3
# Si number density = 23.379918 Si / 1000 Ang^3
#
#
#
# Elastic Constant Matrix: (Units=GPa)
#
#
# Indices 1 2 3 4 5 6 
#
# 1 94.7208 16.8360 50.0785 -21.9561 -5.2581 6.0466
# 2 16.8360 64.9313 12.3207 -22.2585 -0.8082 -4.2304
# 3 50.0785 12.3207 108.8618 -26.6590 11.7466 -6.1856
# 4 -21.9561 -22.2585 -26.6590 28.7677 -4.4728 1.0409
# 5 -5.2581 -0.8082 11.7466 -4.4728 36.1109 -4.2640
# 6 6.0466 -4.2304 -6.1856 1.0409 -4.2640 35.0512
#
#
#
# Elastic Compliance Matrix: (Units=1/GPa)
#
#
# Indices 1 2 3 4 5 6 
#
# 1 0.016139 -0.000903 -0.006451 0.006520 0.004806 -0.003640
# 2 -0.000903 0.021793 0.002452 0.018684 0.002219 0.002934
# 3 -0.006451 0.002452 0.014978 0.010095 -0.004122 0.003251
# 4 0.006520 0.018684 0.010095 0.064460 0.006276 0.001761
# 5 0.004806 0.002219 -0.004122 0.006276 0.030829 0.002275
# 6 -0.003640 0.002934 0.003251 0.001761 0.002275 0.030310
#
#
# Mechanical properties :
#
#
# Convention : Reuss Voigt Hill
#
# Bulk Modulus (GPa) = 23.19893 47.44270 35.32082
# Shear Modulus (GPa) = 24.66924 32.60456 28.63690
#
# Velocity S-wave (km/s) = 3.25183 3.73842 3.50358
# Velocity P-wave (km/s) = 4.90340 6.24264 5.61310
#
# Compressibility (1/GPa) = 0.04310544
#
# Stress axis : x y z
#
# Youngs Moduli (GPa) = 61.96266 45.88528 66.76675
#
# Poissons Ratio (x) = 0.04143 0.43069
# Poissons Ratio (y) = 0.05595 -0.16368
# Poissons Ratio (z) = 0.39970 -0.11249
#
# Static dielectric constant tensor:
#      x y z
#    x 4.481220 -0.110410 0.415610 
#    y -0.110410 4.281600 -0.249560 
#    z 0.415610 -0.249560 4.621830 
# 
# 
# High freq. dielectric constant tensor:
#      x y z
#    x 1.912770 -0.002630 0.017050 
#    y -0.002630 1.926390 -0.015980 
#    z 0.017050 -0.015980 1.919640 
# 
# From -- ./inp_files/585079.got.cif
#   From: 2010.06.25/outbox.cif.g09.slc.cpg/sg2_293_cif.got.tgz:585079.got - 2010.06.27 13:26:56.
