data_PCOD8013741
_publ_section_title
;
Structure prediction by ZEFSAII (Michael W. Deem and Ramdas Pophale) SiO2 
 PCOD8013741
Probable space group: P -1
;
_chemical_formula_sum "Si O2"
_cell_formula_units_Z 12
_cell_length_a 7.017710
_cell_length_b 7.738387
_cell_length_c 18.070297
_cell_angle_alpha 64.090957
_cell_angle_beta 49.090120
_cell_angle_gamma 55.974320
_cell_volume 610.742302
_symmetry_space_group_name_H-M "P -1"
_symmetry_group_IT_number 2
_symmetry_cell_setting 'triclinic'
loop_
_space_group_symop_operation_xyz
x,y,z
-x,-y,-z
loop_
_atom_site_type_symbol
_atom_site_label
_atom_site_fract_x
_atom_site_fract_y
_atom_site_fract_z
Si Si1 0.772308 0.945068 0.031101
Si Si2 0.676484 0.931836 0.640298
Si Si3 0.612990 0.335955 0.303967
Si Si4 0.170575 0.134686 0.135676
Si Si5 0.688487 0.271609 0.465736
Si Si6 0.438801 0.797877 0.233808
O O1 0.726956 0.763930 0.124791
O O2 0.471037 0.146404 0.067296
O O3 0.887690 0.867517 0.935341
O O4 0.000000 0.000000 0.000000
O O5 0.498041 0.795272 0.697455
O O6 0.994362 0.770247 0.593085
O O7 0.618482 0.095542 0.557572
O O8 0.586460 0.057633 0.715640
O O9 0.624473 0.255420 0.399196
O O10 0.417316 0.583028 0.302816
O O11 0.912359 0.320350 0.203616
O O12 0.193824 0.921739 0.213915
O O13 0.500000 0.500000 0.500000
#
# Coordination Sequence:
#
# PCOD8013741 Si02
#       6
#     2   2   2   2   2   2
#     4   9  18  40  63  85 125 161 192 250 303 346
#     4  11  24  41  63  88 126 160 198 254 302 351
#     4  12  23  40  64  90 121 163 201 247 308 351
#     4   9  21  38  60  88 125 153 199 254 290 356
#     4  11  23  43  62  90 123 158 207 249 296 369
#     4  10  21  41  60  92 123 154 208 246 290 372
#
# _framework density 19.648219999999998
#
# number of rings (size 3 to 8) (size 9 to 14) (size 15 to 20)
#    1.000    0.667    3.333    1.500    0.000    2.667 
#    3.000    0.833    0.000    0.000    0.000    0.000 
#    0.000    0.000    0.000    0.000    0.000    0.000 
#
# Total GULP energy -148665.874029 kJ/mol
# GULP energy per Si atom -12388.822836 kJ/mol
# Density = 1.960350 g / cm^3
# Si number density = 19.648220 Si / 1000 Ang^3
#
#
#
# Elastic Constant Matrix: (Units=GPa)
#
#
# Indices 1 2 3 4 5 6 
#
# 1 91.7288 47.4463 44.5613 -0.5922 7.8393 9.5829
# 2 47.4463 110.4719 45.1178 2.2100 7.3831 3.2001
# 3 44.5613 45.1178 111.2330 8.8118 30.2541 7.5280
# 4 -0.5922 2.2100 8.8118 32.4219 0.8141 1.3972
# 5 7.8393 7.3831 30.2541 0.8141 36.0761 0.5427
# 6 9.5829 3.2001 7.5280 1.3972 0.5427 28.4572
#
#
#
# Elastic Compliance Matrix: (Units=1/GPa)
#
#
# Indices 1 2 3 4 5 6 
#
# 1 0.016056 -0.005001 -0.004723 0.002040 0.001505 -0.003724
# 2 -0.005001 0.012519 -0.003555 -0.000067 0.001489 0.001191
# 3 -0.004723 -0.003555 0.015855 -0.003789 -0.011430 -0.001800
# 4 0.002040 -0.000067 -0.003789 0.031919 0.002046 -0.001284
# 5 0.001505 0.001489 -0.011430 0.002046 0.036603 0.001551
# 6 -0.003724 0.001191 -0.001800 -0.001284 0.001551 0.036770
#
#
# Mechanical properties :
#
#
# Convention : Reuss Voigt Hill
#
# Bulk Modulus (GPa) = 55.95062 65.29829 60.62446
# Shear Modulus (GPa) = 27.43684 31.14493 29.29089
#
# Velocity S-wave (km/s) = 3.74090 3.98569 3.86523
# Velocity P-wave (km/s) = 6.87002 7.38151 7.13035
#
# Compressibility (1/GPa) = 0.01787290
#
# Stress axis : x y z
#
# Youngs Moduli (GPa) = 62.28121 79.87896 63.07199
#
# Poissons Ratio (x) = 0.39944 0.29789
# Poissons Ratio (y) = 0.31144 0.22422
# Poissons Ratio (z) = 0.29415 0.28397
#
# Static dielectric constant tensor:
#      x y z
#    x 3.477350 -0.266500 0.106170 
#    y -0.266500 3.220410 0.017740 
#    z 0.106170 0.017740 3.642080 
# 
# 
# High freq. dielectric constant tensor:
#      x y z
#    x 1.763670 -0.013820 0.017780 
#    y -0.013820 1.738620 0.014880 
#    z 0.017780 0.014880 1.783970 
# 
# From -- ./inp_files/3907.got.cif
#   From: 2010.06.25/outbox.cif.g09.slc.cpg/sg2_2_cif.got.tgz:3907.got - 2010.06.27 13:26:56.
