data_PCOD8013000
_publ_section_title
;
Structure prediction by ZEFSAII (Michael W. Deem and Ramdas Pophale) SiO2 
 PCOD8013000
Probable space group: P -1
;
_chemical_formula_sum "Si O2"
_cell_formula_units_Z 16
_cell_length_a 9.203655
_cell_length_b 9.354863
_cell_length_c 11.531752
_cell_angle_alpha 131.525018
_cell_angle_beta 98.101375
_cell_angle_gamma 87.021945
_cell_volume 734.758358
_symmetry_space_group_name_H-M "P -1"
_symmetry_group_IT_number 2
_symmetry_cell_setting 'triclinic'
loop_
_space_group_symop_operation_xyz
x,y,z
-x,-y,-z
loop_
_atom_site_type_symbol
_atom_site_label
_atom_site_fract_x
_atom_site_fract_y
_atom_site_fract_z
Si Si1 0.105787 0.030626 0.636683
Si Si2 0.838714 0.572218 0.037196
Si Si3 0.090104 0.207561 0.351531
Si Si4 0.336245 0.734683 0.538701
Si Si5 0.633502 0.595571 0.820345
Si Si6 0.160147 0.585588 0.662314
Si Si7 0.384206 0.106054 0.216801
Si Si8 0.351675 0.671606 0.946157
O O1 0.156642 0.251149 0.778144
O O2 0.250167 0.910757 0.572897
O O3 0.000000 0.000000 0.500000
O O4 0.015224 0.964289 0.704606
O O5 0.726579 0.409035 0.989997
O O6 0.776280 0.630088 0.936137
O O7 0.000000 0.500000 0.000000
O O8 0.144006 0.353721 0.539497
O O9 0.222019 0.114331 0.253022
O O10 0.001210 0.331393 0.316166
O O11 0.343182 0.579155 0.355920
O O12 0.254831 0.642832 0.590836
O O13 0.500861 0.800543 0.628363
O O14 0.606493 0.787227 0.848043
O O15 0.489097 0.548876 0.858311
O O16 0.232207 0.670367 0.830867
O O17 0.417952 0.886261 0.087949
#
# Coordination Sequence:
#
# PCOD8013000 Si02
#       8
#     2   2   2   2   2   2   2   2
#     4  11  24  45  69  96 135 181 227 272 331 400
#     4  12  28  47  67  98 138 181 224 273 338 398
#     4  10  22  38  65  96 131 167 228 269 328 390
#     4  11  23  43  70 100 131 176 223 276 330 399
#     4  12  25  44  70  98 139 176 220 279 338 397
#     4  10  21  40  64  97 132 170 215 277 329 390
#     4  12  24  41  69 104 132 174 225 275 338 396
#     4  12  26  43  67  97 140 174 224 274 338 395
#
# _framework density 21.775866000000001
#
# number of rings (size 3 to 8) (size 9 to 14) (size 15 to 20)
#    0.000    0.750    2.500    4.875    5.250    0.500 
#    0.000    1.875    0.000    0.000    0.000    0.000 
#    0.000    0.000    0.000    0.000    0.000    0.000 
#
# Total GULP energy -198496.143531 kJ/mol
# GULP energy per Si atom -12406.008971 kJ/mol
# Density = 2.172630 g / cm^3
# Si number density = 21.775866 Si / 1000 Ang^3
#
#
#
# Elastic Constant Matrix: (Units=GPa)
#
#
# Indices 1 2 3 4 5 6 
#
# 1 110.9615 31.1352 15.1086 -3.2281 -5.9536 -3.0048
# 2 31.1352 82.9082 36.8896 4.3022 -1.8728 -8.2280
# 3 15.1086 36.8896 118.3981 1.4725 14.0033 -9.6861
# 4 -3.2281 4.3022 1.4725 37.6462 -6.0614 5.6408
# 5 -5.9536 -1.8728 14.0033 -6.0614 39.5642 -4.6757
# 6 -3.0048 -8.2280 -9.6861 5.6408 -4.6757 31.3490
#
#
#
# Elastic Compliance Matrix: (Units=1/GPa)
#
#
# Indices 1 2 3 4 5 6 
#
# 1 0.010249 -0.003740 -0.000380 0.001622 0.001730 -0.000150
# 2 -0.003740 0.015884 -0.004403 -0.002141 0.001786 0.003102
# 3 -0.000380 -0.004403 0.010470 -0.000808 -0.003905 0.001606
# 4 0.001622 -0.002141 -0.000808 0.028422 0.004175 -0.005148
# 5 0.001730 0.001786 -0.003905 0.004175 0.027979 0.002850
# 6 -0.000150 0.003102 0.001606 -0.005148 0.002850 0.034546
#
#
# Mechanical properties :
#
#
# Convention : Reuss Voigt Hill
#
# Bulk Modulus (GPa) = 51.12942 53.17052 52.14997
# Shear Modulus (GPa) = 33.08748 36.98750 35.03749
#
# Velocity S-wave (km/s) = 3.90225 4.12582 4.01559
# Velocity P-wave (km/s) = 6.62074 6.86781 6.74540
#
# Compressibility (1/GPa) = 0.01955821
#
# Stress axis : x y z
#
# Youngs Moduli (GPa) = 97.56821 62.95531 95.51461
#
# Poissons Ratio (x) = 0.23545 0.03627
# Poissons Ratio (y) = 0.36491 0.42052
# Poissons Ratio (z) = 0.03705 0.27717
#
# Static dielectric constant tensor:
#      x y z
#    x 4.073800 -0.088900 0.113520 
#    y -0.088900 4.017750 0.062140 
#    z 0.113520 0.062140 3.932840 
# 
# 
# High freq. dielectric constant tensor:
#      x y z
#    x 1.873470 -0.006100 0.004790 
#    y -0.006100 1.849220 0.004380 
#    z 0.004790 0.004380 1.860030 
# 
# From -- ./inp_files/186615.got.cif
#   From: 2010.06.25/outbox.cif.g09.slc.cpg/sg2_94_cif.got.tgz:186615.got - 2010.06.27 13:26:56.
