data_PCOD8013784
_publ_section_title
;
Structure prediction by ZEFSAII (Michael W. Deem and Ramdas Pophale) SiO2 
 PCOD8013784
Probable space group: P -1
;
_chemical_formula_sum "Si O2"
_cell_formula_units_Z 16
_cell_length_a 9.902026
_cell_length_b 22.293907
_cell_length_c 16.214308
_cell_angle_alpha 19.381953
_cell_angle_beta 41.197890
_cell_angle_gamma 43.650741
_cell_volume 780.851619
_symmetry_space_group_name_H-M "P -1"
_symmetry_group_IT_number 2
_symmetry_cell_setting 'triclinic'
loop_
_space_group_symop_operation_xyz
x,y,z
-x,-y,-z
loop_
_atom_site_type_symbol
_atom_site_label
_atom_site_fract_x
_atom_site_fract_y
_atom_site_fract_z
Si Si1 0.874437 0.753723 0.199135
Si Si2 0.944654 0.108789 0.606261
Si Si3 0.650338 0.365327 0.155926
Si Si4 0.558544 0.328472 0.431004
Si Si5 0.123999 0.619248 0.405214
Si Si6 0.409881 0.370443 0.847927
Si Si7 0.966999 0.415427 0.326709
Si Si8 0.189142 0.021578 0.446935
O O1 0.644693 0.758971 0.331417
O O2 0.923257 0.580664 0.343536
O O3 0.030070 0.758476 0.198979
O O4 0.900052 0.923072 0.910301
O O5 0.742362 0.185323 0.553753
O O6 0.016097 0.246017 0.464314
O O7 0.119871 0.078296 0.496892
O O8 0.547251 0.357241 0.302347
O O9 0.670333 0.164663 0.368410
O O10 0.500000 0.500000 0.000000
O O11 0.877398 0.435835 0.963297
O O12 0.584399 0.525921 0.201916
O O13 0.363714 0.648263 0.270711
O O14 0.008322 0.652152 0.502807
O O15 0.262248 0.492243 0.697254
O O16 0.331277 0.172195 0.151284
O O17 0.000000 0.000000 0.500000
#
# Coordination Sequence:
#
# PCOD8013784 Si02
#       8
#     2   2   2   2   2   2   2   2
#     4  10  22  39  62  90 127 166 207 258 310 370
#     4  11  23  39  65  91 121 166 212 259 310 373
#     4  12  25  40  65  94 127 165 206 263 317 368
#     4  10  21  41  61  93 128 163 209 256 315 367
#     4  10  22  40  61  90 128 167 207 257 314 368
#     4  10  22  39  65  91 123 167 209 258 310 372
#     4  11  22  40  62  93 128 165 210 257 314 369
#     4  12  23  42  65  93 120 163 211 261 307 373
#
# _framework density 20.490449000000002
#
# number of rings (size 3 to 8) (size 9 to 14) (size 15 to 20)
#    0.000    1.250    2.500    3.000    0.000    6.500 
#    0.000    1.875    0.000    0.000    0.000    0.000 
#    0.000    0.000    0.000    0.000    0.000    0.000 
#
# Total GULP energy -198475.945768 kJ/mol
# GULP energy per Si atom -12404.746610 kJ/mol
# Density = 2.044381 g / cm^3
# Si number density = 20.490449 Si / 1000 Ang^3
#
#
#
# Elastic Constant Matrix: (Units=GPa)
#
#
# Indices 1 2 3 4 5 6 
#
# 1 73.9930 23.5681 28.9356 -2.8611 4.8634 14.5891
# 2 23.5681 81.7414 22.2785 -4.0340 7.6807 26.8253
# 3 28.9356 22.2785 114.1702 -7.7864 3.1334 14.2448
# 4 -2.8611 -4.0340 -7.7864 31.7538 -2.7982 9.2907
# 5 4.8634 7.6807 3.1334 -2.7982 35.0818 7.0038
# 6 14.5891 26.8253 14.2448 9.2907 7.0038 32.4689
#
#
#
# Elastic Compliance Matrix: (Units=1/GPa)
#
#
# Indices 1 2 3 4 5 6 
#
# 1 0.016419 -0.002284 -0.003014 0.001747 -0.000455 -0.004570
# 2 -0.002284 0.018651 -0.000601 0.006713 0.000026 -0.016045
# 3 -0.003014 -0.000601 0.010321 0.003344 0.000648 -0.003774
# 4 0.001747 0.006713 0.003344 0.039717 0.005207 -0.020286
# 5 -0.000455 0.000026 0.000648 0.005207 0.030553 -0.008182
# 6 -0.004570 -0.016045 -0.003774 -0.020286 -0.008182 0.055334
#
#
# Mechanical properties :
#
#
# Convention : Reuss Voigt Hill
#
# Bulk Modulus (GPa) = 29.76823 46.60767 38.18795
# Shear Modulus (GPa) = 25.77438 32.86905 29.32171
#
# Velocity S-wave (km/s) = 3.55050 4.00949 3.78695
# Velocity P-wave (km/s) = 5.60066 6.65057 6.14807
#
# Compressibility (1/GPa) = 0.03359286
#
# Stress axis : x y z
#
# Youngs Moduli (GPa) = 60.90338 53.61755 96.88821
#
# Poissons Ratio (x) = 0.12246 0.29200
# Poissons Ratio (y) = 0.13910 0.05828
# Poissons Ratio (z) = 0.18355 0.03225
#
# Static dielectric constant tensor:
#      x y z
#    x 3.827270 -0.024420 -0.034470 
#    y -0.024420 3.843450 -0.029070 
#    z -0.034470 -0.029070 3.678200 
# 
# 
# High freq. dielectric constant tensor:
#      x y z
#    x 1.802950 0.003060 0.002560 
#    y 0.003060 1.809330 0.003300 
#    z 0.002560 0.003300 1.806340 
# 
# From -- ./inp_files/186523.got.cif
#   From: 2010.06.25/outbox.cif.g09.slc.cpg/sg2_94_cif.got.tgz:186523.got - 2010.06.27 13:26:56.
