data_PCOD8013239
_publ_section_title
;
Structure prediction by ZEFSAII (Michael W. Deem and Ramdas Pophale) SiO2 
 PCOD8013239
Probable space group: P -1
;
_chemical_formula_sum "Si O2"
_cell_formula_units_Z 14
_cell_length_a 7.251524
_cell_length_b 11.789341
_cell_length_c 10.874558
_cell_angle_alpha 89.292271
_cell_angle_beta 67.802484
_cell_angle_gamma 128.968989
_cell_volume 627.601694
_symmetry_space_group_name_H-M "P -1"
_symmetry_group_IT_number 2
_symmetry_cell_setting 'triclinic'
loop_
_space_group_symop_operation_xyz
x,y,z
-x,-y,-z
loop_
_atom_site_type_symbol
_atom_site_label
_atom_site_fract_x
_atom_site_fract_y
_atom_site_fract_z
Si Si1 0.952080 0.686445 0.676988
Si Si2 0.946560 0.867808 0.885254
Si Si3 0.292291 0.649897 0.476054
Si Si4 0.182634 0.014840 0.286085
Si Si5 0.678005 0.748549 0.573193
Si Si6 0.439889 0.668292 0.178813
Si Si7 0.488515 0.928275 0.128105
O O1 0.011571 0.800780 0.765122
O O2 0.771294 0.667263 0.611523
O O3 0.789777 0.516819 0.778692
O O4 0.240105 0.756196 0.544040
O O5 0.857658 0.952075 0.842907
O O6 0.709723 0.731644 0.038429
O O7 0.214786 0.991157 0.896779
O O8 0.406201 0.619442 0.562067
O O9 0.500788 0.720838 0.307798
O O10 0.000000 0.500000 0.500000
O O11 0.374469 0.180040 0.306947
O O12 0.325424 0.947859 0.259909
O O13 0.890546 0.889762 0.424908
O O14 0.331873 0.747147 0.150288
O O15 0.500000 0.000000 0.000000
#
# Coordination Sequence:
#
# PCOD8013239 Si02
#       7
#     2   2   2   2   2   2   2
#     4  10  23  44  65  90 128 166 208 257 307 378
#     4  11  23  43  65  92 127 165 208 258 314 366
#     4  10  22  39  61  91 128 162 203 254 306 373
#     4  10  22  40  66  93 123 164 211 258 305 375
#     4  10  21  40  66  93 122 166 211 251 312 372
#     4  11  23  41  63  94 128 161 204 260 316 361
#     4  12  24  39  62  92 127 162 207 255 313 373
#
# _framework density 22.307138999999999
#
# number of rings (size 3 to 8) (size 9 to 14) (size 15 to 20)
#    0.000    1.429    1.429    3.429    2.000    2.286 
#    5.143    6.429    0.000    0.000    0.000    0.000 
#    0.000    0.000    0.000    0.000    0.000    0.000 
#
# Total GULP energy -173510.296582 kJ/mol
# GULP energy per Si atom -12393.592613 kJ/mol
# Density = 2.225637 g / cm^3
# Si number density = 22.307139 Si / 1000 Ang^3
#
#
#
# Elastic Constant Matrix: (Units=GPa)
#
#
# Indices 1 2 3 4 5 6 
#
# 1 102.7031 15.5356 20.5309 -0.9345 21.6088 5.7787
# 2 15.5356 57.3869 7.9334 -7.5282 17.9231 -4.1871
# 3 20.5309 7.9334 92.8086 10.0360 7.7284 5.7305
# 4 -0.9345 -7.5282 10.0360 31.5185 -9.4215 3.3163
# 5 21.6088 17.9231 7.7284 -9.4215 41.0401 5.1106
# 6 5.7787 -4.1871 5.7305 3.3163 5.1106 41.0822
#
#
#
# Elastic Compliance Matrix: (Units=1/GPa)
#
#
# Indices 1 2 3 4 5 6 
#
# 1 0.011440 -0.001400 -0.001838 -0.000873 -0.005169 -0.000782
# 2 -0.001400 0.021084 -0.001317 0.002667 -0.008023 0.003312
# 3 -0.001838 -0.001317 0.011986 -0.004574 -0.001643 -0.000974
# 4 -0.000873 0.002667 -0.004574 0.036802 0.008985 -0.003056
# 5 -0.005169 -0.008023 -0.001643 0.008985 0.033557 -0.004761
# 6 -0.000782 0.003312 -0.000974 -0.003056 -0.004761 0.025764
#
#
# Mechanical properties :
#
#
# Convention : Reuss Voigt Hill
#
# Bulk Modulus (GPa) = 28.24990 37.87759 33.06375
# Shear Modulus (GPa) = 30.95167 36.65476 33.80322
#
# Velocity S-wave (km/s) = 3.72899 4.05802 3.89698
# Velocity P-wave (km/s) = 5.58856 6.24288 5.92476
#
# Compressibility (1/GPa) = 0.03539835
#
# Stress axis : x y z
#
# Youngs Moduli (GPa) = 87.41604 47.42949 83.43328
#
# Poissons Ratio (x) = 0.06640 0.15334
# Poissons Ratio (y) = 0.12239 0.10992
# Poissons Ratio (z) = 0.16066 0.06249
#
# Static dielectric constant tensor:
#      x y z
#    x 4.247230 -0.333300 -0.148960 
#    y -0.333300 3.931210 0.400160 
#    z -0.148960 0.400160 4.544580 
# 
# 
# High freq. dielectric constant tensor:
#      x y z
#    x 1.875440 -0.016520 0.000180 
#    y -0.016520 1.866030 0.022180 
#    z 0.000180 0.022180 1.893060 
# 
# From -- ./inp_files/68613.got.cif
#   From: 2010.06.25/outbox.cif.g09.slc.cpg/sg2_35_cif.got.tgz:68613.got - 2010.06.27 13:26:56.
