data_PCOD8013430
_publ_section_title
;
Structure prediction by ZEFSAII (Michael W. Deem and Ramdas Pophale) SiO2 
 PCOD8013430
Probable space group: P -1
;
_chemical_formula_sum "Si O2"
_cell_formula_units_Z 16
_cell_length_a 9.206535
_cell_length_b 23.596677
_cell_length_c 8.401562
_cell_angle_alpha 127.339903
_cell_angle_beta 93.519107
_cell_angle_gamma 43.324039
_cell_volume 714.563385
_symmetry_space_group_name_H-M "P -1"
_symmetry_group_IT_number 2
_symmetry_cell_setting 'triclinic'
loop_
_space_group_symop_operation_xyz
x,y,z
-x,-y,-z
loop_
_atom_site_type_symbol
_atom_site_label
_atom_site_fract_x
_atom_site_fract_y
_atom_site_fract_z
Si Si1 0.861746 0.341065 0.427670
Si Si2 0.250082 0.380464 0.121413
Si Si3 0.898593 0.033741 0.874286
Si Si4 0.304278 0.119037 0.323805
Si Si5 0.343615 0.665515 0.875088
Si Si6 0.788196 0.677503 0.672259
Si Si7 0.171123 0.070694 0.494658
Si Si8 0.586154 0.119018 0.528888
O O1 0.568606 0.513130 0.708508
O O2 0.794681 0.301518 0.245160
O O3 0.969513 0.268069 0.485075
O O4 0.137678 0.270795 0.259891
O O5 0.502257 0.323742 0.119769
O O6 0.108218 0.387126 0.252571
O O7 0.975375 0.549000 0.338573
O O8 0.397253 0.271980 0.804458
O O9 0.966378 0.925325 0.634767
O O10 0.553375 0.195835 0.135462
O O11 0.077811 0.009032 0.723749
O O12 0.000000 0.000000 0.000000
O O13 0.339147 0.059057 0.385289
O O14 0.423562 0.146671 0.423025
O O15 0.500000 0.000000 0.000000
O O16 0.081680 0.780807 0.177697
O O17 0.392982 0.933778 0.394280
#
# Coordination Sequence:
#
# PCOD8013430 Si02
#       8
#     2   2   2   2   2   2   2   2
#     4  10  23  45  67  95 140 172 222 272 335 400
#     4  10  21  40  69 102 127 170 222 274 327 394
#     4  12  24  42  67  99 138 176 214 278 340 397
#     4  12  27  44  64  97 134 177 223 280 339 386
#     4  10  22  43  71  99 128 180 218 274 331 409
#     4  10  21  40  67  99 132 169 221 267 336 394
#     4  12  24  41  68  95 129 173 236 269 329 397
#     4  12  24  44  71  98 135 174 229 277 326 404
#
# _framework density 22.391293999999998
#
# number of rings (size 3 to 8) (size 9 to 14) (size 15 to 20)
#    0.000    1.000    2.500    4.500    1.750    1.500 
#    2.250    1.875    0.000    0.000    0.000    0.000 
#    0.000    0.000    0.000    0.000    0.000    0.000 
#
# Total GULP energy -198331.554485 kJ/mol
# GULP energy per Si atom -12395.722155 kJ/mol
# Density = 2.234033 g / cm^3
# Si number density = 22.391294 Si / 1000 Ang^3
#
#
#
# Elastic Constant Matrix: (Units=GPa)
#
#
# Indices 1 2 3 4 5 6 
#
# 1 106.7287 29.2780 51.6395 -6.3919 11.4221 -12.4222
# 2 29.2780 71.4437 39.8167 2.2690 11.5406 -15.2358
# 3 51.6395 39.8167 152.3623 -1.3431 10.3560 -20.5782
# 4 -6.3919 2.2690 -1.3431 29.2869 -7.7325 1.0415
# 5 11.4221 11.5406 10.3560 -7.7325 37.4108 -11.7931
# 6 -12.4222 -15.2358 -20.5782 1.0415 -11.7931 39.6879
#
#
#
# Elastic Compliance Matrix: (Units=1/GPa)
#
#
# Indices 1 2 3 4 5 6 
#
# 1 0.012029 -0.002939 -0.003125 0.002365 -0.001226 0.000590
# 2 -0.002939 0.018359 -0.003113 -0.003244 -0.003448 0.003574
# 3 -0.003125 -0.003113 0.008748 -0.000061 0.000249 0.002438
# 4 0.002365 -0.003244 -0.000061 0.037055 0.008252 0.000943
# 5 -0.001226 -0.003448 0.000249 0.008252 0.032261 0.007791
# 6 0.000590 0.003574 0.002438 0.000943 0.007791 0.030308
#
#
# Mechanical properties :
#
#
# Convention : Reuss Voigt Hill
#
# Bulk Modulus (GPa) = 48.12017 63.55591 55.83804
# Shear Modulus (GPa) = 30.48007 35.26380 32.87193
#
# Velocity S-wave (km/s) = 3.69351 3.97279 3.83569
# Velocity P-wave (km/s) = 6.30290 7.03491 6.67894
#
# Compressibility (1/GPa) = 0.02078131
#
# Stress axis : x y z
#
# Youngs Moduli (GPa) = 83.12935 54.47005 114.31409
#
# Poissons Ratio (x) = 0.16010 0.35724
# Poissons Ratio (y) = 0.24434 0.35586
# Poissons Ratio (z) = 0.25979 0.16956
#
# Static dielectric constant tensor:
#      x y z
#    x 4.172960 -0.113070 0.018360 
#    y -0.113070 3.520410 -0.260650 
#    z 0.018360 -0.260650 3.961150 
# 
# 
# High freq. dielectric constant tensor:
#      x y z
#    x 1.887570 -0.002110 0.008030 
#    y -0.002110 1.861780 0.007450 
#    z 0.008030 0.007450 1.896230 
# 
# From -- ./inp_files/226511.got.cif
#   From: 2010.06.25/outbox.cif.g09.slc.cpg/sg2_114_cif.got.tgz:226511.got - 2010.06.27 13:26:56.
