data_PCOD8013868
_publ_section_title
;
Structure prediction by ZEFSAII (Michael W. Deem and Ramdas Pophale) SiO2 
 PCOD8013868
Probable space group: P -1
;
_chemical_formula_sum "Si O2"
_cell_formula_units_Z 16
_cell_length_a 5.480718
_cell_length_b 10.601706
_cell_length_c 12.051610
_cell_angle_alpha 81.800260
_cell_angle_beta 66.273760
_cell_angle_gamma 83.055003
_cell_volume 632.956203
_symmetry_space_group_name_H-M "P -1"
_symmetry_group_IT_number 2
_symmetry_cell_setting 'triclinic'
loop_
_space_group_symop_operation_xyz
x,y,z
-x,-y,-z
loop_
_atom_site_type_symbol
_atom_site_label
_atom_site_fract_x
_atom_site_fract_y
_atom_site_fract_z
Si Si1 0.097781 0.500134 0.195506
Si Si2 0.350884 0.357268 0.365042
Si Si3 0.376968 0.384440 0.606793
Si Si4 0.802766 0.230848 0.956477
Si Si5 0.229685 0.858996 0.673211
Si Si6 0.147116 0.786958 0.461254
Si Si7 0.086125 0.124987 0.714602
Si Si8 0.178643 0.243283 0.096807
O O1 0.290936 0.462945 0.268755
O O2 0.194090 0.627423 0.109647
O O3 0.125888 0.394498 0.108402
O O4 0.787827 0.514533 0.294947
O O5 0.401114 0.431644 0.465215
O O6 0.593222 0.260132 0.291316
O O7 0.114083 0.267540 0.435085
O O8 0.667198 0.334300 0.604798
O O9 0.217707 0.256481 0.651552
O O10 0.914561 0.128520 0.857595
O O11 0.494592 0.203427 0.036594
O O12 0.004166 0.209801 0.025624
O O13 0.280975 0.856553 0.531597
O O14 0.926375 0.834736 0.769096
O O15 0.292644 0.998671 0.691997
O O16 0.102490 0.889246 0.357636
#
# Coordination Sequence:
#
# PCOD8013868 Si02
#       8
#     2   2   2   2   2   2   2   2
#     4  11  22  45  71 100 138 182 233 287 346 416
#     4  10  21  41  63 106 140 178 222 282 354 420
#     4   9  22  40  66 103 140 179 222 283 351 420
#     4  11  28  48  73 102 139 187 239 291 349 407
#     4  11  24  43  71  99 140 180 229 286 350 417
#     4  10  21  42  67 104 137 173 228 282 353 418
#     4  10  24  44  69 101 136 182 229 288 348 416
#     4  12  26  49  69 105 140 186 239 288 349 410
#
# _framework density 25.278209
#
# number of rings (size 3 to 8) (size 9 to 14) (size 15 to 20)
#    0.000    1.500    1.250    2.250    3.500    8.000 
#    9.000    0.000    0.000    0.000    0.000    0.000 
#    0.000    0.000    0.000    0.000    0.000    0.000 
#
# Total GULP energy -198363.738612 kJ/mol
# GULP energy per Si atom -12397.733663 kJ/mol
# Density = 2.522067 g / cm^3
# Si number density = 25.278209 Si / 1000 Ang^3
#
#
#
# Elastic Constant Matrix: (Units=GPa)
#
#
# Indices 1 2 3 4 5 6 
#
# 1 101.8951 12.2779 48.3276 12.6960 -1.3653 -15.1772
# 2 12.2779 93.7489 18.6846 24.6408 9.4040 -16.8348
# 3 48.3276 18.6846 106.4967 12.6521 2.8205 -15.5365
# 4 12.6960 24.6408 12.6521 39.1347 -2.9505 -2.1582
# 5 -1.3653 9.4040 2.8205 -2.9505 41.0266 -0.2996
# 6 -15.1772 -16.8348 -15.5365 -2.1582 -0.2996 16.0506
#
#
#
# Elastic Compliance Matrix: (Units=1/GPa)
#
#
# Indices 1 2 3 4 5 6 
#
# 1 0.013736 0.001820 -0.004697 -0.003525 0.000182 0.009879
# 2 0.001820 0.016881 0.000241 -0.010632 -0.004458 0.018147
# 3 -0.004697 0.000241 0.012975 -0.002473 -0.001223 0.008015
# 4 -0.003525 -0.010632 -0.002473 0.033880 0.004837 -0.012233
# 5 0.000182 -0.004458 -0.001223 0.004837 0.025801 -0.004555
# 6 0.009879 0.018147 0.008015 -0.012233 -0.004555 0.096707
#
#
# Mechanical properties :
#
#
# Convention : Reuss Voigt Hill
#
# Bulk Modulus (GPa) = 26.09717 51.19122 38.64419
# Shear Modulus (GPa) = 22.93312 34.09908 28.51610
#
# Velocity S-wave (km/s) = 3.01529 3.67679 3.36235
# Velocity P-wave (km/s) = 4.74015 6.19033 5.51313
#
# Compressibility (1/GPa) = 0.03831834
#
# Stress axis : x y z
#
# Youngs Moduli (GPa) = 72.80283 59.23867 77.07314
#
# Poissons Ratio (x) = -0.10779 0.36203
# Poissons Ratio (y) = -0.13247 -0.01859
# Poissons Ratio (z) = 0.34197 -0.01429
#
# Static dielectric constant tensor:
#      x y z
#    x 4.773430 -0.071950 0.062190 
#    y -0.071950 4.657290 0.245200 
#    z 0.062190 0.245200 4.879090 
# 
# 
# High freq. dielectric constant tensor:
#      x y z
#    x 2.006760 0.000640 -0.009220 
#    y 0.000640 2.015590 0.008290 
#    z -0.009220 0.008290 2.016450 
# 
# From -- ./inp_files/364246.got.cif
#   From: 2010.06.25/outbox.cif.g09.slc.cpg/sg2_183_cif.got.tgz:364246.got - 2010.06.27 13:26:56.
