data_PCOD8013446
_publ_section_title
;
Structure prediction by ZEFSAII (Michael W. Deem and Ramdas Pophale) SiO2 
 PCOD8013446
Probable space group: P -1
;
_chemical_formula_sum "Si O2"
_cell_formula_units_Z 16
_cell_length_a 13.656981
_cell_length_b 8.813689
_cell_length_c 14.819046
_cell_angle_alpha 95.942115
_cell_angle_beta 36.144213
_cell_angle_gamma 123.280310
_cell_volume 637.690209
_symmetry_space_group_name_H-M "P -1"
_symmetry_group_IT_number 2
_symmetry_cell_setting 'triclinic'
loop_
_space_group_symop_operation_xyz
x,y,z
-x,-y,-z
loop_
_atom_site_type_symbol
_atom_site_label
_atom_site_fract_x
_atom_site_fract_y
_atom_site_fract_z
Si Si1 0.629303 0.586750 0.630131
Si Si2 0.164394 0.010903 0.619385
Si Si3 0.371885 0.060154 0.060125
Si Si4 0.671626 0.461136 0.996927
Si Si5 0.253880 0.603128 0.359352
Si Si6 0.030685 0.619474 0.170182
Si Si7 0.423909 0.949451 0.732070
Si Si8 0.418455 0.199861 0.624013
O O1 0.838764 0.846563 0.435878
O O2 0.806375 0.609444 0.568647
O O3 0.433035 0.345329 0.695918
O O4 0.426486 0.542836 0.836322
O O5 0.209539 0.098047 0.694800
O O6 0.423684 0.095162 0.407545
O O7 0.863688 0.719348 0.814715
O O8 0.402454 0.210956 0.124698
O O9 0.520664 0.242735 0.875240
O O10 0.500000 0.000000 0.000000
O O11 0.081302 0.794233 0.217232
O O12 0.871953 0.466160 0.864088
O O13 0.343208 0.769501 0.386930
O O14 0.000000 0.500000 0.500000
O O15 0.713257 0.384893 0.370994
O O16 0.182695 0.751137 0.970232
O O17 0.308875 0.958456 0.731584
#
# Coordination Sequence:
#
# PCOD8013446 Si02
#       8
#     2   2   2   2   2   2   2   2
#     4  11  27  45  65 101 144 178 227 279 354 403
#     4  12  24  43  71 100 141 178 236 286 338 393
#     4   9  21  40  70  97 131 179 221 272 344 405
#     4  11  23  44  67 100 145 178 225 287 334 410
#     4  10  22  43  67  97 135 175 226 279 337 417
#     4  10  21  42  71  98 140 177 230 281 335 406
#     4  10  21  40  68 101 132 177 231 279 331 403
#     4  11  25  43  69 103 133 188 234 279 337 404
#
# _framework density 25.090553
#
# number of rings (size 3 to 8) (size 9 to 14) (size 15 to 20)
#    0.000    1.500    2.500    1.500    5.250    5.500 
#    0.000    4.375    0.000    0.000    0.000    0.000 
#    0.000    0.000    0.000    0.000    0.000    0.000 
#
# Total GULP energy -198337.879443 kJ/mol
# GULP energy per Si atom -12396.117465 kJ/mol
# Density = 2.503345 g / cm^3
# Si number density = 25.090553 Si / 1000 Ang^3
#
#
#
# Elastic Constant Matrix: (Units=GPa)
#
#
# Indices 1 2 3 4 5 6 
#
# 1 127.1750 39.9989 30.8025 -17.1897 31.0813 -16.5000
# 2 39.9989 116.3513 26.6482 9.6586 11.2945 -7.1611
# 3 30.8025 26.6482 55.9958 -3.9558 23.7454 -11.1756
# 4 -17.1897 9.6586 -3.9558 39.6861 -7.6717 10.0319
# 5 31.0813 11.2945 23.7454 -7.6717 42.0158 -12.7902
# 6 -16.5000 -7.1611 -11.1756 10.0319 -12.7902 34.7277
#
#
#
# Elastic Compliance Matrix: (Units=1/GPa)
#
#
# Indices 1 2 3 4 5 6 
#
# 1 0.011358 -0.003233 -0.001947 0.004245 -0.005385 0.000893
# 2 -0.003233 0.010962 -0.004061 -0.004528 0.001277 0.001196
# 3 -0.001947 -0.004061 0.026254 -0.000095 -0.011577 0.002450
# 4 0.004245 -0.004528 -0.000095 0.030218 0.001477 -0.007133
# 5 -0.005385 0.001277 -0.011577 0.001477 0.036368 0.006947
# 6 0.000893 0.001196 0.002450 -0.007133 0.006947 0.034874
#
#
# Mechanical properties :
#
#
# Convention : Reuss Voigt Hill
#
# Bulk Modulus (GPa) = 33.23344 54.93570 44.08457
# Shear Modulus (GPa) = 28.00409 36.75743 32.38076
#
# Velocity S-wave (km/s) = 3.34446 3.83167 3.59633
# Velocity P-wave (km/s) = 5.30924 6.44346 5.90365
#
# Compressibility (1/GPa) = 0.03009018
#
# Stress axis : x y z
#
# Youngs Moduli (GPa) = 88.04744 91.22595 38.08983
#
# Poissons Ratio (x) = 0.29495 0.07417
# Poissons Ratio (y) = 0.28467 0.15468
# Poissons Ratio (z) = 0.17144 0.37047
#
# Static dielectric constant tensor:
#      x y z
#    x 4.570430 0.068380 0.245530 
#    y 0.068380 4.851670 -0.055710 
#    z 0.245530 -0.055710 4.213840 
# 
# 
# High freq. dielectric constant tensor:
#      x y z
#    x 2.001340 -0.003620 0.022320 
#    y -0.003620 2.010500 0.000560 
#    z 0.022320 0.000560 1.994800 
# 
# From -- ./inp_files/529894.got.cif
#   From: 2010.06.25/outbox.cif.g09.slc.cpg/sg2_265_cif.got.tgz:529894.got - 2010.06.27 13:26:56.
