data_PCOD8013369
_publ_section_title
;
Structure prediction by ZEFSAII (Michael W. Deem and Ramdas Pophale) SiO2 
 PCOD8013369
Probable space group: P -1
;
_chemical_formula_sum "Si O2"
_cell_formula_units_Z 16
_cell_length_a 15.967882
_cell_length_b 16.846656
_cell_length_c 16.630935
_cell_angle_alpha 148.723094
_cell_angle_beta 162.147038
_cell_angle_gamma 32.721444
_cell_volume 701.137101
_symmetry_space_group_name_H-M "P -1"
_symmetry_group_IT_number 2
_symmetry_cell_setting 'triclinic'
loop_
_space_group_symop_operation_xyz
x,y,z
-x,-y,-z
loop_
_atom_site_type_symbol
_atom_site_label
_atom_site_fract_x
_atom_site_fract_y
_atom_site_fract_z
Si Si1 0.860656 0.899800 0.347529
Si Si2 0.739749 0.038781 0.919098
Si Si3 0.602510 0.492264 0.402539
Si Si4 0.264411 0.640852 0.881449
Si Si5 0.024940 0.460699 0.895618
Si Si6 0.751661 0.598753 0.464297
Si Si7 0.369235 0.897752 0.354514
Si Si8 0.281651 0.869740 0.837708
O O1 0.928014 0.723112 0.228484
O O2 0.991942 0.928690 0.579218
O O3 0.527705 0.947809 0.090159
O O4 0.000000 0.000000 0.500000
O O5 0.655395 0.191889 0.918209
O O6 0.741536 0.083456 0.051316
O O7 0.040012 0.940955 0.088179
O O8 0.506746 0.932823 0.596622
O O9 0.751572 0.528882 0.653339
O O10 0.713796 0.589516 0.517410
O O11 0.655315 0.314105 0.271329
O O12 0.273072 0.539940 0.155068
O O13 0.178112 0.574581 0.659153
O O14 0.016389 0.675932 0.750038
O O15 0.500000 0.500000 0.000000
O O16 0.000000 0.500000 0.000000
O O17 0.474693 0.712078 0.272435
O O18 0.500000 0.000000 0.500000
#
# Coordination Sequence:
#
# PCOD8013369 Si02
#       8
#     2   2   2   2   2   2   2   2
#     4  10  21  40  67  93 125 164 205 270 323 394
#     4  12  25  45  66  94 134 180 219 270 333 391
#     4  10  22  40  69  93 129 168 214 279 314 387
#     4  11  25  40  72  95 130 179 227 278 308 401
#     4  10  22  42  65  94 128 168 207 262 340 393
#     4  11  25  43  63 103 130 173 233 270 329 385
#     4  12  26  44  65  91 139 181 213 274 339 381
#     4  10  21  41  66  94 125 165 220 263 324 385
#
# _framework density 22.820074000000002
#
# number of rings (size 3 to 8) (size 9 to 14) (size 15 to 20)
#    0.000    1.250    2.500    2.625    5.250    1.000 
#    6.750    0.000    0.000    0.000    0.000    0.000 
#    0.000    0.000    0.000    0.000    0.000    0.000 
#
# Total GULP energy -198334.318179 kJ/mol
# GULP energy per Si atom -12395.894886 kJ/mol
# Density = 2.276813 g / cm^3
# Si number density = 22.820074 Si / 1000 Ang^3
#
#
#
# Elastic Constant Matrix: (Units=GPa)
#
#
# Indices 1 2 3 4 5 6 
#
# 1 123.0917 31.4997 33.4578 6.6800 0.5565 9.2651
# 2 31.4997 85.2137 36.0323 -5.8798 7.2665 -0.4195
# 3 33.4578 36.0323 108.6874 -5.6957 -7.1579 -12.6796
# 4 6.6800 -5.8798 -5.6957 32.3035 -1.6579 2.6467
# 5 0.5565 7.2665 -7.1579 -1.6579 30.3186 1.3438
# 6 9.2651 -0.4195 -12.6796 2.6467 1.3438 29.6005
#
#
#
# Elastic Compliance Matrix: (Units=1/GPa)
#
#
# Indices 1 2 3 4 5 6 
#
# 1 0.010049 -0.002712 -0.002833 -0.002740 -0.000169 -0.004145
# 2 -0.002712 0.015166 -0.004463 0.002375 -0.004471 -0.000857
# 3 -0.002833 -0.004463 0.012587 0.001712 0.003926 0.005884
# 4 -0.002740 0.002375 0.001712 0.032457 0.001720 -0.001355
# 5 -0.000169 -0.004471 0.003926 0.001720 0.035082 -0.000075
# 6 -0.004145 -0.000857 0.005884 -0.001355 -0.000075 0.037713
#
#
# Mechanical properties :
#
#
# Convention : Reuss Voigt Hill
#
# Bulk Modulus (GPa) = 56.22159 57.66361 56.94260
# Shear Modulus (GPa) = 29.58607 32.84473 31.21540
#
# Velocity S-wave (km/s) = 3.60459 3.79791 3.70252
# Velocity P-wave (km/s) = 6.48186 6.67502 6.57915
#
# Compressibility (1/GPa) = 0.01778676
#
# Stress axis : x y z
#
# Youngs Moduli (GPa) = 99.50761 65.93799 79.44727
#
# Poissons Ratio (x) = 0.17883 0.22505
# Poissons Ratio (y) = 0.26987 0.35457
# Poissons Ratio (z) = 0.28188 0.29427
#
# Static dielectric constant tensor:
#      x y z
#    x 4.149940 -0.144920 -0.220540 
#    y -0.144920 4.039510 0.044320 
#    z -0.220540 0.044320 5.057280 
# 
# 
# High freq. dielectric constant tensor:
#      x y z
#    x 1.903050 -0.005060 -0.012590 
#    y -0.005060 1.887620 0.002510 
#    z -0.012590 0.002510 1.922020 
# 
# From -- ./inp_files/534481.got.cif
#   From: 2010.06.25/outbox.cif.g09.slc.cpg/sg2_268_cif.got.tgz:534481.got - 2010.06.27 13:26:56.
