data_PCOD8013930
_publ_section_title
;
Structure prediction by ZEFSAII (Michael W. Deem and Ramdas Pophale) SiO2 
 PCOD8013930
Probable space group: P -1
;
_chemical_formula_sum "Si O2"
_cell_formula_units_Z 14
_cell_length_a 11.077938
_cell_length_b 10.032765
_cell_length_c 12.692009
_cell_angle_alpha 139.105739
_cell_angle_beta 130.236775
_cell_angle_gamma 75.372197
_cell_volume 621.607269
_symmetry_space_group_name_H-M "P -1"
_symmetry_group_IT_number 2
_symmetry_cell_setting 'triclinic'
loop_
_space_group_symop_operation_xyz
x,y,z
-x,-y,-z
loop_
_atom_site_type_symbol
_atom_site_label
_atom_site_fract_x
_atom_site_fract_y
_atom_site_fract_z
Si Si1 0.441617 0.649191 0.483876
Si Si2 0.552591 0.796067 0.406148
Si Si3 0.903524 0.372665 0.682349
Si Si4 0.232569 0.940704 0.772890
Si Si5 0.114170 0.038810 0.438753
Si Si6 0.730519 0.478981 0.083116
Si Si7 0.412707 0.874598 0.029044
O O1 0.500000 0.500000 0.500000
O O2 0.516017 0.663426 0.416999
O O3 0.223259 0.522467 0.284013
O O4 0.513522 0.906715 0.721602
O O5 0.761536 0.893015 0.554261
O O6 0.500000 0.000000 0.500000
O O7 0.441689 0.612819 0.143135
O O8 0.846851 0.287916 0.479868
O O9 0.113765 0.562996 0.911524
O O10 0.871489 0.166090 0.618680
O O11 0.090773 0.040045 0.757903
O O12 0.424821 0.129344 0.947702
O O13 0.261800 0.873966 0.866821
O O14 0.184515 0.246398 0.687731
O O15 0.679815 0.357124 0.094453
#
# Coordination Sequence:
#
# PCOD8013930 Si02
#       7
#     2   2   2   2   2   2   2
#     4  11  25  43  62  90 132 176 210 260 324 384
#     4  12  23  44  65  90 136 170 209 267 317 377
#     4  10  22  42  62  95 131 159 219 273 308 382
#     4   9  20  38  65  89 128 161 206 271 319 362
#     4  11  23  40  67  98 125 165 221 262 318 382
#     4  11  23  39  71  94 122 171 215 264 322 375
#     4  10  21  41  63  94 130 166 217 263 315 380
#
# _framework density 22.522259999999999
#
# number of rings (size 3 to 8) (size 9 to 14) (size 15 to 20)
#    0.000    1.429    2.857    3.000    0.000   10.857 
#    2.571    1.429    0.000    0.000    0.000    0.000 
#    0.000    0.000    0.000    0.000    0.000    0.000 
#
# Total GULP energy -173633.747320 kJ/mol
# GULP energy per Si atom -12402.410523 kJ/mol
# Density = 2.247100 g / cm^3
# Si number density = 22.522260 Si / 1000 Ang^3
#
#
#
# Elastic Constant Matrix: (Units=GPa)
#
#
# Indices 1 2 3 4 5 6 
#
# 1 158.6503 64.4851 21.2317 -18.0653 31.6071 3.5269
# 2 64.4851 141.5247 28.7975 -24.5047 15.7920 10.2793
# 3 21.2317 28.7975 42.4591 -16.3694 14.0235 1.1724
# 4 -18.0653 -24.5047 -16.3694 33.1563 2.0889 -2.7831
# 5 31.6071 15.7920 14.0235 2.0889 36.0364 -7.0725
# 6 3.5269 10.2793 1.1724 -2.7831 -7.0725 45.8755
#
#
#
# Elastic Compliance Matrix: (Units=1/GPa)
#
#
# Indices 1 2 3 4 5 6 
#
# 1 0.009361 -0.002891 0.001549 0.004140 -0.008001 -0.001094
# 2 -0.002891 0.010042 -0.003341 0.004114 -0.001171 -0.001873
# 3 0.001549 -0.003341 0.036992 0.017483 -0.015630 -0.001665
# 4 0.004140 0.004114 0.017483 0.044931 -0.015095 -0.001288
# 5 -0.008001 -0.001171 -0.015630 -0.015095 0.043628 0.007087
# 6 -0.001094 -0.001873 -0.001665 -0.001288 0.007087 0.023359
#
#
# Mechanical properties :
#
#
# Convention : Reuss Voigt Hill
#
# Bulk Modulus (GPa) = 21.26363 63.51809 42.39086
# Shear Modulus (GPa) = 25.85915 38.22161 32.04038
#
# Velocity S-wave (km/s) = 3.39213 4.12401 3.77584
# Velocity P-wave (km/s) = 4.98033 7.13724 6.15402
#
# Compressibility (1/GPa) = 0.04702867
#
# Stress axis : x y z
#
# Youngs Moduli (GPa) = 106.82865 99.58097 27.03291
#
# Poissons Ratio (x) = 0.28792 -0.04188
# Poissons Ratio (y) = 0.30888 0.09031
# Poissons Ratio (z) = -0.16549 0.33268
#
# Static dielectric constant tensor:
#      x y z
#    x 4.569730 0.028170 0.276160 
#    y 0.028170 3.856880 -0.197810 
#    z 0.276160 -0.197810 4.013010 
# 
# 
# High freq. dielectric constant tensor:
#      x y z
#    x 1.906700 0.005590 0.015250 
#    y 0.005590 1.880080 -0.014600 
#    z 0.015250 -0.014600 1.869900 
# 
# From -- ./inp_files/331837.got.cif
#   From: 2010.06.25/outbox.cif.g09.slc.cpg/sg2_166_cif.got.tgz:331837.got - 2010.06.27 13:26:56.
