data_PCOD8013313
_publ_section_title
;
Structure prediction by ZEFSAII (Michael W. Deem and Ramdas Pophale) SiO2 
 PCOD8013313
Probable space group: P -1
;
_chemical_formula_sum "Si O2"
_cell_formula_units_Z 16
_cell_length_a 25.924365
_cell_length_b 12.580065
_cell_length_c 6.412374
_cell_angle_alpha 132.597833
_cell_angle_beta 133.025286
_cell_angle_gamma 27.146706
_cell_volume 682.163874
_symmetry_space_group_name_H-M "P -1"
_symmetry_group_IT_number 2
_symmetry_cell_setting 'triclinic'
loop_
_space_group_symop_operation_xyz
x,y,z
-x,-y,-z
loop_
_atom_site_type_symbol
_atom_site_label
_atom_site_fract_x
_atom_site_fract_y
_atom_site_fract_z
Si Si1 0.268065 0.625981 0.362432
Si Si2 0.784721 0.001845 0.805639
Si Si3 0.690794 0.904897 0.664870
Si Si4 0.584084 0.500563 0.758097
Si Si5 0.920063 0.832951 0.321627
Si Si6 0.839508 0.709549 0.192848
Si Si7 0.536594 0.779529 0.354217
Si Si8 0.148668 0.537792 0.766131
O O1 0.377468 0.489963 0.339088
O O2 0.330479 0.456862 0.514591
O O3 0.190713 0.893735 0.543872
O O4 0.181257 0.647236 0.058725
O O5 0.705426 0.268808 0.901782
O O6 0.720880 0.016869 0.830400
O O7 0.792358 0.903678 0.482663
O O8 0.908276 0.841053 0.045304
O O9 0.740450 0.710803 0.375829
O O10 0.551832 0.126832 0.584237
O O11 0.740581 0.798250 0.894037
O O12 0.500000 0.500000 0.500000
O O13 0.516156 0.725430 0.011959
O O14 0.926117 0.661957 0.218578
O O15 0.040157 0.718901 0.548282
O O16 0.892204 0.491228 0.183743
O O17 0.500000 0.000000 0.500000
#
# Coordination Sequence:
#
# PCOD8013313 Si02
#       8
#     2   2   2   2   2   2   2   2
#     4  12  26  45  68  98 138 175 226 279 337 398
#     4  10  21  40  66  98 130 166 226 276 325 397
#     4  10  23  41  66  98 134 171 223 272 338 400
#     4  12  25  42  72 100 132 180 227 280 340 401
#     4  11  23  43  69  99 134 177 227 275 327 401
#     4  10  21  42  69  98 133 173 222 276 332 402
#     4  12  26  44  68  98 138 178 222 283 345 406
#     4  11  25  43  67  99 137 180 221 275 337 401
#
# _framework density 23.454774
#
# number of rings (size 3 to 8) (size 9 to 14) (size 15 to 20)
#    0.000    1.000    2.500    3.750    1.750   10.500 
#    0.000    0.625    0.000    0.000    0.000    0.000 
#    0.000    0.000    0.000    0.000    0.000    0.000 
#
# Total GULP energy -198315.473256 kJ/mol
# GULP energy per Si atom -12394.717079 kJ/mol
# Density = 2.340139 g / cm^3
# Si number density = 23.454774 Si / 1000 Ang^3
#
#
#
# Elastic Constant Matrix: (Units=GPa)
#
#
# Indices 1 2 3 4 5 6 
#
# 1 56.6452 7.2778 21.6173 -1.6444 5.7751 4.6258
# 2 7.2778 67.8033 10.0330 -9.6278 5.2766 12.7280
# 3 21.6173 10.0330 100.6784 -3.7692 8.8425 13.3873
# 4 -1.6444 -9.6278 -3.7692 42.5025 -3.6362 2.0035
# 5 5.7751 5.2766 8.8425 -3.6362 40.6933 0.7319
# 6 4.6258 12.7280 13.3873 2.0035 0.7319 33.3101
#
#
#
# Elastic Compliance Matrix: (Units=1/GPa)
#
#
# Indices 1 2 3 4 5 6 
#
# 1 0.019508 -0.001268 -0.003821 0.000009 -0.001761 -0.000651
# 2 -0.001268 0.016782 -0.000284 0.003900 -0.001472 -0.006325
# 3 -0.003821 -0.000284 0.011500 0.000844 -0.001773 -0.003995
# 4 0.000009 0.003900 0.000844 0.024780 0.001584 -0.003356
# 5 -0.001761 -0.001472 -0.001773 0.001584 0.025526 0.000863
# 6 -0.000651 -0.006325 -0.003995 -0.003356 0.000863 0.034316
#
#
# Mechanical properties :
#
#
# Convention : Reuss Voigt Hill
#
# Bulk Modulus (GPa) = 26.99466 33.66480 30.32973
# Shear Modulus (GPa) = 32.15316 35.71442 33.93379
#
# Velocity S-wave (km/s) = 3.70653 3.90640 3.80778
# Velocity P-wave (km/s) = 5.46370 5.89329 5.68256
#
# Compressibility (1/GPa) = 0.03704436
#
# Stress axis : x y z
#
# Youngs Moduli (GPa) = 51.26175 59.58692 86.95870
#
# Poissons Ratio (x) = 0.07556 0.33224
# Poissons Ratio (y) = 0.06500 0.02468
# Poissons Ratio (z) = 0.19586 0.01691
#
# Static dielectric constant tensor:
#      x y z
#    x 3.765910 0.391590 -0.420040 
#    y 0.391590 4.059960 -0.096410 
#    z -0.420040 -0.096410 4.292560 
# 
# 
# High freq. dielectric constant tensor:
#      x y z
#    x 1.913970 0.006300 -0.006690 
#    y 0.006300 1.929650 -0.007640 
#    z -0.006690 -0.007640 1.941800 
# 
# From -- ./inp_files/126960.got.cif
#   From: 2010.06.25/outbox.cif.g09.slc.cpg/sg2_64_cif.got.tgz:126960.got - 2010.06.27 13:26:56.
