data_PCOD8013744
_publ_section_title
;
Structure prediction by ZEFSAII (Michael W. Deem and Ramdas Pophale) SiO2 
 PCOD8013744
Probable space group: P -1
;
_chemical_formula_sum "Si O2"
_cell_formula_units_Z 16
_cell_length_a 12.339667
_cell_length_b 11.200143
_cell_length_c 14.365998
_cell_angle_alpha 33.034219
_cell_angle_beta 111.713765
_cell_angle_gamma 128.989600
_cell_volume 780.995050
_symmetry_space_group_name_H-M "P -1"
_symmetry_group_IT_number 2
_symmetry_cell_setting 'triclinic'
loop_
_space_group_symop_operation_xyz
x,y,z
-x,-y,-z
loop_
_atom_site_type_symbol
_atom_site_label
_atom_site_fract_x
_atom_site_fract_y
_atom_site_fract_z
Si Si1 0.928068 0.714620 0.051644
Si Si2 0.370756 0.092050 0.155254
Si Si3 0.698545 0.635979 0.904604
Si Si4 0.694501 0.804306 0.419214
Si Si5 0.623520 0.405874 0.500314
Si Si6 0.032404 0.708915 0.720046
Si Si7 0.793816 0.723673 0.678292
Si Si8 0.238280 0.262947 0.856107
O O1 0.974832 0.519482 0.191066
O O2 0.803311 0.609111 0.161225
O O3 0.848261 0.681031 0.951112
O O4 0.081393 0.027596 0.909386
O O5 0.291967 0.119476 0.199458
O O6 0.322827 0.780189 0.342380
O O7 0.547604 0.322253 0.082903
O O8 0.316924 0.145339 0.007075
O O9 0.696139 0.665131 0.774731
O O10 0.713690 0.691768 0.403261
O O11 0.547615 0.781510 0.395593
O O12 0.685703 0.618466 0.622868
O O13 0.838802 0.134956 0.260465
O O14 0.648071 0.496082 0.340479
O O15 0.869612 0.571190 0.803650
O O16 0.069911 0.938861 0.504354
#
# Coordination Sequence:
#
# PCOD8013744 Si02
#       8
#     2   2   2   2   2   2   2   2
#     4  10  22  41  58  90 125 150 203 254 290 359
#     4  10  23  41  63  91 122 155 204 249 295 364
#     4  10  21  41  60  93 117 151 210 252 288 358
#     4   9  21  39  55  95 118 148 213 244 275 385
#     4  11  22  40  65  82 126 166 187 246 316 344
#     4   9  20  37  60  83 118 156 199 243 293 352
#     4   9  20  36  61  87 119 149 201 252 290 352
#     4  10  24  41  60  92 126 153 201 250 296 365
#
# _framework density 20.486685999999999
#
# number of rings (size 3 to 8) (size 9 to 14) (size 15 to 20)
#    0.750    1.500    0.000    1.500    5.250    0.500 
#    4.500    8.125    0.000    0.000    0.000    0.000 
#    0.000    0.000    0.000    0.000    0.000    0.000 
#
# Total GULP energy -198270.718813 kJ/mol
# GULP energy per Si atom -12391.919926 kJ/mol
# Density = 2.044006 g / cm^3
# Si number density = 20.486686 Si / 1000 Ang^3
#
#
#
# Elastic Constant Matrix: (Units=GPa)
#
#
# Indices 1 2 3 4 5 6 
#
# 1 90.8505 11.9968 38.2370 5.7234 16.3215 -14.7359
# 2 11.9968 63.2551 6.4346 13.8545 6.5510 3.3219
# 3 38.2370 6.4346 68.6664 11.6679 15.2106 -14.3848
# 4 5.7234 13.8545 11.6679 28.8629 -4.0545 1.7791
# 5 16.3215 6.5510 15.2106 -4.0545 28.2627 2.4849
# 6 -14.7359 3.3219 -14.3848 1.7791 2.4849 36.6732
#
#
#
# Elastic Compliance Matrix: (Units=1/GPa)
#
#
# Indices 1 2 3 4 5 6 
#
# 1 0.015672 -0.001791 -0.006194 -0.000836 -0.005814 0.004464
# 2 -0.001791 0.018846 0.002162 -0.010355 -0.005923 -0.000675
# 3 -0.006194 0.002162 0.024324 -0.011902 -0.012450 0.008277
# 4 -0.000836 -0.010355 -0.011902 0.047409 0.016749 -0.007501
# 5 -0.005814 -0.005923 -0.012450 0.016749 0.050174 -0.010895
# 6 0.004464 -0.000675 0.008277 -0.007501 -0.010895 0.033472
#
#
# Mechanical properties :
#
#
# Convention : Reuss Voigt Hill
#
# Bulk Modulus (GPa) = 21.18890 37.34542 29.26716
# Shear Modulus (GPa) = 23.01233 29.83336 26.42285
#
# Velocity S-wave (km/s) = 3.35518 3.82020 3.59521
# Velocity P-wave (km/s) = 5.03734 6.14225 5.61703
#
# Compressibility (1/GPa) = 0.04719453
#
# Stress axis : x y z
#
# Youngs Moduli (GPa) = 63.80899 53.06205 41.11208
#
# Poissons Ratio (x) = 0.09506 0.25464
# Poissons Ratio (y) = 0.11431 -0.08888
# Poissons Ratio (z) = 0.39522 -0.11471
#
# Static dielectric constant tensor:
#      x y z
#    x 3.780990 -0.016080 0.103050 
#    y -0.016080 3.651810 0.113970 
#    z 0.103050 0.113970 3.249430 
# 
# 
# High freq. dielectric constant tensor:
#      x y z
#    x 1.815320 -0.000760 0.008770 
#    y -0.000760 1.799890 0.010210 
#    z 0.008770 0.010210 1.763570 
# 
# From -- ./inp_files/518594.got.cif
#   From: 2010.06.25/outbox.cif.g09.slc.cpg/sg2_260_cif.got.tgz:518594.got - 2010.06.27 13:26:56.
