data_PCOD8013596
_publ_section_title
;
Structure prediction by ZEFSAII (Michael W. Deem and Ramdas Pophale) SiO2 
 PCOD8013596
Probable space group: P -1
;
_chemical_formula_sum "Si O2"
_cell_formula_units_Z 16
_cell_length_a 12.772569
_cell_length_b 22.825007
_cell_length_c 9.388340
_cell_angle_alpha 121.446504
_cell_angle_beta 59.140196
_cell_angle_gamma 161.440441
_cell_volume 741.514073
_symmetry_space_group_name_H-M "P -1"
_symmetry_group_IT_number 2
_symmetry_cell_setting 'triclinic'
loop_
_space_group_symop_operation_xyz
x,y,z
-x,-y,-z
loop_
_atom_site_type_symbol
_atom_site_label
_atom_site_fract_x
_atom_site_fract_y
_atom_site_fract_z
Si Si1 0.163933 0.008658 0.635951
Si Si2 0.898892 0.629351 0.907060
Si Si3 0.253042 0.692915 0.600648
Si Si4 0.559401 0.252913 0.928191
Si Si5 0.640083 0.639660 0.656233
Si Si6 0.160715 0.257867 0.027871
Si Si7 0.935988 0.579175 0.100304
Si Si8 0.255711 0.088734 0.217373
O O1 0.915548 0.814822 0.579582
O O2 0.993636 0.983614 0.639698
O O3 0.500435 0.162848 0.519271
O O4 0.249560 0.080522 0.824470
O O5 0.998502 0.757934 0.953079
O O6 0.044112 0.652334 0.720451
O O7 0.503491 0.417023 0.915779
O O8 0.039470 0.686803 0.040396
O O9 0.474641 0.790308 0.703509
O O10 0.000000 0.500000 0.500000
O O11 0.749260 0.279226 0.846695
O O12 0.796208 0.437389 0.937582
O O13 0.438821 0.218751 0.120663
O O14 0.500000 0.500000 0.500000
O O15 0.794082 0.705381 0.788106
O O16 0.333024 0.530177 0.745261
O O17 0.917072 0.069054 0.924049
#
# Coordination Sequence:
#
# PCOD8013596 Si02
#       8
#     2   2   2   2   2   2   2   2
#     4  12  25  42  68 102 138 172 224 280 337 394
#     4  10  22  44  65  94 135 180 222 278 327 402
#     4  12  27  43  65 104 143 173 218 276 344 396
#     4  11  21  40  72 100 125 171 229 281 321 393
#     4  11  24  43  64  97 137 178 220 279 342 394
#     4  10  23  43  71  94 126 180 239 267 328 407
#     4  10  21  40  69  97 126 174 230 271 334 394
#     4  12  23  44  69  97 131 179 227 273 328 401
#
# _framework density 21.577473000000001
#
# number of rings (size 3 to 8) (size 9 to 14) (size 15 to 20)
#    0.000    1.000    3.750    3.750    1.750    5.500 
#    2.250    1.250    0.000    0.000    0.000    0.000 
#    0.000    0.000    0.000    0.000    0.000    0.000 
#
# Total GULP energy -198409.967265 kJ/mol
# GULP energy per Si atom -12400.622954 kJ/mol
# Density = 2.152836 g / cm^3
# Si number density = 21.577473 Si / 1000 Ang^3
#
#
#
# Elastic Constant Matrix: (Units=GPa)
#
#
# Indices 1 2 3 4 5 6 
#
# 1 143.6823 44.3761 43.8084 2.7660 -14.7282 -3.2358
# 2 44.3761 106.8779 52.2245 3.8816 -12.3866 -11.8428
# 3 43.8084 52.2245 96.0407 -0.2046 -8.4491 -6.1673
# 4 2.7660 3.8816 -0.2046 48.8543 7.4647 -1.6316
# 5 -14.7282 -12.3866 -8.4491 7.4647 33.8920 -2.6078
# 6 -3.2358 -11.8428 -6.1673 -1.6316 -2.6078 35.0441
#
#
#
# Elastic Compliance Matrix: (Units=1/GPa)
#
#
# Indices 1 2 3 4 5 6 
#
# 1 0.008654 -0.002000 -0.002652 -0.000733 0.002515 -0.000191
# 2 -0.002000 0.014062 -0.006211 -0.001414 0.003315 0.003655
# 3 -0.002652 -0.006211 0.015041 0.000687 0.000203 0.000350
# 4 -0.000733 -0.001414 0.000687 0.021453 -0.005376 0.000174
# 5 0.002515 0.003315 0.000203 -0.005376 0.033323 0.003617
# 6 -0.000191 0.003655 0.000350 0.000174 0.003617 0.030092
#
#
# Mechanical properties :
#
#
# Convention : Reuss Voigt Hill
#
# Bulk Modulus (GPa) = 62.38105 69.71320 66.04713
# Shear Modulus (GPa) = 33.40099 37.30421 35.35260
#
# Velocity S-wave (km/s) = 3.93868 4.16245 4.05211
# Velocity P-wave (km/s) = 7.04679 7.44848 7.25042
#
# Compressibility (1/GPa) = 0.01603051
#
# Stress axis : x y z
#
# Youngs Moduli (GPa) = 115.55548 71.11129 66.48336
#
# Poissons Ratio (x) = 0.14223 0.17634
# Poissons Ratio (y) = 0.23112 0.41294
# Poissons Ratio (z) = 0.30649 0.44168
#
# Static dielectric constant tensor:
#      x y z
#    x 4.468260 0.073940 0.216390 
#    y 0.073940 3.940950 -0.159370 
#    z 0.216390 -0.159370 3.887360 
# 
# 
# High freq. dielectric constant tensor:
#      x y z
#    x 1.859980 0.004510 0.000740 
#    y 0.004510 1.852430 -0.013220 
#    z 0.000740 -0.013220 1.831570 
# 
# From -- ./inp_files/283135.got.cif
#   From: 2010.06.25/outbox.cif.g09.slc.cpg/sg2_142_cif.got.tgz:283135.got - 2010.06.27 13:26:56.
