data_PCOD8013597
_publ_section_title
;
Structure prediction by ZEFSAII (Michael W. Deem and Ramdas Pophale) SiO2 
 PCOD8013597
Probable space group: P -1
;
_chemical_formula_sum "Si O2"
_cell_formula_units_Z 14
_cell_length_a 17.529837
_cell_length_b 8.377531
_cell_length_c 12.025903
_cell_angle_alpha 98.809847
_cell_angle_beta 150.200377
_cell_angle_gamma 101.366033
_cell_volume 642.373144
_symmetry_space_group_name_H-M "P -1"
_symmetry_group_IT_number 2
_symmetry_cell_setting 'triclinic'
loop_
_space_group_symop_operation_xyz
x,y,z
-x,-y,-z
loop_
_atom_site_type_symbol
_atom_site_label
_atom_site_fract_x
_atom_site_fract_y
_atom_site_fract_z
Si Si1 0.231764 0.792463 0.758540
Si Si2 0.237077 0.547191 0.919922
Si Si3 0.914565 0.052995 0.802217
Si Si4 0.681032 0.493176 0.733997
Si Si5 0.424601 0.404225 0.771873
Si Si6 0.398685 0.738197 0.758148
Si Si7 0.771261 0.278331 0.675384
O O1 0.265869 0.747063 0.922762
O O2 0.314982 0.709661 0.773311
O O3 0.997013 0.672150 0.423611
O O4 0.358308 0.045412 0.922357
O O5 0.293376 0.580116 0.124081
O O6 0.380965 0.519169 0.041458
O O7 0.770910 0.087353 0.686999
O O8 0.771368 0.854445 0.511941
O O9 0.104287 0.266601 0.998391
O O10 0.000000 0.000000 0.000000
O O11 0.500000 0.500000 0.500000
O O12 0.626618 0.302144 0.563192
O O13 0.356497 0.525530 0.644388
O O14 0.500000 0.500000 0.000000
O O15 0.279188 0.766066 0.523691
O O16 0.000000 0.500000 0.000000
#
# Coordination Sequence:
#
# PCOD8013597 Si02
#       7
#     2   2   2   2   2   2   2
#     4  10  23  41  66  95 128 181 219 289 333 412
#     4  11  23  43  64  97 139 165 230 284 351 399
#     4  11  24  45  70  99 137 188 232 277 346 419
#     4  11  24  45  71 104 138 174 226 298 347 410
#     4  12  25  43  65  98 137 184 231 280 341 416
#     4  11  22  42  68  93 132 176 234 268 347 408
#     4  10  21  40  69  97 128 177 224 275 338 409
#
# _framework density 21.794187999999998
#
# number of rings (size 3 to 8) (size 9 to 14) (size 15 to 20)
#    0.000    1.143    1.429    6.000    4.000    0.571 
#    2.571    6.429    0.000    0.000    0.000    0.000 
#    0.000    0.000    0.000    0.000    0.000    0.000 
#
# Total GULP energy -173505.982726 kJ/mol
# GULP energy per Si atom -12393.284480 kJ/mol
# Density = 2.174458 g / cm^3
# Si number density = 21.794188 Si / 1000 Ang^3
#
#
#
# Elastic Constant Matrix: (Units=GPa)
#
#
# Indices 1 2 3 4 5 6 
#
# 1 103.2825 56.7767 44.5217 1.6748 -5.7906 2.4660
# 2 56.7767 129.5561 45.6613 -4.6208 -4.5556 -18.2310
# 3 44.5217 45.6613 103.9009 -0.3194 -2.9429 -1.7612
# 4 1.6748 -4.6208 -0.3194 45.1074 6.1112 -7.6752
# 5 -5.7906 -4.5556 -2.9429 6.1112 42.3966 -5.3885
# 6 2.4660 -18.2310 -1.7612 -7.6752 -5.3885 44.7791
#
#
#
# Elastic Compliance Matrix: (Units=1/GPa)
#
#
# Indices 1 2 3 4 5 6 
#
# 1 0.014542 -0.005532 -0.003836 -0.001843 0.000958 -0.003404
# 2 -0.005532 0.012014 -0.002788 0.002265 0.000722 0.005561
# 3 -0.003836 -0.002788 0.012486 -0.000133 0.000004 -0.000455
# 4 -0.001843 0.002265 -0.000133 0.023657 -0.002826 0.004733
# 5 0.000958 0.000722 0.000004 -0.002826 0.024548 0.002711
# 6 -0.003404 0.005561 -0.000455 0.004733 0.002711 0.025903
#
#
# Mechanical properties :
#
#
# Convention : Reuss Voigt Hill
#
# Bulk Modulus (GPa) = 67.89003 70.07323 68.98163
# Shear Modulus (GPa) = 35.11946 39.10860 37.11403
#
# Velocity S-wave (km/s) = 4.01860 4.24069 4.13114
# Velocity P-wave (km/s) = 7.26294 7.49667 7.38073
#
# Compressibility (1/GPa) = 0.01472970
#
# Stress axis : x y z
#
# Youngs Moduli (GPa) = 68.76755 83.23442 80.09219
#
# Poissons Ratio (x) = 0.46043 0.30726
# Poissons Ratio (y) = 0.38041 0.22328
# Poissons Ratio (z) = 0.26382 0.23204
#
# Static dielectric constant tensor:
#      x y z
#    x 4.449190 -0.229210 -0.104270 
#    y -0.229210 4.551220 -0.088680 
#    z -0.104270 -0.088680 4.110580 
# 
# 
# High freq. dielectric constant tensor:
#      x y z
#    x 1.848390 -0.000440 -0.002050 
#    y -0.000440 1.866820 -0.011920 
#    z -0.002050 -0.011920 1.869520 
# 
# From -- ./inp_files/307842.got.cif
#   From: 2010.06.25/outbox.cif.g09.slc.cpg/sg2_154_cif.got.tgz:307842.got - 2010.06.27 13:26:56.
