data_PCOD8013677
_publ_section_title
;
Structure prediction by ZEFSAII (Michael W. Deem and Ramdas Pophale) SiO2 
 PCOD8013677
Probable space group: P -1
;
_chemical_formula_sum "Si O2"
_cell_formula_units_Z 16
_cell_length_a 12.456589
_cell_length_b 9.672119
_cell_length_c 11.512667
_cell_angle_alpha 71.967080
_cell_angle_beta 49.074427
_cell_angle_gamma 46.220452
_cell_volume 729.957284
_symmetry_space_group_name_H-M "P -1"
_symmetry_group_IT_number 2
_symmetry_cell_setting 'triclinic'
loop_
_space_group_symop_operation_xyz
x,y,z
-x,-y,-z
loop_
_atom_site_type_symbol
_atom_site_label
_atom_site_fract_x
_atom_site_fract_y
_atom_site_fract_z
Si Si1 0.967424 0.163819 0.405773
Si Si2 0.554368 0.732997 0.994946
Si Si3 0.217042 0.679504 0.962469
Si Si4 0.473374 0.129142 0.585505
Si Si5 0.466144 0.447822 0.416475
Si Si6 0.175365 0.969153 0.085860
Si Si7 0.892359 0.711756 0.073406
Si Si8 0.345508 0.051858 0.251764
O O1 0.752235 0.376476 0.521409
O O2 0.127782 0.167080 0.334538
O O3 0.000000 0.000000 0.500000
O O4 0.991352 0.104930 0.267685
O O5 0.711991 0.496531 0.956115
O O6 0.362514 0.786024 0.071594
O O7 0.507603 0.844503 0.121768
O O8 0.634199 0.791523 0.829061
O O9 0.387025 0.597222 0.773187
O O10 0.141952 0.875752 0.031432
O O11 0.033580 0.738937 0.013279
O O12 0.511501 0.250952 0.461088
O O13 0.249869 0.266425 0.742604
O O14 0.500000 0.000000 0.500000
O O15 0.621334 0.004496 0.620815
O O16 0.500000 0.500000 0.500000
O O17 0.226933 0.102124 0.979255
O O18 0.000000 0.500000 0.000000
#
# Coordination Sequence:
#
# PCOD8013677 Si02
#       8
#     2   2   2   2   2   2   2   2
#     4  11  24  42  70 100 138 182 234 281 351 421
#     4  10  21  40  71  96 137 172 239 276 343 408
#     4  12  26  42  70 104 138 180 229 292 345 407
#     4  12  26  46  69 102 143 177 225 294 355 398
#     4  12  25  45  69 100 142 186 227 279 349 421
#     4  11  23  44  67 100 134 178 230 290 341 409
#     4  12  25  43  71 100 133 187 239 274 335 423
#     4  10  22  42  68 100 132 188 228 288 334 420
#
# _framework density 21.919091000000002
#
# number of rings (size 3 to 8) (size 9 to 14) (size 15 to 20)
#    0.000    0.750    1.250    7.500    5.250    2.000 
#    0.000    0.625    0.000    0.000    0.000    0.000 
#    0.000    0.000    0.000    0.000    0.000    0.000 
#
# Total GULP energy -198370.497994 kJ/mol
# GULP energy per Si atom -12398.156125 kJ/mol
# Density = 2.186920 g / cm^3
# Si number density = 21.919091 Si / 1000 Ang^3
#
#
#
# Elastic Constant Matrix: (Units=GPa)
#
#
# Indices 1 2 3 4 5 6 
#
# 1 117.1463 41.2459 36.6970 11.7587 4.3640 9.9765
# 2 41.2459 108.7100 15.5691 -18.6709 7.2291 10.1501
# 3 36.6970 15.5691 68.2536 0.2135 -5.7247 -3.1852
# 4 11.7587 -18.6709 0.2135 40.9997 1.2029 -0.5361
# 5 4.3640 7.2291 -5.7247 1.2029 37.8536 3.3470
# 6 9.9765 10.1501 -3.1852 -0.5361 3.3470 42.0612
#
#
#
# Elastic Compliance Matrix: (Units=1/GPa)
#
#
# Indices 1 2 3 4 5 6 
#
# 1 0.012934 -0.004748 -0.006056 -0.005839 -0.001105 -0.002367
# 2 -0.004748 0.012607 -0.000595 0.007143 -0.002026 -0.001709
# 3 -0.006056 -0.000595 0.018444 0.001308 0.003318 0.002729
# 4 -0.005839 0.007143 0.001308 0.029357 -0.001448 0.000250
# 5 -0.001105 -0.002026 0.003318 -0.001448 0.027587 -0.001211
# 6 -0.002367 -0.001709 0.002729 0.000250 -0.001211 0.025055
#
#
# Mechanical properties :
#
#
# Convention : Reuss Voigt Hill
#
# Bulk Modulus (GPa) = 47.19800 53.45934 50.32867
# Shear Modulus (GPa) = 32.08340 37.55609 34.81974
#
# Velocity S-wave (km/s) = 3.83001 4.14381 3.99000
# Velocity P-wave (km/s) = 6.41391 6.88021 6.65114
#
# Compressibility (1/GPa) = 0.02118734
#
# Stress axis : x y z
#
# Youngs Moduli (GPa) = 77.31528 79.32354 54.21684
#
# Poissons Ratio (x) = 0.37666 0.32833
# Poissons Ratio (y) = 0.36712 0.03224
# Poissons Ratio (z) = 0.46821 0.04717
#
# Static dielectric constant tensor:
#      x y z
#    x 4.355370 -0.171360 -0.219110 
#    y -0.171360 4.085560 -0.027100 
#    z -0.219110 -0.027100 4.075060 
# 
# 
# High freq. dielectric constant tensor:
#      x y z
#    x 1.873300 -0.005960 -0.008920 
#    y -0.005960 1.873090 -0.014760 
#    z -0.008920 -0.014760 1.862350 
# 
# From -- ./inp_files/419284.got.cif
#   From: 2010.06.25/outbox.cif.g09.slc.cpg/sg2_210_cif.got.tgz:419284.got - 2010.06.27 13:26:56.
