data_PCOD8013500
_publ_section_title
;
Structure prediction by ZEFSAII (Michael W. Deem and Ramdas Pophale) SiO2 
 PCOD8013500
Probable space group: P -1
;
_chemical_formula_sum "Si O2"
_cell_formula_units_Z 16
_cell_length_a 15.964429
_cell_length_b 10.510737
_cell_length_c 9.661663
_cell_angle_alpha 86.915374
_cell_angle_beta 27.418613
_cell_angle_gamma 77.563058
_cell_volume 694.183204
_symmetry_space_group_name_H-M "P -1"
_symmetry_group_IT_number 2
_symmetry_cell_setting 'triclinic'
loop_
_space_group_symop_operation_xyz
x,y,z
-x,-y,-z
loop_
_atom_site_type_symbol
_atom_site_label
_atom_site_fract_x
_atom_site_fract_y
_atom_site_fract_z
Si Si1 0.286255 0.002244 0.578360
Si Si2 0.719198 0.760216 0.254845
Si Si3 0.146217 0.647640 0.212581
Si Si4 0.536531 0.219061 0.868706
Si Si5 0.538870 0.645954 0.755374
Si Si6 0.227795 0.344680 0.099443
Si Si7 0.111859 0.802500 0.975387
Si Si8 0.824461 0.352316 0.366571
O O1 0.364364 0.087894 0.566531
O O2 0.106268 0.109901 0.755599
O O3 0.435088 0.925849 0.239364
O O4 0.241712 0.893139 0.748033
O O5 0.623996 0.670311 0.484594
O O6 0.655339 0.759290 0.188370
O O7 0.953561 0.685731 0.910221
O O8 0.164959 0.501046 0.129134
O O9 0.122545 0.760224 0.121942
O O10 0.955113 0.696646 0.586584
O O11 0.328110 0.637302 0.042953
O O12 0.741447 0.243116 0.561330
O O13 0.472624 0.234268 0.123167
O O14 0.368654 0.334188 0.023001
O O15 0.689698 0.503527 0.603701
O O16 0.185927 0.663436 0.783909
#
# Coordination Sequence:
#
# PCOD8013500 Si02
#       8
#     2   2   2   2   2   2   2   2
#     4   9  22  45  67  94 135 177 225 266 327 394
#     4  11  25  42  67  97 134 176 223 271 324 393
#     4  11  25  43  67 100 140 166 224 275 341 389
#     4  11  24  43  70  95 136 179 218 274 332 391
#     4  12  25  40  67 103 133 174 223 272 333 398
#     4  11  26  43  67 101 138 173 213 282 338 389
#     4   9  20  42  72  96 128 180 221 275 324 391
#     4  10  21  40  68  95 133 171 219 272 337 388
#
# _framework density 23.048670000000001
#
# number of rings (size 3 to 8) (size 9 to 14) (size 15 to 20)
#    0.000    1.500    1.250    3.000   10.500    2.000 
#    0.000    1.250    0.000    0.000    0.000    0.000 
#    0.000    0.000    0.000    0.000    0.000    0.000 
#
# Total GULP energy -198359.252506 kJ/mol
# GULP energy per Si atom -12397.453282 kJ/mol
# Density = 2.299621 g / cm^3
# Si number density = 23.048670 Si / 1000 Ang^3
#
#
#
# Elastic Constant Matrix: (Units=GPa)
#
#
# Indices 1 2 3 4 5 6 
#
# 1 98.1097 30.0985 40.6974 -1.2870 25.8792 10.2599
# 2 30.0985 74.4690 20.6116 17.8301 12.1840 5.7851
# 3 40.6974 20.6116 101.3922 7.8197 11.6587 3.8717
# 4 -1.2870 17.8301 7.8197 26.8595 14.8999 9.4604
# 5 25.8792 12.1840 11.6587 14.8999 43.4735 3.4911
# 6 10.2599 5.7851 3.8717 9.4604 3.4911 31.1553
#
#
#
# Elastic Compliance Matrix: (Units=1/GPa)
#
#
# Indices 1 2 3 4 5 6 
#
# 1 0.019743 -0.007884 -0.005856 0.018375 -0.013599 -0.008366
# 2 -0.007884 0.019764 -0.000212 -0.017457 0.004896 0.003705
# 3 -0.005856 -0.000212 0.012383 -0.005491 0.001956 0.001877
# 4 0.018375 -0.017457 -0.005491 0.074687 -0.028434 -0.021620
# 5 -0.013599 0.004896 0.001956 -0.028434 0.038331 0.007665
# 6 -0.008366 0.003705 0.001877 -0.021620 0.007665 0.039637
#
#
# Mechanical properties :
#
#
# Convention : Reuss Voigt Hill
#
# Bulk Modulus (GPa) = 41.68674 50.75399 46.22037
# Shear Modulus (GPa) = 20.79485 32.46855 26.63170
#
# Velocity S-wave (km/s) = 3.00695 3.75733 3.40289
# Velocity P-wave (km/s) = 5.49375 6.39465 5.96124
#
# Compressibility (1/GPa) = 0.02398844
#
# Stress axis : x y z
#
# Youngs Moduli (GPa) = 50.64988 50.59661 80.75456
#
# Poissons Ratio (x) = 0.39888 0.47291
# Poissons Ratio (y) = 0.39930 0.01708
# Poissons Ratio (z) = 0.29661 0.01070
#
# Static dielectric constant tensor:
#      x y z
#    x 4.008820 0.239160 0.120940 
#    y 0.239160 3.952900 0.163300 
#    z 0.120940 0.163300 4.262710 
# 
# 
# High freq. dielectric constant tensor:
#      x y z
#    x 1.908550 0.011450 0.004730 
#    y 0.011450 1.893540 0.004930 
#    z 0.004730 0.004930 1.918320 
# 
# From -- ./inp_files/307459.got.cif
#   From: 2010.06.25/outbox.cif.g09.slc.cpg/sg2_154_cif.got.tgz:307459.got - 2010.06.27 13:26:56.
