data_PCOD8013595
_publ_section_title
;
Structure prediction by ZEFSAII (Michael W. Deem and Ramdas Pophale) SiO2 
 PCOD8013595
Probable space group: P -1
;
_chemical_formula_sum "Si O2"
_cell_formula_units_Z 16
_cell_length_a 11.993891
_cell_length_b 8.722998
_cell_length_c 12.606985
_cell_angle_alpha 116.077737
_cell_angle_beta 109.150621
_cell_angle_gamma 117.412724
_cell_volume 785.195650
_symmetry_space_group_name_H-M "P -1"
_symmetry_group_IT_number 2
_symmetry_cell_setting 'triclinic'
loop_
_space_group_symop_operation_xyz
x,y,z
-x,-y,-z
loop_
_atom_site_type_symbol
_atom_site_label
_atom_site_fract_x
_atom_site_fract_y
_atom_site_fract_z
Si Si1 0.941018 0.133198 0.999870
Si Si2 0.010844 0.483202 0.744996
Si Si3 0.658898 0.079492 0.128430
Si Si4 0.173985 0.648706 0.541532
Si Si5 0.363428 0.340449 0.002245
Si Si6 0.725703 0.619992 0.559825
Si Si7 0.025597 0.188080 0.817637
Si Si8 0.397783 0.372566 0.261066
O O1 0.019261 0.268653 0.954426
O O2 0.737430 0.922352 0.873188
O O3 0.010937 0.347337 0.165606
O O4 0.000000 0.000000 0.000000
O O5 0.183131 0.655348 0.786095
O O6 0.024279 0.345875 0.788797
O O7 0.848195 0.279241 0.557261
O O8 0.665982 0.116432 0.270333
O O9 0.667713 0.888890 0.051675
O O10 0.500000 0.000000 0.000000
O O11 0.185153 0.462338 0.463311
O O12 0.000000 0.500000 0.500000
O O13 0.194499 0.251027 0.876827
O O14 0.500000 0.500000 0.000000
O O15 0.412262 0.467631 0.173915
O O16 0.575347 0.483119 0.387137
O O17 0.664372 0.558530 0.645562
O O18 0.860300 0.904894 0.663165
#
# Coordination Sequence:
#
# PCOD8013595 Si02
#       8
#     2   2   2   2   2   2   2   2
#     4  11  19  39  70  92 124 168 216 266 320 394
#     4  11  22  38  60  94 129 163 215 265 316 385
#     4  11  22  41  63  89 128 170 217 265 322 387
#     4  10  22  38  61  91 123 174 217 257 320 387
#     4  12  24  41  64  95 129 170 221 270 326 394
#     4  10  22  41  68  93 129 170 219 271 329 396
#     4  11  23  38  62  97 129 169 212 265 328 382
#     4  10  21  40  69  97 122 167 221 268 330 384
#
# _framework density 20.377088000000001
#
# number of rings (size 3 to 8) (size 9 to 14) (size 15 to 20)
#    0.000    1.250    2.500    4.875    0.000    2.000 
#    0.000    3.750    0.000    3.750    0.000    0.000 
#    0.000    0.000    0.000    0.000    0.000    0.000 
#
# Total GULP energy -198229.637650 kJ/mol
# GULP energy per Si atom -12389.352353 kJ/mol
# Density = 2.033071 g / cm^3
# Si number density = 20.377088 Si / 1000 Ang^3
#
#
#
# Elastic Constant Matrix: (Units=GPa)
#
#
# Indices 1 2 3 4 5 6 
#
# 1 118.7624 52.7299 62.5707 -14.4147 6.0257 -7.9936
# 2 52.7299 107.8073 53.7291 -26.0512 8.1207 2.2058
# 3 62.5707 53.7291 164.6626 -28.1561 12.6433 -4.3578
# 4 -14.4147 -26.0512 -28.1561 28.5469 1.0039 4.6815
# 5 6.0257 8.1207 12.6433 1.0039 32.5336 -0.3454
# 6 -7.9936 2.2058 -4.3578 4.6815 -0.3454 38.8999
#
#
#
# Elastic Compliance Matrix: (Units=1/GPa)
#
#
# Indices 1 2 3 4 5 6 
#
# 1 0.012290 -0.004906 -0.003377 -0.002053 0.000352 0.002676
# 2 -0.004906 0.015130 -0.001078 0.010911 -0.002821 -0.003325
# 3 -0.003377 -0.001078 0.008999 0.006353 -0.002803 -0.000414
# 4 -0.002053 0.010911 0.006353 0.051524 -0.006472 -0.006587
# 5 0.000352 -0.002821 -0.002803 -0.006472 0.032676 0.000987
# 6 0.002676 -0.003325 -0.000414 -0.006587 0.000987 0.027200
#
#
# Mechanical properties :
#
#
# Convention : Reuss Voigt Hill
#
# Bulk Modulus (GPa) = 56.50690 81.03243 68.76967
# Shear Modulus (GPa) = 28.99557 34.80959 31.90258
#
# Velocity S-wave (km/s) = 3.77629 4.13761 3.96107
# Velocity P-wave (km/s) = 6.84139 7.91702 7.39878
#
# Compressibility (1/GPa) = 0.01769695
#
# Stress axis : x y z
#
# Youngs Moduli (GPa) = 81.36385 66.09473 111.12879
#
# Poissons Ratio (x) = 0.32425 0.37526
# Poissons Ratio (y) = 0.39915 0.11984
# Poissons Ratio (z) = 0.27475 0.07128
#
# Static dielectric constant tensor:
#      x y z
#    x 3.859290 0.207230 -0.239080 
#    y 0.207230 3.563270 -0.375060 
#    z -0.239080 -0.375060 4.873770 
# 
# 
# High freq. dielectric constant tensor:
#      x y z
#    x 1.806860 0.007740 -0.000180 
#    y 0.007740 1.769270 -0.021250 
#    z -0.000180 -0.021250 1.818520 
# 
# From -- ./inp_files/390771.got.cif
#   From: 2010.06.25/outbox.cif.g09.slc.cpg/sg2_196_cif.got.tgz:390771.got - 2010.06.27 13:26:56.
