data_PCOD8013832
_publ_section_title
;
Structure prediction by ZEFSAII (Michael W. Deem and Ramdas Pophale) SiO2 
 PCOD8013832
Probable space group: P -1
;
_chemical_formula_sum "Si O2"
_cell_formula_units_Z 16
_cell_length_a 15.333405
_cell_length_b 12.307667
_cell_length_c 9.113344
_cell_angle_alpha 100.505778
_cell_angle_beta 28.155784
_cell_angle_gamma 107.581976
_cell_volume 760.032929
_symmetry_space_group_name_H-M "P -1"
_symmetry_group_IT_number 2
_symmetry_cell_setting 'triclinic'
loop_
_space_group_symop_operation_xyz
x,y,z
-x,-y,-z
loop_
_atom_site_type_symbol
_atom_site_label
_atom_site_fract_x
_atom_site_fract_y
_atom_site_fract_z
Si Si1 0.240500 0.427230 0.712522
Si Si2 0.282715 0.495794 0.340190
Si Si3 0.498734 0.347567 0.507263
Si Si4 0.601775 0.916147 0.406068
Si Si5 0.838732 0.672897 0.771463
Si Si6 0.565015 0.051816 0.757918
Si Si7 0.131110 0.703187 0.594156
Si Si8 0.189230 0.089464 0.178875
O O1 0.207963 0.436977 0.591451
O O2 0.411383 0.369947 0.484557
O O3 0.295797 0.555343 0.739502
O O4 0.037353 0.343334 0.048832
O O5 0.154497 0.422381 0.381726
O O6 0.275145 0.626208 0.371830
O O7 0.500000 0.500000 0.000000
O O8 0.526733 0.220176 0.438655
O O9 0.349501 0.368001 0.855409
O O10 0.500000 0.000000 0.500000
O O11 0.637345 0.958938 0.531947
O O12 0.796355 0.924829 0.024487
O O13 0.831483 0.786121 0.721951
O O14 0.038995 0.698579 0.568942
O O15 0.747687 0.165624 0.519547
O O16 0.382652 0.078098 0.961723
O O17 0.500000 0.000000 0.000000
O O18 0.000000 0.000000 0.500000
#
# Coordination Sequence:
#
# PCOD8013832 Si02
#       8
#     2   2   2   2   2   2   2   2
#     4  10  22  40  64  96 129 175 211 271 327 391
#     4  12  23  39  64  98 128 169 216 268 333 383
#     4   9  19  41  65  92 132 164 219 264 327 393
#     4   9  21  39  67  92 125 174 214 266 329 387
#     4  10  21  41  62  91 129 170 213 269 324 386
#     4  11  24  44  64  96 131 172 222 276 331 393
#     4  11  25  43  62  92 135 169 218 272 327 398
#     4  10  21  42  66  93 127 172 219 274 326 392
#
# _framework density 21.051718000000001
#
# number of rings (size 3 to 8) (size 9 to 14) (size 15 to 20)
#    0.000    1.750    1.250    2.250    3.500    3.000 
#    6.750    8.750    0.000    0.000    0.000    0.000 
#    0.000    0.000    0.000    0.000    0.000    0.000 
#
# Total GULP energy -198359.683056 kJ/mol
# GULP energy per Si atom -12397.480191 kJ/mol
# Density = 2.100380 g / cm^3
# Si number density = 21.051718 Si / 1000 Ang^3
#
#
#
# Elastic Constant Matrix: (Units=GPa)
#
#
# Indices 1 2 3 4 5 6 
#
# 1 113.4071 46.8608 40.2654 -2.7444 10.4888 11.2143
# 2 46.8608 137.2297 48.6310 -17.7236 16.6920 2.9837
# 3 40.2654 48.6310 96.9931 -24.6925 2.5374 15.2828
# 4 -2.7444 -17.7236 -24.6925 36.6599 2.1872 -3.0498
# 5 10.4888 16.6920 2.5374 2.1872 33.0463 3.8480
# 6 11.2143 2.9837 15.2828 -3.0498 3.8480 38.5991
#
#
#
# Elastic Compliance Matrix: (Units=1/GPa)
#
#
# Indices 1 2 3 4 5 6 
#
# 1 0.011582 -0.002740 -0.003929 -0.003150 -0.001585 -0.001689
# 2 -0.002740 0.010348 -0.003530 0.002861 -0.004516 0.002070
# 3 -0.003929 -0.003530 0.016613 0.008700 0.001720 -0.004647
# 4 -0.003150 0.002861 0.008700 0.034517 -0.003435 0.000319
# 5 -0.001585 -0.004516 0.001720 -0.003435 0.033546 -0.003487
# 6 -0.001689 0.002070 -0.004647 0.000319 -0.003487 0.028451
#
#
# Mechanical properties :
#
#
# Convention : Reuss Voigt Hill
#
# Bulk Modulus (GPa) = 55.11203 68.79380 61.95291
# Shear Modulus (GPa) = 30.95912 35.78591 33.37252
#
# Velocity S-wave (km/s) = 3.83903 4.12746 3.98586
# Velocity P-wave (km/s) = 6.77400 7.44742 7.11867
#
# Compressibility (1/GPa) = 0.01814486
#
# Stress axis : x y z
#
# Youngs Moduli (GPa) = 86.33865 96.64005 60.19355
#
# Poissons Ratio (x) = 0.26480 0.23648
# Poissons Ratio (y) = 0.23657 0.21250
# Poissons Ratio (z) = 0.33920 0.34117
#
# Static dielectric constant tensor:
#      x y z
#    x 4.229430 0.124280 0.313390 
#    y 0.124280 4.152260 0.077930 
#    z 0.313390 0.077930 3.785820 
# 
# 
# High freq. dielectric constant tensor:
#      x y z
#    x 1.829740 -0.010390 0.009140 
#    y -0.010390 1.832930 -0.007450 
#    z 0.009140 -0.007450 1.813340 
# 
# From -- ./inp_files/205849.got.cif
#   From: 2010.06.25/outbox.cif.g09.slc.cpg/sg2_103_cif.got.tgz:205849.got - 2010.06.27 13:26:56.
