data_PCOD8013803
_publ_section_title
;
Structure prediction by ZEFSAII (Michael W. Deem and Ramdas Pophale) SiO2 
 PCOD8013803
Probable space group: P -1
;
_chemical_formula_sum "Si O2"
_cell_formula_units_Z 16
_cell_length_a 8.705919
_cell_length_b 8.071876
_cell_length_c 17.146964
_cell_angle_alpha 72.524601
_cell_angle_beta 106.155344
_cell_angle_gamma 54.380939
_cell_volume 758.171569
_symmetry_space_group_name_H-M "P -1"
_symmetry_group_IT_number 2
_symmetry_cell_setting 'triclinic'
loop_
_space_group_symop_operation_xyz
x,y,z
-x,-y,-z
loop_
_atom_site_type_symbol
_atom_site_label
_atom_site_fract_x
_atom_site_fract_y
_atom_site_fract_z
Si Si1 0.756440 0.727890 0.576052
Si Si2 0.606846 0.231506 0.081526
Si Si3 0.113114 0.740746 0.586160
Si Si4 0.751812 0.761777 0.904969
Si Si5 0.437643 0.372817 0.551054
Si Si6 0.245841 0.902455 0.041277
Si Si7 0.178489 0.207959 0.264290
Si Si8 0.260527 0.651703 0.791528
O O1 0.756254 0.561168 0.543000
O O2 0.820057 0.643530 0.688719
O O3 0.929383 0.731824 0.564313
O O4 0.500000 0.000000 0.500000
O O5 0.426775 0.233677 0.086672
O O6 0.777985 0.143933 0.190311
O O7 0.500000 0.500000 0.000000
O O8 0.743219 0.037407 0.055324
O O9 0.329126 0.500845 0.601156
O O10 0.200048 0.734472 0.682872
O O11 0.000000 0.000000 0.500000
O O12 0.722484 0.796988 0.802111
O O13 0.720539 0.973544 0.908785
O O14 0.000000 0.500000 0.000000
O O15 0.500000 0.500000 0.500000
O O16 0.666252 0.074978 0.640903
O O17 0.465123 0.605535 0.128911
O O18 0.000000 0.000000 0.000000
O O19 0.909564 0.361143 0.194075
#
# Coordination Sequence:
#
# PCOD8013803 Si02
#       8
#     2   2   2   2   2   2   2   2
#     4   9  20  39  61  87 124 160 203 255 304 363
#     4  10  22  39  60  87 121 158 202 253 305 363
#     4  11  22  38  63  93 126 165 205 253 309 368
#     4  12  23  39  63  90 122 162 202 253 310 368
#     4  11  22  40  64  92 126 166 207 256 311 366
#     4  11  22  41  65  90 122 163 207 259 313 367
#     4  10  22  41  63  91 123 163 210 257 308 370
#     4  10  21  41  62  88 125 161 204 260 309 369
#
# _framework density 21.103404999999999
#
# number of rings (size 3 to 8) (size 9 to 14) (size 15 to 20)
#    0.000    1.500    0.000    7.500    0.000    3.000 
#    0.000   10.000    0.000    0.000    0.000    0.000 
#    0.000    0.000    0.000    0.000    0.000    0.000 
#
# Total GULP energy -198275.655391 kJ/mol
# GULP energy per Si atom -12392.228462 kJ/mol
# Density = 2.105537 g / cm^3
# Si number density = 21.103405 Si / 1000 Ang^3
#
#
#
# Elastic Constant Matrix: (Units=GPa)
#
#
# Indices 1 2 3 4 5 6 
#
# 1 158.4219 29.3651 69.5361 24.6053 -1.5961 -12.9600
# 2 29.3651 64.4068 40.1821 27.7301 -6.1151 -7.5389
# 3 69.5361 40.1821 115.4168 29.0637 -2.5437 -0.4479
# 4 24.6053 27.7301 29.0637 49.6607 -3.2142 4.4638
# 5 -1.5961 -6.1151 -2.5437 -3.2142 38.8220 4.5499
# 6 -12.9600 -7.5389 -0.4479 4.4638 4.5499 41.4904
#
#
#
# Elastic Compliance Matrix: (Units=1/GPa)
#
#
# Indices 1 2 3 4 5 6 
#
# 1 0.009024 0.000152 -0.005001 -0.001932 -0.000450 0.003050
# 2 0.000152 0.024548 -0.005880 -0.010697 0.001972 0.005379
# 3 -0.005001 -0.005880 0.014326 -0.002434 -0.000137 -0.002199
# 4 -0.001932 -0.010697 -0.002434 0.029092 0.001168 -0.005832
# 5 -0.000450 0.001972 -0.000137 0.001168 0.026468 -0.002812
# 6 0.003050 0.005379 -0.002199 -0.005832 -0.002812 0.026944
#
#
# Mechanical properties :
#
#
# Convention : Reuss Voigt Hill
#
# Bulk Modulus (GPa) = 37.82168 68.49023 53.15596
# Shear Modulus (GPa) = 31.11898 39.27210 35.19554
#
# Velocity S-wave (km/s) = 3.84421 4.31854 4.08826
# Velocity P-wave (km/s) = 6.13718 7.57571 6.89407
#
# Compressibility (1/GPa) = 0.02643986
#
# Stress axis : x y z
#
# Youngs Moduli (GPa) = 110.81008 40.73675 69.80362
#
# Poissons Ratio (x) = -0.00619 0.34912
# Poissons Ratio (y) = -0.01684 0.41043
# Poissons Ratio (z) = 0.55421 0.23952
#
# Static dielectric constant tensor:
#      x y z
#    x 3.967360 0.093610 0.356730 
#    y 0.093610 4.639320 0.968900 
#    z 0.356730 0.968900 4.538470 
# 
# 
# High freq. dielectric constant tensor:
#      x y z
#    x 1.833150 -0.009540 0.012820 
#    y -0.009540 1.834950 0.033550 
#    z 0.012820 0.033550 1.830690 
# 
# From -- ./inp_files/494674.got.cif
#   From: 2010.06.25/outbox.cif.g09.slc.cpg/sg2_248_cif.got.tgz:494674.got - 2010.06.27 13:26:56.
