data_PCOD8013569
_publ_section_title
;
Structure prediction by ZEFSAII (Michael W. Deem and Ramdas Pophale) SiO2 
 PCOD8013569
Probable space group: P -1
;
_chemical_formula_sum "Si O2"
_cell_formula_units_Z 16
_cell_length_a 22.257130
_cell_length_b 9.399384
_cell_length_c 9.790867
_cell_angle_alpha 57.256175
_cell_angle_beta 121.093714
_cell_angle_gamma 153.057445
_cell_volume 777.436269
_symmetry_space_group_name_H-M "P -1"
_symmetry_group_IT_number 2
_symmetry_cell_setting 'triclinic'
loop_
_space_group_symop_operation_xyz
x,y,z
-x,-y,-z
loop_
_atom_site_type_symbol
_atom_site_label
_atom_site_fract_x
_atom_site_fract_y
_atom_site_fract_z
Si Si1 0.451315 0.924601 0.329815
Si Si2 0.231703 0.203592 0.380793
Si Si3 0.885864 0.886090 0.976687
Si Si4 0.268480 0.752063 0.352676
Si Si5 0.384139 0.814419 0.856095
Si Si6 0.006665 0.702666 0.861005
Si Si7 0.638642 0.875652 0.461999
Si Si8 0.127497 0.143947 0.553416
O O1 0.368089 0.591020 0.351449
O O2 0.363568 0.918250 0.243828
O O3 0.500000 0.000000 0.500000
O O4 0.574842 0.198213 0.229249
O O5 0.164716 0.095601 0.211796
O O6 0.256293 0.051936 0.501923
O O7 0.128932 0.053345 0.455417
O O8 0.759377 0.536006 0.077594
O O9 0.970465 0.156623 0.046040
O O10 0.000000 0.000000 0.000000
O O11 0.251715 0.526963 0.513232
O O12 0.131306 0.540140 0.247404
O O13 0.328262 0.993735 0.413638
O O14 0.369468 0.986456 0.725924
O O15 0.500000 0.000000 0.000000
O O16 0.126682 0.996849 0.744797
O O17 0.000000 0.500000 0.000000
O O18 0.500000 0.500000 0.500000
O O19 0.000000 0.000000 0.500000
#
# Coordination Sequence:
#
# PCOD8013569 Si02
#       8
#     2   2   2   2   2   2   2   2
#     4  11  20  41  68  95 125 177 230 265 336 411
#     4  11  23  41  67  97 137 175 225 285 334 403
#     4  12  25  45  68  99 137 181 230 281 339 402
#     4  10  21  40  69  90 132 178 229 271 329 419
#     4  12  25  43  71 103 136 178 230 288 343 408
#     4  11  24  41  65  95 137 171 219 289 343 387
#     4  12  22  41  67 103 137 176 221 287 345 407
#     4   9  20  41  63  92 122 179 227 261 327 414
#
# _framework density 20.580463999999999
#
# number of rings (size 3 to 8) (size 9 to 14) (size 15 to 20)
#    0.000    1.000    3.750    3.750    1.750    2.000 
#    0.000    3.750    0.000    3.000    0.000    0.000 
#    0.000    0.000    0.000    0.000    0.000    0.000 
#
# Total GULP energy -198227.972201 kJ/mol
# GULP energy per Si atom -12389.248263 kJ/mol
# Density = 2.053362 g / cm^3
# Si number density = 20.580464 Si / 1000 Ang^3
#
#
#
# Elastic Constant Matrix: (Units=GPa)
#
#
# Indices 1 2 3 4 5 6 
#
# 1 159.9437 62.5288 70.7920 -18.2811 -7.7326 3.2650
# 2 62.5288 112.2478 58.6379 10.6454 -2.6343 -5.6141
# 3 70.7920 58.6379 144.8408 3.7894 -0.0179 -5.0684
# 4 -18.2811 10.6454 3.7894 38.3184 -1.0885 -6.3509
# 5 -7.7326 -2.6343 -0.0179 -1.0885 42.3077 -0.7538
# 6 3.2650 -5.6141 -5.0684 -6.3509 -0.7538 39.8191
#
#
#
# Elastic Compliance Matrix: (Units=1/GPa)
#
#
# Indices 1 2 3 4 5 6 
#
# 1 0.010427 -0.004643 -0.003417 0.006508 0.001767 -0.000873
# 2 -0.004643 0.013683 -0.003089 -0.005543 -0.000122 0.001030
# 3 -0.003417 -0.003089 0.009897 -0.001637 -0.000840 0.000827
# 4 0.006508 -0.005543 -0.001637 0.031539 0.001718 0.003539
# 5 0.001767 -0.000122 -0.000840 0.001718 0.024004 0.000459
# 6 -0.000873 0.001030 0.000827 0.003539 0.000459 0.026009
#
#
# Mechanical properties :
#
#
# Convention : Reuss Voigt Hill
#
# Bulk Modulus (GPa) = 85.40903 88.99440 87.20172
# Shear Modulus (GPa) = 35.27095 39.09396 37.18245
#
# Velocity S-wave (km/s) = 4.14431 4.36313 4.25513
# Velocity P-wave (km/s) = 8.03060 8.28967 8.16116
#
# Compressibility (1/GPa) = 0.01170836
#
# Stress axis : x y z
#
# Youngs Moduli (GPa) = 95.90784 73.08154 101.04312
#
# Poissons Ratio (x) = 0.33928 0.34529
# Poissons Ratio (y) = 0.44525 0.31217
# Poissons Ratio (z) = 0.32774 0.22578
#
# Static dielectric constant tensor:
#      x y z
#    x 4.810520 0.473430 -0.420670 
#    y 0.473430 4.807890 -0.700180 
#    z -0.420670 -0.700180 4.581310 
# 
# 
# High freq. dielectric constant tensor:
#      x y z
#    x 1.819610 0.009280 -0.008050 
#    y 0.009280 1.809570 0.015060 
#    z -0.008050 0.015060 1.802160 
# 
# From -- ./inp_files/343442.got.cif
#   From: 2010.06.25/outbox.cif.g09.slc.cpg/sg2_172_cif.got.tgz:343442.got - 2010.06.27 13:26:56.
