data_PCOD8013727
_publ_section_title
;
Structure prediction by ZEFSAII (Michael W. Deem and Ramdas Pophale) SiO2 
 PCOD8013727
Probable space group: P -1
;
_chemical_formula_sum "Si O2"
_cell_formula_units_Z 14
_cell_length_a 25.503021
_cell_length_b 13.575808
_cell_length_c 13.603396
_cell_angle_alpha 21.530555
_cell_angle_beta 24.988361
_cell_angle_gamma 24.200889
_cell_volume 653.946968
_symmetry_space_group_name_H-M "P -1"
_symmetry_group_IT_number 2
_symmetry_cell_setting 'triclinic'
loop_
_space_group_symop_operation_xyz
x,y,z
-x,-y,-z
loop_
_atom_site_type_symbol
_atom_site_label
_atom_site_fract_x
_atom_site_fract_y
_atom_site_fract_z
Si Si1 0.646003 0.250477 0.770218
Si Si2 0.087696 0.305753 0.943040
Si Si3 0.510372 0.703450 0.205790
Si Si4 0.047866 0.107234 0.472491
Si Si5 0.392796 0.132263 0.647846
Si Si6 0.816720 0.438898 0.894928
Si Si7 0.072176 0.128342 0.629957
O O1 0.602911 0.237956 0.741407
O O2 0.601142 0.586353 0.570740
O O3 0.812510 0.053013 0.681163
O O4 0.573759 0.110441 0.096912
O O5 0.247641 0.214891 0.766079
O O6 0.024582 0.530585 0.748442
O O7 0.000000 0.500000 0.000000
O O8 0.065127 0.009271 0.254203
O O9 0.500000 0.500000 0.500000
O O10 0.656438 0.535916 0.055327
O O11 0.500000 0.000000 0.000000
O O12 0.092075 0.003669 0.603493
O O13 0.500000 0.000000 0.500000
O O14 0.910098 0.356292 0.714115
O O15 0.828925 0.711341 0.675194
O O16 0.876181 0.153167 0.127308
#
# Coordination Sequence:
#
# PCOD8013727 Si02
#       7
#     2   2   2   2   2   2   2
#     4  12  24  43  68  93 130 170 213 267 315 388
#     4  12  23  42  65  90 125 159 205 266 306 369
#     4  12  25  41  66  96 131 169 210 259 318 387
#     4  12  22  39  69  94 119 161 218 253 316 366
#     4  12  27  45  65  95 132 172 212 267 327 377
#     4  10  21  41  59  88 132 159 205 255 311 360
#     4  10  22  38  64  91 121 165 204 261 305 372
#
# _framework density 21.408463999999999
#
# number of rings (size 3 to 8) (size 9 to 14) (size 15 to 20)
#    0.000    0.571    2.857    6.000    0.000    2.286 
#    0.000    0.000    0.000    0.000    0.000    0.000 
#    0.000    0.000    0.000    0.000    0.000    0.000 
#
# Total GULP energy -173600.304407 kJ/mol
# GULP energy per Si atom -12400.021743 kJ/mol
# Density = 2.135974 g / cm^3
# Si number density = 21.408464 Si / 1000 Ang^3
#
#
#
# Elastic Constant Matrix: (Units=GPa)
#
#
# Indices 1 2 3 4 5 6 
#
# 1 98.1140 30.3683 45.8363 0.5092 2.1402 2.3422
# 2 30.3683 95.4089 46.2185 16.9917 -10.3287 -4.3434
# 3 45.8363 46.2185 144.9115 -9.8924 0.4622 -0.6810
# 4 0.5092 16.9917 -9.8924 46.6417 -0.7344 -0.3119
# 5 2.1402 -10.3287 0.4622 -0.7344 40.6597 -2.2975
# 6 2.3422 -4.3434 -0.6810 -0.3119 -2.2975 32.5596
#
#
#
# Elastic Compliance Matrix: (Units=1/GPa)
#
#
# Indices 1 2 3 4 5 6 
#
# 1 0.012547 -0.002750 -0.003082 0.000179 -0.001401 -0.001431
# 2 -0.002750 0.015168 -0.004403 -0.006350 0.004066 0.002355
# 3 -0.003082 -0.004403 0.009531 0.003642 -0.001010 -0.000203
# 4 0.000179 -0.006350 0.003642 0.024500 -0.001257 -0.000638
# 5 -0.001401 0.004066 -0.001010 -0.001257 0.025827 0.002432
# 6 -0.001431 0.002355 -0.000203 -0.000638 0.002432 0.031291
#
#
# Mechanical properties :
#
#
# Convention : Reuss Voigt Hill
#
# Bulk Modulus (GPa) = 59.60826 64.80895 62.20861
# Shear Modulus (GPa) = 34.50068 38.37294 36.43681
#
# Velocity S-wave (km/s) = 4.01876 4.23829 4.12998
# Velocity P-wave (km/s) = 7.03119 7.36811 7.20162
#
# Compressibility (1/GPa) = 0.01677620
#
# Stress axis : x y z
#
# Youngs Moduli (GPa) = 79.70187 65.92951 104.92305
#
# Poissons Ratio (x) = 0.18128 0.32334
# Poissons Ratio (y) = 0.21915 0.46201
# Poissons Ratio (z) = 0.24561 0.29031
#
# Static dielectric constant tensor:
#      x y z
#    x 3.727720 0.152220 0.093840 
#    y 0.152220 3.582840 0.352780 
#    z 0.093840 0.352780 4.109100 
# 
# 
# High freq. dielectric constant tensor:
#      x y z
#    x 1.833490 0.000160 0.004860 
#    y 0.000160 1.844950 -0.003080 
#    z 0.004860 -0.003080 1.863900 
# 
# From -- ./inp_files/410085.got.cif
#   From: 2010.06.25/outbox.cif.g09.slc.cpg/sg2_206_cif.got.tgz:410085.got - 2010.06.27 13:26:56.
