data_PCOD8013942
_publ_section_title
;
Structure prediction by ZEFSAII (Michael W. Deem and Ramdas Pophale) SiO2 
 PCOD8013942
Probable space group: P -1
;
_chemical_formula_sum "Si O2"
_cell_formula_units_Z 14
_cell_length_a 23.023162
_cell_length_b 28.285745
_cell_length_c 7.724383
_cell_angle_alpha 48.005876
_cell_angle_beta 45.889383
_cell_angle_gamma 10.470560
_cell_volume 651.778430
_symmetry_space_group_name_H-M "P -1"
_symmetry_group_IT_number 2
_symmetry_cell_setting 'triclinic'
loop_
_space_group_symop_operation_xyz
x,y,z
-x,-y,-z
loop_
_atom_site_type_symbol
_atom_site_label
_atom_site_fract_x
_atom_site_fract_y
_atom_site_fract_z
Si Si1 0.462739 0.087114 0.488832
Si Si2 0.888727 0.210068 0.423593
Si Si3 0.838719 0.774864 0.792476
Si Si4 0.914822 0.281355 0.509700
Si Si5 0.865132 0.109910 0.320056
Si Si6 0.823119 0.000213 0.038386
Si Si7 0.775414 0.598256 0.862935
O O1 0.438209 0.173697 0.228601
O O2 0.130627 0.336800 0.678854
O O3 0.500000 0.000000 0.500000
O O4 0.796133 0.828006 0.550660
O O5 0.500000 0.500000 0.500000
O O6 0.986592 0.187718 0.416301
O O7 0.042049 0.026994 0.630698
O O8 0.015068 0.133529 0.159206
O O9 0.923188 0.773657 0.729914
O O10 0.147409 0.490866 0.887994
O O11 0.500000 0.000000 0.000000
O O12 0.526222 0.580307 0.629441
O O13 0.087266 0.122667 0.711807
O O14 0.000000 0.000000 0.500000
O O15 0.063048 0.020478 0.055200
O O16 0.427931 0.296426 0.094421
#
# Coordination Sequence:
#
# PCOD8013942 Si02
#       7
#     2   2   2   2   2   2   2
#     4  10  22  44  67  98 128 173 229 276 340 413
#     4  11  24  42  67  96 132 183 225 271 347 401
#     4  10  22  42  68  94 132 178 218 283 340 389
#     4  12  23  45  66  95 140 176 227 284 335 407
#     4  10  21  41  63  95 134 171 222 278 332 401
#     4  11  23  43  67  98 138 175 223 286 333 407
#     4  10  22  43  65  93 139 169 216 290 335 390
#
# _framework density 21.479690999999999
#
# number of rings (size 3 to 8) (size 9 to 14) (size 15 to 20)
#    0.000    1.429    4.286    2.143    0.000    3.429 
#    5.143    0.000    0.000    0.000    0.000    0.000 
#    0.000    0.000    0.000    0.000    0.000    0.000 
#
# Total GULP energy -173456.062455 kJ/mol
# GULP energy per Si atom -12389.718747 kJ/mol
# Density = 2.143080 g / cm^3
# Si number density = 21.479691 Si / 1000 Ang^3
#
#
#
# Elastic Constant Matrix: (Units=GPa)
#
#
# Indices 1 2 3 4 5 6 
#
# 1 139.8153 34.3892 49.7349 -21.7454 -21.0668 -4.2706
# 2 34.3892 87.3099 40.2996 -35.6759 -1.2009 -22.5691
# 3 49.7349 40.2996 113.6890 -30.0944 -16.5232 -8.1148
# 4 -21.7454 -35.6759 -30.0944 42.3715 -10.8939 -2.9517
# 5 -21.0668 -1.2009 -16.5232 -10.8939 40.5053 -0.5767
# 6 -4.2706 -22.5691 -8.1148 -2.9517 -0.5767 39.2244
#
#
#
# Elastic Compliance Matrix: (Units=1/GPa)
#
#
# Indices 1 2 3 4 5 6 
#
# 1 0.009520 -0.001041 -0.001955 0.003986 0.005201 0.000409
# 2 -0.001041 0.026555 -0.000169 0.024713 0.007067 0.017095
# 3 -0.001955 -0.000169 0.014002 0.011026 0.007705 0.003530
# 4 0.003986 0.024713 0.011026 0.062065 0.024309 0.021962
# 5 0.005201 0.007067 0.007705 0.024309 0.037406 0.008606
# 6 0.000409 0.017095 0.003530 0.021962 0.008606 0.037884
#
#
# Mechanical properties :
#
#
# Convention : Reuss Voigt Hill
#
# Bulk Modulus (GPa) = 22.85895 65.51796 44.18845
# Shear Modulus (GPa) = 23.99860 38.84629 31.42244
#
# Velocity S-wave (km/s) = 3.34618 4.25727 3.82892
# Velocity P-wave (km/s) = 5.05910 7.39827 6.33754
#
# Compressibility (1/GPa) = 0.04374655
#
# Stress axis : x y z
#
# Youngs Moduli (GPa) = 105.04203 37.65703 71.42006
#
# Poissons Ratio (x) = 0.03920 0.13966
# Poissons Ratio (y) = 0.10935 0.01206
# Poissons Ratio (z) = 0.20540 0.00636
#
# Static dielectric constant tensor:
#      x y z
#    x 4.154910 -0.284850 -0.776150 
#    y -0.284850 3.958930 -0.885160 
#    z -0.776150 -0.885160 4.845580 
# 
# 
# High freq. dielectric constant tensor:
#      x y z
#    x 1.830060 -0.029560 -0.023850 
#    y -0.029560 1.848110 -0.019260 
#    z -0.023850 -0.019260 1.853590 
# 
# From -- ./inp_files/355676.got.cif
#   From: 2010.06.25/outbox.cif.g09.slc.cpg/sg2_178_cif.got.tgz:355676.got - 2010.06.27 13:26:56.
