data_PCOD8013525
_publ_section_title
;
Structure prediction by ZEFSAII (Michael W. Deem and Ramdas Pophale) SiO2 
 PCOD8013525
Probable space group: P -1
;
_chemical_formula_sum "Si O2"
_cell_formula_units_Z 16
_cell_length_a 14.179426
_cell_length_b 12.923016
_cell_length_c 12.605634
_cell_angle_alpha 33.265401
_cell_angle_beta 145.908649
_cell_angle_gamma 132.560313
_cell_volume 709.201934
_symmetry_space_group_name_H-M "P -1"
_symmetry_group_IT_number 2
_symmetry_cell_setting 'triclinic'
loop_
_space_group_symop_operation_xyz
x,y,z
-x,-y,-z
loop_
_atom_site_type_symbol
_atom_site_label
_atom_site_fract_x
_atom_site_fract_y
_atom_site_fract_z
Si Si1 0.046772 0.362785 0.966268
Si Si2 0.559933 0.615410 0.133526
Si Si3 0.573721 0.069687 0.400712
Si Si4 0.706285 0.438067 0.701697
Si Si5 0.502753 0.779867 0.164005
Si Si6 0.577326 0.691778 0.614452
Si Si7 0.062606 0.412722 0.522540
Si Si8 0.042721 0.970895 0.186302
O O1 0.900754 0.413520 0.871882
O O2 0.052353 0.512749 0.746674
O O3 0.227731 0.354083 0.202332
O O4 0.006223 0.162088 0.051759
O O5 0.518396 0.732693 0.888016
O O6 0.526227 0.756597 0.080557
O O7 0.446027 0.433824 0.192944
O O8 0.750298 0.529423 0.379668
O O9 0.549672 0.912106 0.423852
O O10 0.766976 0.109678 0.560387
O O11 0.500000 0.000000 0.500000
O O12 0.655430 0.663986 0.469948
O O13 0.672183 0.316219 0.880720
O O14 0.569032 0.366704 0.550457
O O15 0.500000 0.000000 0.000000
O O16 0.000000 0.500000 0.500000
O O17 0.068857 0.185637 0.729981
O O18 0.000000 0.000000 0.000000
#
# Coordination Sequence:
#
# PCOD8013525 Si02
#       8
#     2   2   2   2   2   2   2   2
#     4  11  23  42  64  94 126 173 213 264 321 378
#     4  11  24  43  65  92 131 172 208 272 322 378
#     4  11  25  38  61  93 125 171 217 264 318 378
#     4  10  22  42  68  93 127 167 214 267 324 382
#     4  10  21  40  68  98 123 167 216 262 328 387
#     4  10  23  42  64  93 132 166 216 267 316 386
#     4  12  24  38  63  91 128 173 214 258 320 382
#     4  11  24  39  59  90 127 169 218 262 312 382
#
# _framework density 22.560570999999999
#
# number of rings (size 3 to 8) (size 9 to 14) (size 15 to 20)
#    0.000    1.250    3.750    2.250    8.750    0.500 
#    0.000    5.625    0.000    5.250    0.000    0.000 
#    0.000    0.000    0.000    0.000    0.000    0.000 
#
# Total GULP energy -198350.991236 kJ/mol
# GULP energy per Si atom -12396.936952 kJ/mol
# Density = 2.250922 g / cm^3
# Si number density = 22.560571 Si / 1000 Ang^3
#
#
#
# Elastic Constant Matrix: (Units=GPa)
#
#
# Indices 1 2 3 4 5 6 
#
# 1 103.7288 4.5218 15.1292 4.4354 10.3333 23.9142
# 2 4.5218 76.8480 25.5363 -10.4927 9.3484 13.4591
# 3 15.1292 25.5363 82.9495 -4.8240 0.4738 8.6690
# 4 4.4354 -10.4927 -4.8240 42.1133 8.3534 -1.0663
# 5 10.3333 9.3484 0.4738 8.3534 41.7739 1.6625
# 6 23.9142 13.4591 8.6690 -1.0663 1.6625 31.1663
#
#
#
# Elastic Compliance Matrix: (Units=1/GPa)
#
#
# Indices 1 2 3 4 5 6 
#
# 1 0.012373 0.001828 -0.001837 -0.000723 -0.002921 -0.009641
# 2 0.001828 0.016777 -0.004493 0.004232 -0.004723 -0.007001
# 3 -0.001837 -0.004493 0.013848 0.000399 0.001245 -0.000554
# 4 -0.000723 0.004232 0.000399 0.026105 -0.005986 -0.000172
# 5 -0.002921 -0.004723 0.001245 -0.005986 0.026809 0.002300
# 6 -0.009641 -0.007001 -0.000554 -0.000172 0.002300 0.042533
#
#
# Mechanical properties :
#
#
# Convention : Reuss Voigt Hill
#
# Bulk Modulus (GPa) = 29.41842 39.32232 34.37037
# Shear Modulus (GPa) = 31.48969 37.56663 34.52816
#
# Velocity S-wave (km/s) = 3.74007 4.08505 3.91636
# Velocity P-wave (km/s) = 5.63196 6.30219 5.97648
#
# Compressibility (1/GPa) = 0.03399231
#
# Stress axis : x y z
#
# Youngs Moduli (GPa) = 80.81814 59.60586 72.21279
#
# Poissons Ratio (x) = -0.10893 0.13267
# Poissons Ratio (y) = -0.14770 0.32448
# Poissons Ratio (z) = 0.14848 0.26783
#
# Static dielectric constant tensor:
#      x y z
#    x 3.521990 0.842750 -0.218200 
#    y 0.842750 3.513900 -0.057910 
#    z -0.218200 -0.057910 4.124680 
# 
# 
# High freq. dielectric constant tensor:
#      x y z
#    x 1.899140 0.010100 0.000770 
#    y 0.010100 1.885930 -0.011180 
#    z 0.000770 -0.011180 1.891940 
# 
# From -- ./inp_files/308844.got.cif
#   From: 2010.06.25/outbox.cif.g09.slc.cpg/sg2_155_cif.got.tgz:308844.got - 2010.06.27 13:26:56.
