data_PCOD8013164
_publ_section_title
;
Structure prediction by ZEFSAII (Michael W. Deem and Ramdas Pophale) SiO2 
 PCOD8013164
Probable space group: P -1
;
_chemical_formula_sum "Si O2"
_cell_formula_units_Z 14
_cell_length_a 5.594567
_cell_length_b 7.510074
_cell_length_c 13.510121
_cell_angle_alpha 81.958373
_cell_angle_beta 86.425966
_cell_angle_gamma 95.997357
_cell_volume 557.268565
_symmetry_space_group_name_H-M "P -1"
_symmetry_group_IT_number 2
_symmetry_cell_setting 'triclinic'
loop_
_space_group_symop_operation_xyz
x,y,z
-x,-y,-z
loop_
_atom_site_type_symbol
_atom_site_label
_atom_site_fract_x
_atom_site_fract_y
_atom_site_fract_z
Si Si1 0.960354 0.796361 0.979563
Si Si2 0.340985 0.637662 0.268249
Si Si3 0.899060 0.269648 0.546301
Si Si4 0.691272 0.420645 0.360816
Si Si5 0.449667 0.796579 0.055428
Si Si6 0.273741 0.120705 0.423002
Si Si7 0.929309 0.706138 0.764234
O O1 0.964140 0.800391 0.861200
O O2 0.193174 0.701706 0.022165
O O3 0.693752 0.702904 0.029692
O O4 0.000000 0.000000 0.000000
O O5 0.113312 0.671519 0.341848
O O6 0.556224 0.600871 0.341080
O O7 0.416310 0.798073 0.175834
O O8 0.294701 0.453078 0.219157
O O9 0.844032 0.434121 0.459572
O O10 0.152405 0.198678 0.517935
O O11 0.697317 0.092572 0.551434
O O12 0.526799 0.231405 0.388319
O O13 0.844467 0.400602 0.259770
O O14 0.500000 0.000000 0.000000
O O15 0.101101 0.143961 0.330196
#
# Coordination Sequence:
#
# PCOD8013164 Si02
#       7
#     2   2   2   2   2   2   2
#     4  10  24  45  72  97 136 175 235 290 341 404
#     4  11  25  40  66  95 139 177 226 281 353 410
#     4  10  21  40  65  97 134 174 224 279 341 411
#     4  10  22  41  62 100 131 179 220 277 346 417
#     4  10  25  46  69 103 131 180 235 288 344 411
#     4   9  21  39  65  97 132 172 227 279 339 411
#     4  10  24  41  65  96 136 178 223 283 348 411
#
# _framework density 25.122537999999999
#
# number of rings (size 3 to 8) (size 9 to 14) (size 15 to 20)
#    0.000    2.000    0.000    0.857   10.000    8.571 
#    0.000    0.000    0.000    0.000    0.000    0.000 
#    0.000    0.000    0.000    0.000    0.000    0.000 
#
# Total GULP energy -173502.327030 kJ/mol
# GULP energy per Si atom -12393.023359 kJ/mol
# Density = 2.506536 g / cm^3
# Si number density = 25.122538 Si / 1000 Ang^3
#
#
#
# Elastic Constant Matrix: (Units=GPa)
#
#
# Indices 1 2 3 4 5 6 
#
# 1 141.3709 3.8808 54.7207 6.0518 -2.0040 -6.6771
# 2 3.8808 62.8377 51.8580 3.6333 8.9669 -11.4360
# 3 54.7207 51.8580 203.3570 11.0884 -10.7847 -10.5623
# 4 6.0518 3.6333 11.0884 50.4549 0.9054 2.7476
# 5 -2.0040 8.9669 -10.7847 0.9054 35.7524 -2.0740
# 6 -6.6771 -11.4360 -10.5623 2.7476 -2.0740 28.4349
#
#
#
# Elastic Compliance Matrix: (Units=1/GPa)
#
#
# Indices 1 2 3 4 5 6 
#
# 1 0.008143 0.002162 -0.002655 -0.000633 -0.000766 0.001801
# 2 0.002162 0.023592 -0.006578 -0.000767 -0.007349 0.007091
# 3 -0.002655 -0.006578 0.007557 -0.000932 0.003798 -0.000095
# 4 -0.000633 -0.000767 -0.000932 0.020324 -0.000803 -0.002826
# 5 -0.000766 -0.007349 0.003798 -0.000803 0.030972 0.000612
# 6 0.001801 0.007091 -0.000095 -0.002826 0.000612 0.038725
#
#
# Mechanical properties :
#
#
# Convention : Reuss Voigt Hill
#
# Bulk Modulus (GPa) = 39.76061 69.83163 54.79612
# Shear Modulus (GPa) = 32.92970 42.73550 37.83260
#
# Velocity S-wave (km/s) = 3.62437 4.12889 3.88483
# Velocity P-wave (km/s) = 5.77718 7.11246 6.47931
#
# Compressibility (1/GPa) = 0.02515052
#
# Stress axis : x y z
#
# Youngs Moduli (GPa) = 122.80085 42.38653 132.33459
#
# Poissons Ratio (x) = -0.09164 0.35137
# Poissons Ratio (y) = -0.26549 0.87045
# Poissons Ratio (z) = 0.32605 0.27881
#
# Static dielectric constant tensor:
#      x y z
#    x 4.982850 -0.045300 0.094480 
#    y -0.045300 4.223260 -0.167400 
#    z 0.094480 -0.167400 4.417300 
# 
# 
# High freq. dielectric constant tensor:
#      x y z
#    x 2.016630 0.004840 -0.006120 
#    y 0.004840 1.980800 -0.009000 
#    z -0.006120 -0.009000 1.999970 
# 
# From -- ./inp_files/26979.got.cif
#   From: 2010.06.25/outbox.cif.g09.slc.cpg/sg2_14_cif.got.tgz:26979.got - 2010.06.27 13:26:56.
