data_PCOD8013445
_publ_section_title
;
Structure prediction by ZEFSAII (Michael W. Deem and Ramdas Pophale) SiO2 
 PCOD8013445
Probable space group: P -1
;
_chemical_formula_sum "Si O2"
_cell_formula_units_Z 16
_cell_length_a 15.900720
_cell_length_b 27.685621
_cell_length_c 8.973537
_cell_angle_alpha 142.142160
_cell_angle_beta 137.641673
_cell_angle_gamma 17.836773
_cell_volume 740.910860
_symmetry_space_group_name_H-M "P -1"
_symmetry_group_IT_number 2
_symmetry_cell_setting 'triclinic'
loop_
_space_group_symop_operation_xyz
x,y,z
-x,-y,-z
loop_
_atom_site_type_symbol
_atom_site_label
_atom_site_fract_x
_atom_site_fract_y
_atom_site_fract_z
Si Si1 0.950618 0.490442 0.750152
Si Si2 0.626367 0.165595 0.073619
Si Si3 0.261698 0.077798 0.323001
Si Si4 0.085451 0.988214 0.425744
Si Si5 0.774109 0.386488 0.636292
Si Si6 0.747373 0.827025 0.731040
Si Si7 0.596072 0.660968 0.116661
Si Si8 0.854678 0.872529 0.244287
O O1 0.622577 0.679832 0.757766
O O2 0.043484 0.348085 0.507630
O O3 0.130923 0.439181 0.744025
O O4 0.000000 0.500000 0.000000
O O5 0.884591 0.070595 0.234066
O O6 0.553841 0.233733 0.978321
O O7 0.698273 0.033388 0.842750
O O8 0.265964 0.084426 0.165783
O O9 0.977213 0.272236 0.484575
O O10 0.500000 0.000000 0.500000
O O11 0.078738 0.086611 0.663254
O O12 0.000000 0.000000 0.500000
O O13 0.392028 0.788115 0.297467
O O14 0.500000 0.500000 0.500000
O O15 0.914643 0.262576 0.656249
O O16 0.702296 0.513556 0.901906
O O17 0.450612 0.950667 0.652996
O O18 0.861698 0.789809 0.950475
#
# Coordination Sequence:
#
# PCOD8013445 Si02
#       8
#     2   2   2   2   2   2   2   2
#     4  10  21  40  68 101 130 170 226 279 331 394
#     4  11  23  40  69 100 134 173 218 286 339 397
#     4  12  21  40  70 103 135 177 235 279 336 412
#     4  12  25  45  65  95 132 181 226 268 347 414
#     4  12  25  42  68 104 137 179 227 284 345 404
#     4  11  23  44  69 101 136 179 230 280 343 406
#     4  11  22  43  64  97 134 171 226 278 331 398
#     4  11  25  45  68  96 139 185 222 284 346 409
#
# _framework density 21.595040000000001
#
# number of rings (size 3 to 8) (size 9 to 14) (size 15 to 20)
#    0.000    0.750    2.500    7.125    0.000    1.000 
#    0.000    3.125    0.000    0.000    0.000    0.000 
#    0.000    0.000    0.000    0.000    0.000    0.000 
#
# Total GULP energy -198406.482768 kJ/mol
# GULP energy per Si atom -12400.405173 kJ/mol
# Density = 2.154589 g / cm^3
# Si number density = 21.595040 Si / 1000 Ang^3
#
#
#
# Elastic Constant Matrix: (Units=GPa)
#
#
# Indices 1 2 3 4 5 6 
#
# 1 130.4109 33.2364 37.7146 7.3169 0.3401 -10.9268
# 2 33.2364 97.2098 39.1685 0.6130 -0.2843 -24.8330
# 3 37.7146 39.1685 114.2890 18.1017 7.8148 -6.0367
# 4 7.3169 0.6130 18.1017 32.2777 -1.7657 -8.1970
# 5 0.3401 -0.2843 7.8148 -1.7657 42.7650 5.3076
# 6 -10.9268 -24.8330 -6.0367 -8.1970 5.3076 35.2523
#
#
#
# Elastic Compliance Matrix: (Units=1/GPa)
#
#
# Indices 1 2 3 4 5 6 
#
# 1 0.008888 -0.001951 -0.002144 -0.000547 0.000179 0.000859
# 2 -0.001951 0.015779 -0.005095 0.005788 -0.000074 0.010995
# 3 -0.002144 -0.005095 0.012326 -0.007343 -0.002134 -0.003529
# 4 -0.000547 0.005788 -0.007343 0.038059 0.001558 0.011265
# 5 0.000179 -0.000074 -0.002134 0.001558 0.024290 -0.003657
# 6 0.000859 0.010995 -0.003529 0.011265 -0.003657 0.038944
#
#
# Mechanical properties :
#
#
# Convention : Reuss Voigt Hill
#
# Bulk Modulus (GPa) = 53.72897 62.46094 58.09495
# Shear Modulus (GPa) = 30.69916 37.51167 34.10542
#
# Velocity S-wave (km/s) = 3.77448 4.17232 3.97837
# Velocity P-wave (km/s) = 6.62796 7.22478 6.93280
#
# Compressibility (1/GPa) = 0.01861193
#
# Stress axis : x y z
#
# Youngs Moduli (GPa) = 112.51476 63.37514 81.13001
#
# Poissons Ratio (x) = 0.12367 0.17397
# Poissons Ratio (y) = 0.21956 0.41333
# Poissons Ratio (z) = 0.24127 0.32288
#
# Static dielectric constant tensor:
#      x y z
#    x 4.324470 -0.173390 0.046810 
#    y -0.173390 4.147110 0.206870 
#    z 0.046810 0.206870 3.936200 
# 
# 
# High freq. dielectric constant tensor:
#      x y z
#    x 1.854430 -0.015070 0.005540 
#    y -0.015070 1.847320 0.008570 
#    z 0.005540 0.008570 1.853390 
# 
# From -- ./inp_files/320752.got.cif
#   From: 2010.06.25/outbox.cif.g09.slc.cpg/sg2_161_cif.got.tgz:320752.got - 2010.06.27 13:26:56.
