data_PCOD8013883
_publ_section_title
;
Structure prediction by ZEFSAII (Michael W. Deem and Ramdas Pophale) SiO2 
 PCOD8013883
Probable space group: P -1
;
_chemical_formula_sum "Si O2"
_cell_formula_units_Z 16
_cell_length_a 11.283730
_cell_length_b 10.718987
_cell_length_c 9.012276
_cell_angle_alpha 66.162165
_cell_angle_beta 51.790342
_cell_angle_gamma 75.962258
_cell_volume 783.391682
_symmetry_space_group_name_H-M "P -1"
_symmetry_group_IT_number 2
_symmetry_cell_setting 'triclinic'
loop_
_space_group_symop_operation_xyz
x,y,z
-x,-y,-z
loop_
_atom_site_type_symbol
_atom_site_label
_atom_site_fract_x
_atom_site_fract_y
_atom_site_fract_z
Si Si1 0.651052 0.378966 0.300635
Si Si2 0.113689 0.828330 0.318111
Si Si3 0.588053 0.668714 0.266576
Si Si4 0.825166 0.896096 0.015267
Si Si5 0.806245 0.883338 0.386964
Si Si6 0.871997 0.159535 0.347770
Si Si7 0.553675 0.670911 0.759479
Si Si8 0.375169 0.631330 0.192981
O O1 0.692858 0.540020 0.202556
O O2 0.480049 0.354652 0.506574
O O3 0.780687 0.295192 0.318434
O O4 0.615126 0.334851 0.181059
O O5 0.100094 0.855220 0.491519
O O6 0.211231 0.696279 0.267117
O O7 0.947030 0.805957 0.390142
O O8 0.194545 0.956304 0.113772
O O9 0.435873 0.677275 0.283762
O O10 0.681394 0.807630 0.120460
O O11 0.971855 0.824851 0.868586
O O12 0.839765 0.907463 0.175935
O O13 0.654061 0.797920 0.568084
O O14 0.782250 0.027620 0.418515
O O15 0.645200 0.531343 0.728790
O O16 0.509386 0.687832 0.956662
#
# Coordination Sequence:
#
# PCOD8013883 Si02
#       8
#     2   2   2   2   2   2   2   2
#     4  10  21  41  63  87 120 154 196 245 294 352
#     4  11  24  41  61  87 122 157 198 246 292 352
#     4  10  21  41  63  87 120 154 196 245 294 352
#     4  11  24  40  62  88 119 159 198 244 296 348
#     4  11  24  41  61  87 122 157 198 246 292 352
#     4  11  24  40  62  88 119 159 198 244 296 348
#     4  10  23  41  63  90 120 156 196 244 297 349
#     4  10  23  41  63  90 120 156 196 244 297 349
#
# _framework density 20.424011
#
# number of rings (size 3 to 8) (size 9 to 14) (size 15 to 20)
#    0.000    1.500    2.500    3.000    7.000    3.000 
#    0.000    0.000    0.000    0.000    0.000    0.000 
#    0.000    0.000    0.000    0.000    0.000    0.000 
#
# Total GULP energy -198363.860373 kJ/mol
# GULP energy per Si atom -12397.741273 kJ/mol
# Density = 2.037752 g / cm^3
# Si number density = 20.424011 Si / 1000 Ang^3
#
#
#
# Elastic Constant Matrix: (Units=GPa)
#
#
# Indices 1 2 3 4 5 6 
#
# 1 51.5044 18.8906 -3.8650 -0.2116 17.6708 -7.2547
# 2 18.8906 46.7709 -1.3966 9.8603 13.5798 -7.3061
# 3 -3.8650 -1.3966 74.1353 5.2853 12.5593 8.0318
# 4 -0.2116 9.8603 5.2853 24.4524 2.0433 3.6017
# 5 17.6708 13.5798 12.5593 2.0433 30.4592 -8.5205
# 6 -7.2547 -7.3061 8.0318 3.6017 -8.5205 34.5560
#
#
#
# Elastic Compliance Matrix: (Units=1/GPa)
#
#
# Indices 1 2 3 4 5 6 
#
# 1 0.027337 -0.007699 0.003496 0.003874 -0.014305 -0.000632
# 2 -0.007699 0.030043 0.002001 -0.012487 -0.007901 0.003624
# 3 0.003496 0.002001 0.016283 -0.002647 -0.010864 -0.005030
# 4 0.003874 -0.012487 -0.002647 0.047509 -0.000537 -0.006296
# 5 -0.014305 -0.007901 -0.010864 -0.000537 0.052182 0.010774
# 6 -0.000632 0.003624 -0.005030 -0.006296 0.010774 0.034054
#
#
# Mechanical properties :
#
#
# Convention : Reuss Voigt Hill
#
# Bulk Modulus (GPa) = 14.43870 22.18541 18.31205
# Shear Modulus (GPa) = 21.28585 28.47895 24.88240
#
# Velocity S-wave (km/s) = 3.23181 3.73820 3.49419
# Velocity P-wave (km/s) = 4.58377 5.43306 5.02639
#
# Compressibility (1/GPa) = 0.06925834
#
# Stress axis : x y z
#
# Youngs Moduli (GPa) = 36.58081 33.28576 61.41394
#
# Poissons Ratio (x) = 0.25626 -0.21470
# Poissons Ratio (y) = 0.28163 -0.12288
# Poissons Ratio (z) = -0.12788 -0.06660
#
# Static dielectric constant tensor:
#      x y z
#    x 3.542600 0.053290 0.264120 
#    y 0.053290 3.650400 0.057060 
#    z 0.264120 0.057060 3.758140 
# 
# 
# High freq. dielectric constant tensor:
#      x y z
#    x 1.794100 0.003620 0.022250 
#    y 0.003620 1.798790 0.005360 
#    z 0.022250 0.005360 1.807100 
# 
# From -- ./inp_files/242432.got.cif
#   From: 2010.06.25/outbox.cif.g09.slc.cpg/sg2_122_cif.got.tgz:242432.got - 2010.06.27 13:26:56.
