data_PCOD8013447
_publ_section_title
;
Structure prediction by ZEFSAII (Michael W. Deem and Ramdas Pophale) SiO2 
 PCOD8013447
Probable space group: P -1
;
_chemical_formula_sum "Si O2"
_cell_formula_units_Z 16
_cell_length_a 24.762261
_cell_length_b 6.860098
_cell_length_c 5.001239
_cell_angle_alpha 79.195529
_cell_angle_beta 71.905534
_cell_angle_gamma 115.942780
_cell_volume 672.218911
_symmetry_space_group_name_H-M "P -1"
_symmetry_group_IT_number 2
_symmetry_cell_setting 'triclinic'
loop_
_space_group_symop_operation_xyz
x,y,z
-x,-y,-z
loop_
_atom_site_type_symbol
_atom_site_label
_atom_site_fract_x
_atom_site_fract_y
_atom_site_fract_z
Si Si1 0.922493 0.734597 0.447589
Si Si2 0.368837 0.571366 0.762475
Si Si3 0.071952 0.986335 0.148178
Si Si4 0.204469 0.747635 0.352816
Si Si5 0.804265 0.011667 0.171495
Si Si6 0.560503 0.607914 0.583877
Si Si7 0.287668 0.518309 0.417133
Si Si8 0.492035 0.816025 0.841952
O O1 0.869054 0.463407 0.559521
O O2 0.995820 0.775182 0.382679
O O3 0.898589 0.826286 0.705994
O O4 0.926180 0.879057 0.150588
O O5 0.375161 0.355614 0.690349
O O6 0.340635 0.653182 0.541607
O O7 0.321339 0.483369 0.114123
O O8 0.444109 0.796373 0.668016
O O9 0.118753 0.881433 0.064050
O O10 0.197520 0.874419 0.582634
O O11 0.256411 0.669326 0.348388
O O12 0.232588 0.928535 0.015820
O O13 0.769449 0.733909 0.323614
O O14 0.500000 0.500000 0.500000
O O15 0.550740 0.440536 0.890289
O O16 0.562499 0.840946 0.632005
O O17 0.500000 0.000000 0.000000
#
# Coordination Sequence:
#
# PCOD8013447 Si02
#       8
#     2   2   2   2   2   2   2   2
#     4  10  21  40  68  99 139 175 228 294 355 416
#     4  11  23  45  73  96 136 189 224 274 355 396
#     4  10  21  40  68 101 133 184 226 284 368 414
#     4  12  26  44  70 103 133 186 240 290 347 415
#     4  12  26  44  72  99 132 188 241 281 360 408
#     4   9  20  41  68 100 136 174 217 271 337 408
#     4  12  26  48  69  95 148 183 232 296 330 409
#     4  10  21  43  72 107 138 173 222 281 343 406
#
# _framework density 23.801770000000001
#
# number of rings (size 3 to 8) (size 9 to 14) (size 15 to 20)
#    0.000    1.250    2.500    3.000    1.750    3.000 
#    2.250    6.250    0.000    0.000    0.000    0.000 
#    0.000    0.000    0.000    0.000    0.000    0.000 
#
# Total GULP energy -198344.721664 kJ/mol
# GULP energy per Si atom -12396.545104 kJ/mol
# Density = 2.374760 g / cm^3
# Si number density = 23.801770 Si / 1000 Ang^3
#
#
#
# Elastic Constant Matrix: (Units=GPa)
#
#
# Indices 1 2 3 4 5 6 
#
# 1 201.9520 65.1547 107.9316 45.8092 -16.7961 -47.0748
# 2 65.1547 99.3037 43.3199 43.8644 -6.4836 -18.1000
# 3 107.9316 43.3199 186.2433 73.9640 -16.1143 -41.1136
# 4 45.8092 43.8644 73.9640 54.6720 -9.8910 -14.1059
# 5 -16.7961 -6.4836 -16.1143 -9.8910 53.5056 16.4132
# 6 -47.0748 -18.1000 -41.1136 -14.1059 16.4132 49.8837
#
#
#
# Elastic Compliance Matrix: (Units=1/GPa)
#
#
# Indices 1 2 3 4 5 6 
#
# 1 0.009153 -0.004845 -0.004777 0.003747 0.000348 0.003888
# 2 -0.004845 0.019867 0.007014 -0.020897 -0.001817 0.003106
# 3 -0.004777 0.007014 0.016924 -0.023289 -0.001684 0.005954
# 4 0.003747 -0.020897 -0.023289 0.062511 0.005442 -0.007355
# 5 0.000348 -0.001817 -0.001684 0.005442 0.021281 -0.007182
# 6 0.003888 0.003106 0.005954 -0.007355 -0.007182 0.030033
#
#
# Mechanical properties :
#
#
# Convention : Reuss Voigt Hill
#
# Bulk Modulus (GPa) = 24.55360 102.25682 63.40521
# Shear Modulus (GPa) = 28.00147 49.68513 38.84330
#
# Velocity S-wave (km/s) = 3.43366 4.57382 4.04412
# Velocity P-wave (km/s) = 5.10473 8.42308 6.96443
#
# Compressibility (1/GPa) = 0.04072723
#
# Stress axis : x y z
#
# Youngs Moduli (GPa) = 109.25086 50.33370 59.08790
#
# Poissons Ratio (x) = 0.24389 0.28228
# Poissons Ratio (y) = 0.52937 -0.41445
# Poissons Ratio (z) = 0.52193 -0.35305
#
# Static dielectric constant tensor:
#      x y z
#    x 4.840570 -0.124220 -0.064010 
#    y -0.124220 4.146250 0.287430 
#    z -0.064010 0.287430 4.668660 
# 
# 
# High freq. dielectric constant tensor:
#      x y z
#    x 1.958030 -0.009890 0.008000 
#    y -0.009890 1.921680 0.023900 
#    z 0.008000 0.023900 1.963810 
# 
# From -- ./inp_files/121635.got.cif
#   From: 2010.06.25/outbox.cif.g09.slc.cpg/sg2_61_cif.got.tgz:121635.got - 2010.06.27 13:26:56.
