data_PCOD8013072
_publ_section_title
;
Structure prediction by ZEFSAII (Michael W. Deem and Ramdas Pophale) SiO2 
 PCOD8013072
Probable space group: P -1
;
_chemical_formula_sum "Si O2"
_cell_formula_units_Z 16
_cell_length_a 13.879231
_cell_length_b 10.732494
_cell_length_c 8.901081
_cell_angle_alpha 70.366626
_cell_angle_beta 35.334391
_cell_angle_gamma 77.178143
_cell_volume 718.923461
_symmetry_space_group_name_H-M "P -1"
_symmetry_group_IT_number 2
_symmetry_cell_setting 'triclinic'
loop_
_space_group_symop_operation_xyz
x,y,z
-x,-y,-z
loop_
_atom_site_type_symbol
_atom_site_label
_atom_site_fract_x
_atom_site_fract_y
_atom_site_fract_z
Si Si1 0.276616 0.082288 0.469392
Si Si2 0.338310 0.835023 0.029402
Si Si3 0.833637 0.195770 0.427174
Si Si4 0.806998 0.394084 0.852636
Si Si5 0.848533 0.685108 0.644638
Si Si6 0.784417 0.719922 0.046167
Si Si7 0.325238 0.050267 0.746720
Si Si8 0.162954 0.559702 0.858679
O O1 0.192661 0.213079 0.472916
O O2 0.219614 0.057452 0.725043
O O3 0.215075 0.952860 0.505979
O O4 0.475784 0.107868 0.184590
O O5 0.231662 0.790081 0.328229
O O6 0.349940 0.711450 0.948129
O O7 0.241401 0.945604 0.017830
O O8 0.750749 0.309189 0.387991
O O9 0.032245 0.227837 0.146045
O O10 0.758134 0.536027 0.796303
O O11 0.955796 0.337039 0.590183
O O12 0.867527 0.399246 0.946608
O O13 0.786222 0.743496 0.856124
O O14 0.651396 0.806217 0.260089
O O15 0.725679 0.565857 0.224859
O O16 0.500000 0.000000 0.500000
O O17 0.000000 0.500000 0.000000
#
# Coordination Sequence:
#
# PCOD8013072 Si02
#       8
#     2   2   2   2   2   2   2   2
#     4  11  25  39  62  93 128 175 219 264 312 385
#     4  11  23  42  63  89 135 173 210 265 324 377
#     4  11  22  38  65  98 128 170 215 270 317 377
#     4  10  21  40  65  91 135 167 206 270 322 374
#     4  10  22  39  64  97 124 167 218 263 319 383
#     4  10  21  40  65  95 128 169 212 267 326 381
#     4  10  24  42  61  89 132 172 208 267 322 377
#     4   9  21  38  63 102 130 160 209 269 322 377
#
# _framework density 22.255499
#
# number of rings (size 3 to 8) (size 9 to 14) (size 15 to 20)
#    0.000    1.750    1.250    1.875    7.000    3.000 
#    0.000    1.250    0.000   10.500    0.000    0.000 
#    0.000    0.000    0.000    0.000    0.000    0.000 
#
# Total GULP energy -198277.893325 kJ/mol
# GULP energy per Si atom -12392.368333 kJ/mol
# Density = 2.220484 g / cm^3
# Si number density = 22.255499 Si / 1000 Ang^3
#
#
#
# Elastic Constant Matrix: (Units=GPa)
#
#
# Indices 1 2 3 4 5 6 
#
# 1 86.3372 62.4575 27.3906 -15.3975 25.8254 -5.8983
# 2 62.4575 175.6678 48.3199 -10.0430 24.9559 -7.5625
# 3 27.3906 48.3199 71.5228 -4.2176 28.0429 -12.9354
# 4 -15.3975 -10.0430 -4.2176 43.5494 -6.1917 10.8609
# 5 25.8254 24.9559 28.0429 -6.1917 35.5361 -7.5937
# 6 -5.8983 -7.5625 -12.9354 10.8609 -7.5937 34.0489
#
#
#
# Elastic Compliance Matrix: (Units=1/GPa)
#
#
# Indices 1 2 3 4 5 6 
#
# 1 0.018896 -0.005163 0.000047 0.004479 -0.009671 -0.001441
# 2 -0.005163 0.008537 -0.004268 -0.000028 0.001039 -0.000379
# 3 0.000047 -0.004268 0.023495 -0.002135 -0.014804 0.005366
# 4 0.004479 -0.000028 -0.002135 0.026571 0.001322 -0.008222
# 5 -0.009671 0.001039 -0.014804 0.001322 0.046990 0.002990
# 6 -0.001441 -0.000379 0.005366 -0.008222 0.002990 0.034364
#
#
# Mechanical properties :
#
#
# Convention : Reuss Voigt Hill
#
# Bulk Modulus (GPa) = 31.09384 67.76267 49.42825
# Shear Modulus (GPa) = 26.54756 35.65088 31.09922
#
# Velocity S-wave (km/s) = 3.45752 4.00670 3.74220
# Velocity P-wave (km/s) = 5.47183 7.20546 6.39764
#
# Compressibility (1/GPa) = 0.03216071
#
# Stress axis : x y z
#
# Youngs Moduli (GPa) = 52.92125 117.14171 42.56146
#
# Poissons Ratio (x) = 0.60485 -0.00201
# Poissons Ratio (y) = 0.27325 0.18163
# Poissons Ratio (z) = -0.00250 0.49991
#
# Static dielectric constant tensor:
#      x y z
#    x 4.078830 -0.106100 0.468650 
#    y -0.106100 4.398600 -0.398450 
#    z 0.468650 -0.398450 3.954000 
# 
# 
# High freq. dielectric constant tensor:
#      x y z
#    x 1.869830 0.007830 0.029910 
#    y 0.007830 1.897950 -0.016440 
#    z 0.029910 -0.016440 1.857120 
# 
# From -- ./inp_files/297765.got.cif
#   From: 2010.06.25/outbox.cif.g09.slc.cpg/sg2_149_cif.got.tgz:297765.got - 2010.06.27 13:26:56.
