data_PCOD8013290
_publ_section_title
;
Structure prediction by ZEFSAII (Michael W. Deem and Ramdas Pophale) SiO2 
 PCOD8013290
Probable space group: P -1
;
_chemical_formula_sum "Si O2"
_cell_formula_units_Z 14
_cell_length_a 11.934725
_cell_length_b 17.827245
_cell_length_c 8.905377
_cell_angle_alpha 111.415489
_cell_angle_beta 50.423325
_cell_angle_gamma 150.960443
_cell_volume 608.569046
_symmetry_space_group_name_H-M "P -1"
_symmetry_group_IT_number 2
_symmetry_cell_setting 'triclinic'
loop_
_space_group_symop_operation_xyz
x,y,z
-x,-y,-z
loop_
_atom_site_type_symbol
_atom_site_label
_atom_site_fract_x
_atom_site_fract_y
_atom_site_fract_z
Si Si1 0.592193 0.206194 0.890291
Si Si2 0.352509 0.608955 0.555700
Si Si3 0.801372 0.146053 0.009625
Si Si4 0.338751 0.628026 0.259759
Si Si5 0.570641 0.872116 0.709471
Si Si6 0.371353 0.483543 0.955923
Si Si7 0.199432 0.261723 0.499130
O O1 0.465936 0.201774 0.860589
O O2 0.981489 0.397135 0.714827
O O3 0.446915 0.173267 0.141346
O O4 0.452484 0.048112 0.864866
O O5 0.501912 0.673096 0.305913
O O6 0.393317 0.724328 0.639011
O O7 0.543810 0.652930 0.547268
O O8 0.041101 0.276613 0.039387
O O9 0.990295 0.219654 0.747717
O O10 0.611910 0.133623 0.131823
O O11 0.000000 0.500000 0.500000
O O12 0.297555 0.538688 0.104753
O O13 0.952916 0.075352 0.495944
O O14 0.618652 0.601318 0.689670
O O15 0.500000 0.500000 0.000000
#
# Coordination Sequence:
#
# PCOD8013290 Si02
#       7
#     2   2   2   2   2   2   2
#     4  10  21  40  66  96 128 168 214 262 316 383
#     4  11  22  42  68  95 129 171 216 266 317 379
#     4  11  24  43  68  96 129 171 216 264 321 386
#     4  10  23  42  65  94 129 172 215 258 317 384
#     4  11  23  42  68  98 127 171 220 263 316 385
#     4  12  26  45  67  97 131 168 213 271 327 377
#     4  11  24  42  66  98 130 167 214 270 323 380
#
# _framework density 23.004785999999999
#
# number of rings (size 3 to 8) (size 9 to 14) (size 15 to 20)
#    0.000    1.143    0.000    7.286    0.000    8.000 
#    0.000    8.571    0.000    0.000    0.000    0.000 
#    0.000    0.000    0.000    0.000    0.000    0.000 
#
# Total GULP energy -173552.918964 kJ/mol
# GULP energy per Si atom -12396.637069 kJ/mol
# Density = 2.295243 g / cm^3
# Si number density = 23.004786 Si / 1000 Ang^3
#
#
#
# Elastic Constant Matrix: (Units=GPa)
#
#
# Indices 1 2 3 4 5 6 
#
# 1 134.3302 61.6989 46.3841 -18.9445 24.7896 11.2547
# 2 61.6989 171.3378 75.0798 -8.5862 14.5444 -9.1040
# 3 46.3841 75.0798 69.5558 -13.0755 4.1765 3.2825
# 4 -18.9445 -8.5862 -13.0755 34.0166 -2.1258 1.2366
# 5 24.7896 14.5444 4.1765 -2.1258 35.9583 2.5501
# 6 11.2547 -9.1040 3.2825 1.2366 2.5501 30.2446
#
#
#
# Elastic Compliance Matrix: (Units=1/GPa)
#
#
# Indices 1 2 3 4 5 6 
#
# 1 0.012008 -0.001644 -0.004872 0.004140 -0.006515 -0.004054
# 2 -0.001644 0.012710 -0.013346 -0.003259 -0.003095 0.006280
# 3 -0.004872 -0.013346 0.033379 0.007350 0.005784 -0.006615
# 4 0.004140 -0.003259 0.007350 0.033873 -0.000054 -0.004700
# 5 -0.006515 -0.003095 0.005784 -0.000054 0.033014 -0.001917
# 6 -0.004054 0.006280 -0.006615 -0.004700 -0.001917 0.037535
#
#
# Mechanical properties :
#
#
# Convention : Reuss Voigt Hill
#
# Bulk Modulus (GPa) = 54.43188 82.39436 68.41312
# Shear Modulus (GPa) = 23.99624 32.84797 28.42211
#
# Velocity S-wave (km/s) = 3.23321 3.78282 3.51876
# Velocity P-wave (km/s) = 6.13601 7.41442 6.80530
#
# Compressibility (1/GPa) = 0.01837159
#
# Stress axis : x y z
#
# Youngs Moduli (GPa) = 83.28103 78.67989 29.95930
#
# Poissons Ratio (x) = 0.12934 0.14597
# Poissons Ratio (y) = 0.13690 0.39984
# Poissons Ratio (z) = 0.40576 1.05007
#
# Static dielectric constant tensor:
#      x y z
#    x 4.501890 0.121020 0.315610 
#    y 0.121020 4.594210 0.036460 
#    z 0.315610 0.036460 4.303610 
# 
# 
# High freq. dielectric constant tensor:
#      x y z
#    x 1.919310 -0.003550 0.005160 
#    y -0.003550 1.922120 0.002370 
#    z 0.005160 0.002370 1.900500 
# 
# From -- ./inp_files/279596.got.cif
#   From: 2010.06.25/outbox.cif.g09.slc.cpg/sg2_140_cif.got.tgz:279596.got - 2010.06.27 13:26:56.
