data_PCOD8013316
_publ_section_title
;
Structure prediction by ZEFSAII (Michael W. Deem and Ramdas Pophale) SiO2 
 PCOD8013316
Probable space group: P -1
;
_chemical_formula_sum "Si O2"
_cell_formula_units_Z 14
_cell_length_a 18.130985
_cell_length_b 11.506461
_cell_length_c 14.252291
_cell_angle_alpha 125.270524
_cell_angle_beta 146.694711
_cell_angle_gamma 28.272166
_cell_volume 612.866540
_symmetry_space_group_name_H-M "P -1"
_symmetry_group_IT_number 2
_symmetry_cell_setting 'triclinic'
loop_
_space_group_symop_operation_xyz
x,y,z
-x,-y,-z
loop_
_atom_site_type_symbol
_atom_site_label
_atom_site_fract_x
_atom_site_fract_y
_atom_site_fract_z
Si Si1 0.280519 0.407965 0.310069
Si Si2 0.661762 0.348896 0.314066
Si Si3 0.242875 0.576331 0.833726
Si Si4 0.101997 0.291900 0.338619
Si Si5 0.005245 0.588423 0.924951
Si Si6 0.727041 0.271631 0.551249
Si Si7 0.422544 0.282182 0.694907
O O1 0.070764 0.506879 0.195505
O O2 0.146371 0.689976 0.313359
O O3 0.615822 0.075184 0.542335
O O4 0.282884 0.362743 0.180083
O O5 0.569920 0.380926 0.335938
O O6 0.629113 0.550221 0.361688
O O7 0.465020 0.452269 0.077811
O O8 0.000000 0.000000 0.500000
O O9 0.415061 0.361919 0.825945
O O10 0.112452 0.560777 0.739767
O O11 0.981856 0.924562 0.686628
O O12 0.930723 0.432704 0.123875
O O13 0.183719 0.380216 0.481885
O O14 0.739458 0.921644 0.846143
O O15 0.500000 0.500000 0.500000
#
# Coordination Sequence:
#
# PCOD8013316 Si02
#       7
#     2   2   2   2   2   2   2
#     4  10  21  40  66  99 126 173 221 271 323 391
#     4  12  27  46  69  96 135 180 228 266 334 405
#     4  12  27  44  66 104 138 174 218 281 339 388
#     4  11  23  44  69  99 135 170 224 275 333 387
#     4  10  22  40  72  95 130 172 230 264 327 394
#     4  12  25  43  70  97 137 169 223 276 334 392
#     4  11  23  47  69  95 137 180 219 274 328 399
#
# _framework density 22.843471999999998
#
# number of rings (size 3 to 8) (size 9 to 14) (size 15 to 20)
#    0.000    0.857    2.857    5.143    4.000    0.571 
#    2.571    0.714    0.000    0.000    0.000    0.000 
#    0.000    0.000    0.000    0.000    0.000    0.000 
#
# Total GULP energy -173586.531355 kJ/mol
# GULP energy per Si atom -12399.037954 kJ/mol
# Density = 2.279148 g / cm^3
# Si number density = 22.843472 Si / 1000 Ang^3
#
#
#
# Elastic Constant Matrix: (Units=GPa)
#
#
# Indices 1 2 3 4 5 6 
#
# 1 107.9407 39.9649 51.8210 7.6477 -37.2663 6.1994
# 2 39.9649 94.0491 25.2713 15.9468 -7.9207 10.8922
# 3 51.8210 25.2713 100.7964 5.6529 -23.5179 9.7132
# 4 7.6477 15.9468 5.6529 20.6420 1.0144 -7.2742
# 5 -37.2663 -7.9207 -23.5179 1.0144 40.9337 10.5569
# 6 6.1994 10.8922 9.7132 -7.2742 10.5569 37.7519
#
#
#
# Elastic Compliance Matrix: (Units=1/GPa)
#
#
# Indices 1 2 3 4 5 6 
#
# 1 0.019003 -0.003821 -0.004077 -0.006103 0.016083 -0.006643
# 2 -0.003821 0.015364 -0.000208 -0.012794 0.001396 -0.006608
# 3 -0.004077 -0.000208 0.014228 -0.004437 0.005937 -0.005447
# 4 -0.006103 -0.012794 -0.004437 0.071487 -0.018763 0.024856
# 5 0.016083 0.001396 0.005937 -0.018763 0.048853 -0.021848
# 6 -0.006643 -0.006608 -0.005447 0.024856 -0.021848 0.041786
#
#
# Mechanical properties :
#
#
# Convention : Reuss Voigt Hill
#
# Bulk Modulus (GPa) = 30.87870 59.65560 45.26715
# Shear Modulus (GPa) = 21.03255 32.24747 26.64001
#
# Velocity S-wave (km/s) = 3.03764 3.76130 3.41867
# Velocity P-wave (km/s) = 5.08427 6.71080 5.95334
#
# Compressibility (1/GPa) = 0.03238479
#
# Stress axis : x y z
#
# Youngs Moduli (GPa) = 52.62383 65.08530 70.28404
#
# Poissons Ratio (x) = 0.24868 0.28653
# Poissons Ratio (y) = 0.20107 0.01459
# Poissons Ratio (z) = 0.21453 0.01351
#
# Static dielectric constant tensor:
#      x y z
#    x 4.582720 0.366190 -0.407280 
#    y 0.366190 4.284960 0.110820 
#    z -0.407280 0.110820 4.335550 
# 
# 
# High freq. dielectric constant tensor:
#      x y z
#    x 1.912000 0.018360 -0.022980 
#    y 0.018360 1.897270 0.011010 
#    z -0.022980 0.011010 1.907080 
# 
# From -- ./inp_files/464746.got.cif
#   From: 2010.06.25/outbox.cif.g09.slc.cpg/sg2_233_cif.got.tgz:464746.got - 2010.06.27 13:26:56.
