data_PCOD8013005
_publ_section_title
;
Structure prediction by ZEFSAII (Michael W. Deem and Ramdas Pophale) SiO2 
 PCOD8013005
Probable space group: P -1
;
_chemical_formula_sum "Si O2"
_cell_formula_units_Z 16
_cell_length_a 15.828629
_cell_length_b 9.460378
_cell_length_c 11.946503
_cell_angle_alpha 108.655956
_cell_angle_beta 53.015775
_cell_angle_gamma 63.397331
_cell_volume 721.984396
_symmetry_space_group_name_H-M "P -1"
_symmetry_group_IT_number 2
_symmetry_cell_setting 'triclinic'
loop_
_space_group_symop_operation_xyz
x,y,z
-x,-y,-z
loop_
_atom_site_type_symbol
_atom_site_label
_atom_site_fract_x
_atom_site_fract_y
_atom_site_fract_z
Si Si1 0.632890 0.442023 0.960256
Si Si2 0.428014 0.883616 0.415966
Si Si3 0.542235 0.031325 0.088476
Si Si4 0.118323 0.551421 0.673267
Si Si5 0.166878 0.051074 0.193052
Si Si6 0.292504 0.358622 0.700659
Si Si7 0.985691 0.645984 0.200061
Si Si8 0.128662 0.583022 0.286650
O O1 0.782903 0.358246 0.741143
O O2 0.754576 0.201640 0.892381
O O3 0.500000 0.500000 0.000000
O O4 0.512574 0.712065 0.191611
O O5 0.563667 0.688319 0.368790
O O6 0.418729 0.076790 0.465876
O O7 0.206188 0.083047 0.653747
O O8 0.331075 0.301534 0.382001
O O9 0.640516 0.075506 0.003077
O O10 0.700628 0.742568 0.956078
O O11 0.500000 0.000000 0.000000
O O12 0.151456 0.599651 0.778157
O O13 0.045175 0.472949 0.741074
O O14 0.950808 0.828229 0.799920
O O15 0.014460 0.299825 0.469595
O O16 0.169257 0.424754 0.913800
O O17 0.011726 0.736684 0.300759
#
# Coordination Sequence:
#
# PCOD8013005 Si02
#       8
#     2   2   2   2   2   2   2   2
#     4  12  26  45  68  98 140 184 222 271 340 414
#     4  10  21  40  64  98 130 170 224 274 329 385
#     4  12  23  41  65  98 139 174 225 279 340 394
#     4  11  23  39  65  99 138 174 219 284 338 392
#     4  12  26  42  63 100 142 180 219 272 346 406
#     4  10  22  41  71 103 130 171 235 288 328 382
#     4  11  21  39  72 105 130 168 228 290 333 383
#     4  12  22  43  69  99 134 178 226 282 330 402
#
# _framework density 22.161142000000002
#
# number of rings (size 3 to 8) (size 9 to 14) (size 15 to 20)
#    0.000    0.750    3.750    6.000    1.750    1.000 
#    0.000    0.625    0.000    5.250    0.000    0.000 
#    0.000    0.000    0.000    0.000    0.000    0.000 
#
# Total GULP energy -198265.250306 kJ/mol
# GULP energy per Si atom -12391.578144 kJ/mol
# Density = 2.211070 g / cm^3
# Si number density = 22.161142 Si / 1000 Ang^3
#
#
#
# Elastic Constant Matrix: (Units=GPa)
#
#
# Indices 1 2 3 4 5 6 
#
# 1 145.4122 25.7291 32.5823 -3.3108 -7.9924 -36.0404
# 2 25.7291 81.7650 37.0725 -9.4223 -11.0228 -12.4715
# 3 32.5823 37.0725 90.4388 -7.5257 -12.7236 -6.6937
# 4 -3.3108 -9.4223 -7.5257 27.4191 -2.6862 -2.9909
# 5 -7.9924 -11.0228 -12.7236 -2.6862 37.0232 -0.6084
# 6 -36.0404 -12.4715 -6.6937 -2.9909 -0.6084 43.9578
#
#
#
# Elastic Compliance Matrix: (Units=1/GPa)
#
#
# Indices 1 2 3 4 5 6 
#
# 1 0.009403 -0.000445 -0.002377 0.001256 0.001292 0.007325
# 2 -0.000445 0.016421 -0.005411 0.004851 0.003348 0.003846
# 3 -0.002377 -0.005411 0.014652 0.002056 0.003043 -0.001071
# 4 0.001256 0.004851 0.002056 0.039986 0.005414 0.005515
# 5 0.001292 0.003348 0.003043 0.005414 0.029778 0.003253
# 6 0.007325 0.003846 -0.001071 0.005515 0.003253 0.030103
#
#
# Mechanical properties :
#
#
# Convention : Reuss Voigt Hill
#
# Bulk Modulus (GPa) = 41.65095 56.48710 49.06903
# Shear Modulus (GPa) = 30.33745 36.49547 33.41646
#
# Velocity S-wave (km/s) = 3.70394 4.06251 3.88736
# Velocity P-wave (km/s) = 6.09325 6.89564 6.50682
#
# Compressibility (1/GPa) = 0.02400906
#
# Stress axis : x y z
#
# Youngs Moduli (GPa) = 106.34429 60.89788 68.25177
#
# Poissons Ratio (x) = 0.02711 0.16223
# Poissons Ratio (y) = 0.04734 0.36934
# Poissons Ratio (z) = 0.25277 0.32954
#
# Static dielectric constant tensor:
#      x y z
#    x 4.726920 -0.631760 0.053600 
#    y -0.631760 3.993260 -0.146090 
#    z 0.053600 -0.146090 5.024050 
# 
# 
# High freq. dielectric constant tensor:
#      x y z
#    x 1.887930 -0.032240 -0.022310 
#    y -0.032240 1.837490 -0.007480 
#    z -0.022310 -0.007480 1.876640 
# 
# From -- ./inp_files/447782.got.cif
#   From: 2010.06.25/outbox.cif.g09.slc.cpg/sg2_224_cif.got.tgz:447782.got - 2010.06.27 13:26:56.
