data_PCOD8013887
_publ_section_title
;
Structure prediction by ZEFSAII (Michael W. Deem and Ramdas Pophale) SiO2 
 PCOD8013887
Probable space group: P -1
;
_chemical_formula_sum "Si O2"
_cell_formula_units_Z 14
_cell_length_a 8.255034
_cell_length_b 7.080605
_cell_length_c 12.544896
_cell_angle_alpha 92.123071
_cell_angle_beta 94.801603
_cell_angle_gamma 125.123661
_cell_volume 594.360455
_symmetry_space_group_name_H-M "P -1"
_symmetry_group_IT_number 2
_symmetry_cell_setting 'triclinic'
loop_
_space_group_symop_operation_xyz
x,y,z
-x,-y,-z
loop_
_atom_site_type_symbol
_atom_site_label
_atom_site_fract_x
_atom_site_fract_y
_atom_site_fract_z
Si Si1 0.499164 0.216291 0.036550
Si Si2 0.448964 0.543396 0.321654
Si Si3 0.692650 0.809707 0.526099
Si Si4 0.216537 0.400312 0.784827
Si Si5 0.778952 0.491191 0.885231
Si Si6 0.913157 0.161702 0.935138
Si Si7 0.027548 0.324220 0.557601
O O1 0.657379 0.352023 0.143185
O O2 0.271615 0.110610 0.060795
O O3 0.577505 0.395252 0.944015
O O4 0.500000 0.000000 0.000000
O O5 0.513671 0.721429 0.428272
O O6 0.395089 0.301785 0.364330
O O7 0.636292 0.658775 0.254568
O O8 0.262472 0.494532 0.241267
O O9 0.824028 0.717157 0.495883
O O10 0.811540 0.082153 0.548561
O O11 0.059950 0.188666 0.850252
O O12 0.101600 0.423220 0.682160
O O13 0.831857 0.308209 0.896048
O O14 0.964845 0.740189 0.944719
O O15 0.000000 0.500000 0.500000
#
# Coordination Sequence:
#
# PCOD8013887 Si02
#       7
#     2   2   2   2   2   2   2
#     4   9  19  37  57  87 126 158 205 270 314 374
#     4  10  21  41  63  87 133 174 207 270 334 381
#     4   9  22  44  62  94 136 167 214 276 321 387
#     4  10  22  37  60  91 125 162 217 264 315 395
#     4   9  19  37  59  85 120 166 204 258 327 377
#     4   9  19  36  57  90 123 152 217 269 299 391
#     4  10  22  41  66  97 128 168 221 270 324 389
#
# _framework density 23.554728000000001
#
# number of rings (size 3 to 8) (size 9 to 14) (size 15 to 20)
#    0.000    2.571    0.000    0.857    4.000    4.571 
#    7.714    7.857    0.000    0.000    0.000    0.000 
#    0.000    0.000    0.000    0.000    0.000    0.000 
#
# Total GULP energy -173521.327627 kJ/mol
# GULP energy per Si atom -12394.380545 kJ/mol
# Density = 2.350112 g / cm^3
# Si number density = 23.554728 Si / 1000 Ang^3
#
#
#
# Elastic Constant Matrix: (Units=GPa)
#
#
# Indices 1 2 3 4 5 6 
#
# 1 50.0639 21.9875 38.9425 -8.0569 8.0749 15.1274
# 2 21.9875 154.2326 68.0290 6.2169 14.7224 36.0521
# 3 38.9425 68.0290 186.2706 9.2625 45.1456 7.5963
# 4 -8.0569 6.2169 9.2625 30.3268 10.1244 -3.4398
# 5 8.0749 14.7224 45.1456 10.1244 45.0999 -6.0177
# 6 15.1274 36.0521 7.5963 -3.4398 -6.0177 34.7581
#
#
#
# Elastic Compliance Matrix: (Units=1/GPa)
#
#
# Indices 1 2 3 4 5 6 
#
# 1 0.029824 0.001239 -0.005702 0.009236 -0.003813 -0.012765
# 2 0.001239 0.010556 -0.003184 -0.001595 -0.001621 -0.011230
# 3 -0.005702 -0.003184 0.009291 -0.001202 -0.006639 0.002485
# 4 0.009236 -0.001595 -0.001202 0.039043 -0.008660 0.000262
# 5 -0.003813 -0.001621 -0.006639 -0.008660 0.033268 0.009694
# 6 -0.012765 -0.011230 0.002485 0.000262 0.009694 0.047135
#
#
# Mechanical properties :
#
#
# Convention : Reuss Voigt Hill
#
# Bulk Modulus (GPa) = 29.08988 72.05390 50.57189
# Shear Modulus (GPa) = 25.52719 39.47751 32.50235
#
# Velocity S-wave (km/s) = 3.29559 4.09833 3.71868
# Velocity P-wave (km/s) = 5.18247 7.28364 6.32097
#
# Compressibility (1/GPa) = 0.03437622
#
# Stress axis : x y z
#
# Youngs Moduli (GPa) = 33.52963 94.73655 107.63286
#
# Poissons Ratio (x) = -0.11737 0.61375
# Poissons Ratio (y) = -0.04154 0.34270
# Poissons Ratio (z) = 0.19119 0.30164
#
# Static dielectric constant tensor:
#      x y z
#    x 4.289390 0.760640 -0.063380 
#    y 0.760640 4.514580 -0.033990 
#    z -0.063380 -0.033990 4.526120 
# 
# 
# High freq. dielectric constant tensor:
#      x y z
#    x 1.917080 0.028370 0.004250 
#    y 0.028370 1.930900 0.000700 
#    z 0.004250 0.000700 1.941640 
# 
# From -- ./inp_files/382382.got.cif
#   From: 2010.06.25/outbox.cif.g09.slc.cpg/sg2_192_cif.got.tgz:382382.got - 2010.06.27 13:26:56.
