data_PCOD8013501
_publ_section_title
;
Structure prediction by ZEFSAII (Michael W. Deem and Ramdas Pophale) SiO2 
 PCOD8013501
Probable space group: P -1
;
_chemical_formula_sum "Si O2"
_cell_formula_units_Z 16
_cell_length_a 9.532834
_cell_length_b 31.565072
_cell_length_c 11.788143
_cell_angle_alpha 27.289461
_cell_angle_beta 134.730435
_cell_angle_gamma 151.297926
_cell_volume 733.387030
_symmetry_space_group_name_H-M "P -1"
_symmetry_group_IT_number 2
_symmetry_cell_setting 'triclinic'
loop_
_space_group_symop_operation_xyz
x,y,z
-x,-y,-z
loop_
_atom_site_type_symbol
_atom_site_label
_atom_site_fract_x
_atom_site_fract_y
_atom_site_fract_z
Si Si1 0.735696 0.398692 0.453069
Si Si2 0.786903 0.556315 0.701821
Si Si3 0.858932 0.391433 0.019128
Si Si4 0.585965 0.136033 0.733082
Si Si5 0.156458 0.403334 0.784351
Si Si6 0.186755 0.903674 0.615580
Si Si7 0.328947 0.077998 0.481438
Si Si8 0.820885 0.896215 0.255368
O O1 0.708092 0.469592 0.359124
O O2 0.389339 0.262603 0.532932
O O3 0.966512 0.513731 0.216145
O O4 0.861979 0.344402 0.695999
O O5 0.737984 0.435783 0.914186
O O6 0.450216 0.484674 0.676801
O O7 0.044208 0.707240 0.415613
O O8 0.909971 0.590116 0.820206
O O9 0.561181 0.228823 0.185861
O O10 0.485849 0.138151 0.550421
O O11 0.399728 0.107449 0.803096
O O12 0.500000 0.000000 0.000000
O O13 0.034560 0.266311 0.102853
O O14 0.031889 0.932169 0.390812
O O15 0.500000 0.000000 0.500000
O O16 0.278804 0.965278 0.650854
O O17 0.000000 0.000000 0.500000
O O18 0.000000 0.000000 0.000000
#
# Coordination Sequence:
#
# PCOD8013501 Si02
#       8
#     2   2   2   2   2   2   2   2
#     4  11  25  46  66  99 138 176 228 276 348 398
#     4  10  22  42  68  99 130 174 227 272 341 402
#     4  10  21  40  68  95 135 170 219 279 332 405
#     4  11  26  44  69 105 139 178 227 281 344 412
#     4  11  26  43  69 101 135 179 226 285 335 411
#     4  12  26  45  71 104 138 182 235 278 339 411
#     4  11  23  42  69 102 136 182 222 278 341 401
#     4  12  27  47  72  98 140 183 226 288 342 408
#
# _framework density 21.816583000000001
#
# number of rings (size 3 to 8) (size 9 to 14) (size 15 to 20)
#    0.000    1.000    2.500    3.000    7.000    5.500 
#    0.000    0.000    0.000    0.000    0.000    0.000 
#    0.000    0.000    0.000    0.000    0.000    0.000 
#
# Total GULP energy -198300.422961 kJ/mol
# GULP energy per Si atom -12393.776435 kJ/mol
# Density = 2.176693 g / cm^3
# Si number density = 21.816583 Si / 1000 Ang^3
#
#
#
# Elastic Constant Matrix: (Units=GPa)
#
#
# Indices 1 2 3 4 5 6 
#
# 1 130.4038 28.2494 37.5983 -12.6338 -2.2825 -1.0066
# 2 28.2494 62.9270 21.3426 -27.8303 5.6009 -8.2908
# 3 37.5983 21.3426 127.8697 -18.2606 -3.0727 8.2098
# 4 -12.6338 -27.8303 -18.2606 30.9463 -3.4304 -5.0089
# 5 -2.2825 5.6009 -3.0727 -3.4304 44.0076 -11.5741
# 6 -1.0066 -8.2908 8.2098 -5.0089 -11.5741 49.8271
#
#
#
# Elastic Compliance Matrix: (Units=1/GPa)
#
#
# Indices 1 2 3 4 5 6 
#
# 1 0.009031 -0.003803 -0.002132 -0.000915 0.000726 -0.000022
# 2 -0.003803 0.030829 -0.000670 0.027055 0.000015 0.007887
# 3 -0.002132 -0.000670 0.009195 0.003837 0.000616 -0.001141
# 4 -0.000915 0.027055 0.003837 0.060803 0.004406 0.010987
# 5 0.000726 0.000015 0.000616 0.004406 0.024752 0.006108
# 6 -0.000022 0.007887 -0.001141 0.010987 0.006108 0.024093
#
#
# Mechanical properties :
#
#
# Convention : Reuss Voigt Hill
#
# Bulk Modulus (GPa) = 27.89787 55.06458 41.48123
# Shear Modulus (GPa) = 27.19439 40.55688 33.87563
#
# Velocity S-wave (km/s) = 3.53441 4.31628 3.94477
# Velocity P-wave (km/s) = 5.42875 7.08060 6.30897
#
# Compressibility (1/GPa) = 0.03584503
#
# Stress axis : x y z
#
# Youngs Moduli (GPa) = 110.72822 32.43673 108.75255
#
# Poissons Ratio (x) = 0.12336 0.23191
# Poissons Ratio (y) = 0.42111 0.07283
# Poissons Ratio (z) = 0.23612 0.02172
#
# Static dielectric constant tensor:
#      x y z
#    x 3.811910 0.443020 -0.236370 
#    y 0.443020 3.376200 0.332630 
#    z -0.236370 0.332630 3.431300 
# 
# 
# High freq. dielectric constant tensor:
#      x y z
#    x 1.867550 -0.002170 -0.004140 
#    y -0.002170 1.859440 -0.017770 
#    z -0.004140 -0.017770 1.865530 
# 
# From -- ./inp_files/407522.got.cif
#   From: 2010.06.25/outbox.cif.g09.slc.cpg/sg2_204_cif.got.tgz:407522.got - 2010.06.27 13:26:56.
