data_PCOD8013363
_publ_section_title
;
Structure prediction by ZEFSAII (Michael W. Deem and Ramdas Pophale) SiO2 
 PCOD8013363
Probable space group: P -1
;
_chemical_formula_sum "Si O2"
_cell_formula_units_Z 16
_cell_length_a 9.050390
_cell_length_b 8.913623
_cell_length_c 14.365220
_cell_angle_alpha 61.910813
_cell_angle_beta 78.852628
_cell_angle_gamma 118.860686
_cell_volume 751.093152
_symmetry_space_group_name_H-M "P -1"
_symmetry_group_IT_number 2
_symmetry_cell_setting 'triclinic'
loop_
_space_group_symop_operation_xyz
x,y,z
-x,-y,-z
loop_
_atom_site_type_symbol
_atom_site_label
_atom_site_fract_x
_atom_site_fract_y
_atom_site_fract_z
Si Si1 0.779180 0.148342 0.111188
Si Si2 0.179466 0.518165 0.867833
Si Si3 0.718637 0.243331 0.406952
Si Si4 0.005028 0.065390 0.231329
Si Si5 0.635680 0.653606 0.023644
Si Si6 0.943146 0.779453 0.617303
Si Si7 0.496636 0.664986 0.221940
Si Si8 0.328735 0.426018 0.613118
O O1 0.750339 0.318635 0.099110
O O2 0.861477 0.107281 0.201565
O O3 0.568370 0.906079 0.176403
O O4 0.947578 0.280439 0.970627
O O5 0.208095 0.640926 0.735107
O O6 0.328000 0.471982 0.871531
O O7 0.701452 0.393104 0.433266
O O8 0.877755 0.219476 0.427219
O O9 0.500000 0.000000 0.500000
O O10 0.100189 0.209287 0.272511
O O11 0.876443 0.799313 0.340569
O O12 0.161505 0.129762 0.112844
O O13 0.537402 0.710261 0.092089
O O14 0.500000 0.500000 0.000000
O O15 0.738810 0.545341 0.668893
O O16 0.000000 0.000000 0.500000
O O17 0.625665 0.619314 0.276734
O O18 0.500000 0.500000 0.500000
#
# Coordination Sequence:
#
# PCOD8013363 Si02
#       8
#     2   2   2   2   2   2   2   2
#     4   9  21  39  69  93 130 168 216 280 322 401
#     4  10  21  41  64  98 127 174 229 264 331 405
#     4  12  25  42  70  96 128 181 233 270 329 410
#     4  10  21  40  67  92 132 173 218 272 333 401
#     4  11  22  39  65  99 134 174 214 272 343 395
#     4  12  25  45  66  99 138 178 220 283 342 394
#     4  11  23  41  68 100 134 172 219 279 346 389
#     4  11  24  44  68  97 129 177 231 278 324 403
#
# _framework density 21.302284
#
# number of rings (size 3 to 8) (size 9 to 14) (size 15 to 20)
#    0.000    1.250    3.750    2.250    3.500    1.500 
#    2.250    3.750    0.000    0.000    0.000    0.000 
#    0.000    0.000    0.000    0.000    0.000    0.000 
#
# Total GULP energy -198296.354414 kJ/mol
# GULP energy per Si atom -12393.522151 kJ/mol
# Density = 2.125380 g / cm^3
# Si number density = 21.302284 Si / 1000 Ang^3
#
#
#
# Elastic Constant Matrix: (Units=GPa)
#
#
# Indices 1 2 3 4 5 6 
#
# 1 84.9805 30.5569 33.9941 -13.1920 -9.7423 -5.2596
# 2 30.5569 113.6460 46.4625 -22.9156 -11.7247 4.0121
# 3 33.9941 46.4625 103.4122 -14.3270 -0.5877 -1.0630
# 4 -13.1920 -22.9156 -14.3270 51.3970 4.7221 -5.8922
# 5 -9.7423 -11.7247 -0.5877 4.7221 24.5679 -1.7260
# 6 -5.2596 4.0121 -1.0630 -5.8922 -1.7260 35.1011
#
#
#
# Elastic Compliance Matrix: (Units=1/GPa)
#
#
# Indices 1 2 3 4 5 6 
#
# 1 0.014933 -0.001659 -0.003843 0.001903 0.004874 0.002870
# 2 -0.001659 0.012220 -0.004480 0.003256 0.004370 -0.001020
# 3 -0.003843 -0.004480 0.013071 0.001021 -0.003522 0.000330
# 4 0.001903 0.003256 0.001021 0.022249 -0.001691 0.003596
# 5 0.004874 0.004370 -0.003522 -0.001691 0.045107 0.002058
# 6 0.002870 -0.001020 0.000330 0.003596 0.002058 0.029750
#
#
# Mechanical properties :
#
#
# Convention : Reuss Voigt Hill
#
# Bulk Modulus (GPa) = 49.35508 58.22954 53.79231
# Shear Modulus (GPa) = 30.47933 34.94821 32.71377
#
# Velocity S-wave (km/s) = 3.78670 4.05481 3.92304
# Velocity P-wave (km/s) = 6.50676 7.02255 6.76957
#
# Compressibility (1/GPa) = 0.02026134
#
# Stress axis : x y z
#
# Youngs Moduli (GPa) = 66.96655 81.83330 76.50657
#
# Poissons Ratio (x) = 0.13575 0.29398
# Poissons Ratio (y) = 0.11109 0.34273
# Poissons Ratio (z) = 0.25733 0.36659
#
# Static dielectric constant tensor:
#      x y z
#    x 3.586520 0.232260 -0.614810 
#    y 0.232260 3.741980 0.077220 
#    z -0.614810 0.077220 4.513440 
# 
# 
# High freq. dielectric constant tensor:
#      x y z
#    x 1.812270 -0.002820 -0.005080 
#    y -0.002820 1.840680 -0.004610 
#    z -0.005080 -0.004610 1.849510 
# 
# From -- ./inp_files/223493.got.cif
#   From: 2010.06.25/outbox.cif.g09.slc.cpg/sg2_112_cif.got.tgz:223493.got - 2010.06.27 13:26:56.
