data_PCOD8013955
_publ_section_title
;
Structure prediction by ZEFSAII (Michael W. Deem and Ramdas Pophale) SiO2 
 PCOD8013955
Probable space group: P -1
;
_chemical_formula_sum "Si O2"
_cell_formula_units_Z 14
_cell_length_a 13.822623
_cell_length_b 11.283330
_cell_length_c 10.477625
_cell_angle_alpha 45.700947
_cell_angle_beta 151.599007
_cell_angle_gamma 132.856133
_cell_volume 545.794962
_symmetry_space_group_name_H-M "P -1"
_symmetry_group_IT_number 2
_symmetry_cell_setting 'triclinic'
loop_
_space_group_symop_operation_xyz
x,y,z
-x,-y,-z
loop_
_atom_site_type_symbol
_atom_site_label
_atom_site_fract_x
_atom_site_fract_y
_atom_site_fract_z
Si Si1 0.713636 0.728303 0.790776
Si Si2 0.481932 0.133360 0.042519
Si Si3 0.947337 0.462388 0.167041
Si Si4 0.859371 0.106957 0.664415
Si Si5 0.803219 0.687894 0.253636
Si Si6 0.411357 0.761355 0.189473
Si Si7 0.681653 0.337115 0.461048
O O1 0.579637 0.715706 0.515285
O O2 0.559259 0.710373 0.746628
O O3 0.875193 0.909529 0.849877
O O4 0.831451 0.573356 0.043440
O O5 0.371731 0.220181 0.960451
O O6 0.497289 0.238660 0.849157
O O7 0.711148 0.118016 0.363949
O O8 0.353831 0.942764 0.016833
O O9 0.005216 0.303369 0.430720
O O10 0.169787 0.589557 0.298832
O O11 0.800701 0.383261 0.939605
O O12 0.754901 0.172714 0.617242
O O13 0.091240 0.218845 0.822077
O O14 0.709576 0.487533 0.273390
#
# Coordination Sequence:
#
# PCOD8013955 Si02
#       7
#     2   2   2   2   2   2   2
#     4  11  24  42  64  93 129 168 201 258 317 365
#     4  10  21  41  63  97 124 160 211 259 312 360
#     4  10  23  41  60  94 129 158 211 251 311 374
#     4  11  23  43  67  93 124 163 215 260 301 373
#     4  10  23  40  65  94 123 165 208 253 315 361
#     4  10  21  41  65  90 130 163 205 260 307 375
#     4  10  24  41  65  95 123 168 208 253 320 360
#
# _framework density 25.650658
#
# number of rings (size 3 to 8) (size 9 to 14) (size 15 to 20)
#    0.857    0.857    1.429    2.143    0.000    5.714 
#    2.571    0.000    0.000    0.000    0.000    0.000 
#    0.000    0.000    0.000    0.000    0.000    0.000 
#
# Total GULP energy -173504.227934 kJ/mol
# GULP energy per Si atom -12393.159138 kJ/mol
# Density = 2.559228 g / cm^3
# Si number density = 25.650658 Si / 1000 Ang^3
#
#
#
# Elastic Constant Matrix: (Units=GPa)
#
#
# Indices 1 2 3 4 5 6 
#
# 1 61.9642 -0.3405 12.9194 -14.2866 8.9007 9.6288
# 2 -0.3405 118.0251 28.5040 21.9300 16.1976 4.6438
# 3 12.9194 28.5040 82.8637 -4.6180 17.1391 12.6250
# 4 -14.2866 21.9300 -4.6180 52.5473 -0.2803 8.7353
# 5 8.9007 16.1976 17.1391 -0.2803 43.0906 -1.9043
# 6 9.6288 4.6438 12.6250 8.7353 -1.9043 29.0407
#
#
#
# Elastic Compliance Matrix: (Units=1/GPa)
#
#
# Indices 1 2 3 4 5 6 
#
# 1 0.019747 -0.000189 -0.000455 0.006822 -0.004164 -0.008644
# 2 -0.000189 0.010550 -0.003554 -0.004989 -0.002490 0.001258
# 3 -0.000455 -0.003554 0.015831 0.004004 -0.005181 -0.007707
# 4 0.006822 -0.004989 0.004004 0.025116 -0.001443 -0.010855
# 5 -0.004164 -0.002490 -0.005181 -0.001443 0.027331 0.006257
# 6 -0.008644 0.001258 -0.007707 -0.010855 0.006257 0.044125
#
#
# Mechanical properties :
#
#
# Convention : Reuss Voigt Hill
#
# Bulk Modulus (GPa) = 26.50410 38.33542 32.41976
# Shear Modulus (GPa) = 30.54871 39.72039 35.13455
#
# Velocity S-wave (km/s) = 3.45476 3.93938 3.70501
# Velocity P-wave (km/s) = 5.12533 5.97238 5.56499
#
# Compressibility (1/GPa) = 0.03773001
#
# Stress axis : x y z
#
# Youngs Moduli (GPa) = 50.64154 94.78851 63.16865
#
# Poissons Ratio (x) = 0.01793 0.02874
# Poissons Ratio (y) = 0.00958 0.22452
# Poissons Ratio (z) = 0.02304 0.33691
#
# Static dielectric constant tensor:
#      x y z
#    x 4.085710 0.055320 -0.109750 
#    y 0.055320 4.830970 0.239840 
#    z -0.109750 0.239840 4.855030 
# 
# 
# High freq. dielectric constant tensor:
#      x y z
#    x 1.993070 0.000290 -0.008610 
#    y 0.000290 2.039300 0.017250 
#    z -0.008610 0.017250 2.058580 
# 
# From -- ./inp_files/449829.got.cif
#   From: 2010.06.25/outbox.cif.g09.slc.cpg/sg2_225_cif.got.tgz:449829.got - 2010.06.27 13:26:56.
