data_PCOD8013924
_publ_section_title
;
Structure prediction by ZEFSAII (Michael W. Deem and Ramdas Pophale) SiO2 
 PCOD8013924
Probable space group: P -1
;
_chemical_formula_sum "Si O2"
_cell_formula_units_Z 14
_cell_length_a 8.541130
_cell_length_b 14.245181
_cell_length_c 10.682564
_cell_angle_alpha 145.729791
_cell_angle_beta 66.601807
_cell_angle_gamma 124.400827
_cell_volume 597.031881
_symmetry_space_group_name_H-M "P -1"
_symmetry_group_IT_number 2
_symmetry_cell_setting 'triclinic'
loop_
_space_group_symop_operation_xyz
x,y,z
-x,-y,-z
loop_
_atom_site_type_symbol
_atom_site_label
_atom_site_fract_x
_atom_site_fract_y
_atom_site_fract_z
Si Si1 0.533331 0.588220 0.949152
Si Si2 0.413348 0.074919 0.827984
Si Si3 0.273293 0.016920 0.255080
Si Si4 0.968057 0.283889 0.509930
Si Si5 0.066374 0.349513 0.079347
Si Si6 0.854534 0.721565 0.305426
Si Si7 0.349389 0.284389 0.309465
O O1 0.536727 0.792909 0.166994
O O2 0.741493 0.614609 0.866054
O O3 0.500000 0.500000 0.000000
O O4 0.355130 0.442085 0.762112
O O5 0.594096 0.046714 0.778949
O O6 0.237481 0.874361 0.640566
O O7 0.366702 0.193455 0.075492
O O8 0.164132 0.085342 0.467382
O O9 0.392127 0.177682 0.293704
O O10 0.114612 0.843054 0.033706
O O11 0.987243 0.272272 0.640534
O O12 0.133583 0.257300 0.357375
O O13 0.982371 0.483126 0.689348
O O14 0.092111 0.326395 0.898170
O O15 0.500000 0.500000 0.500000
#
# Coordination Sequence:
#
# PCOD8013924 Si02
#       7
#     2   2   2   2   2   2   2
#     4  10  22  41  65  94 129 168 214 266 318 378
#     4  12  24  43  66  96 133 171 214 266 321 384
#     4  11  23  41  67  97 125 169 218 266 323 383
#     4  11  24  40  64  97 129 172 216 263 323 384
#     4  11  22  41  64  94 131 170 216 268 320 380
#     4  10  21  41  63  93 132 171 213 266 321 380
#     4  11  24  45  68  93 127 169 217 271 323 381
#
# _framework density 23.449334
#
# number of rings (size 3 to 8) (size 9 to 14) (size 15 to 20)
#    0.000    1.143    0.000    7.714    0.000    2.286 
#    0.000    8.571    0.000    0.000    0.000    0.000 
#    0.000    0.000    0.000    0.000    0.000    0.000 
#
# Total GULP energy -173592.816018 kJ/mol
# GULP energy per Si atom -12399.486858 kJ/mol
# Density = 2.339596 g / cm^3
# Si number density = 23.449334 Si / 1000 Ang^3
#
#
#
# Elastic Constant Matrix: (Units=GPa)
#
#
# Indices 1 2 3 4 5 6 
#
# 1 120.8257 22.4047 24.3905 23.0851 -14.6980 5.5300
# 2 22.4047 88.4337 27.6148 23.2956 -6.3777 -11.1471
# 3 24.3905 27.6148 120.3979 32.1443 -2.8502 -0.8218
# 4 23.0851 23.2956 32.1443 39.2823 -5.8945 0.7310
# 5 -14.6980 -6.3777 -2.8502 -5.8945 45.8231 13.0833
# 6 5.5300 -11.1471 -0.8218 0.7310 13.0833 30.0558
#
#
#
# Elastic Compliance Matrix: (Units=1/GPa)
#
#
# Indices 1 2 3 4 5 6 
#
# 1 0.010042 -0.001575 -0.000578 -0.003884 0.003584 -0.003913
# 2 -0.001575 0.014662 -0.001116 -0.007170 -0.001294 0.006435
# 3 -0.000578 -0.001116 0.010789 -0.007965 -0.000852 0.000552
# 4 -0.003884 -0.007170 -0.007965 0.039142 0.003637 -0.004698
# 5 0.003584 -0.001294 -0.000852 0.003637 0.026909 -0.012964
# 6 -0.003913 0.006435 0.000552 -0.004698 -0.012964 0.042151
#
#
# Mechanical properties :
#
#
# Convention : Reuss Voigt Hill
#
# Bulk Modulus (GPa) = 34.53785 53.16416 43.85100
# Shear Modulus (GPa) = 31.27238 40.04873 35.66056
#
# Velocity S-wave (km/s) = 3.65583 4.13714 3.90391
# Velocity P-wave (km/s) = 5.70796 6.74851 6.24993
#
# Compressibility (1/GPa) = 0.02895374
#
# Stress axis : x y z
#
# Youngs Moduli (GPa) = 99.57906 68.20313 92.68666
#
# Poissons Ratio (x) = 0.10745 0.05357
# Poissons Ratio (y) = 0.15689 0.10347
# Poissons Ratio (z) = 0.05756 0.07614
#
# Static dielectric constant tensor:
#      x y z
#    x 4.504550 0.198540 0.117140 
#    y 0.198540 4.361810 0.344970 
#    z 0.117140 0.344970 4.487000 
# 
# 
# High freq. dielectric constant tensor:
#      x y z
#    x 1.939450 0.004930 -0.000010 
#    y 0.004930 1.923330 0.022860 
#    z -0.000010 0.022860 1.935570 
# 
# From -- ./inp_files/306810.got.cif
#   From: 2010.06.25/outbox.cif.g09.slc.cpg/sg2_154_cif.got.tgz:306810.got - 2010.06.27 13:26:56.
