data_PCOD8013935
_publ_section_title
;
Structure prediction by ZEFSAII (Michael W. Deem and Ramdas Pophale) SiO2 
 PCOD8013935
Probable space group: P -1
;
_chemical_formula_sum "Si O2"
_cell_formula_units_Z 16
_cell_length_a 12.498436
_cell_length_b 6.930682
_cell_length_c 14.247171
_cell_angle_alpha 115.430537
_cell_angle_beta 47.180375
_cell_angle_gamma 88.966732
_cell_volume 722.537176
_symmetry_space_group_name_H-M "P -1"
_symmetry_group_IT_number 2
_symmetry_cell_setting 'triclinic'
loop_
_space_group_symop_operation_xyz
x,y,z
-x,-y,-z
loop_
_atom_site_type_symbol
_atom_site_label
_atom_site_fract_x
_atom_site_fract_y
_atom_site_fract_z
Si Si1 0.387041 0.018529 0.278793
Si Si2 0.503698 0.412200 0.280964
Si Si3 0.900156 0.879603 0.394263
Si Si4 0.239051 0.834420 0.639230
Si Si5 0.166757 0.002974 0.243403
Si Si6 0.034651 0.323518 0.213347
Si Si7 0.424587 0.501996 0.944373
Si Si8 0.182316 0.962305 0.899254
O O1 0.426092 0.236966 0.315693
O O2 0.272617 0.006946 0.426669
O O3 0.289931 0.045464 0.245665
O O4 0.559664 0.766931 0.128353
O O5 0.410993 0.652751 0.449517
O O6 0.476657 0.469565 0.198219
O O7 0.697784 0.282323 0.165950
O O8 0.002545 0.022200 0.396259
O O9 0.002840 0.595955 0.292466
O O10 0.864716 0.934425 0.316182
O O11 0.268799 0.942021 0.741843
O O12 0.136405 0.689760 0.693501
O O13 0.127917 0.199457 0.227327
O O14 0.244118 0.730744 0.096527
O O15 0.156158 0.192694 0.025522
O O16 0.500000 0.500000 0.000000
O O17 0.000000 0.000000 0.000000
#
# Coordination Sequence:
#
# PCOD8013935 Si02
#       8
#     2   2   2   2   2   2   2   2
#     4  11  24  40  64  98 129 171 214 257 319 384
#     4  12  22  43  70  92 132 169 212 266 318 385
#     4  11  22  40  64  93 135 166 216 260 311 384
#     4  10  22  42  64  93 126 170 214 270 320 368
#     4  10  23  39  63  93 133 172 209 261 315 377
#     4  10  21  41  63  95 128 171 217 259 317 384
#     4  10  23  41  63  95 131 170 209 259 316 376
#     4  10  23  43  69  93 125 168 216 269 329 374
#
# _framework density 22.144188
#
# number of rings (size 3 to 8) (size 9 to 14) (size 15 to 20)
#    0.000    1.500    3.750    0.750    1.750    5.000 
#    0.000    3.125    0.000    0.000    0.000    0.000 
#    0.000    0.000    0.000    0.000    0.000    0.000 
#
# Total GULP energy -198251.826422 kJ/mol
# GULP energy per Si atom -12390.739151 kJ/mol
# Density = 2.209379 g / cm^3
# Si number density = 22.144188 Si / 1000 Ang^3
#
#
#
# Elastic Constant Matrix: (Units=GPa)
#
#
# Indices 1 2 3 4 5 6 
#
# 1 81.5112 44.0238 36.4075 -3.5228 -2.0015 -19.6317
# 2 44.0238 109.5215 33.8375 11.8537 -0.2111 -20.5085
# 3 36.4075 33.8375 112.5337 -0.4613 13.1413 -15.6953
# 4 -3.5228 11.8537 -0.4613 34.2885 -5.4272 -5.1022
# 5 -2.0015 -0.2111 13.1413 -5.4272 29.7972 -3.4193
# 6 -19.6317 -20.5085 -15.6953 -5.1022 -3.4193 29.4794
#
#
#
# Elastic Compliance Matrix: (Units=1/GPa)
#
#
# Indices 1 2 3 4 5 6 
#
# 1 0.019568 -0.005659 -0.004004 0.006002 0.005120 0.008596
# 2 -0.005659 0.013089 -0.001611 -0.004577 0.000013 0.003689
# 3 -0.004004 -0.001611 0.011509 -0.000273 -0.005212 0.001689
# 4 0.006002 -0.004577 -0.000273 0.033635 0.007461 0.007354
# 5 0.005120 0.000013 -0.005212 0.007461 0.038293 0.006376
# 6 0.008596 0.003689 0.001689 0.007354 0.006376 0.045124
#
#
# Mechanical properties :
#
#
# Convention : Reuss Voigt Hill
#
# Bulk Modulus (GPa) = 46.25384 59.12266 52.68825
# Shear Modulus (GPa) = 26.18183 31.33286 28.75734
#
# Velocity S-wave (km/s) = 3.44224 3.76566 3.60758
# Velocity P-wave (km/s) = 6.06066 6.75750 6.41854
#
# Compressibility (1/GPa) = 0.02161983
#
# Stress axis : x y z
#
# Youngs Moduli (GPa) = 51.10326 76.39896 86.88946
#
# Poissons Ratio (x) = 0.43234 0.34787
# Poissons Ratio (y) = 0.28919 0.13995
# Poissons Ratio (z) = 0.20460 0.12305
#
# Static dielectric constant tensor:
#      x y z
#    x 3.864890 -0.326990 0.074470 
#    y -0.326990 3.859480 0.114050 
#    z 0.074470 0.114050 4.518030 
# 
# 
# High freq. dielectric constant tensor:
#      x y z
#    x 1.857400 -0.026200 0.001570 
#    y -0.026200 1.861680 0.005170 
#    z 0.001570 0.005170 1.889840 
# 
# From -- ./inp_files/38052.got.cif
#   From: 2010.06.25/outbox.cif.g09.slc.cpg/sg2_20_cif.got.tgz:38052.got - 2010.06.27 13:26:56.
