data_PCOD8013760
_publ_section_title
;
Structure prediction by ZEFSAII (Michael W. Deem and Ramdas Pophale) SiO2 
 PCOD8013760
Probable space group: P -1
;
_chemical_formula_sum "Si O2"
_cell_formula_units_Z 16
_cell_length_a 15.664572
_cell_length_b 9.446335
_cell_length_c 7.747722
_cell_angle_alpha 128.667717
_cell_angle_beta 93.469628
_cell_angle_gamma 115.614679
_cell_volume 712.616470
_symmetry_space_group_name_H-M "P -1"
_symmetry_group_IT_number 2
_symmetry_cell_setting 'triclinic'
loop_
_space_group_symop_operation_xyz
x,y,z
-x,-y,-z
loop_
_atom_site_type_symbol
_atom_site_label
_atom_site_fract_x
_atom_site_fract_y
_atom_site_fract_z
Si Si1 0.194395 0.032491 0.808129
Si Si2 0.531996 0.230482 0.096892
Si Si3 0.798365 0.211083 0.686278
Si Si4 0.738766 0.596426 0.525986
Si Si5 0.119116 0.329224 0.110783
Si Si6 0.584974 0.580072 0.764242
Si Si7 0.452787 0.134155 0.633871
Si Si8 0.872473 0.102700 0.927835
O O1 0.153063 0.856152 0.510311
O O2 0.167977 0.899175 0.886243
O O3 0.135727 0.152757 0.893785
O O4 0.322470 0.217747 0.945083
O O5 0.663294 0.400137 0.225875
O O6 0.481072 0.339024 0.277569
O O7 0.478406 0.202852 0.887413
O O8 0.500000 0.000000 0.000000
O O9 0.828497 0.457039 0.844542
O O10 0.672185 0.027689 0.547297
O O11 0.855454 0.244484 0.901511
O O12 0.823588 0.578867 0.624100
O O13 0.647976 0.535498 0.605467
O O14 0.801540 0.846875 0.645114
O O15 0.994806 0.201076 0.027938
O O16 0.504180 0.356059 0.694421
O O17 0.500000 0.000000 0.500000
#
# Coordination Sequence:
#
# PCOD8013760 Si02
#       8
#     2   2   2   2   2   2   2   2
#     4  10  23  43  69  94 136 175 219 276 335 396
#     4  12  23  36  61  96 126 169 217 258 326 403
#     4  12  24  43  70  97 135 175 225 274 336 398
#     4  10  22  41  67  90 129 171 213 271 329 391
#     4  10  22  46  67  97 136 169 226 287 328 390
#     4  10  21  41  61  87 135 170 210 267 328 391
#     4  12  25  42  64  94 137 174 216 271 330 400
#     4  10  23  44  71  96 131 175 225 279 336 389
#
# _framework density 22.452470999999999
#
# number of rings (size 3 to 8) (size 9 to 14) (size 15 to 20)
#    0.000    1.500    1.250    6.375    1.750    4.000 
#    0.000    1.250    0.000    0.000    0.000    0.000 
#    0.000    0.000    0.000    0.000    0.000    0.000 
#
# Total GULP energy -198338.194978 kJ/mol
# GULP energy per Si atom -12396.137186 kJ/mol
# Density = 2.240137 g / cm^3
# Si number density = 22.452471 Si / 1000 Ang^3
#
#
#
# Elastic Constant Matrix: (Units=GPa)
#
#
# Indices 1 2 3 4 5 6 
#
# 1 109.5785 29.4919 35.2788 -6.3555 19.8306 -10.5002
# 2 29.4919 115.7811 14.9900 2.4800 -3.4107 -17.9532
# 3 35.2788 14.9900 51.9593 -4.3955 10.4593 0.6332
# 4 -6.3555 2.4800 -4.3955 26.8777 -0.6097 4.9716
# 5 19.8306 -3.4107 10.4593 -0.6097 38.4219 6.4805
# 6 -10.5002 -17.9532 0.6332 4.9716 6.4805 39.3015
#
#
#
# Elastic Compliance Matrix: (Units=1/GPa)
#
#
# Indices 1 2 3 4 5 6 
#
# 1 0.013523 -0.002150 -0.007328 0.001417 -0.005746 0.003517
# 2 -0.002150 0.010210 -0.002123 -0.002521 0.001856 0.004136
# 3 -0.007328 -0.002123 0.025709 0.003212 -0.002800 -0.003286
# 4 0.001417 -0.002521 0.003212 0.039360 -0.000232 -0.005765
# 5 -0.005746 0.001856 -0.002800 -0.000232 0.030878 -0.005704
# 6 0.003517 0.004136 -0.003286 -0.005765 -0.005704 0.029996
#
#
# Mechanical properties :
#
#
# Convention : Reuss Voigt Hill
#
# Bulk Modulus (GPa) = 38.10960 48.53780 43.32370
# Shear Modulus (GPa) = 27.52959 34.09077 30.81018
#
# Velocity S-wave (km/s) = 3.50541 3.90083 3.70839
# Velocity P-wave (km/s) = 5.77877 6.47716 6.13791
#
# Compressibility (1/GPa) = 0.02624011
#
# Stress axis : x y z
#
# Youngs Moduli (GPa) = 73.94938 97.94726 38.89726
#
# Poissons Ratio (x) = 0.21060 0.28502
# Poissons Ratio (y) = 0.15900 0.08257
# Poissons Ratio (z) = 0.54187 0.20793
#
# Static dielectric constant tensor:
#      x y z
#    x 4.033260 -0.109300 0.326100 
#    y -0.109300 4.116030 -0.062940 
#    z 0.326100 -0.062940 4.510040 
# 
# 
# High freq. dielectric constant tensor:
#      x y z
#    x 1.892930 -0.009130 0.017590 
#    y -0.009130 1.884220 0.007550 
#    z 0.017590 0.007550 1.884980 
# 
# From -- ./inp_files/299750.got.cif
#   From: 2010.06.25/outbox.cif.g09.slc.cpg/sg2_150_cif.got.tgz:299750.got - 2010.06.27 13:26:56.
