data_PCOD8013681
_publ_section_title
;
Structure prediction by ZEFSAII (Michael W. Deem and Ramdas Pophale) SiO2 
 PCOD8013681
Probable space group: P -1
;
_chemical_formula_sum "Si O2"
_cell_formula_units_Z 14
_cell_length_a 9.619177
_cell_length_b 9.431466
_cell_length_c 8.797183
_cell_angle_alpha 68.474409
_cell_angle_beta 108.729242
_cell_angle_gamma 113.335103
_cell_volume 667.124759
_symmetry_space_group_name_H-M "P -1"
_symmetry_group_IT_number 2
_symmetry_cell_setting 'triclinic'
loop_
_space_group_symop_operation_xyz
x,y,z
-x,-y,-z
loop_
_atom_site_type_symbol
_atom_site_label
_atom_site_fract_x
_atom_site_fract_y
_atom_site_fract_z
Si Si1 0.730095 0.567836 0.133254
Si Si2 0.561792 0.890771 0.453576
Si Si3 0.890334 0.105999 0.423367
Si Si4 0.410914 0.411692 0.237741
Si Si5 0.030798 0.665905 0.362491
Si Si6 0.694730 0.315681 0.768965
Si Si7 0.128232 0.646203 0.903193
O O1 0.585327 0.518008 0.215444
O O2 0.783918 0.413773 0.176950
O O3 0.876700 0.691167 0.222432
O O4 0.690017 0.638860 0.932371
O O5 0.592929 0.749566 0.616447
O O6 0.444135 0.820267 0.303182
O O7 0.500000 0.000000 0.500000
O O8 0.715066 0.995811 0.381069
O O9 0.899560 0.187024 0.558739
O O10 0.945363 0.231594 0.253279
O O11 0.000000 0.000000 0.500000
O O12 0.343539 0.517357 0.286618
O O13 0.151392 0.655365 0.283341
O O14 0.000000 0.500000 0.500000
O O15 0.737015 0.258091 0.970455
O O16 0.000000 0.500000 0.000000
#
# Coordination Sequence:
#
# PCOD8013681 Si02
#       7
#     2   2   2   2   2   2   2
#     4  10  21  40  71  99 128 169 236 275 314 391
#     4  12  25  45  62  94 146 171 212 279 348 391
#     4  12  29  43  66 104 139 174 218 282 343 391
#     4  10  24  41  69 101 130 175 230 274 326 398
#     4  12  22  42  71  97 132 176 228 269 330 401
#     4  11  24  42  72  96 124 186 227 268 327 402
#     4  11  22  45  72  97 133 176 229 272 329 402
#
# _framework density 20.985579000000001
#
# number of rings (size 3 to 8) (size 9 to 14) (size 15 to 20)
#    0.000    0.857    4.286    2.143    8.000    0.571 
#    2.571    1.429    0.000    0.000    0.000    0.000 
#    0.000    0.000    0.000    0.000    0.000    0.000 
#
# Total GULP energy -173586.039432 kJ/mol
# GULP energy per Si atom -12399.002817 kJ/mol
# Density = 2.093781 g / cm^3
# Si number density = 20.985579 Si / 1000 Ang^3
#
#
#
# Elastic Constant Matrix: (Units=GPa)
#
#
# Indices 1 2 3 4 5 6 
#
# 1 115.7125 37.6267 42.5729 -9.4326 13.5347 2.1735
# 2 37.6267 96.9504 64.5814 5.7946 9.9694 -1.9326
# 3 42.5729 64.5814 125.0392 3.2974 20.3593 5.5073
# 4 -9.4326 5.7946 3.2974 35.5519 7.1147 9.8183
# 5 13.5347 9.9694 20.3593 7.1147 33.2462 5.0851
# 6 2.1735 -1.9326 5.5073 9.8183 5.0851 47.3322
#
#
#
# Elastic Compliance Matrix: (Units=1/GPa)
#
#
# Indices 1 2 3 4 5 6 
#
# 1 0.011058 -0.003118 -0.001684 0.004552 -0.003353 -0.001023
# 2 -0.003118 0.016928 -0.007931 -0.003810 0.001500 0.002386
# 3 -0.001684 -0.007931 0.013557 0.001045 -0.005236 -0.001478
# 4 0.004552 -0.003810 0.001045 0.033162 -0.007443 -0.006565
# 5 -0.003353 0.001500 -0.005236 -0.007443 0.036023 -0.001502
# 6 -0.001023 0.002386 -0.001478 -0.006565 -0.001502 0.022967
#
#
# Mechanical properties :
#
#
# Convention : Reuss Voigt Hill
#
# Bulk Modulus (GPa) = 62.19230 69.69600 65.94415
# Shear Modulus (GPa) = 30.39162 36.08748 33.23955
#
# Velocity S-wave (km/s) = 3.80967 4.15134 3.98417
# Velocity P-wave (km/s) = 7.00368 7.50078 7.25649
#
# Compressibility (1/GPa) = 0.01607916
#
# Stress axis : x y z
#
# Youngs Moduli (GPa) = 90.43352 59.07210 73.76286
#
# Poissons Ratio (x) = 0.18417 0.12419
# Poissons Ratio (y) = 0.28194 0.58499
# Poissons Ratio (z) = 0.15226 0.46848
#
# Static dielectric constant tensor:
#      x y z
#    x 4.027010 -0.003170 0.229560 
#    y -0.003170 3.566640 0.149610 
#    z 0.229560 0.149610 4.029040 
# 
# 
# High freq. dielectric constant tensor:
#      x y z
#    x 1.840930 -0.002640 0.008810 
#    y -0.002640 1.805110 0.021000 
#    z 0.008810 0.021000 1.834980 
# 
# From -- ./inp_files/157700.got.cif
#   From: 2010.06.25/outbox.cif.g09.slc.cpg/sg2_79_cif.got.tgz:157700.got - 2010.06.27 13:26:56.
