data_PCOD8013558
_publ_section_title
;
Structure prediction by ZEFSAII (Michael W. Deem and Ramdas Pophale) SiO2 
 PCOD8013558
Probable space group: P -1
;
_chemical_formula_sum "Si O2"
_cell_formula_units_Z 14
_cell_length_a 16.349490
_cell_length_b 13.174356
_cell_length_c 9.128280
_cell_angle_alpha 130.560319
_cell_angle_beta 136.815066
_cell_angle_gamma 27.714153
_cell_volume 625.699187
_symmetry_space_group_name_H-M "P -1"
_symmetry_group_IT_number 2
_symmetry_cell_setting 'triclinic'
loop_
_space_group_symop_operation_xyz
x,y,z
-x,-y,-z
loop_
_atom_site_type_symbol
_atom_site_label
_atom_site_fract_x
_atom_site_fract_y
_atom_site_fract_z
Si Si1 0.544664 0.062948 0.744676
Si Si2 0.006824 0.084443 0.232593
Si Si3 0.872154 0.502818 0.416714
Si Si4 0.143039 0.013947 0.888025
Si Si5 0.810608 0.622903 0.783937
Si Si6 0.280896 0.534828 0.290232
Si Si7 0.317815 0.800492 0.614220
O O1 0.341531 0.307252 0.760435
O O2 0.500000 0.000000 0.500000
O O3 0.652899 0.881731 0.842097
O O4 0.691689 0.049882 0.868201
O O5 0.948282 0.284738 0.297905
O O6 0.860885 0.136996 0.205020
O O7 0.216161 0.908748 0.423599
O O8 0.000000 0.000000 0.000000
O O9 0.866131 0.550914 0.621691
O O10 0.000000 0.500000 0.500000
O O11 0.194402 0.980362 0.750403
O O12 0.931643 0.270297 0.883305
O O13 0.718659 0.569974 0.676333
O O14 0.000000 0.500000 0.000000
O O15 0.329443 0.634926 0.517899
O O16 0.460169 0.338264 0.230315
#
# Coordination Sequence:
#
# PCOD8013558 Si02
#       7
#     2   2   2   2   2   2   2
#     4  10  25  42  65  99 140 187 223 291 364 411
#     4  11  26  42  72 103 141 192 233 286 355 425
#     4  11  27  45  66 102 147 185 233 288 356 427
#     4  11  22  45  70  97 140 175 243 294 347 417
#     4  11  22  42  72  98 135 186 233 289 352 413
#     4  10  21  40  69 103 135 168 233 295 352 404
#     4  10  23  41  71 103 132 177 234 296 350 416
#
# _framework density 22.374969
#
# number of rings (size 3 to 8) (size 9 to 14) (size 15 to 20)
#    0.000    1.429    1.429    3.429    6.000    6.286 
#    0.000    1.429    0.000    0.000    0.000    0.000 
#    0.000    0.000    0.000    0.000    0.000    0.000 
#
# Total GULP energy -173505.189536 kJ/mol
# GULP energy per Si atom -12393.227824 kJ/mol
# Density = 2.232404 g / cm^3
# Si number density = 22.374969 Si / 1000 Ang^3
#
#
#
# Elastic Constant Matrix: (Units=GPa)
#
#
# Indices 1 2 3 4 5 6 
#
# 1 168.8780 83.8995 54.9450 -11.2210 28.0328 8.2747
# 2 83.8995 167.0445 59.1978 -19.6520 19.3388 12.2693
# 3 54.9450 59.1978 118.8419 -14.4077 12.3978 -8.6570
# 4 -11.2210 -19.6520 -14.4077 35.1412 -6.2163 11.0652
# 5 28.0328 19.3388 12.3978 -6.2163 45.2236 -0.0835
# 6 8.2747 12.2693 -8.6570 11.0652 -0.0835 48.0132
#
#
#
# Elastic Compliance Matrix: (Units=1/GPa)
#
#
# Indices 1 2 3 4 5 6 
#
# 1 0.008864 -0.003187 -0.002239 -0.000154 -0.003541 -0.001088
# 2 -0.003187 0.009404 -0.002896 0.003964 -0.000713 -0.003291
# 3 -0.002239 -0.002896 0.011292 0.001349 -0.000279 0.002851
# 4 -0.000154 0.003964 0.001349 0.034390 0.002742 -0.008664
# 5 -0.003541 -0.000713 -0.000279 0.002742 0.025066 0.000154
# 6 -0.001088 -0.003291 0.002851 -0.008664 0.000154 0.024367
#
#
# Mechanical properties :
#
#
# Convention : Reuss Voigt Hill
#
# Bulk Modulus (GPa) = 77.41678 94.53879 85.97778
# Shear Modulus (GPa) = 37.22103 42.79041 40.00572
#
# Velocity S-wave (km/s) = 4.08304 4.37787 4.23302
# Velocity P-wave (km/s) = 7.54342 8.24003 7.89941
#
# Compressibility (1/GPa) = 0.01291710
#
# Stress axis : x y z
#
# Youngs Moduli (GPa) = 112.81519 106.34009 88.55481
#
# Poissons Ratio (x) = 0.33888 0.19830
# Poissons Ratio (y) = 0.35951 0.25642
# Poissons Ratio (z) = 0.25262 0.30792
#
# Static dielectric constant tensor:
#      x y z
#    x 4.346060 0.351030 0.164960 
#    y 0.351030 5.277270 -0.448020 
#    z 0.164960 -0.448020 4.062440 
# 
# 
# High freq. dielectric constant tensor:
#      x y z
#    x 1.881650 0.008040 0.020030 
#    y 0.008040 1.886900 -0.005640 
#    z 0.020030 -0.005640 1.880350 
# 
# From -- ./inp_files/308390.got.cif
#   From: 2010.06.25/outbox.cif.g09.slc.cpg/sg2_155_cif.got.tgz:308390.got - 2010.06.27 13:26:56.
