data_PCOD8013428
_publ_section_title
;
Structure prediction by ZEFSAII (Michael W. Deem and Ramdas Pophale) SiO2 
 PCOD8013428
Probable space group: P -1
;
_chemical_formula_sum "Si O2"
_cell_formula_units_Z 14
_cell_length_a 11.889893
_cell_length_b 11.691123
_cell_length_c 11.449468
_cell_angle_alpha 38.564173
_cell_angle_beta 38.129966
_cell_angle_gamma 51.234228
_cell_volume 612.350204
_symmetry_space_group_name_H-M "P -1"
_symmetry_group_IT_number 2
_symmetry_cell_setting 'triclinic'
loop_
_space_group_symop_operation_xyz
x,y,z
-x,-y,-z
loop_
_atom_site_type_symbol
_atom_site_label
_atom_site_fract_x
_atom_site_fract_y
_atom_site_fract_z
Si Si1 0.906729 0.143319 0.047438
Si Si2 0.477915 0.786873 0.703696
Si Si3 0.207033 0.157634 0.440254
Si Si4 0.431238 0.443613 0.407571
Si Si5 0.777184 0.000737 0.686322
Si Si6 0.555373 0.745753 0.220172
Si Si7 0.946975 0.483821 0.421766
O O1 0.723908 0.230038 0.065193
O O2 0.862814 0.028204 0.292174
O O3 0.024828 0.323735 0.824804
O O4 0.000000 0.000000 0.000000
O O5 0.641766 0.725996 0.705012
O O6 0.472774 0.681617 0.669198
O O7 0.500000 0.000000 0.500000
O O8 0.045867 0.305249 0.428093
O O9 0.292175 0.096010 0.297349
O O10 0.568167 0.589042 0.234941
O O11 0.366364 0.319709 0.667251
O O12 0.265057 0.551884 0.393545
O O13 0.660532 0.193049 0.635780
O O14 0.000000 0.000000 0.500000
O O15 0.700546 0.895661 0.945142
O O16 0.000000 0.500000 0.500000
#
# Coordination Sequence:
#
# PCOD8013428 Si02
#       7
#     2   2   2   2   2   2   2
#     4  11  23  39  63  98 137 183 220 282 357 414
#     4  10  21  40  67  98 138 178 222 288 353 422
#     4  11  24  44  66 102 138 176 237 286 357 422
#     4  11  23  46  69 102 141 181 236 285 356 422
#     4  11  25  48  71 102 138 186 245 289 349 427
#     4  10  25  47  72 100 141 193 230 292 352 419
#     4  12  23  41  66 102 140 177 233 285 349 424
#
# _framework density 22.862735000000001
#
# number of rings (size 3 to 8) (size 9 to 14) (size 15 to 20)
#    0.000    1.143    2.857    3.429    4.000    1.714 
#    2.571    2.143    0.000    0.000    0.000    0.000 
#    0.000    0.000    0.000    0.000    0.000    0.000 
#
# Total GULP energy -173449.418738 kJ/mol
# GULP energy per Si atom -12389.244196 kJ/mol
# Density = 2.281070 g / cm^3
# Si number density = 22.862735 Si / 1000 Ang^3
#
#
#
# Elastic Constant Matrix: (Units=GPa)
#
#
# Indices 1 2 3 4 5 6 
#
# 1 106.1481 38.6102 17.4040 14.0045 2.4583 0.4911
# 2 38.6102 140.0236 26.5431 6.9865 -0.7305 2.8479
# 3 17.4040 26.5431 67.5820 4.1348 0.5551 -11.3217
# 4 14.0045 6.9865 4.1348 38.2535 -6.7838 0.5695
# 5 2.4583 -0.7305 0.5551 -6.7838 27.8789 4.4351
# 6 0.4911 2.8479 -11.3217 0.5695 4.4351 43.7308
#
#
#
# Elastic Compliance Matrix: (Units=1/GPa)
#
#
# Indices 1 2 3 4 5 6 
#
# 1 0.011175 -0.002590 -0.001637 -0.003779 -0.001919 -0.000137
# 2 -0.002590 0.008437 -0.002866 -0.000142 0.000684 -0.001330
# 3 -0.001637 -0.002866 0.017224 -0.001040 -0.001292 0.004809
# 4 -0.003779 -0.000142 -0.001040 0.029038 0.007634 -0.001370
# 5 -0.001919 0.000684 -0.001292 0.007634 0.038636 -0.004375
# 6 -0.000137 -0.001330 0.004809 -0.001370 -0.004375 0.024662
#
#
# Mechanical properties :
#
#
# Convention : Reuss Voigt Hill
#
# Bulk Modulus (GPa) = 44.14995 53.20758 48.67877
# Shear Modulus (GPa) = 33.13315 37.38574 35.25945
#
# Velocity S-wave (km/s) = 3.81099 4.04818 3.93138
# Velocity P-wave (km/s) = 6.22235 6.72112 6.47654
#
# Compressibility (1/GPa) = 0.02265008
#
# Stress axis : x y z
#
# Youngs Moduli (GPa) = 89.48689 118.52821 58.05887
#
# Poissons Ratio (x) = 0.30696 0.09502
# Poissons Ratio (y) = 0.23175 0.16642
# Poissons Ratio (z) = 0.14645 0.33975
#
# Static dielectric constant tensor:
#      x y z
#    x 4.663960 -0.189880 -0.852380 
#    y -0.189880 4.357180 0.009370 
#    z -0.852380 0.009370 5.853040 
# 
# 
# High freq. dielectric constant tensor:
#      x y z
#    x 1.899340 -0.006410 0.000970 
#    y -0.006410 1.921780 -0.000050 
#    z 0.000970 -0.000050 1.888620 
# 
# From -- ./inp_files/424834.got.cif
#   From: 2010.06.25/outbox.cif.g09.slc.cpg/sg2_213_cif.got.tgz:424834.got - 2010.06.27 13:26:56.
