data_PCOD8013260
_publ_section_title
;
Structure prediction by ZEFSAII (Michael W. Deem and Ramdas Pophale) SiO2 
 PCOD8013260
Probable space group: P -1
;
_chemical_formula_sum "Si O2"
_cell_formula_units_Z 12
_cell_length_a 8.868904
_cell_length_b 7.940898
_cell_length_c 17.884470
_cell_angle_alpha 47.395764
_cell_angle_beta 37.191152
_cell_angle_gamma 47.330551
_cell_volume 532.555455
_symmetry_space_group_name_H-M "P -1"
_symmetry_group_IT_number 2
_symmetry_cell_setting 'triclinic'
loop_
_space_group_symop_operation_xyz
x,y,z
-x,-y,-z
loop_
_atom_site_type_symbol
_atom_site_label
_atom_site_fract_x
_atom_site_fract_y
_atom_site_fract_z
Si Si1 0.896636 0.900011 0.339712
Si Si2 0.353686 0.830346 0.775625
Si Si3 0.464604 0.356165 0.392595
Si Si4 0.235891 0.544993 0.043077
Si Si5 0.344295 0.203383 0.778692
Si Si6 0.385331 0.014638 0.122226
O O1 0.809768 0.661112 0.459525
O O2 0.884402 0.982927 0.232590
O O3 0.697937 0.119719 0.400109
O O4 0.198715 0.846283 0.260873
O O5 0.548099 0.654871 0.690685
O O6 0.480310 0.003337 0.722102
O O7 0.255636 0.660817 0.920291
O O8 0.518275 0.589565 0.335761
O O9 0.197044 0.287122 0.123711
O O10 0.969067 0.703344 0.141329
O O11 0.500000 0.500000 0.000000
O O12 0.382569 0.065343 0.884839
O O13 0.500000 0.000000 0.000000
#
# Coordination Sequence:
#
# PCOD8013260 Si02
#       6
#     2   2   2   2   2   2
#     4   9  21  44  65  93 134 164 214 271 318 374
#     4  10  21  40  66  94 127 171 213 263 320 381
#     4   9  21  43  67  91 135 165 213 274 311 378
#     4  12  24  40  61  96 137 161 213 277 310 377
#     4  12  24  41  67  96 128 171 221 259 324 388
#     4  12  25  40  69  97 127 176 211 261 335 381
#
# _framework density 22.532862000000002
#
# number of rings (size 3 to 8) (size 9 to 14) (size 15 to 20)
#    1.000    0.333    3.333    2.500    2.333    3.333 
#    0.000    0.833    3.667    0.000    0.000    0.000 
#    0.000    0.000    0.000    0.000    0.000    0.000 
#
# Total GULP energy -148662.097487 kJ/mol
# GULP energy per Si atom -12388.508124 kJ/mol
# Density = 2.248158 g / cm^3
# Si number density = 22.532862 Si / 1000 Ang^3
#
#
#
# Elastic Constant Matrix: (Units=GPa)
#
#
# Indices 1 2 3 4 5 6 
#
# 1 107.3028 29.4490 37.6250 3.9256 -11.2271 1.7852
# 2 29.4490 61.4250 23.0231 -12.8631 -18.7988 8.0025
# 3 37.6250 23.0231 117.6839 -8.2991 -28.2657 -2.9475
# 4 3.9256 -12.8631 -8.2991 31.4398 1.7968 -7.0905
# 5 -11.2271 -18.7988 -28.2657 1.7968 35.4379 -11.1661
# 6 1.7852 8.0025 -2.9475 -7.0905 -11.1661 30.8079
#
#
#
# Elastic Compliance Matrix: (Units=1/GPa)
#
#
# Indices 1 2 3 4 5 6 
#
# 1 0.012277 -0.006172 -0.003763 -0.005270 -0.002634 -0.001636
# 2 -0.006172 0.024558 0.000603 0.010450 0.011179 0.000493
# 3 -0.003763 0.000603 0.012747 0.004897 0.011070 0.006420
# 4 -0.005270 0.010450 0.004897 0.039889 0.009075 0.010529
# 5 -0.002634 0.011179 0.011070 0.009075 0.047198 0.017503
# 6 -0.001636 0.000493 0.006420 0.010529 0.017503 0.041807
#
#
# Mechanical properties :
#
#
# Convention : Reuss Voigt Hill
#
# Bulk Modulus (GPa) = 32.34316 51.84509 42.09412
# Shear Modulus (GPa) = 24.10242 32.62474 28.36358
#
# Velocity S-wave (km/s) = 3.27411 3.80922 3.55176
# Velocity P-wave (km/s) = 5.35518 6.51195 5.96169
#
# Compressibility (1/GPa) = 0.03091843
#
# Stress axis : x y z
#
# Youngs Moduli (GPa) = 81.45140 40.71920 78.44766
#
# Poissons Ratio (x) = 0.25133 0.29520
# Poissons Ratio (y) = 0.50275 -0.04731
# Poissons Ratio (z) = 0.30650 -0.02456
#
# Static dielectric constant tensor:
#      x y z
#    x 3.960180 0.099320 -0.032950 
#    y 0.099320 4.279770 -0.516960 
#    z -0.032950 -0.516960 4.057660 
# 
# 
# High freq. dielectric constant tensor:
#      x y z
#    x 1.879190 0.002210 -0.003090 
#    y 0.002210 1.879260 -0.024950 
#    z -0.003090 -0.024950 1.882370 
# 
# From -- ./inp_files/318624.got.cif
#   From: 2010.06.25/outbox.cif.g09.slc.cpg/sg2_160_cif.got.tgz:318624.got - 2010.06.27 13:26:56.
