data_PCOD8013238
_publ_section_title
;
Structure prediction by ZEFSAII (Michael W. Deem and Ramdas Pophale) SiO2 
 PCOD8013238
Probable space group: P -1
;
_chemical_formula_sum "Si O2"
_cell_formula_units_Z 14
_cell_length_a 13.014949
_cell_length_b 12.655075
_cell_length_c 18.284228
_cell_angle_alpha 28.998799
_cell_angle_beta 150.944427
_cell_angle_gamma 139.945251
_cell_volume 709.032159
_symmetry_space_group_name_H-M "P -1"
_symmetry_group_IT_number 2
_symmetry_cell_setting 'triclinic'
loop_
_space_group_symop_operation_xyz
x,y,z
-x,-y,-z
loop_
_atom_site_type_symbol
_atom_site_label
_atom_site_fract_x
_atom_site_fract_y
_atom_site_fract_z
Si Si1 0.932811 0.756351 0.622175
Si Si2 0.051241 0.419196 0.000937
Si Si3 0.687888 0.654995 0.396590
Si Si4 0.511753 0.797510 0.423247
Si Si5 0.663355 0.967767 0.557956
Si Si6 0.936699 0.728156 0.359107
Si Si7 0.688603 0.106956 0.908783
O O1 0.877330 0.639910 0.582217
O O2 0.737279 0.745342 0.561849
O O3 0.109899 0.618619 0.860642
O O4 0.000000 0.000000 0.500000
O O5 0.855069 0.292576 0.919899
O O6 0.252851 0.270430 0.226497
O O7 0.000000 0.500000 0.000000
O O8 0.575432 0.423273 0.462097
O O9 0.792558 0.704275 0.354905
O O10 0.524523 0.845813 0.204969
O O11 0.542216 0.971842 0.402030
O O12 0.358802 0.889231 0.209688
O O13 0.500000 0.000000 0.500000
O O14 0.847740 0.147355 0.561852
O O15 0.000000 0.500000 0.500000
O O16 0.789152 0.869650 0.127960
#
# Coordination Sequence:
#
# PCOD8013238 Si02
#       7
#     2   2   2   2   2   2   2
#     4  11  21  36  60  99 126 155 200 260 305 358
#     4  11  20  39  66  92 123 163 206 248 309 367
#     4  11  20  39  67  91 126 155 205 255 307 364
#     4  11  20  42  64  92 126 158 203 256 310 367
#     4  11  24  43  64  87 125 169 208 249 306 370
#     4  11  25  43  61  92 126 162 208 254 304 366
#     4  10  21  40  66  93 122 163 204 249 313 364
#
# _framework density 19.745225999999999
#
# number of rings (size 3 to 8) (size 9 to 14) (size 15 to 20)
#    0.000    1.143    4.286    3.000    2.000    0.000 
#   12.857    2.857    0.000    0.000    0.000    0.000 
#    0.000    0.000    0.000    0.000    0.000    0.000 
#
# Total GULP energy -173552.632046 kJ/mol
# GULP energy per Si atom -12396.616575 kJ/mol
# Density = 1.970028 g / cm^3
# Si number density = 19.745226 Si / 1000 Ang^3
#
#
#
# Elastic Constant Matrix: (Units=GPa)
#
#
# Indices 1 2 3 4 5 6 
#
# 1 122.6395 61.0494 72.6316 1.7853 -10.3301 -6.2455
# 2 61.0494 120.4356 61.8938 -1.9672 -15.8083 -6.5996
# 3 72.6316 61.8938 136.5995 -12.5834 -12.9829 -14.5097
# 4 1.7853 -1.9672 -12.5834 35.0192 -2.4296 -8.0823
# 5 -10.3301 -15.8083 -12.9829 -2.4296 32.8508 1.2298
# 6 -6.2455 -6.5996 -14.5097 -8.0823 1.2298 44.6198
#
#
#
# Elastic Compliance Matrix: (Units=1/GPa)
#
#
# Indices 1 2 3 4 5 6 
#
# 1 0.013598 -0.004027 -0.005854 -0.003310 -0.000176 -0.001190
# 2 -0.004027 0.012421 -0.003134 0.000057 0.003470 0.000169
# 3 -0.005854 -0.003134 0.013009 0.005853 0.002078 0.003951
# 4 -0.003310 0.000057 0.005853 0.032752 0.003449 0.007286
# 5 -0.000176 0.003470 0.002078 0.003449 0.033099 0.000877
# 6 -0.001190 0.000169 0.003951 0.007286 0.000877 0.024850
#
#
# Mechanical properties :
#
#
# Convention : Reuss Voigt Hill
#
# Bulk Modulus (GPa) = 76.92656 85.64716 81.28686
# Shear Modulus (GPa) = 31.23237 34.77128 33.00182
#
# Velocity S-wave (km/s) = 3.98146 4.20098 4.09269
# Velocity P-wave (km/s) = 7.75759 8.18543 7.97438
#
# Compressibility (1/GPa) = 0.01299941
#
# Stress axis : x y z
#
# Youngs Moduli (GPa) = 73.53947 80.51139 76.86830
#
# Poissons Ratio (x) = 0.32422 0.44996
# Poissons Ratio (y) = 0.29614 0.24088
# Poissons Ratio (z) = 0.43048 0.25229
#
# Static dielectric constant tensor:
#      x y z
#    x 3.661620 -0.008830 -0.242440 
#    y -0.008830 3.692100 0.111960 
#    z -0.242440 0.111960 3.920080 
# 
# 
# High freq. dielectric constant tensor:
#      x y z
#    x 1.768070 -0.003970 -0.018970 
#    y -0.003970 1.778230 0.006030 
#    z -0.018970 0.006030 1.768930 
# 
# From -- ./inp_files/150661.got.cif
#   From: 2010.06.25/outbox.cif.g09.slc.cpg/sg2_76_cif.got.tgz:150661.got - 2010.06.27 13:26:56.
