data_PCOD8013701
_publ_section_title
;
Structure prediction by ZEFSAII (Michael W. Deem and Ramdas Pophale) SiO2 
 PCOD8013701
Probable space group: P -1
;
_chemical_formula_sum "Si O2"
_cell_formula_units_Z 16
_cell_length_a 9.033915
_cell_length_b 28.518710
_cell_length_c 11.966676
_cell_angle_alpha 29.541147
_cell_angle_beta 37.276724
_cell_angle_gamma 29.077539
_cell_volume 730.659644
_symmetry_space_group_name_H-M "P -1"
_symmetry_group_IT_number 2
_symmetry_cell_setting 'triclinic'
loop_
_space_group_symop_operation_xyz
x,y,z
-x,-y,-z
loop_
_atom_site_type_symbol
_atom_site_label
_atom_site_fract_x
_atom_site_fract_y
_atom_site_fract_z
Si Si1 0.760136 0.517786 0.790035
Si Si2 0.903608 0.702516 0.087581
Si Si3 0.042897 0.225410 0.666256
Si Si4 0.812697 0.139154 0.801713
Si Si5 0.760291 0.288414 0.929967
Si Si6 0.303979 0.874043 0.544074
Si Si7 0.875880 0.485931 0.215804
Si Si8 0.225309 0.774383 0.585790
O O1 0.566826 0.657604 0.584629
O O2 0.995985 0.428183 0.737312
O O3 0.960556 0.491998 0.832065
O O4 0.500000 0.500000 0.000000
O O5 0.544019 0.803177 0.109593
O O6 0.064868 0.684469 0.145834
O O7 0.016110 0.744762 0.832286
O O8 0.401939 0.126513 0.624068
O O9 0.848936 0.209207 0.730225
O O10 0.986632 0.200216 0.877978
O O11 0.950011 0.357585 0.443817
O O12 0.936337 0.151331 0.584254
O O13 0.000000 0.000000 0.000000
O O14 0.491007 0.411342 0.775283
O O15 0.631211 0.229285 0.198090
O O16 0.270739 0.850347 0.485443
O O17 0.000000 0.000000 0.500000
O O18 0.000000 0.500000 0.000000
#
# Coordination Sequence:
#
# PCOD8013701 Si02
#       8
#     2   2   2   2   2   2   2   2
#     4  10  21  40  73 104 139 179 225 288 351 416
#     4  10  24  45  71 102 139 188 229 284 355 413
#     4  12  27  45  70 106 140 185 233 297 354 408
#     4  12  30  46  68 103 144 187 237 289 343 417
#     4  11  25  45  74 104 145 185 235 292 348 422
#     4  11  25  46  74 100 133 194 238 289 350 417
#     4  12  22  43  70 108 146 176 237 286 357 424
#     4  10  23  47  70 100 137 182 233 286 353 412
#
# _framework density 21.898021
#
# number of rings (size 3 to 8) (size 9 to 14) (size 15 to 20)
#    0.000    1.000    2.500    3.375   10.500    2.500 
#    0.000    0.000    0.000    0.000    0.000    0.000 
#    0.000    0.000    0.000    0.000    0.000    0.000 
#
# Total GULP energy -198420.990078 kJ/mol
# GULP energy per Si atom -12401.311880 kJ/mol
# Density = 2.184818 g / cm^3
# Si number density = 21.898021 Si / 1000 Ang^3
#
#
#
# Elastic Constant Matrix: (Units=GPa)
#
#
# Indices 1 2 3 4 5 6 
#
# 1 178.6266 55.3794 62.9750 -1.6026 3.2484 5.0469
# 2 55.3794 126.3489 31.4047 -9.9879 4.0817 -15.9248
# 3 62.9750 31.4047 57.5215 1.6823 10.9854 10.8052
# 4 -1.6026 -9.9879 1.6823 34.9205 3.8016 1.9183
# 5 3.2484 4.0817 10.9854 3.8016 35.7897 8.5358
# 6 5.0469 -15.9248 10.8052 1.9183 8.5358 37.4087
#
#
#
# Elastic Compliance Matrix: (Units=1/GPa)
#
#
# Indices 1 2 3 4 5 6 
#
# 1 0.009662 -0.001730 -0.010150 0.000164 0.002335 0.000350
# 2 -0.001730 0.011105 -0.005236 0.003139 -0.001418 0.006636
# 3 -0.010150 -0.005236 0.034409 -0.002399 -0.006602 -0.009169
# 4 0.000164 0.003139 -0.002399 0.029930 -0.003097 0.001179
# 5 0.002335 -0.001418 -0.006602 -0.003097 0.031698 -0.006086
# 6 0.000350 0.006636 -0.009169 0.001179 -0.006086 0.033486
#
#
# Mechanical properties :
#
#
# Convention : Reuss Voigt Hill
#
# Bulk Modulus (GPa) = 47.74747 73.55723 60.65235
# Shear Modulus (GPa) = 26.10926 35.80631 30.95778
#
# Velocity S-wave (km/s) = 3.45673 4.04807 3.76403
# Velocity P-wave (km/s) = 6.14685 7.45070 6.82996
#
# Compressibility (1/GPa) = 0.02094352
#
# Stress axis : x y z
#
# Youngs Moduli (GPa) = 103.49483 90.05181 29.06213
#
# Poissons Ratio (x) = 0.15583 0.29498
# Poissons Ratio (y) = 0.17910 0.15216
# Poissons Ratio (z) = 1.05049 0.47148
#
# Static dielectric constant tensor:
#      x y z
#    x 4.146130 0.039970 0.011080 
#    y 0.039970 4.289740 0.063350 
#    z 0.011080 0.063350 4.001210 
# 
# 
# High freq. dielectric constant tensor:
#      x y z
#    x 1.870000 0.004220 0.001040 
#    y 0.004220 1.874410 0.007920 
#    z 0.001040 0.007920 1.857720 
# 
# From -- ./inp_files/279917.got.cif
#   From: 2010.06.25/outbox.cif.g09.slc.cpg/sg2_140_cif.got.tgz:279917.got - 2010.06.27 13:26:56.
