data_PCOD8013141
_publ_section_title
;
Structure prediction by ZEFSAII (Michael W. Deem and Ramdas Pophale) SiO2 
 PCOD8013141
Probable space group: P -1
;
_chemical_formula_sum "Si O2"
_cell_formula_units_Z 14
_cell_length_a 9.974924
_cell_length_b 12.583124
_cell_length_c 7.252078
_cell_angle_alpha 133.862848
_cell_angle_beta 52.817470
_cell_angle_gamma 110.346166
_cell_volume 518.856655
_symmetry_space_group_name_H-M "P -1"
_symmetry_group_IT_number 2
_symmetry_cell_setting 'triclinic'
loop_
_space_group_symop_operation_xyz
x,y,z
-x,-y,-z
loop_
_atom_site_type_symbol
_atom_site_label
_atom_site_fract_x
_atom_site_fract_y
_atom_site_fract_z
Si Si1 0.890382 0.465443 0.274157
Si Si2 0.603485 0.685859 0.727582
Si Si3 0.408137 0.862539 0.838365
Si Si4 0.541567 0.323380 0.784501
Si Si5 0.906887 0.785872 0.401622
Si Si6 0.984597 0.049688 0.823909
Si Si7 0.920749 0.289360 0.421596
O O1 0.695134 0.514586 0.429917
O O2 0.996972 0.621085 0.082568
O O3 0.897126 0.372590 0.342750
O O4 0.958295 0.627287 0.446597
O O5 0.427743 0.728501 0.814205
O O6 0.720753 0.789953 0.644438
O O7 0.579399 0.725126 0.010702
O O8 0.490950 0.782946 0.487422
O O9 0.209079 0.906496 0.030122
O O10 0.500000 0.000000 0.000000
O O11 0.733671 0.292706 0.662427
O O12 0.500000 0.500000 0.000000
O O13 0.891779 0.885815 0.349325
O O14 0.019347 0.867602 0.560952
O O15 0.007773 0.121216 0.092430
#
# Coordination Sequence:
#
# PCOD8013141 Si02
#       7
#     2   2   2   2   2   2   2
#     4  10  21  40  68  98 134 177 226 276 337 402
#     4  12  25  42  71 106 135 179 232 276 344 409
#     4  11  25  47  73  98 138 184 224 284 344 400
#     4  11  25  45  69 101 141 177 225 285 339 403
#     4  10  21  40  65  95 134 176 227 271 332 404
#     4   9  20  43  68  95 132 181 224 277 336 399
#     4   9  20  41  65  94 138 177 218 283 338 392
#
# _framework density 26.982403999999999
#
# number of rings (size 3 to 8) (size 9 to 14) (size 15 to 20)
#    0.000    1.714    2.857    0.429    2.000    3.429 
#    0.000    0.714    0.000    0.000    0.000    0.000 
#    0.000    0.000    0.000    0.000    0.000    0.000 
#
# Total GULP energy -173477.994940 kJ/mol
# GULP energy per Si atom -12391.285353 kJ/mol
# Density = 2.692099 g / cm^3
# Si number density = 26.982404 Si / 1000 Ang^3
#
#
#
# Elastic Constant Matrix: (Units=GPa)
#
#
# Indices 1 2 3 4 5 6 
#
# 1 78.5764 6.8135 41.8216 5.1912 4.9734 -14.2534
# 2 6.8135 113.7417 77.7498 0.7164 7.1697 15.1748
# 3 41.8216 77.7498 198.3426 2.0285 20.4362 2.0012
# 4 5.1912 0.7164 2.0285 65.1730 -2.6122 3.7507
# 5 4.9734 7.1697 20.4362 -2.6122 36.7752 4.6813
# 6 -14.2534 15.1748 2.0012 3.7507 4.6813 26.7259
#
#
#
# Elastic Compliance Matrix: (Units=1/GPa)
#
#
# Indices 1 2 3 4 5 6 
#
# 1 0.016502 0.000243 -0.003478 -0.001821 -0.001681 0.009474
# 2 0.000243 0.013318 -0.005337 0.000474 0.001303 -0.007328
# 3 -0.003478 -0.005337 0.008186 -0.000112 -0.003191 0.001137
# 4 -0.001821 0.000474 -0.000112 0.015777 0.001816 -0.003764
# 5 -0.001681 0.001303 -0.003191 0.001816 0.029946 -0.006898
# 6 0.009474 -0.007328 0.001137 -0.003764 -0.006898 0.048281
#
#
# Mechanical properties :
#
#
# Convention : Reuss Voigt Hill
#
# Bulk Modulus (GPa) = 47.93769 71.49227 59.71498
# Shear Modulus (GPa) = 32.02909 43.35320 37.69114
#
# Velocity S-wave (km/s) = 3.44908 4.01274 3.74154
# Velocity P-wave (km/s) = 5.80227 6.92985 6.39098
#
# Compressibility (1/GPa) = 0.02086041
#
# Stress axis : x y z
#
# Youngs Moduli (GPa) = 60.59878 75.08663 122.16399
#
# Poissons Ratio (x) = -0.01823 0.42493
# Poissons Ratio (y) = -0.01471 0.65198
# Poissons Ratio (z) = 0.21079 0.40073
#
# Static dielectric constant tensor:
#      x y z
#    x 4.810080 -0.108380 0.163110 
#    y -0.108380 5.253030 0.368750 
#    z 0.163110 0.368750 5.631820 
# 
# 
# High freq. dielectric constant tensor:
#      x y z
#    x 2.078540 -0.030520 0.004290 
#    y -0.030520 2.113620 0.006480 
#    z 0.004290 0.006480 2.114660 
# 
# From -- ./inp_files/269159.got.cif
#   From: 2010.06.25/outbox.cif.g09.slc.cpg/sg2_135_cif.got.tgz:269159.got - 2010.06.27 13:26:56.
