data_PCOD8013044
_publ_section_title
;
Structure prediction by ZEFSAII (Michael W. Deem and Ramdas Pophale) SiO2 
 PCOD8013044
Probable space group: P -1
;
_chemical_formula_sum "Si O2"
_cell_formula_units_Z 12
_cell_length_a 9.745511
_cell_length_b 11.280051
_cell_length_c 11.727663
_cell_angle_alpha 71.157413
_cell_angle_beta 65.869590
_cell_angle_gamma 126.455200
_cell_volume 602.751926
_symmetry_space_group_name_H-M "P -1"
_symmetry_group_IT_number 2
_symmetry_cell_setting 'triclinic'
loop_
_space_group_symop_operation_xyz
x,y,z
-x,-y,-z
loop_
_atom_site_type_symbol
_atom_site_label
_atom_site_fract_x
_atom_site_fract_y
_atom_site_fract_z
Si Si1 0.897904 0.840642 0.684797
Si Si2 0.106368 0.306708 0.919043
Si Si3 0.425606 0.326617 0.934713
Si Si4 0.494679 0.186116 0.406813
Si Si5 0.413724 0.050856 0.930870
Si Si6 0.426951 0.990864 0.701772
O O1 0.708332 0.599686 0.771665
O O2 0.732930 0.800392 0.851429
O O3 0.000000 0.000000 0.500000
O O4 0.169560 0.972475 0.607091
O O5 0.235504 0.263334 0.924097
O O6 0.358230 0.578587 0.731317
O O7 0.904713 0.211833 0.119060
O O8 0.922068 0.171438 0.907032
O O9 0.517702 0.255317 0.881113
O O10 0.546939 0.139078 0.291111
O O11 0.596507 0.185432 0.486461
O O12 0.561194 0.122520 0.737180
O O13 0.500000 0.000000 0.000000
#
# Coordination Sequence:
#
# PCOD8013044 Si02
#       6
#     2   2   2   2   2   2
#     4  11  23  37  66  92 120 163 206 261 303 358
#     4  10  21  40  65  89 123 165 202 256 309 359
#     4  11  23  43  62  90 132 159 209 255 310 370
#     4  11  20  41  63  97 118 160 213 251 308 365
#     4  10  24  42  62  90 127 173 199 249 319 366
#     4   9  23  38  63  90 128 160 202 256 308 365
#
# _framework density 19.908688999999999
#
# number of rings (size 3 to 8) (size 9 to 14) (size 15 to 20)
#    1.000    0.667    3.333    1.000    2.333    2.667 
#    3.000    3.333    0.000    0.000    0.000    0.000 
#    0.000    0.000    0.000    0.000    0.000    0.000 
#
# Total GULP energy -148717.023641 kJ/mol
# GULP energy per Si atom -12393.085303 kJ/mol
# Density = 1.986338 g / cm^3
# Si number density = 19.908689 Si / 1000 Ang^3
#
#
#
# Elastic Constant Matrix: (Units=GPa)
#
#
# Indices 1 2 3 4 5 6 
#
# 1 92.3087 52.0128 36.0245 -2.3570 30.1261 -6.7317
# 2 52.0128 135.9433 51.2715 11.2101 14.9675 -10.4274
# 3 36.0245 51.2715 98.7646 0.5317 14.8455 -3.3353
# 4 -2.3570 11.2101 0.5317 28.8412 5.2496 -1.4642
# 5 30.1261 14.9675 14.8455 5.2496 29.4077 0.2400
# 6 -6.7317 -10.4274 -3.3353 -1.4642 0.2400 29.7518
#
#
#
# Elastic Compliance Matrix: (Units=1/GPa)
#
#
# Indices 1 2 3 4 5 6 
#
# 1 0.021742 -0.005840 -0.001858 0.007846 -0.019790 0.003210
# 2 -0.005840 0.011397 -0.004178 -0.005320 0.003225 0.001917
# 3 -0.001858 -0.004178 0.013412 0.001767 -0.003054 -0.000269
# 4 0.007846 -0.005320 0.001767 0.039892 -0.013361 0.002180
# 5 -0.019790 0.003225 -0.003054 -0.013361 0.056603 -0.004804
# 6 0.003210 0.001917 -0.000269 0.002180 -0.004804 0.035125
#
#
# Mechanical properties :
#
#
# Convention : Reuss Voigt Hill
#
# Bulk Modulus (GPa) = 43.86015 67.29267 55.57641
# Shear Modulus (GPa) = 23.86402 30.11399 26.98900
#
# Velocity S-wave (km/s) = 3.46594 3.89344 3.68590
# Velocity P-wave (km/s) = 6.17215 7.35431 6.78901
#
# Compressibility (1/GPa) = 0.02279974
#
# Stress axis : x y z
#
# Youngs Moduli (GPa) = 45.99426 87.74589 74.56033
#
# Poissons Ratio (x) = 0.51241 0.13853
# Poissons Ratio (y) = 0.26859 0.31148
# Poissons Ratio (z) = 0.08546 0.36657
#
# Static dielectric constant tensor:
#      x y z
#    x 3.744780 0.145870 -0.087640 
#    y 0.145870 3.498310 0.033840 
#    z -0.087640 0.033840 3.462090 
# 
# 
# High freq. dielectric constant tensor:
#      x y z
#    x 1.782060 0.001530 0.008210 
#    y 0.001530 1.767180 0.003100 
#    z 0.008210 0.003100 1.768800 
# 
# From -- ./inp_files/389337.got.cif
#   From: 2010.06.25/outbox.cif.g09.slc.cpg/sg2_195_cif.got.tgz:389337.got - 2010.06.27 13:26:56.
