data_PCOD8013684
_publ_section_title
;
Structure prediction by ZEFSAII (Michael W. Deem and Ramdas Pophale) SiO2 
 PCOD8013684
Probable space group: P -1
;
_chemical_formula_sum "Si O2"
_cell_formula_units_Z 14
_cell_length_a 15.049812
_cell_length_b 15.777342
_cell_length_c 17.167544
_cell_angle_alpha 33.365048
_cell_angle_beta 35.449600
_cell_angle_gamma 19.081932
_cell_volume 725.604365
_symmetry_space_group_name_H-M "P -1"
_symmetry_group_IT_number 2
_symmetry_cell_setting 'triclinic'
loop_
_space_group_symop_operation_xyz
x,y,z
-x,-y,-z
loop_
_atom_site_type_symbol
_atom_site_label
_atom_site_fract_x
_atom_site_fract_y
_atom_site_fract_z
Si Si1 0.480260 0.203857 0.059995
Si Si2 0.095018 0.911996 0.177685
Si Si3 0.846855 0.476277 0.102365
Si Si4 0.540869 0.494512 0.065155
Si Si5 0.442883 0.877450 0.353208
Si Si6 0.690326 0.130417 0.715335
Si Si7 0.105349 0.740583 0.466945
O O1 0.399382 0.372384 0.065029
O O2 0.516048 0.996056 0.213609
O O3 0.764656 0.036237 0.950305
O O4 0.239446 0.431650 0.995392
O O5 0.116897 0.799824 0.327440
O O6 0.266379 0.676478 0.169435
O O7 0.784333 0.185928 0.161142
O O8 0.589657 0.667580 0.195176
O O9 0.050423 0.162268 0.201992
O O10 0.000000 0.500000 0.000000
O O11 0.500000 0.500000 0.000000
O O12 0.332931 0.918866 0.315968
O O13 0.721708 0.560152 0.421393
O O14 0.208315 0.033868 0.462545
O O15 0.756621 0.257339 0.570716
#
# Coordination Sequence:
#
# PCOD8013684 Si02
#       7
#     2   2   2   2   2   2   2
#     4  10  25  39  65  93 122 163 206 260 312 354
#     4  10  22  41  69  89 123 158 207 245 313 372
#     4  12  23  37  64  88 127 162 216 264 299 351
#     4  10  21  40  72 100 117 148 206 263 308 367
#     4  12  26  37  60  87 129 163 211 257 303 352
#     4  12  23  40  57  84 120 175 220 251 296 358
#     4  12  24  42  58  88 125 173 205 247 305 369
#
# _framework density 19.294263000000001
#
# number of rings (size 3 to 8) (size 9 to 14) (size 15 to 20)
#    0.857    0.000    2.857    5.143    2.000    0.000 
#    0.000    0.000    0.000    5.143    0.000    0.000 
#    0.000    0.000    0.000    0.000    0.000    0.000 
#
# Total GULP energy -173588.079911 kJ/mol
# GULP energy per Si atom -12399.148565 kJ/mol
# Density = 1.925035 g / cm^3
# Si number density = 19.294263 Si / 1000 Ang^3
#
#
#
# Elastic Constant Matrix: (Units=GPa)
#
#
# Indices 1 2 3 4 5 6 
#
# 1 110.2430 32.9093 52.6265 -9.1678 21.7661 20.1976
# 2 32.9093 134.0364 38.5686 -2.3768 3.0995 9.2098
# 3 52.6265 38.5686 102.3789 -2.0996 0.3248 19.1472
# 4 -9.1678 -2.3768 -2.0996 35.7767 -0.4985 5.8629
# 5 21.7661 3.0995 0.3248 -0.4985 22.9404 6.9257
# 6 20.1976 9.2098 19.1472 5.8629 6.9257 25.7871
#
#
#
# Elastic Compliance Matrix: (Units=1/GPa)
#
#
# Indices 1 2 3 4 5 6 
#
# 1 0.016949 -0.001364 -0.007205 0.004383 -0.014314 -0.004591
# 2 -0.001364 0.008516 -0.002461 0.000115 0.000254 -0.000240
# 3 -0.007205 -0.002461 0.015836 0.000330 0.009310 -0.007812
# 4 0.004383 0.000115 0.000330 0.030843 -0.000292 -0.010652
# 5 -0.014314 0.000254 0.009310 -0.000292 0.060625 -0.012008
# 6 -0.004591 -0.000240 -0.007812 -0.010652 -0.012008 0.053908
#
#
# Mechanical properties :
#
#
# Convention : Reuss Voigt Hill
#
# Bulk Modulus (GPa) = 51.96741 66.09635 59.03188
# Shear Modulus (GPa) = 23.23956 31.73777 27.48866
#
# Velocity S-wave (km/s) = 3.47433 4.06018 3.77862
# Velocity P-wave (km/s) = 6.56408 7.50409 7.04977
#
# Compressibility (1/GPa) = 0.01924283
#
# Stress axis : x y z
#
# Youngs Moduli (GPa) = 59.00060 117.42195 63.14586
#
# Poissons Ratio (x) = 0.16018 0.45495
# Poissons Ratio (y) = 0.08048 0.15538
# Poissons Ratio (z) = 0.42508 0.28893
#
# Static dielectric constant tensor:
#      x y z
#    x 3.398990 -0.050800 -0.016830 
#    y -0.050800 3.800590 -0.033290 
#    z -0.016830 -0.033290 3.477840 
# 
# 
# High freq. dielectric constant tensor:
#      x y z
#    x 1.729540 -0.001720 0.003990 
#    y -0.001720 1.773830 -0.000430 
#    z 0.003990 -0.000430 1.744670 
# 
# From -- ./inp_files/123356.got.cif
#   From: 2010.06.25/outbox.cif.g09.slc.cpg/sg2_62_cif.got.tgz:123356.got - 2010.06.27 13:26:56.
