data_PCOD8013957
_publ_section_title
;
Structure prediction by ZEFSAII (Michael W. Deem and Ramdas Pophale) SiO2 
 PCOD8013957
Probable space group: P -1
;
_chemical_formula_sum "Si O2"
_cell_formula_units_Z 16
_cell_length_a 13.453140
_cell_length_b 16.131007
_cell_length_c 7.489002
_cell_angle_alpha 46.309976
_cell_angle_beta 44.050315
_cell_angle_gamma 38.242534
_cell_volume 668.674196
_symmetry_space_group_name_H-M "P -1"
_symmetry_group_IT_number 2
_symmetry_cell_setting 'triclinic'
loop_
_space_group_symop_operation_xyz
x,y,z
-x,-y,-z
loop_
_atom_site_type_symbol
_atom_site_label
_atom_site_fract_x
_atom_site_fract_y
_atom_site_fract_z
Si Si1 0.369433 0.860532 0.888989
Si Si2 0.584312 0.558541 0.923069
Si Si3 0.782795 0.291573 0.278954
Si Si4 0.012040 0.965372 0.829673
Si Si5 0.699770 0.995343 0.606213
Si Si6 0.498072 0.777069 0.205546
Si Si7 0.968316 0.700524 0.796822
Si Si8 0.184026 0.447959 0.661937
O O1 0.423866 0.712186 0.961339
O O2 0.355709 0.957918 0.599010
O O3 0.505445 0.831004 0.916115
O O4 0.187698 0.937165 0.121688
O O5 0.720788 0.573459 0.615566
O O6 0.500000 0.500000 0.000000
O O7 0.682333 0.455341 0.115830
O O8 0.644139 0.259143 0.559326
O O9 0.912191 0.258102 0.326040
O O10 0.900639 0.196076 0.098941
O O11 0.137306 0.004530 0.530743
O O12 0.000000 0.000000 0.000000
O O13 0.539352 0.103672 0.780679
O O14 0.775807 0.833022 0.781136
O O15 0.680039 0.634004 0.229957
O O16 0.066485 0.610861 0.625872
O O17 0.934864 0.611541 0.111329
#
# Coordination Sequence:
#
# PCOD8013957 Si02
#       8
#     2   2   2   2   2   2   2   2
#     4  11  22  36  65  99 128 172 215 279 329 399
#     4  12  23  40  67  98 134 172 224 277 337 387
#     4  11  23  40  69 103 125 180 224 273 335 393
#     4   9  19  35  62 100 133 156 216 273 330 384
#     4  10  21  41  63  97 131 174 214 277 337 387
#     4  11  22  43  68 101 134 163 233 279 325 402
#     4  11  26  44  67  92 136 184 218 272 340 391
#     4  11  26  46  63  95 137 179 223 278 328 398
#
# _framework density 23.927947
#
# number of rings (size 3 to 8) (size 9 to 14) (size 15 to 20)
#    0.000    1.250    2.500    3.750    7.000    4.000 
#    0.000    0.625    0.000    0.000    0.000    0.000 
#    0.000    0.000    0.000    0.000    0.000    0.000 
#
# Total GULP energy -198308.595136 kJ/mol
# GULP energy per Si atom -12394.287196 kJ/mol
# Density = 2.387349 g / cm^3
# Si number density = 23.927947 Si / 1000 Ang^3
#
#
#
# Elastic Constant Matrix: (Units=GPa)
#
#
# Indices 1 2 3 4 5 6 
#
# 1 57.6733 10.2695 11.3300 -6.6052 18.0842 -6.2429
# 2 10.2695 131.0082 19.1040 -9.9164 7.3478 2.1575
# 3 11.3300 19.1040 51.1090 -10.2628 8.3946 6.4925
# 4 -6.6052 -9.9164 -10.2628 36.0945 -12.0097 7.6661
# 5 18.0842 7.3478 8.3946 -12.0097 32.8570 -6.4847
# 6 -6.2429 2.1575 6.4925 7.6661 -6.4847 33.2831
#
#
#
# Elastic Compliance Matrix: (Units=1/GPa)
#
#
# Indices 1 2 3 4 5 6 
#
# 1 0.021704 -0.000754 -0.003424 -0.001455 -0.010840 0.003011
# 2 -0.000754 0.008191 -0.002474 0.001405 -0.000387 -0.000589
# 3 -0.003424 -0.002474 0.023824 0.006024 -0.002843 -0.007071
# 4 -0.001455 0.001405 0.006024 0.034485 0.010068 -0.007520
# 5 -0.010840 -0.000387 -0.002843 0.010068 0.041755 0.004363
# 6 0.003011 -0.000589 -0.007071 -0.007520 0.004363 0.034610
#
#
# Mechanical properties :
#
#
# Convention : Reuss Voigt Hill
#
# Bulk Modulus (GPa) = 24.74259 35.68862 30.21561
# Shear Modulus (GPa) = 26.13091 33.71939 29.92515
#
# Velocity S-wave (km/s) = 3.30823 3.75801 3.54027
# Velocity P-wave (km/s) = 4.99554 5.81185 5.41909
#
# Compressibility (1/GPa) = 0.04041613
#
# Stress axis : x y z
#
# Youngs Moduli (GPa) = 46.07398 122.08916 41.97367
#
# Poissons Ratio (x) = 0.09203 0.14371
# Poissons Ratio (y) = 0.03473 0.10384
# Poissons Ratio (z) = 0.15775 0.30204
#
# Static dielectric constant tensor:
#      x y z
#    x 4.247910 -0.424320 -0.091830 
#    y -0.424320 5.189900 0.237100 
#    z -0.091830 0.237100 4.224750 
# 
# 
# High freq. dielectric constant tensor:
#      x y z
#    x 1.933050 -0.007580 0.003650 
#    y -0.007580 1.973320 0.000450 
#    z 0.003650 0.000450 1.934090 
# 
# From -- ./inp_files/317955.got.cif
#   From: 2010.06.25/outbox.cif.g09.slc.cpg/sg2_159_cif.got.tgz:317955.got - 2010.06.27 13:26:56.
