data_PCOD8013068
_publ_section_title
;
Structure prediction by ZEFSAII (Michael W. Deem and Ramdas Pophale) SiO2 
 PCOD8013068
Probable space group: P -1
;
_chemical_formula_sum "Si O2"
_cell_formula_units_Z 14
_cell_length_a 15.399185
_cell_length_b 15.204600
_cell_length_c 10.401411
_cell_angle_alpha 38.034515
_cell_angle_beta 34.674844
_cell_angle_gamma 27.225685
_cell_volume 618.836102
_symmetry_space_group_name_H-M "P -1"
_symmetry_group_IT_number 2
_symmetry_cell_setting 'triclinic'
loop_
_space_group_symop_operation_xyz
x,y,z
-x,-y,-z
loop_
_atom_site_type_symbol
_atom_site_label
_atom_site_fract_x
_atom_site_fract_y
_atom_site_fract_z
Si Si1 0.562429 0.141902 0.717961
Si Si2 0.281826 0.658389 0.781506
Si Si3 0.467387 0.646085 0.973678
Si Si4 0.730013 0.851348 0.067256
Si Si5 0.818747 0.538692 0.010430
Si Si6 0.221198 0.315384 0.388602
Si Si7 0.832659 0.925687 0.124681
O O1 0.685642 0.200866 0.456988
O O2 0.490209 0.097246 0.731727
O O3 0.333087 0.309277 0.869114
O O4 0.725871 0.958651 0.824657
O O5 0.233514 0.596256 0.786294
O O6 0.490854 0.458467 0.821352
O O7 0.086046 0.764900 0.995770
O O8 0.615916 0.689431 0.726533
O O9 0.235471 0.866724 0.999854
O O10 0.500000 0.500000 0.000000
O O11 0.730895 0.941554 0.093876
O O12 0.932972 0.615318 0.081104
O O13 0.768755 0.663187 0.800502
O O14 0.252206 0.128127 0.600595
O O15 0.000000 0.500000 0.500000
#
# Coordination Sequence:
#
# PCOD8013068 Si02
#       7
#     2   2   2   2   2   2   2
#     4  11  23  39  61 100 128 167 221 269 316 380
#     4  10  23  41  62  93 134 169 216 267 318 394
#     4  11  25  41  65 100 131 169 217 270 329 380
#     4  10  22  39  64  91 130 172 216 261 323 390
#     4  10  21  40  65  91 131 171 213 268 321 382
#     4  11  20  44  69  95 131 171 220 264 319 400
#     4  11  23  45  68  94 130 179 213 260 336 386
#
# _framework density 22.623114999999999
#
# number of rings (size 3 to 8) (size 9 to 14) (size 15 to 20)
#    0.000    1.429    4.286    3.000    2.000    4.000 
#    2.571    0.000    0.000    0.000    0.000    0.000 
#    0.000    0.000    0.000    0.000    0.000    0.000 
#
# Total GULP energy -173491.276250 kJ/mol
# GULP energy per Si atom -12392.234018 kJ/mol
# Density = 2.257162 g / cm^3
# Si number density = 22.623115 Si / 1000 Ang^3
#
#
#
# Elastic Constant Matrix: (Units=GPa)
#
#
# Indices 1 2 3 4 5 6 
#
# 1 74.9568 23.7596 46.6014 -15.1526 -2.0870 -4.3697
# 2 23.7596 95.1981 15.5389 -25.3095 6.9593 4.4851
# 3 46.6014 15.5389 132.6289 -27.1654 -17.1439 -5.0649
# 4 -15.1526 -25.3095 -27.1654 34.3304 2.4922 5.9600
# 5 -2.0870 6.9593 -17.1439 2.4922 20.0742 -2.5631
# 6 -4.3697 4.4851 -5.0649 5.9600 -2.5631 31.0976
#
#
#
# Elastic Compliance Matrix: (Units=1/GPa)
#
#
# Indices 1 2 3 4 5 6 
#
# 1 0.018393 -0.003361 -0.006133 0.000624 -0.002010 0.001785
# 2 -0.003361 0.015100 0.000665 0.011623 -0.007144 -0.005358
# 3 -0.006133 0.000665 0.012127 0.006666 0.008720 0.000459
# 4 0.000624 0.011623 0.006666 0.045287 -0.005120 -0.009604
# 5 -0.002010 -0.007144 0.008720 -0.005120 0.061211 0.008194
# 6 0.001785 -0.005358 0.000459 -0.009604 0.008194 0.035771
#
#
# Mechanical properties :
#
#
# Convention : Reuss Voigt Hill
#
# Bulk Modulus (GPa) = 35.76395 52.73149 44.24772
# Shear Modulus (GPa) = 23.26999 31.55937 27.41468
#
# Velocity S-wave (km/s) = 3.21065 3.73903 3.48487
# Velocity P-wave (km/s) = 5.43942 6.48072 5.98277
#
# Compressibility (1/GPa) = 0.02796112
#
# Stress axis : x y z
#
# Youngs Moduli (GPa) = 54.36706 66.22700 82.46097
#
# Poissons Ratio (x) = 0.22259 0.50573
# Poissons Ratio (y) = 0.18273 -0.05480
# Poissons Ratio (z) = 0.33343 -0.04401
#
# Static dielectric constant tensor:
#      x y z
#    x 4.123780 -0.033990 -0.170350 
#    y -0.033990 3.901430 0.406380 
#    z -0.170350 0.406380 3.419760 
# 
# 
# High freq. dielectric constant tensor:
#      x y z
#    x 1.891170 -0.007340 -0.002950 
#    y -0.007340 1.904860 -0.017780 
#    z -0.002950 -0.017780 1.875990 
# 
# From -- ./inp_files/200103.got.cif
#   From: 2010.06.25/outbox.cif.g09.slc.cpg/sg2_101_cif.got.tgz:200103.got - 2010.06.27 13:26:56.
