data_PCOD8013996
_publ_section_title
;
Structure prediction by ZEFSAII (Michael W. Deem and Ramdas Pophale) SiO2 
 PCOD8013996
Probable space group: P -1
;
_chemical_formula_sum "Si O2"
_cell_formula_units_Z 12
_cell_length_a 8.548103
_cell_length_b 7.107350
_cell_length_c 14.379924
_cell_angle_alpha 90.454708
_cell_angle_beta 37.463547
_cell_angle_gamma 82.799871
_cell_volume 518.788838
_symmetry_space_group_name_H-M "P -1"
_symmetry_group_IT_number 2
_symmetry_cell_setting 'triclinic'
loop_
_space_group_symop_operation_xyz
x,y,z
-x,-y,-z
loop_
_atom_site_type_symbol
_atom_site_label
_atom_site_fract_x
_atom_site_fract_y
_atom_site_fract_z
Si Si1 0.225761 0.110639 0.176013
Si Si2 0.614902 0.982928 0.305312
Si Si3 0.385295 0.361664 0.799436
Si Si4 0.169983 0.473661 0.324765
Si Si5 0.885138 0.817264 0.350883
Si Si6 0.921142 0.284976 0.142269
O O1 0.260646 0.253416 0.245225
O O2 0.034896 0.238448 0.191357
O O3 0.084806 0.952171 0.286746
O O4 0.500000 0.000000 0.000000
O O5 0.393659 0.125591 0.466925
O O6 0.776427 0.117304 0.173897
O O7 0.470944 0.845868 0.310972
O O8 0.829674 0.839232 0.267426
O O9 0.568809 0.444970 0.783658
O O10 0.293473 0.512996 0.759420
O O11 0.143443 0.305172 0.965671
O O12 0.000000 0.500000 0.500000
O O13 0.007569 0.597353 0.319064
#
# Coordination Sequence:
#
# PCOD8013996 Si02
#       6
#     2   2   2   2   2   2
#     4  11  25  44  66  92 126 169 211 254 311 376
#     4  10  21  41  64  90 124 167 211 256 310 371
#     4  11  23  38  63  94 128 164 206 260 315 368
#     4  12  26  42  64  96 130 163 207 262 315 369
#     4  10  23  41  65  91 124 167 211 256 310 373
#     4  10  23  40  62  91 124 166 212 256 307 373
#
# _framework density 23.130794999999999
#
# number of rings (size 3 to 8) (size 9 to 14) (size 15 to 20)
#    0.000    1.333    0.000    4.500    0.000   14.667 
#    0.000    6.667    0.000    0.000    0.000    0.000 
#    0.000    0.000    0.000    0.000    0.000    0.000 
#
# Total GULP energy -148749.864720 kJ/mol
# GULP energy per Si atom -12395.822060 kJ/mol
# Density = 2.307815 g / cm^3
# Si number density = 23.130795 Si / 1000 Ang^3
#
#
#
# Elastic Constant Matrix: (Units=GPa)
#
#
# Indices 1 2 3 4 5 6 
#
# 1 61.2444 37.4115 20.4456 2.4154 -10.0761 17.3182
# 2 37.4115 127.2921 46.3444 -1.4879 0.6862 16.1535
# 3 20.4456 46.3444 82.8327 -2.1704 -5.3530 4.8282
# 4 2.4154 -1.4879 -2.1704 39.5179 5.7955 6.4802
# 5 -10.0761 0.6862 -5.3530 5.7955 32.0280 3.0102
# 6 17.3182 16.1535 4.8282 6.4802 3.0102 49.8248
#
#
#
# Elastic Compliance Matrix: (Units=1/GPa)
#
#
# Indices 1 2 3 4 5 6 
#
# 1 0.023554 -0.005477 -0.001894 -0.001885 0.008161 -0.006476
# 2 -0.005477 0.011552 -0.005194 0.001127 -0.002920 -0.001308
# 3 -0.001894 -0.005194 0.015545 0.000374 0.001983 0.000667
# 4 -0.001885 0.001127 0.000374 0.026711 -0.005114 -0.002912
# 5 0.008161 -0.002920 0.001983 -0.005114 0.035444 -0.003558
# 6 -0.006476 -0.001308 0.000667 -0.002912 -0.003558 0.023274
#
#
# Mechanical properties :
#
#
# Convention : Reuss Voigt Hill
#
# Bulk Modulus (GPa) = 39.18430 53.30802 46.24616
# Shear Modulus (GPa) = 29.46074 35.41867 32.43971
#
# Velocity S-wave (km/s) = 3.57271 3.91734 3.74899
# Velocity P-wave (km/s) = 5.83062 6.59978 6.22709
#
# Compressibility (1/GPa) = 0.02552043
#
# Stress axis : x y z
#
# Youngs Moduli (GPa) = 42.45512 86.56713 64.32902
#
# Poissons Ratio (x) = 0.47416 0.12183
# Poissons Ratio (y) = 0.23254 0.33413
# Poissons Ratio (z) = 0.08041 0.44963
#
# Static dielectric constant tensor:
#      x y z
#    x 4.181930 -0.119760 -0.171060 
#    y -0.119760 4.568380 -0.102060 
#    z -0.171060 -0.102060 3.938100 
# 
# 
# High freq. dielectric constant tensor:
#      x y z
#    x 1.909340 -0.001290 -0.011930 
#    y -0.001290 1.937150 -0.010880 
#    z -0.011930 -0.010880 1.902710 
# 
# From -- ./inp_files/20966.got.cif
#   From: 2010.06.25/outbox.cif.g09.slc.cpg/sg2_11_cif.got.tgz:20966.got - 2010.06.27 13:26:56.
