data_PCOD8013461
_publ_section_title
;
Structure prediction by ZEFSAII (Michael W. Deem and Ramdas Pophale) SiO2 
 PCOD8013461
Probable space group: P -1
;
_chemical_formula_sum "Si O2"
_cell_formula_units_Z 16
_cell_length_a 12.866956
_cell_length_b 9.824076
_cell_length_c 10.723190
_cell_angle_alpha 100.762918
_cell_angle_beta 32.646176
_cell_angle_gamma 86.351565
_cell_volume 652.982515
_symmetry_space_group_name_H-M "P -1"
_symmetry_group_IT_number 2
_symmetry_cell_setting 'triclinic'
loop_
_space_group_symop_operation_xyz
x,y,z
-x,-y,-z
loop_
_atom_site_type_symbol
_atom_site_label
_atom_site_fract_x
_atom_site_fract_y
_atom_site_fract_z
Si Si1 0.787793 0.586196 0.306446
Si Si2 0.990002 0.869090 0.570641
Si Si3 0.506378 0.446733 0.642403
Si Si4 0.236969 0.873084 0.555776
Si Si5 0.126680 0.381329 0.076154
Si Si6 0.726050 0.879494 0.295768
Si Si7 0.626266 0.785970 0.976805
Si Si8 0.592955 0.366955 0.979407
O O1 0.602933 0.525770 0.454390
O O2 0.702325 0.768451 0.409202
O O3 0.000000 0.500000 0.000000
O O4 0.888366 0.518107 0.332184
O O5 0.049576 0.883428 0.655750
O O6 0.751364 0.881306 0.814749
O O7 0.155556 0.713721 0.314587
O O8 0.000000 0.000000 0.500000
O O9 0.689183 0.284365 0.469691
O O10 0.293717 0.420472 0.824678
O O11 0.445097 0.575279 0.832769
O O12 0.152126 0.022414 0.755750
O O13 0.434786 0.879625 0.279963
O O14 0.140456 0.222195 0.973816
O O15 0.206170 0.358036 0.135023
O O16 0.500000 0.000000 0.500000
O O17 0.527736 0.740678 0.947690
O O18 0.500000 0.500000 0.000000
#
# Coordination Sequence:
#
# PCOD8013461 Si02
#       8
#     2   2   2   2   2   2   2   2
#     4  10  25  41  64  97 124 161 221 266 318 379
#     4  11  25  41  62  96 132 167 214 266 321 385
#     4  11  21  42  69  91 130 168 213 272 315 387
#     4  10  22  43  65  94 129 170 218 258 329 386
#     4  10  21  41  67  92 124 169 217 262 324 376
#     4  11  21  43  65  90 129 169 209 263 321 385
#     4  10  21  40  68  88 130 170 210 266 324 376
#     4  11  22  41  63  97 123 168 217 259 322 389
#
# _framework density 24.502955
#
# number of rings (size 3 to 8) (size 9 to 14) (size 15 to 20)
#    0.000    1.500    6.250    0.750    0.000    8.500 
#    0.000    8.125    0.000    0.000    0.000    0.000 
#    0.000    0.000    0.000    0.000    0.000    0.000 
#
# Total GULP energy -198295.023724 kJ/mol
# GULP energy per Si atom -12393.438983 kJ/mol
# Density = 2.444718 g / cm^3
# Si number density = 24.502955 Si / 1000 Ang^3
#
#
#
# Elastic Constant Matrix: (Units=GPa)
#
#
# Indices 1 2 3 4 5 6 
#
# 1 58.3213 10.1977 4.8366 17.6477 -6.3860 25.0060
# 2 10.1977 124.6987 33.6157 1.1233 8.5666 3.6973
# 3 4.8366 33.6157 67.5919 -10.4988 -3.2336 11.6246
# 4 17.6477 1.1233 -10.4988 48.6022 0.7641 -4.3637
# 5 -6.3860 8.5666 -3.2336 0.7641 29.8911 5.1221
# 6 25.0060 3.6973 11.6246 -4.3637 5.1221 47.5980
#
#
#
# Elastic Compliance Matrix: (Units=1/GPa)
#
#
# Indices 1 2 3 4 5 6 
#
# 1 0.030416 -0.002833 0.000947 -0.012589 0.010873 -0.018315
# 2 -0.002833 0.009939 -0.005396 -0.000071 -0.004465 0.002508
# 3 0.000947 -0.005396 0.018995 0.003373 0.004557 -0.004899
# 4 -0.012589 -0.000071 0.003373 0.026731 -0.004483 0.008729
# 5 0.010873 -0.004465 0.004557 -0.004483 0.039575 -0.011148
# 6 -0.018315 0.002508 -0.004899 0.008729 -0.011148 0.033633
#
#
# Mechanical properties :
#
#
# Convention : Reuss Voigt Hill
#
# Bulk Modulus (GPa) = 22.32888 38.65689 30.49288
# Shear Modulus (GPa) = 26.48569 38.68241 32.58405
#
# Velocity S-wave (km/s) = 3.29130 3.97758 3.65060
# Velocity P-wave (km/s) = 4.85552 6.07499 5.49916
#
# Compressibility (1/GPa) = 0.04478506
#
# Stress axis : x y z
#
# Youngs Moduli (GPa) = 32.87746 100.61633 52.64561
#
# Poissons Ratio (x) = 0.28507 -0.04986
# Poissons Ratio (y) = 0.09315 0.28409
# Poissons Ratio (z) = -0.03114 0.54295
#
# Static dielectric constant tensor:
#      x y z
#    x 4.983850 -0.699880 -0.617040 
#    y -0.699880 4.471660 -0.172210 
#    z -0.617040 -0.172210 4.152920 
# 
# 
# High freq. dielectric constant tensor:
#      x y z
#    x 1.998260 -0.001510 -0.012960 
#    y -0.001510 1.973420 -0.017010 
#    z -0.012960 -0.017010 1.956490 
# 
# From -- ./inp_files/447592.got.cif
#   From: 2010.06.25/outbox.cif.g09.slc.cpg/sg2_224_cif.got.tgz:447592.got - 2010.06.27 13:26:56.
