data_PCOD8013237
_publ_section_title
;
Structure prediction by ZEFSAII (Michael W. Deem and Ramdas Pophale) SiO2 
 PCOD8013237
Probable space group: P -1
;
_chemical_formula_sum "Si O2"
_cell_formula_units_Z 16
_cell_length_a 15.208697
_cell_length_b 12.012426
_cell_length_c 10.840525
_cell_angle_alpha 99.730683
_cell_angle_beta 116.181800
_cell_angle_gamma 29.298224
_cell_volume 757.510542
_symmetry_space_group_name_H-M "P -1"
_symmetry_group_IT_number 2
_symmetry_cell_setting 'triclinic'
loop_
_space_group_symop_operation_xyz
x,y,z
-x,-y,-z
loop_
_atom_site_type_symbol
_atom_site_label
_atom_site_fract_x
_atom_site_fract_y
_atom_site_fract_z
Si Si1 0.382415 0.096159 0.816573
Si Si2 0.792052 0.542939 0.861019
Si Si3 0.736723 0.133447 0.593899
Si Si4 0.640111 0.677922 0.333489
Si Si5 0.776995 0.347936 0.662559
Si Si6 0.011731 0.854790 0.488737
Si Si7 0.098300 0.464944 0.325358
Si Si8 0.157182 0.165722 0.221291
O O1 0.319334 0.280643 0.748029
O O2 0.153324 0.262386 0.723125
O O3 0.542651 0.853421 0.784186
O O4 0.500000 0.000000 0.000000
O O5 0.782469 0.419075 0.801010
O O6 0.908158 0.488485 0.811085
O O7 0.934659 0.412543 0.047790
O O8 0.824349 0.168174 0.690415
O O9 0.472007 0.389747 0.505118
O O10 0.787754 0.052314 0.464754
O O11 0.877913 0.905602 0.727235
O O12 0.725776 0.646259 0.507077
O O13 0.778090 0.416761 0.353465
O O14 0.375052 0.925125 0.223659
O O15 0.957684 0.213479 0.649322
O O16 0.000000 0.000000 0.500000
O O17 0.181468 0.249086 0.339693
#
# Coordination Sequence:
#
# PCOD8013237 Si02
#       8
#     2   2   2   2   2   2   2   2
#     4  12  26  43  63  95 135 170 209 256 327 384
#     4  12  25  42  63  93 136 171 207 264 323 382
#     4  10  22  40  67  91 123 163 217 267 317 372
#     4  12  24  41  68  96 126 169 218 263 316 381
#     4  10  22  42  65  93 122 165 214 271 317 372
#     4  10  21  40  66  93 121 157 213 273 312 361
#     4  12  24  43  65  95 126 168 217 265 313 380
#     4  12  23  41  65  91 134 174 207 262 324 381
#
# _framework density 21.121818000000001
#
# number of rings (size 3 to 8) (size 9 to 14) (size 15 to 20)
#    0.000    0.750    5.000    2.625    3.500    0.500 
#    0.000    0.000    0.000    1.500    0.000    0.000 
#    0.000    0.000    0.000    0.000    0.000    0.000 
#
# Total GULP energy -198354.372347 kJ/mol
# GULP energy per Si atom -12397.148272 kJ/mol
# Density = 2.107374 g / cm^3
# Si number density = 21.121818 Si / 1000 Ang^3
#
#
#
# Elastic Constant Matrix: (Units=GPa)
#
#
# Indices 1 2 3 4 5 6 
#
# 1 123.0666 54.1562 29.4502 -4.7032 -18.9074 1.0843
# 2 54.1562 124.1018 16.9943 -8.9774 -3.5273 6.9175
# 3 29.4502 16.9943 56.6207 -3.9116 -14.1345 9.0063
# 4 -4.7032 -8.9774 -3.9116 30.7391 -0.0241 -0.5881
# 5 -18.9074 -3.5273 -14.1345 -0.0241 32.5139 -5.5552
# 6 1.0843 6.9175 9.0063 -0.5881 -5.5552 44.9124
#
#
#
# Elastic Compliance Matrix: (Units=1/GPa)
#
#
# Indices 1 2 3 4 5 6 
#
# 1 0.011812 -0.004591 -0.003796 0.000022 0.005029 0.001805
# 2 -0.004591 0.010363 -0.000871 0.002182 -0.002188 -0.001553
# 3 -0.003796 -0.000871 0.022266 0.001939 0.006803 -0.003372
# 4 0.000022 0.002182 0.001939 0.033417 0.001091 -0.000153
# 5 0.005029 -0.002188 0.006803 0.001091 0.036989 0.003441
# 6 0.001805 -0.001553 -0.003372 -0.000153 0.003441 0.023561
#
#
# Mechanical properties :
#
#
# Convention : Reuss Voigt Hill
#
# Bulk Modulus (GPa) = 38.57304 56.11004 47.34154
# Shear Modulus (GPa) = 30.19964 35.17897 32.68931
#
# Velocity S-wave (km/s) = 3.78535 4.08551 3.93829
# Velocity P-wave (km/s) = 6.11613 6.99127 6.56829
#
# Compressibility (1/GPa) = 0.02592484
#
# Stress axis : x y z
#
# Youngs Moduli (GPa) = 84.66056 96.49982 44.91191
#
# Poissons Ratio (x) = 0.44301 0.17049
# Poissons Ratio (y) = 0.38866 0.03911
# Poissons Ratio (z) = 0.32138 0.08404
#
# Static dielectric constant tensor:
#      x y z
#    x 4.101950 -0.012280 -0.117940 
#    y -0.012280 4.436980 -0.107530 
#    z -0.117940 -0.107530 3.414960 
# 
# 
# High freq. dielectric constant tensor:
#      x y z
#    x 1.845920 -0.000620 -0.012650 
#    y -0.000620 1.851970 -0.008950 
#    z -0.012650 -0.008950 1.784990 
# 
# From -- ./inp_files/273259.got.cif
#   From: 2010.06.25/outbox.cif.g09.slc.cpg/sg2_137_cif.got.tgz:273259.got - 2010.06.27 13:26:56.
