data_PCOD8013460
_publ_section_title
;
Structure prediction by ZEFSAII (Michael W. Deem and Ramdas Pophale) SiO2 
 PCOD8013460
Probable space group: P -1
;
_chemical_formula_sum "Si O2"
_cell_formula_units_Z 14
_cell_length_a 10.434969
_cell_length_b 16.797805
_cell_length_c 9.024687
_cell_angle_alpha 128.428889
_cell_angle_beta 78.275698
_cell_angle_gamma 61.083158
_cell_volume 735.945862
_symmetry_space_group_name_H-M "P -1"
_symmetry_group_IT_number 2
_symmetry_cell_setting 'triclinic'
loop_
_space_group_symop_operation_xyz
x,y,z
-x,-y,-z
loop_
_atom_site_type_symbol
_atom_site_label
_atom_site_fract_x
_atom_site_fract_y
_atom_site_fract_z
Si Si1 0.501773 0.773243 0.611578
Si Si2 0.208671 0.388037 0.913948
Si Si3 0.256741 0.336188 0.279315
Si Si4 0.765787 0.469873 0.685554
Si Si5 0.084835 0.147733 0.075774
Si Si6 0.375074 0.626504 0.539903
Si Si7 0.307914 0.151419 0.824603
O O1 0.674463 0.705642 0.613485
O O2 0.479069 0.666511 0.509111
O O3 0.271565 0.970341 0.911390
O O4 0.584617 0.749867 0.400746
O O5 0.217814 0.493100 0.111484
O O6 0.181346 0.317179 0.959814
O O7 0.000000 0.500000 0.000000
O O8 0.348275 0.380173 0.226962
O O9 0.000000 0.500000 0.500000
O O10 0.372770 0.165145 0.981298
O O11 0.619536 0.457546 0.697086
O O12 0.008388 0.289906 0.362623
O O13 0.162523 0.143865 0.893162
O O14 0.878052 0.202640 0.156406
O O15 0.500000 0.500000 0.500000
O O16 0.500000 0.000000 0.500000
#
# Coordination Sequence:
#
# PCOD8013460 Si02
#       7
#     2   2   2   2   2   2   2
#     4  12  22  38  65  92 119 160 204 255 294 363
#     4  11  25  36  62  94 124 155 205 246 306 358
#     4  11  20  37  62  86 121 161 206 237 301 372
#     4   9  21  40  59  85 122 161 198 246 297 362
#     4  10  22  39  62  89 122 153 208 245 307 353
#     4  10  21  40  68  84 115 167 210 242 299 359
#     4  11  22  41  58  86 129 158 186 258 312 354
#
# _framework density 19.023137999999999
#
# number of rings (size 3 to 8) (size 9 to 14) (size 15 to 20)
#    0.857    0.571    4.286    2.143    2.000    2.286 
#    0.000    0.000    0.000    1.714    0.000    0.000 
#    0.000    0.000    0.000    0.000    0.000    0.000 
#
# Total GULP energy -173436.263180 kJ/mol
# GULP energy per Si atom -12388.304513 kJ/mol
# Density = 1.897984 g / cm^3
# Si number density = 19.023138 Si / 1000 Ang^3
#
#
#
# Elastic Constant Matrix: (Units=GPa)
#
#
# Indices 1 2 3 4 5 6 
#
# 1 86.8191 37.8943 21.1936 -4.4608 5.2962 -14.0449
# 2 37.8943 85.7058 16.5402 -0.7457 1.3410 -9.7567
# 3 21.1936 16.5402 88.2148 -5.0782 8.5650 -20.4506
# 4 -4.4608 -0.7457 -5.0782 33.7235 -3.1572 -1.3103
# 5 5.2962 1.3410 8.5650 -3.1572 31.4323 -1.5892
# 6 -14.0449 -9.7567 -20.4506 -1.3103 -1.5892 35.2822
#
#
#
# Elastic Compliance Matrix: (Units=1/GPa)
#
#
# Indices 1 2 3 4 5 6 
#
# 1 0.015259 -0.006021 -0.001466 0.001656 -0.001569 0.003550
# 2 -0.006021 0.014653 -0.001172 -0.000545 0.000704 0.000988
# 3 -0.001466 -0.001172 0.013953 0.001881 -0.002956 0.007117
# 4 0.001656 -0.000545 0.001881 0.030482 0.002437 0.002841
# 5 -0.001569 0.000704 -0.002956 0.002437 0.033071 -0.000563
# 6 0.003550 0.000988 0.007117 0.002841 -0.000563 0.034234
#
#
# Mechanical properties :
#
#
# Convention : Reuss Voigt Hill
#
# Bulk Modulus (GPa) = 37.66851 45.77732 41.72291
# Shear Modulus (GPa) = 29.79421 32.42838 31.11129
#
# Velocity S-wave (km/s) = 3.96183 4.13326 4.04845
# Velocity P-wave (km/s) = 6.38534 6.84797 6.62070
#
# Compressibility (1/GPa) = 0.02654737
#
# Stress axis : x y z
#
# Youngs Moduli (GPa) = 65.53461 68.24731 71.66871
#
# Poissons Ratio (x) = 0.41089 0.10510
# Poissons Ratio (y) = 0.39456 0.08397
# Poissons Ratio (z) = 0.09611 0.07996
#
# Static dielectric constant tensor:
#      x y z
#    x 3.700350 0.486450 -0.150950 
#    y 0.486450 4.280310 -0.741110 
#    z -0.150950 -0.741110 4.132500 
# 
# 
# High freq. dielectric constant tensor:
#      x y z
#    x 1.733840 0.010430 0.009140 
#    y 0.010430 1.735730 0.003640 
#    z 0.009140 0.003640 1.732020 
# 
# From -- ./inp_files/215912.got.cif
#   From: 2010.06.25/outbox.cif.g09.slc.cpg/sg2_108_cif.got.tgz:215912.got - 2010.06.27 13:26:56.
