data_PCOD8013580
_publ_section_title
;
Structure prediction by ZEFSAII (Michael W. Deem and Ramdas Pophale) SiO2 
 PCOD8013580
Probable space group: P -1
;
_chemical_formula_sum "Si O2"
_cell_formula_units_Z 16
_cell_length_a 8.944334
_cell_length_b 25.394708
_cell_length_c 19.884160
_cell_angle_alpha 160.600966
_cell_angle_beta 40.899678
_cell_angle_gamma 148.766556
_cell_volume 743.438319
_symmetry_space_group_name_H-M "P -1"
_symmetry_group_IT_number 2
_symmetry_cell_setting 'triclinic'
loop_
_space_group_symop_operation_xyz
x,y,z
-x,-y,-z
loop_
_atom_site_type_symbol
_atom_site_label
_atom_site_fract_x
_atom_site_fract_y
_atom_site_fract_z
Si Si1 0.912096 0.479982 0.299479
Si Si2 0.568295 0.012999 0.570018
Si Si3 0.316488 0.920279 0.034796
Si Si4 0.146481 0.420214 0.887900
Si Si5 0.669746 0.759654 0.034826
Si Si6 0.291053 0.555542 0.143856
Si Si7 0.368987 0.276025 0.149134
Si Si8 0.787737 0.139588 0.250067
O O1 0.762769 0.298956 0.187601
O O2 0.659726 0.459403 0.316100
O O3 0.095791 0.450924 0.151098
O O4 0.143369 0.702854 0.525498
O O5 0.458573 0.800014 0.382746
O O6 0.500000 0.000000 0.500000
O O7 0.408674 0.089800 0.752750
O O8 0.933961 0.172430 0.647341
O O9 0.022111 0.896265 0.096788
O O10 0.500000 0.000000 0.000000
O O11 0.523020 0.080720 0.219182
O O12 0.486099 0.564631 0.916236
O O13 0.092565 0.447622 0.015675
O O14 0.000000 0.500000 0.000000
O O15 0.586654 0.664955 0.873618
O O16 0.500000 0.500000 0.000000
O O17 0.087623 0.251252 0.239135
O O18 0.312200 0.064374 0.923834
#
# Coordination Sequence:
#
# PCOD8013580 Si02
#       8
#     2   2   2   2   2   2   2   2
#     4  11  24  41  67  98 133 180 228 270 346 403
#     4  11  23  42  69  99 133 177 231 273 336 404
#     4  11  24  46  65  97 142 176 222 285 335 405
#     4  10  21  42  67  97 138 173 228 280 330 402
#     4  11  21  43  70 100 137 182 222 279 346 393
#     4  12  25  45  67 100 140 176 224 286 339 405
#     4  10  21  40  69  93 134 174 225 282 331 398
#     4  10  22  44  65  95 132 177 225 279 334 401
#
# _framework density 21.521623000000002
#
# number of rings (size 3 to 8) (size 9 to 14) (size 15 to 20)
#    0.000    1.250    3.750    3.375    0.000    2.000 
#    6.750    0.000    0.000    0.000    0.000    0.000 
#    0.000    0.000    0.000    0.000    0.000    0.000 
#
# Total GULP energy -198310.712657 kJ/mol
# GULP energy per Si atom -12394.419541 kJ/mol
# Density = 2.147264 g / cm^3
# Si number density = 21.521623 Si / 1000 Ang^3
#
#
#
# Elastic Constant Matrix: (Units=GPa)
#
#
# Indices 1 2 3 4 5 6 
#
# 1 116.5947 47.1145 46.7748 -2.0536 23.3842 6.4541
# 2 47.1145 132.2162 36.6208 -0.1020 12.8784 4.1312
# 3 46.7748 36.6208 95.5006 9.9742 25.5553 5.3146
# 4 -2.0536 -0.1020 9.9742 31.2708 0.1576 5.1429
# 5 23.3842 12.8784 25.5553 0.1576 40.3901 -3.7040
# 6 6.4541 4.1312 5.3146 5.1429 -3.7040 44.1635
#
#
#
# Elastic Compliance Matrix: (Units=1/GPa)
#
#
# Indices 1 2 3 4 5 6 
#
# 1 0.012231 -0.002814 -0.004059 0.002376 -0.003775 -0.001629
# 2 -0.002814 0.009179 -0.002210 0.000590 0.000076 -0.000244
# 3 -0.004059 -0.002210 0.015774 -0.005090 -0.007006 -0.001093
# 4 0.002376 0.000590 -0.005090 0.034361 0.001184 -0.003692
# 5 -0.003775 0.000076 -0.007006 0.001184 0.031706 0.003909
# 6 -0.001629 -0.000244 -0.001093 -0.003692 0.003909 0.023793
#
#
# Mechanical properties :
#
#
# Convention : Reuss Voigt Hill
#
# Bulk Modulus (GPa) = 52.58124 67.25909 59.92016
# Shear Modulus (GPa) = 32.99245 37.41832 35.20539
#
# Velocity S-wave (km/s) = 3.91959 4.17422 4.04891
# Velocity P-wave (km/s) = 6.70590 7.38592 7.05411
#
# Compressibility (1/GPa) = 0.01901819
#
# Stress axis : x y z
#
# Youngs Moduli (GPa) = 81.75802 108.94628 63.39620
#
# Poissons Ratio (x) = 0.30656 0.25733
# Poissons Ratio (y) = 0.23006 0.14010
# Poissons Ratio (z) = 0.33186 0.24076
#
# Static dielectric constant tensor:
#      x y z
#    x 4.068750 0.243240 0.294680 
#    y 0.243240 3.552670 -0.341910 
#    z 0.294680 -0.341910 3.486670 
# 
# 
# High freq. dielectric constant tensor:
#      x y z
#    x 1.857800 -0.005300 0.018640 
#    y -0.005300 1.856150 0.005910 
#    z 0.018640 0.005910 1.828970 
# 
# From -- ./inp_files/592103.got.cif
#   From: 2010.06.25/outbox.cif.g09.slc.cpg/sg2_297_cif.got.tgz:592103.got - 2010.06.27 13:26:56.
