data_PCOD8013854
_publ_section_title
;
Structure prediction by ZEFSAII (Michael W. Deem and Ramdas Pophale) SiO2 
 PCOD8013854
Probable space group: P -1
;
_chemical_formula_sum "Si O2"
_cell_formula_units_Z 16
_cell_length_a 8.799711
_cell_length_b 5.277486
_cell_length_c 28.316622
_cell_angle_alpha 90.748676
_cell_angle_beta 147.619933
_cell_angle_gamma 96.040929
_cell_volume 687.383040
_symmetry_space_group_name_H-M "P -1"
_symmetry_group_IT_number 2
_symmetry_cell_setting 'triclinic'
loop_
_space_group_symop_operation_xyz
x,y,z
-x,-y,-z
loop_
_atom_site_type_symbol
_atom_site_label
_atom_site_fract_x
_atom_site_fract_y
_atom_site_fract_z
Si Si1 0.295210 0.684165 0.063456
Si Si2 0.171600 0.511543 0.764217
Si Si3 0.688780 0.109829 0.836566
Si Si4 0.748762 0.753532 0.772603
Si Si5 0.249306 0.396005 0.682344
Si Si6 0.206051 0.567399 0.940359
Si Si7 0.167519 0.059672 0.303559
Si Si8 0.590551 0.261897 0.495821
O O1 0.543097 0.518642 0.133250
O O2 0.347869 0.923363 0.115883
O O3 0.287854 0.771325 0.006760
O O4 0.000000 0.500000 0.000000
O O5 0.227350 0.573513 0.723294
O O6 0.069531 0.760703 0.758681
O O7 0.935585 0.235085 0.706508
O O8 0.385369 0.161271 0.736778
O O9 0.972082 0.327411 0.898862
O O10 0.734677 0.854474 0.822791
O O11 0.457353 0.528120 0.694329
O O12 0.741170 0.949673 0.727899
O O13 0.058333 0.667550 0.855764
O O14 0.933348 0.307618 0.576324
O O15 0.500000 0.500000 0.000000
O O16 0.436501 0.217645 0.404593
O O17 0.500000 0.500000 0.500000
O O18 0.500000 0.000000 0.500000
#
# Coordination Sequence:
#
# PCOD8013854 Si02
#       8
#     2   2   2   2   2   2   2   2
#     4   9  20  41  63  93 131 180 237 279 333 408
#     4  11  24  45  71  98 137 183 231 284 339 411
#     4   9  22  41  61  94 136 178 230 276 349 405
#     4  11  26  41  68  98 141 182 222 289 356 410
#     4  10  23  43  70  94 139 176 228 282 343 410
#     4  10  21  41  62  94 137 176 236 285 342 399
#     4  12  26  45  70 105 137 179 227 284 356 403
#     4  12  24  45  72 106 134 174 237 286 336 416
#
# _framework density 23.276688
#
# number of rings (size 3 to 8) (size 9 to 14) (size 15 to 20)
#    0.000    1.500    2.500    1.500   10.500    1.500 
#    4.500    0.625    0.000    0.000    0.000    0.000 
#    0.000    0.000    0.000    0.000    0.000    0.000 
#
# Total GULP energy -198221.525748 kJ/mol
# GULP energy per Si atom -12388.845359 kJ/mol
# Density = 2.322371 g / cm^3
# Si number density = 23.276688 Si / 1000 Ang^3
#
#
#
# Elastic Constant Matrix: (Units=GPa)
#
#
# Indices 1 2 3 4 5 6 
#
# 1 105.0256 19.1525 45.2747 -9.1014 -8.5823 -2.1427
# 2 19.1525 66.7399 2.9300 -0.8161 5.5242 -4.8443
# 3 45.2747 2.9300 142.9247 -13.9291 16.4395 -1.8312
# 4 -9.1014 -0.8161 -13.9291 17.7747 -6.4667 -7.2352
# 5 -8.5823 5.5242 16.4395 -6.4667 39.4333 -8.3132
# 6 -2.1427 -4.8443 -1.8312 -7.2352 -8.3132 26.4783
#
#
#
# Elastic Compliance Matrix: (Units=1/GPa)
#
#
# Indices 1 2 3 4 5 6 
#
# 1 0.013442 -0.003859 -0.004200 0.008040 0.007515 0.004648
# 2 -0.003859 0.016418 0.001212 -0.000976 -0.003509 0.001407
# 3 -0.004200 0.001212 0.009145 0.003575 -0.004279 0.000148
# 4 0.008040 -0.000976 0.003575 0.082520 0.020169 0.029600
# 5 0.007515 -0.003509 -0.004279 0.020169 0.036057 0.016502
# 6 0.004648 0.001407 0.000148 0.029600 0.016502 0.051680
#
#
# Mechanical properties :
#
#
# Convention : Reuss Voigt Hill
#
# Bulk Modulus (GPa) = 39.50888 49.93385 44.72136
# Shear Modulus (GPa) = 21.60829 33.22611 27.41720
#
# Velocity S-wave (km/s) = 3.05014 3.78225 3.43575
# Velocity P-wave (km/s) = 5.42355 6.36967 5.91556
#
# Compressibility (1/GPa) = 0.02531077
#
# Stress axis : x y z
#
# Youngs Moduli (GPa) = 74.39594 60.90703 109.35196
#
# Poissons Ratio (x) = 0.23506 0.45929
# Poissons Ratio (y) = 0.28712 -0.13259
# Poissons Ratio (z) = 0.31247 -0.07385
#
# Static dielectric constant tensor:
#      x y z
#    x 4.388970 -0.139780 -0.027230 
#    y -0.139780 3.900310 0.045330 
#    z -0.027230 0.045330 4.718740 
# 
# 
# High freq. dielectric constant tensor:
#      x y z
#    x 1.924050 -0.004810 0.006170 
#    y -0.004810 1.896470 -0.003300 
#    z 0.006170 -0.003300 1.934060 
# 
# From -- ./inp_files/56235.got.cif
#   From: 2010.06.25/outbox.cif.g09.slc.cpg/sg2_29_cif.got.tgz:56235.got - 2010.06.27 13:26:56.
