data_PCOD8013335
_publ_section_title
;
Structure prediction by ZEFSAII (Michael W. Deem and Ramdas Pophale) SiO2 
 PCOD8013335
Probable space group: P -1
;
_chemical_formula_sum "Si O2"
_cell_formula_units_Z 14
_cell_length_a 8.773787
_cell_length_b 15.057700
_cell_length_c 6.492708
_cell_angle_alpha 108.536039
_cell_angle_beta 57.025444
_cell_angle_gamma 113.592802
_cell_volume 653.836231
_symmetry_space_group_name_H-M "P -1"
_symmetry_group_IT_number 2
_symmetry_cell_setting 'triclinic'
loop_
_space_group_symop_operation_xyz
x,y,z
-x,-y,-z
loop_
_atom_site_type_symbol
_atom_site_label
_atom_site_fract_x
_atom_site_fract_y
_atom_site_fract_z
Si Si1 0.890905 0.600233 0.077823
Si Si2 0.917002 0.429223 0.695991
Si Si3 0.662955 0.747938 0.329562
Si Si4 0.763582 0.103068 0.417083
Si Si5 0.370437 0.097151 0.848792
Si Si6 0.111176 0.103267 0.403781
Si Si7 0.753731 0.290529 0.369310
O O1 0.738077 0.654658 0.164300
O O2 0.923153 0.599116 0.300975
O O3 0.812225 0.488662 0.968030
O O4 0.094597 0.650583 0.861181
O O5 0.781984 0.332749 0.615845
O O6 0.000000 0.500000 0.500000
O O7 0.649182 0.804276 0.170164
O O8 0.812547 0.819637 0.418386
O O9 0.454297 0.709037 0.555520
O O10 0.589185 0.096288 0.697464
O O11 0.759534 0.178262 0.291417
O O12 0.965000 0.143726 0.409735
O O13 0.750467 0.996699 0.258557
O O14 0.289400 0.092371 0.133803
O O15 0.000000 0.000000 0.500000
#
# Coordination Sequence:
#
# PCOD8013335 Si02
#       7
#     2   2   2   2   2   2   2
#     4  10  21  40  67  87 121 153 194 250 299 360
#     4   9  20  42  64  91 117 155 192 242 310 362
#     4  11  24  39  59  94 118 161 206 242 298 355
#     4  10  21  41  61  84 122 167 197 254 300 342
#     4  10  23  42  57  86 126 158 208 251 295 349
#     4  12  24  36  58  86 119 162 209 249 293 347
#     4  10  22  39  62  89 122 155 202 244 300 355
#
# _framework density 21.412091
#
# number of rings (size 3 to 8) (size 9 to 14) (size 15 to 20)
#    0.000    1.714    1.429    2.143    2.000    5.714 
#    0.000    6.429    0.000    0.000    0.000    0.000 
#    0.000    0.000    0.000    0.000    0.000    0.000 
#
# Total GULP energy -173582.258563 kJ/mol
# GULP energy per Si atom -12398.732755 kJ/mol
# Density = 2.136336 g / cm^3
# Si number density = 21.412091 Si / 1000 Ang^3
#
#
#
# Elastic Constant Matrix: (Units=GPa)
#
#
# Indices 1 2 3 4 5 6 
#
# 1 76.3430 18.3665 10.5092 7.8787 -8.5121 -5.0372
# 2 18.3665 68.6909 8.9631 0.6448 -9.3386 -21.9710
# 3 10.5092 8.9631 64.5856 -11.8196 -5.5181 -9.7460
# 4 7.8787 0.6448 -11.8196 31.9601 -0.6466 -4.7778
# 5 -8.5121 -9.3386 -5.5181 -0.6466 30.3288 3.8245
# 6 -5.0372 -21.9710 -9.7460 -4.7778 3.8245 34.3499
#
#
#
# Elastic Compliance Matrix: (Units=1/GPa)
#
#
# Indices 1 2 3 4 5 6 
#
# 1 0.015118 -0.003929 -0.002920 -0.004990 0.002662 -0.002115
# 2 -0.003929 0.019942 0.000527 0.002673 0.003640 0.012295
# 3 -0.002920 0.000527 0.018552 0.008528 0.002128 0.006122
# 4 -0.004990 0.002673 0.008528 0.036897 0.000695 0.008452
# 5 0.002662 0.003640 0.002128 0.000695 0.035307 -0.000512
# 6 -0.002115 0.012295 0.006122 0.008452 -0.000512 0.039636
#
#
# Mechanical properties :
#
#
# Convention : Reuss Voigt Hill
#
# Bulk Modulus (GPa) = 24.40836 31.69967 28.05402
# Shear Modulus (GPa) = 26.07562 30.77981 28.42772
#
# Velocity S-wave (km/s) = 3.49348 3.79555 3.64764
# Velocity P-wave (km/s) = 5.26276 5.83480 5.55615
#
# Compressibility (1/GPa) = 0.04096956
#
# Stress axis : x y z
#
# Youngs Moduli (GPa) = 66.14574 50.14493 53.90387
#
# Poissons Ratio (x) = 0.19702 0.15737
# Poissons Ratio (y) = 0.25988 -0.02842
# Poissons Ratio (z) = 0.19311 -0.02644
#
# Static dielectric constant tensor:
#      x y z
#    x 4.024570 0.067810 0.028720 
#    y 0.067810 4.313570 0.197220 
#    z 0.028720 0.197220 3.838890 
# 
# 
# High freq. dielectric constant tensor:
#      x y z
#    x 1.835250 -0.006810 -0.000020 
#    y -0.006810 1.853750 0.005970 
#    z -0.000020 0.005970 1.824030 
# 
# From -- ./inp_files/35628.got.cif
#   From: 2010.06.25/outbox.cif.g09.slc.cpg/sg2_18_cif.got.tgz:35628.got - 2010.06.27 13:26:56.
