data_PCOD8013977
_publ_section_title
;
Structure prediction by ZEFSAII (Michael W. Deem and Ramdas Pophale) SiO2 
 PCOD8013977
Probable space group: P -1
;
_chemical_formula_sum "Si O2"
_cell_formula_units_Z 14
_cell_length_a 25.114682
_cell_length_b 13.373605
_cell_length_c 10.389384
_cell_angle_alpha 148.037772
_cell_angle_beta 146.398566
_cell_angle_gamma 22.835861
_cell_volume 694.442477
_symmetry_space_group_name_H-M "P -1"
_symmetry_group_IT_number 2
_symmetry_cell_setting 'triclinic'
loop_
_space_group_symop_operation_xyz
x,y,z
-x,-y,-z
loop_
_atom_site_type_symbol
_atom_site_label
_atom_site_fract_x
_atom_site_fract_y
_atom_site_fract_z
Si Si1 0.880729 0.678906 0.848603
Si Si2 0.008544 0.361058 0.241058
Si Si3 0.634894 0.289310 0.951961
Si Si4 0.560433 0.061590 0.370472
Si Si5 0.855567 0.178116 0.973963
Si Si6 0.285223 0.416795 0.659452
Si Si7 0.711885 0.617684 0.974775
O O1 0.954381 0.575485 0.742878
O O2 0.788451 0.623644 0.629997
O O3 0.772137 0.012148 0.003162
O O4 0.000000 0.500000 0.000000
O O5 0.000000 0.500000 0.500000
O O6 0.141493 0.027726 0.172572
O O7 0.858737 0.469013 0.040674
O O8 0.602363 0.207703 0.670582
O O9 0.500000 0.500000 0.000000
O O10 0.662867 0.465527 0.167807
O O11 0.395349 0.287424 0.249599
O O12 0.582805 0.876468 0.326330
O O13 0.653454 0.874586 0.226832
O O14 0.731992 0.395503 0.857209
O O15 0.839048 0.364472 0.249684
O O16 0.000000 0.000000 0.000000
#
# Coordination Sequence:
#
# PCOD8013977 Si02
#       7
#     2   2   2   2   2   2   2
#     4  11  25  43  64  95 129 165 216 265 316 380
#     4  11  20  37  64  93 129 165 205 262 328 379
#     4  11  24  43  63  87 123 177 217 255 321 380
#     4   9  20  41  60  90 128 159 209 265 320 371
#     4   9  17  34  59  90 119 160 198 249 324 370
#     4  10  21  41  64  82 125 164 204 264 314 376
#     4   9  19  36  63  94 124 161 209 266 314 382
#
# _framework density 20.160056999999998
#
# number of rings (size 3 to 8) (size 9 to 14) (size 15 to 20)
#    0.000    2.000    1.429    3.429    0.000    5.143 
#   10.286    2.143    0.000    0.000    0.000    0.000 
#    0.000    0.000    0.000    0.000    0.000    0.000 
#
# Total GULP energy -173439.790067 kJ/mol
# GULP energy per Si atom -12388.556433 kJ/mol
# Density = 2.011417 g / cm^3
# Si number density = 20.160057 Si / 1000 Ang^3
#
#
#
# Elastic Constant Matrix: (Units=GPa)
#
#
# Indices 1 2 3 4 5 6 
#
# 1 103.8381 52.5347 59.0027 -6.7288 12.4413 9.0564
# 2 52.5347 136.2229 59.9355 -16.8623 1.6429 18.0482
# 3 59.0027 59.9355 109.8670 -9.1680 17.9303 27.5500
# 4 -6.7288 -16.8623 -9.1680 29.3002 3.3131 -2.4894
# 5 12.4413 1.6429 17.9303 3.3131 34.2547 1.0033
# 6 9.0564 18.0482 27.5500 -2.4894 1.0033 35.3587
#
#
#
# Elastic Compliance Matrix: (Units=1/GPa)
#
#
# Indices 1 2 3 4 5 6 
#
# 1 0.015085 -0.003206 -0.006850 -0.000049 -0.001827 0.003159
# 2 -0.003206 0.010971 -0.003945 0.003949 0.002365 -0.001494
# 3 -0.006850 -0.003945 0.018925 0.001978 -0.007109 -0.010637
# 4 -0.000049 0.003949 0.001978 0.037488 -0.004810 -0.000769
# 5 -0.001827 0.002365 -0.007109 -0.004810 0.033827 0.003501
# 6 0.003159 -0.001494 -0.010637 -0.000769 0.003501 0.036369
#
#
# Mechanical properties :
#
#
# Convention : Reuss Voigt Hill
#
# Bulk Modulus (GPa) = 58.89668 76.98596 67.94132
# Shear Modulus (GPa) = 26.83421 31.67974 29.25697
#
# Velocity S-wave (km/s) = 3.65232 3.96840 3.81364
# Velocity P-wave (km/s) = 6.86032 7.69857 7.29150
#
# Compressibility (1/GPa) = 0.01697889
#
# Stress axis : x y z
#
# Youngs Moduli (GPa) = 66.29050 91.14561 52.83918
#
# Poissons Ratio (x) = 0.29223 0.36195
# Poissons Ratio (y) = 0.21254 0.20846
# Poissons Ratio (z) = 0.45410 0.35959
#
# Static dielectric constant tensor:
#      x y z
#    x 3.635500 0.133080 0.031790 
#    y 0.133080 4.208650 0.255430 
#    z 0.031790 0.255430 3.567460 
# 
# 
# High freq. dielectric constant tensor:
#      x y z
#    x 1.777950 -0.001460 0.007770 
#    y -0.001460 1.802700 0.010500 
#    z 0.007770 0.010500 1.773050 
# 
# From -- ./inp_files/476851.got.cif
#   From: 2010.06.25/outbox.cif.g09.slc.cpg/sg2_239_cif.got.tgz:476851.got - 2010.06.27 13:26:56.
