data_PCOD8013055
_publ_section_title
;
Structure prediction by ZEFSAII (Michael W. Deem and Ramdas Pophale) SiO2 
 PCOD8013055
Probable space group: P -1
;
_chemical_formula_sum "Si O2"
_cell_formula_units_Z 16
_cell_length_a 13.698753
_cell_length_b 15.531710
_cell_length_c 11.401601
_cell_angle_alpha 37.919453
_cell_angle_beta 149.508296
_cell_angle_gamma 139.810271
_cell_volume 728.408358
_symmetry_space_group_name_H-M "P -1"
_symmetry_group_IT_number 2
_symmetry_cell_setting 'triclinic'
loop_
_space_group_symop_operation_xyz
x,y,z
-x,-y,-z
loop_
_atom_site_type_symbol
_atom_site_label
_atom_site_fract_x
_atom_site_fract_y
_atom_site_fract_z
Si Si1 0.237103 0.915973 0.417180
Si Si2 0.392718 0.694381 0.696559
Si Si3 0.166979 0.919832 0.786786
Si Si4 0.930384 0.404843 0.915875
Si Si5 0.538596 0.330787 0.468798
Si Si6 0.555524 0.998339 0.228875
Si Si7 0.811567 0.555770 0.079775
Si Si8 0.830156 0.780090 0.046349
O O1 0.359668 0.854420 0.511332
O O2 0.003843 0.818794 0.281874
O O3 0.351376 0.903828 0.668624
O O4 0.233165 0.079415 0.215117
O O5 0.353356 0.661100 0.554522
O O6 0.232578 0.581594 0.731199
O O7 0.615974 0.680889 0.977984
O O8 0.044759 0.756456 0.867493
O O9 0.310212 0.919053 0.826531
O O10 0.320139 0.993207 0.972310
O O11 0.000000 0.000000 0.500000
O O12 0.046479 0.472328 0.845719
O O13 0.000000 0.500000 0.000000
O O14 0.699129 0.396644 0.664279
O O15 0.423632 0.164794 0.560318
O O16 0.386166 0.428740 0.206510
O O17 0.905197 0.700676 0.099306
#
# Coordination Sequence:
#
# PCOD8013055 Si02
#       8
#     2   2   2   2   2   2   2   2
#     4  11  22  37  63  96 130 158 207 260 304 374
#     4  11  23  39  64  98 131 167 202 254 315 377
#     4  10  23  43  66  90 118 163 219 261 315 370
#     4  11  26  44  64  92 122 166 216 265 310 364
#     4  10  21  43  68  88 130 167 204 252 321 384
#     4  10  21  40  65  90 126 162 205 262 314 364
#     4  11  23  43  65  90 129 174 204 251 316 380
#     4  10  22  39  63  95 128 165 208 248 316 383
#
# _framework density 21.965700999999999
#
# number of rings (size 3 to 8) (size 9 to 14) (size 15 to 20)
#    0.000    1.500    2.500    3.375    1.750    4.500 
#    2.250    0.000    0.000    0.000    0.000    0.000 
#    0.000    0.000    0.000    0.000    0.000    0.000 
#
# Total GULP energy -198354.654214 kJ/mol
# GULP energy per Si atom -12397.165888 kJ/mol
# Density = 2.191571 g / cm^3
# Si number density = 21.965701 Si / 1000 Ang^3
#
#
#
# Elastic Constant Matrix: (Units=GPa)
#
#
# Indices 1 2 3 4 5 6 
#
# 1 73.4053 33.0140 -3.2689 9.3074 -8.5429 3.6221
# 2 33.0140 93.7648 37.0376 30.8854 -8.9324 -11.2056
# 3 -3.2689 37.0376 103.3581 27.8685 -7.0277 -12.1794
# 4 9.3074 30.8854 27.8685 45.0177 -2.2460 -10.7528
# 5 -8.5429 -8.9324 -7.0277 -2.2460 28.4799 -5.6408
# 6 3.6221 -11.2056 -12.1794 -10.7528 -5.6408 32.2858
#
#
#
# Elastic Compliance Matrix: (Units=1/GPa)
#
#
# Indices 1 2 3 4 5 6 
#
# 1 0.017694 -0.007163 0.003353 -0.001408 0.003159 -0.003123
# 2 -0.007163 0.017858 -0.004076 -0.007288 0.002562 0.003485
# 3 0.003353 -0.004076 0.013123 -0.005432 0.002905 0.001858
# 4 -0.001408 -0.007288 -0.005432 0.032363 -0.000245 0.006315
# 5 0.003159 0.002562 0.002905 -0.000245 0.039225 0.008402
# 6 -0.003123 0.003485 0.001858 0.006315 0.008402 0.036805
#
#
# Mechanical properties :
#
#
# Convention : Reuss Voigt Hill
#
# Bulk Modulus (GPa) = 30.39295 44.89929 37.64612
# Shear Modulus (GPa) = 27.20220 34.73970 30.97095
#
# Velocity S-wave (km/s) = 3.52290 3.98118 3.75903
# Velocity P-wave (km/s) = 5.51492 6.45120 6.00135
#
# Compressibility (1/GPa) = 0.03290237
#
# Stress axis : x y z
#
# Youngs Moduli (GPa) = 56.51616 55.99725 76.20312
#
# Poissons Ratio (x) = 0.40110 -0.25549
# Poissons Ratio (y) = 0.40482 0.31061
# Poissons Ratio (z) = -0.18948 0.22825
#
# Static dielectric constant tensor:
#      x y z
#    x 3.799700 0.134030 0.017670 
#    y 0.134030 4.027440 0.239910 
#    z 0.017670 0.239910 4.128330 
# 
# 
# High freq. dielectric constant tensor:
#      x y z
#    x 1.843310 0.010490 0.001090 
#    y 0.010490 1.863720 0.011350 
#    z 0.001090 0.011350 1.875750 
# 
# From -- ./inp_files/454581.got.cif
#   From: 2010.06.25/outbox.cif.g09.slc.cpg/sg2_228_cif.got.tgz:454581.got - 2010.06.27 13:26:56.
