data_PCOD8013027
_publ_section_title
;
Structure prediction by ZEFSAII (Michael W. Deem and Ramdas Pophale) SiO2 
 PCOD8013027
Probable space group: P -1
;
_chemical_formula_sum "Si O2"
_cell_formula_units_Z 14
_cell_length_a 22.228207
_cell_length_b 12.529082
_cell_length_c 16.116096
_cell_angle_alpha 151.508560
_cell_angle_beta 16.915108
_cell_angle_gamma 149.443797
_cell_volume 616.271684
_symmetry_space_group_name_H-M "P -1"
_symmetry_group_IT_number 2
_symmetry_cell_setting 'triclinic'
loop_
_space_group_symop_operation_xyz
x,y,z
-x,-y,-z
loop_
_atom_site_type_symbol
_atom_site_label
_atom_site_fract_x
_atom_site_fract_y
_atom_site_fract_z
Si Si1 0.794726 0.703978 0.700034
Si Si2 0.976027 0.829464 0.226521
Si Si3 0.558786 0.028254 0.693714
Si Si4 0.525891 0.835395 0.778911
Si Si5 0.062015 0.622263 0.586231
Si Si6 0.793611 0.510331 0.389677
Si Si7 0.615988 0.588290 0.229180
O O1 0.793549 0.518452 0.646309
O O2 0.845623 0.584643 0.465731
O O3 0.571455 0.788760 0.047977
O O4 0.967299 0.913522 0.641765
O O5 0.766740 0.802662 0.429665
O O6 0.943459 0.683742 0.253556
O O7 0.148445 0.740292 0.878091
O O8 0.802048 0.136813 0.450256
O O9 0.459751 0.948504 0.859119
O O10 0.530072 0.809880 0.525036
O O11 0.385497 0.593344 0.817845
O O12 0.500000 0.000000 0.000000
O O13 0.000000 0.500000 0.500000
O O14 0.850021 0.656659 0.935569
O O15 0.547097 0.515245 0.698263
#
# Coordination Sequence:
#
# PCOD8013027 Si02
#       7
#     2   2   2   2   2   2   2
#     4  12  24  43  71  99 137 186 234 282 350 407
#     4  10  21  40  65 104 141 178 226 284 347 403
#     4  12  25  45  69 104 141 182 234 288 346 414
#     4  11  23  43  72 102 141 183 230 286 347 412
#     4  12  27  48  70  97 139 186 237 285 350 417
#     4  10  22  41  67 102 142 177 228 288 341 412
#     4  11  24  46  69 105 138 184 230 288 347 412
#
# _framework density 22.717254000000001
#
# number of rings (size 3 to 8) (size 9 to 14) (size 15 to 20)
#    0.000    0.857    1.429    6.857    2.000    1.143 
#    2.571    1.429    0.000    0.000    0.000    0.000 
#    0.000    0.000    0.000    0.000    0.000    0.000 
#
# Total GULP energy -173636.353608 kJ/mol
# GULP energy per Si atom -12402.596686 kJ/mol
# Density = 2.266555 g / cm^3
# Si number density = 22.717254 Si / 1000 Ang^3
#
#
#
# Elastic Constant Matrix: (Units=GPa)
#
#
# Indices 1 2 3 4 5 6 
#
# 1 102.0319 17.2407 31.3747 18.9876 17.4126 -8.1430
# 2 17.2407 75.9852 17.7276 7.9936 28.9286 7.4877
# 3 31.3747 17.7276 107.9448 8.5343 9.9455 -6.1753
# 4 18.9876 7.9936 8.5343 39.0906 2.1428 0.5678
# 5 17.4126 28.9286 9.9455 2.1428 25.9390 5.5382
# 6 -8.1430 7.4877 -6.1753 0.5678 5.5382 32.3585
#
#
#
# Elastic Compliance Matrix: (Units=1/GPa)
#
#
# Indices 1 2 3 4 5 6 
#
# 1 0.013517 0.001674 -0.002527 -0.005848 -0.010432 0.004420
# 2 0.001674 0.023727 -0.001689 -0.003835 -0.026451 -0.000797
# 3 -0.002527 -0.001689 0.010515 -0.000707 -0.000802 0.001911
# 4 -0.005848 -0.003835 -0.000707 0.029034 0.006578 -0.002355
# 5 -0.010432 -0.026451 -0.000802 0.006578 0.076941 -0.009941
# 6 0.004420 -0.000797 0.001911 -0.002355 -0.009941 0.034308
#
#
# Mechanical properties :
#
#
# Convention : Reuss Voigt Hill
#
# Bulk Modulus (GPa) = 23.43303 46.51645 34.97474
# Shear Modulus (GPa) = 24.11393 34.11890 29.11641
#
# Velocity S-wave (km/s) = 3.26157 3.87963 3.58395
# Velocity P-wave (km/s) = 4.95190 6.37098 5.70573
#
# Compressibility (1/GPa) = 0.04267481
#
# Stress axis : x y z
#
# Youngs Moduli (GPa) = 73.98355 42.14680 95.10324
#
# Poissons Ratio (x) = -0.07056 0.24034
# Poissons Ratio (y) = -0.12386 0.16059
# Poissons Ratio (z) = 0.18697 0.07117
#
# Static dielectric constant tensor:
#      x y z
#    x 4.192950 -0.252370 0.064080 
#    y -0.252370 4.767960 -0.311700 
#    z 0.064080 -0.311700 4.430670 
# 
# 
# High freq. dielectric constant tensor:
#      x y z
#    x 1.891490 0.008430 -0.005470 
#    y 0.008430 1.901050 0.007090 
#    z -0.005470 0.007090 1.902010 
# 
# From -- ./inp_files/190481.got.cif
#   From: 2010.06.25/outbox.cif.g09.slc.cpg/sg2_96_cif.got.tgz:190481.got - 2010.06.27 13:26:56.
