data_PCOD8013137
_publ_section_title
;
Structure prediction by ZEFSAII (Michael W. Deem and Ramdas Pophale) SiO2 
 PCOD8013137
Probable space group: P -1
;
_chemical_formula_sum "Si O2"
_cell_formula_units_Z 14
_cell_length_a 14.645786
_cell_length_b 9.350398
_cell_length_c 12.650278
_cell_angle_alpha 134.256412
_cell_angle_beta 149.961381
_cell_angle_gamma 58.347626
_cell_volume 605.697332
_symmetry_space_group_name_H-M "P -1"
_symmetry_group_IT_number 2
_symmetry_cell_setting 'triclinic'
loop_
_space_group_symop_operation_xyz
x,y,z
-x,-y,-z
loop_
_atom_site_type_symbol
_atom_site_label
_atom_site_fract_x
_atom_site_fract_y
_atom_site_fract_z
Si Si1 0.280454 0.632211 0.798390
Si Si2 0.317952 0.579383 0.388651
Si Si3 0.227665 0.541426 0.051952
Si Si4 0.360054 0.415016 0.554915
Si Si5 0.201151 0.987645 0.236121
Si Si6 0.334513 0.040366 0.630006
Si Si7 0.902607 0.696039 0.389450
O O1 0.290129 0.496005 0.634412
O O2 0.240853 0.480858 0.780424
O O3 0.109003 0.746745 0.673037
O O4 0.467193 0.799886 0.094041
O O5 0.500000 0.500000 0.500000
O O6 0.176363 0.526695 0.118554
O O7 0.235407 0.470402 0.359422
O O8 0.372173 0.822712 0.588609
O O9 0.425469 0.479727 0.198276
O O10 0.239390 0.767735 0.133074
O O11 0.078598 0.379692 0.751247
O O12 0.343389 0.170163 0.412343
O O13 0.224208 0.031168 0.405422
O O14 0.000000 0.000000 0.000000
O O15 0.191497 0.107824 0.604841
#
# Coordination Sequence:
#
# PCOD8013137 Si02
#       7
#     2   2   2   2   2   2   2
#     4  11  23  38  68 100 129 169 213 269 325 373
#     4   9  23  43  67  92 127 178 215 259 324 386
#     4  10  21  40  65  95 129 168 213 269 319 379
#     4  11  20  42  66  94 128 173 217 261 325 382
#     4  11  23  39  64  98 127 165 219 265 322 381
#     4  11  22  45  67  94 131 172 213 264 325 381
#     4  11  22  40  67 100 131 162 221 269 314 384
#
# _framework density 23.113855000000001
#
# number of rings (size 3 to 8) (size 9 to 14) (size 15 to 20)
#    0.000    1.429    2.857    2.571    2.000    2.857 
#    0.000    7.143    3.143    0.000    0.000    0.000 
#    0.000    0.000    0.000    0.000    0.000    0.000 
#
# Total GULP energy -173562.449300 kJ/mol
# GULP energy per Si atom -12397.317807 kJ/mol
# Density = 2.306125 g / cm^3
# Si number density = 23.113855 Si / 1000 Ang^3
#
#
#
# Elastic Constant Matrix: (Units=GPa)
#
#
# Indices 1 2 3 4 5 6 
#
# 1 65.6951 30.7604 22.8524 -2.4318 -25.7920 -6.2057
# 2 30.7604 139.0979 34.5908 -4.2682 -19.5493 -13.9059
# 3 22.8524 34.5908 95.5892 -9.1683 -25.5217 -10.2435
# 4 -2.4318 -4.2682 -9.1683 25.0062 -2.5693 -6.8515
# 5 -25.7920 -19.5493 -25.5217 -2.5693 30.3447 -7.7771
# 6 -6.2057 -13.9059 -10.2435 -6.8515 -7.7771 39.9045
#
#
#
# Elastic Compliance Matrix: (Units=1/GPa)
#
#
# Indices 1 2 3 4 5 6 
#
# 1 0.028109 -0.001335 0.004494 0.010903 0.031062 0.012985
# 2 -0.001335 0.008928 -0.000783 0.002803 0.005275 0.004212
# 3 0.004494 -0.000783 0.018153 0.012472 0.022622 0.011636
# 4 0.010903 0.002803 0.012472 0.055271 0.031766 0.021555
# 5 0.031062 0.005275 0.022622 0.031766 0.093749 0.036201
# 6 0.012985 0.004212 0.011636 0.021555 0.036201 0.042290
#
#
# Mechanical properties :
#
#
# Convention : Reuss Voigt Hill
#
# Bulk Modulus (GPa) = 16.68293 52.97660 34.82977
# Shear Modulus (GPa) = 19.10373 33.19632 26.15002
#
# Velocity S-wave (km/s) = 2.87802 3.79385 3.36721
# Velocity P-wave (km/s) = 4.27521 6.49312 5.49718
#
# Compressibility (1/GPa) = 0.05994152
#
# Stress axis : x y z
#
# Youngs Moduli (GPa) = 35.57556 112.01260 55.08634
#
# Poissons Ratio (x) = 0.14957 -0.24755
# Poissons Ratio (y) = 0.04750 0.04312
# Poissons Ratio (z) = -0.15987 0.08769
#
# Static dielectric constant tensor:
#      x y z
#    x 4.240830 0.098600 -0.367570 
#    y 0.098600 4.492070 -0.237040 
#    z -0.367570 -0.237040 4.205470 
# 
# 
# High freq. dielectric constant tensor:
#      x y z
#    x 1.903940 -0.014110 -0.018960 
#    y -0.014110 1.917370 -0.019490 
#    z -0.018960 -0.019490 1.912290 
# 
# From -- ./inp_files/261442.got.cif
#   From: 2010.06.25/outbox.cif.g09.slc.cpg/sg2_131_cif.got.tgz:261442.got - 2010.06.27 13:26:56.
