data_PCOD8013152
_publ_section_title
;
Structure prediction by ZEFSAII (Michael W. Deem and Ramdas Pophale) SiO2 
 PCOD8013152
Probable space group: P -1
;
_chemical_formula_sum "Si O2"
_cell_formula_units_Z 16
_cell_length_a 8.583202
_cell_length_b 12.060864
_cell_length_c 17.414545
_cell_angle_alpha 147.463119
_cell_angle_beta 50.096898
_cell_angle_gamma 118.000268
_cell_volume 732.613596
_symmetry_space_group_name_H-M "P -1"
_symmetry_group_IT_number 2
_symmetry_cell_setting 'triclinic'
loop_
_space_group_symop_operation_xyz
x,y,z
-x,-y,-z
loop_
_atom_site_type_symbol
_atom_site_label
_atom_site_fract_x
_atom_site_fract_y
_atom_site_fract_z
Si Si1 0.611880 0.556369 0.376456
Si Si2 0.193249 0.085818 0.954804
Si Si3 0.064755 0.987193 0.273078
Si Si4 0.974889 0.304943 0.017532
Si Si5 0.786407 0.343111 0.855361
Si Si6 0.641314 0.515484 0.848238
Si Si7 0.396649 0.248197 0.349506
Si Si8 0.600008 0.186319 0.542098
O O1 0.798500 0.399994 0.188328
O O2 0.434223 0.429584 0.385169
O O3 0.693794 0.659003 0.486251
O O4 0.519557 0.739950 0.454723
O O5 0.392550 0.909877 0.795024
O O6 0.232399 0.301154 0.110172
O O7 0.145331 0.138449 0.911171
O O8 0.000000 0.000000 0.000000
O O9 0.090386 0.882839 0.288990
O O10 0.223461 0.143910 0.302202
O O11 0.123647 0.805117 0.085054
O O12 0.836774 0.107791 0.402464
O O13 0.090747 0.481511 0.048414
O O14 0.775171 0.356909 0.774182
O O15 0.560840 0.366574 0.976466
O O16 0.579816 0.386136 0.720754
O O17 0.500000 0.000000 0.500000
#
# Coordination Sequence:
#
# PCOD8013152 Si02
#       8
#     2   2   2   2   2   2   2   2
#     4  11  26  46  67  97 142 174 230 274 342 399
#     4  11  22  43  70  97 131 175 225 272 339 402
#     4  12  25  40  69  99 135 175 228 272 337 395
#     4  11  23  41  69  99 131 180 217 281 334 403
#     4  10  21  40  65  96 136 172 220 273 335 403
#     4  10  23  40  67 101 133 176 225 279 332 403
#     4  11  26  45  69 100 133 180 222 285 331 405
#     4  12  27  44  68  99 140 181 225 281 337 395
#
# _framework density 21.839615999999999
#
# number of rings (size 3 to 8) (size 9 to 14) (size 15 to 20)
#    0.000    1.000    2.500    3.375    5.250    2.500 
#    0.000    0.000    0.000    0.000    0.000    0.000 
#    0.000    0.000    0.000    0.000    0.000    0.000 
#
# Total GULP energy -198453.939386 kJ/mol
# GULP energy per Si atom -12403.371212 kJ/mol
# Density = 2.178991 g / cm^3
# Si number density = 21.839616 Si / 1000 Ang^3
#
#
#
# Elastic Constant Matrix: (Units=GPa)
#
#
# Indices 1 2 3 4 5 6 
#
# 1 84.6203 40.6695 20.9418 2.5116 3.3685 14.7536
# 2 40.6695 123.9682 25.2687 16.8456 10.8526 14.3179
# 3 20.9418 25.2687 71.0231 -4.8252 -3.0150 6.7084
# 4 2.5116 16.8456 -4.8252 33.2337 7.6183 -2.2988
# 5 3.3685 10.8526 -3.0150 7.6183 35.4420 11.8964
# 6 14.7536 14.3179 6.7084 -2.2988 11.8964 46.0573
#
#
#
# Elastic Compliance Matrix: (Units=1/GPa)
#
#
# Indices 1 2 3 4 5 6 
#
# 1 0.014969 -0.004079 -0.002609 0.000173 0.000680 -0.003314
# 2 -0.004079 0.011089 -0.003034 -0.005505 -0.001555 -0.001572
# 3 -0.002609 -0.003034 0.016353 0.003553 0.002132 -0.000976
# 4 0.000173 -0.005505 0.003553 0.035372 -0.007233 0.004772
# 5 0.000680 -0.001555 0.002132 -0.007233 0.033394 -0.009032
# 6 -0.003314 -0.001572 -0.000976 0.004772 -0.009032 0.025975
#
#
# Mechanical properties :
#
#
# Convention : Reuss Voigt Hill
#
# Bulk Modulus (GPa) = 43.54146 50.37462 46.95804
# Shear Modulus (GPa) = 30.44091 35.79536 33.11813
#
# Velocity S-wave (km/s) = 3.73747 4.05286 3.89835
# Velocity P-wave (km/s) = 6.21330 6.70945 6.46613
#
# Compressibility (1/GPa) = 0.02296662
#
# Stress axis : x y z
#
# Youngs Moduli (GPa) = 66.80325 90.17895 61.15180
#
# Poissons Ratio (x) = 0.36787 0.15954
# Poissons Ratio (y) = 0.27251 0.18554
# Poissons Ratio (z) = 0.17428 0.27361
#
# Static dielectric constant tensor:
#      x y z
#    x 4.220900 0.103630 -0.083910 
#    y 0.103630 4.128670 0.151630 
#    z -0.083910 0.151630 3.875180 
# 
# 
# High freq. dielectric constant tensor:
#      x y z
#    x 1.868330 0.005330 -0.005720 
#    y 0.005330 1.867780 0.013210 
#    z -0.005720 0.013210 1.849170 
# 
# From -- ./inp_files/188783.got.cif
#   From: 2010.06.25/outbox.cif.g09.slc.cpg/sg2_95_cif.got.tgz:188783.got - 2010.06.27 13:26:56.
