data_PCOD8013925
_publ_section_title
;
Structure prediction by ZEFSAII (Michael W. Deem and Ramdas Pophale) SiO2 
 PCOD8013925
Probable space group: P -1
;
_chemical_formula_sum "Si O2"
_cell_formula_units_Z 16
_cell_length_a 9.010239
_cell_length_b 5.267177
_cell_length_c 28.420176
_cell_angle_alpha 75.898262
_cell_angle_beta 149.834575
_cell_angle_gamma 105.902861
_cell_volume 651.756538
_symmetry_space_group_name_H-M "P -1"
_symmetry_group_IT_number 2
_symmetry_cell_setting 'triclinic'
loop_
_space_group_symop_operation_xyz
x,y,z
-x,-y,-z
loop_
_atom_site_type_symbol
_atom_site_label
_atom_site_fract_x
_atom_site_fract_y
_atom_site_fract_z
Si Si1 0.253690 0.319978 0.505599
Si Si2 0.319789 0.169243 0.790451
Si Si3 0.252498 0.787287 0.420386
Si Si4 0.216599 0.200652 0.250762
Si Si5 0.716313 0.898969 0.380778
Si Si6 0.719984 0.318549 0.811025
Si Si7 0.769379 0.398337 0.177832
Si Si8 0.757013 0.830209 0.090097
O O1 0.127720 0.571035 0.435749
O O2 0.586294 0.330323 0.574910
O O3 0.252952 0.333917 0.562093
O O4 0.032776 0.052541 0.443595
O O5 0.613993 0.267750 0.837062
O O6 0.257200 0.420901 0.792416
O O7 0.031179 0.085989 0.682256
O O8 0.395112 0.900680 0.848052
O O9 0.500000 0.000000 0.500000
O O10 0.223268 0.368406 0.196666
O O11 0.117066 0.372329 0.260050
O O12 0.534595 0.102979 0.351115
O O13 0.955312 0.955313 0.183080
O O14 0.534303 0.796034 0.290219
O O15 0.024587 0.189530 0.893438
O O16 0.626038 0.537348 0.087113
O O17 0.500000 0.000000 0.000000
#
# Coordination Sequence:
#
# PCOD8013925 Si02
#       8
#     2   2   2   2   2   2   2   2
#     4  10  23  38  59  92 129 174 231 289 341 390
#     4  12  26  44  70  98 141 179 232 281 336 415
#     4  11  25  38  60  89 133 181 227 284 350 385
#     4  10  21  42  70 101 129 183 228 274 340 408
#     4  10  21  41  63  93 132 176 235 284 338 396
#     4  10  24  39  71  98 135 180 229 275 346 395
#     4  11  25  44  72 102 132 183 223 273 343 405
#     4  10  23  47  75 106 139 173 222 277 337 415
#
# _framework density 24.549042
#
# number of rings (size 3 to 8) (size 9 to 14) (size 15 to 20)
#    0.000    1.500    1.250    2.250   12.250    3.000 
#    0.000    4.375    0.000    0.000    0.000    0.000 
#    0.000    0.000    0.000    0.000    0.000    0.000 
#
# Total GULP energy -198299.003129 kJ/mol
# GULP energy per Si atom -12393.687696 kJ/mol
# Density = 2.449317 g / cm^3
# Si number density = 24.549042 Si / 1000 Ang^3
#
#
#
# Elastic Constant Matrix: (Units=GPa)
#
#
# Indices 1 2 3 4 5 6 
#
# 1 140.7172 54.2077 20.1678 -15.6307 15.1379 20.2916
# 2 54.2077 115.6314 0.3739 -22.7849 5.5211 20.0308
# 3 20.1678 0.3739 57.9535 -20.7252 19.0692 3.4213
# 4 -15.6307 -22.7849 -20.7252 31.5445 0.2766 -3.0410
# 5 15.1379 5.5211 19.0692 0.2766 22.3507 -2.6800
# 6 20.2916 20.0308 3.4213 -3.0410 -2.6800 50.0556
#
#
#
# Elastic Compliance Matrix: (Units=1/GPa)
#
#
# Indices 1 2 3 4 5 6 
#
# 1 0.009718 -0.003588 -0.001031 0.001338 -0.005147 -0.002627
# 2 -0.003588 0.014683 0.010548 0.015392 -0.010962 -0.004794
# 3 -0.001031 0.010548 0.044244 0.035877 -0.040919 -0.006838
# 4 0.001338 0.015392 0.035877 0.066695 -0.036992 -0.007083
# 5 -0.005147 -0.010962 -0.040919 -0.036992 0.087710 0.011719
# 6 -0.002627 -0.004794 -0.006838 -0.007083 0.011719 0.023626
#
#
# Mechanical properties :
#
#
# Convention : Reuss Voigt Hill
#
# Bulk Modulus (GPa) = 12.42195 51.53345 31.97770
# Shear Modulus (GPa) = 19.10944 36.76034 27.93489
#
# Velocity S-wave (km/s) = 2.79304 3.87386 3.37697
# Velocity P-wave (km/s) = 3.93351 6.40676 5.31597
#
# Compressibility (1/GPa) = 0.08050265
#
# Stress axis : x y z
#
# Youngs Moduli (GPa) = 102.90691 68.10696 22.60191
#
# Poissons Ratio (x) = 0.24435 0.02331
# Poissons Ratio (y) = 0.36920 -0.23841
# Poissons Ratio (z) = 0.10614 -0.71841
#
# Static dielectric constant tensor:
#      x y z
#    x 4.650560 0.141930 0.257880 
#    y 0.141930 4.622910 -0.222900 
#    z 0.257880 -0.222900 3.970790 
# 
# 
# High freq. dielectric constant tensor:
#      x y z
#    x 1.985540 0.009930 0.014990 
#    y 0.009930 1.985420 -0.016130 
#    z 0.014990 -0.016130 1.936300 
# 
# From -- ./inp_files/44695.got.cif
#   From: 2010.06.25/outbox.cif.g09.slc.cpg/sg2_23_cif.got.tgz:44695.got - 2010.06.27 13:26:56.
