data_PCOD8013479
_publ_section_title
;
Structure prediction by ZEFSAII (Michael W. Deem and Ramdas Pophale) SiO2 
 PCOD8013479
Probable space group: P -1
;
_chemical_formula_sum "Si O2"
_cell_formula_units_Z 16
_cell_length_a 8.582065
_cell_length_b 14.009702
_cell_length_c 15.467800
_cell_angle_alpha 126.669708
_cell_angle_beta 129.983694
_cell_angle_gamma 33.004155
_cell_volume 768.567332
_symmetry_space_group_name_H-M "P -1"
_symmetry_group_IT_number 2
_symmetry_cell_setting 'triclinic'
loop_
_space_group_symop_operation_xyz
x,y,z
-x,-y,-z
loop_
_atom_site_type_symbol
_atom_site_label
_atom_site_fract_x
_atom_site_fract_y
_atom_site_fract_z
Si Si1 0.873745 0.514558 0.322116
Si Si2 0.044708 0.121130 0.576359
Si Si3 0.735120 0.863830 0.673901
Si Si4 0.653490 0.615526 0.945067
Si Si5 0.039828 0.973950 0.899278
Si Si6 0.511868 0.357535 0.909760
Si Si7 0.062274 0.690892 0.529488
Si Si8 0.431335 0.571455 0.303602
O O1 0.741455 0.570329 0.209357
O O2 0.606807 0.611111 0.349822
O O3 0.114474 0.305687 0.308269
O O4 0.045707 0.564033 0.419935
O O5 0.923797 0.220528 0.494990
O O6 0.879084 0.252536 0.669715
O O7 0.385190 0.014979 0.652396
O O8 0.000000 0.000000 0.500000
O O9 0.880644 0.923598 0.784735
O O10 0.777737 0.831784 0.568348
O O11 0.399876 0.811518 0.913793
O O12 0.620202 0.496552 0.831264
O O13 0.573093 0.665754 0.043285
O O14 0.000000 0.500000 0.000000
O O15 0.848760 0.167790 0.895610
O O16 0.000000 0.000000 0.000000
O O17 0.500000 0.500000 0.000000
O O18 0.368961 0.577629 0.631672
#
# Coordination Sequence:
#
# PCOD8013479 Si02
#       8
#     2   2   2   2   2   2   2   2
#     4  11  21  42  71  97 131 177 224 271 329 409
#     4  12  26  41  62 101 138 168 222 277 331 397
#     4  11  22  43  67  98 133 174 226 273 326 406
#     4  11  24  44  67  98 133 172 223 281 342 389
#     4  10  21  40  68  93 126 175 224 267 324 396
#     4  11  22  43  68  97 132 178 227 270 326 401
#     4  11  23  42  70  92 129 184 222 264 344 400
#     4  11  23  44  63  95 141 167 217 284 337 390
#
# _framework density 20.817955000000001
#
# number of rings (size 3 to 8) (size 9 to 14) (size 15 to 20)
#    0.000    1.000    3.750    5.250    5.250    1.000 
#    0.000    0.625    0.000    0.000    0.000    0.000 
#    0.000    0.000    0.000    0.000    0.000    0.000 
#
# Total GULP energy -198318.037118 kJ/mol
# GULP energy per Si atom -12394.877320 kJ/mol
# Density = 2.077057 g / cm^3
# Si number density = 20.817955 Si / 1000 Ang^3
#
#
#
# Elastic Constant Matrix: (Units=GPa)
#
#
# Indices 1 2 3 4 5 6 
#
# 1 69.5063 53.0372 17.3362 -1.4199 3.3399 0.5558
# 2 53.0372 122.0452 47.3684 11.3588 2.2563 -9.5190
# 3 17.3362 47.3684 101.8376 -5.4800 -1.4836 6.3690
# 4 -1.4199 11.3588 -5.4800 31.5755 -0.5710 1.1088
# 5 3.3399 2.2563 -1.4836 -0.5710 37.0517 0.0546
# 6 0.5558 -9.5190 6.3690 1.1088 0.0546 47.8282
#
#
#
# Elastic Compliance Matrix: (Units=1/GPa)
#
#
# Indices 1 2 3 4 5 6 
#
# 1 0.022760 -0.011325 0.001852 0.005499 -0.001199 -0.002891
# 2 -0.011325 0.016758 -0.006578 -0.007845 -0.000391 0.004525
# 3 0.001852 -0.006578 0.013035 0.004839 0.000835 -0.003180
# 4 0.005499 -0.007845 0.004839 0.035701 0.000731 -0.003098
# 5 -0.001199 -0.000391 0.000835 0.000731 0.027166 -0.000223
# 6 -0.002891 0.004525 -0.003180 -0.003098 -0.000223 0.022338
#
#
# Mechanical properties :
#
#
# Convention : Reuss Voigt Hill
#
# Bulk Modulus (GPa) = 48.89345 58.76363 53.82854
# Shear Modulus (GPa) = 28.30020 35.00091 31.65056
#
# Velocity S-wave (km/s) = 3.69102 4.10480 3.90340
# Velocity P-wave (km/s) = 6.45771 7.12422 6.79914
#
# Compressibility (1/GPa) = 0.02045264
#
# Stress axis : x y z
#
# Youngs Moduli (GPa) = 43.93749 59.67132 76.71473
#
# Poissons Ratio (x) = 0.67576 -0.14210
# Poissons Ratio (y) = 0.49758 0.50463
# Poissons Ratio (z) = -0.08139 0.39252
#
# Static dielectric constant tensor:
#      x y z
#    x 1.296870 1.182370 2.734550 
#    y 1.182370 3.852010 -1.577230 
#    z 2.734550 -1.577230 0.475320 
# 
# 
# High freq. dielectric constant tensor:
#      x y z
#    x 1.786600 -0.002920 -0.002420 
#    y -0.002920 1.834680 -0.000690 
#    z -0.002420 -0.000690 1.832570 
# 
# From -- ./inp_files/274899.got.cif
#   From: 2010.06.25/outbox.cif.g09.slc.cpg/sg2_138_cif.got.tgz:274899.got - 2010.06.27 13:26:56.
