data_PCOD8013099
_publ_section_title
;
Structure prediction by ZEFSAII (Michael W. Deem and Ramdas Pophale) SiO2 
 PCOD8013099
Probable space group: P -1
;
_chemical_formula_sum "Si O2"
_cell_formula_units_Z 16
_cell_length_a 9.126562
_cell_length_b 7.265182
_cell_length_c 25.027100
_cell_angle_alpha 48.299792
_cell_angle_beta 137.755738
_cell_angle_gamma 100.462749
_cell_volume 654.008331
_symmetry_space_group_name_H-M "P -1"
_symmetry_group_IT_number 2
_symmetry_cell_setting 'triclinic'
loop_
_space_group_symop_operation_xyz
x,y,z
-x,-y,-z
loop_
_atom_site_type_symbol
_atom_site_label
_atom_site_fract_x
_atom_site_fract_y
_atom_site_fract_z
Si Si1 0.650789 0.006033 0.323206
Si Si2 0.736007 0.606428 0.941662
Si Si3 0.250062 0.096934 0.011458
Si Si4 0.788724 0.094840 0.502048
Si Si5 0.369185 0.566065 0.213886
Si Si6 0.175772 0.944656 0.361954
Si Si7 0.421737 0.420727 0.939979
Si Si8 0.708692 0.678178 0.497709
O O1 0.522446 0.061501 0.218857
O O2 0.417403 0.299473 0.240422
O O3 0.720330 0.703198 0.431234
O O4 0.921437 0.977600 0.398391
O O5 0.794564 0.648011 0.008888
O O6 0.643508 0.375520 0.963874
O O7 0.000000 0.500000 0.000000
O O8 0.426896 0.762730 0.153486
O O9 0.416678 0.122156 0.003107
O O10 0.945891 0.207290 0.891730
O O11 0.574178 0.415218 0.349165
O O12 0.679237 0.130864 0.525856
O O13 0.861831 0.791365 0.548593
O O14 0.389025 0.920290 0.383477
O O15 0.141550 0.686632 0.381727
O O16 0.886071 0.286725 0.217352
O O17 0.500000 0.500000 0.000000
#
# Coordination Sequence:
#
# PCOD8013099 Si02
#       8
#     2   2   2   2   2   2   2   2
#     4  11  22  41  64  91 127 165 216 271 326 378
#     4  11  22  39  64  88 122 169 218 269 317 387
#     4  10  22  40  65  89 127 171 214 258 324 384
#     4  11  23  41  67  95 132 168 214 270 320 383
#     4  10  21  40  65  93 127 170 210 264 327 384
#     4  11  23  43  65  99 129 171 219 254 335 386
#     4  10  22  39  64  91 124 170 210 270 314 383
#     4  10  24  40  66  95 133 171 203 271 324 385
#
# _framework density 24.464518999999999
#
# number of rings (size 3 to 8) (size 9 to 14) (size 15 to 20)
#    0.000    1.500    2.500    3.375    3.500    4.500 
#    0.000    0.625    5.500    0.000    0.000    0.000 
#    0.000    0.000    0.000    0.000    0.000    0.000 
#
# Total GULP energy -198235.818002 kJ/mol
# GULP energy per Si atom -12389.738625 kJ/mol
# Density = 2.440884 g / cm^3
# Si number density = 24.464519 Si / 1000 Ang^3
#
#
#
# Elastic Constant Matrix: (Units=GPa)
#
#
# Indices 1 2 3 4 5 6 
#
# 1 114.5519 22.7158 16.5789 8.3237 -11.3578 34.5611
# 2 22.7158 27.3209 30.6577 -3.3010 -6.6303 21.4815
# 3 16.5789 30.6577 115.3896 23.0540 -14.2310 14.2779
# 4 8.3237 -3.3010 23.0540 28.6260 4.1120 -7.0372
# 5 -11.3578 -6.6303 -14.2310 4.1120 31.0708 0.0288
# 6 34.5611 21.4815 14.2779 -7.0372 0.0288 40.9814
#
#
#
# Elastic Compliance Matrix: (Units=1/GPa)
#
#
# Indices 1 2 3 4 5 6 
#
# 1 0.015348 -0.008634 0.005525 -0.014230 0.008194 -0.012792
# 2 -0.008634 0.105768 -0.028128 0.028747 0.002757 -0.033426
# 3 0.005525 -0.028128 0.021357 -0.023684 0.008935 -0.001429
# 4 -0.014230 0.028747 -0.023684 0.068349 -0.018976 0.016934
# 5 0.008194 0.002757 0.008935 -0.018976 0.042386 -0.014757
# 6 -0.012792 -0.033426 -0.001429 0.016934 -0.014757 0.056126
#
#
# Mechanical properties :
#
#
# Convention : Reuss Voigt Hill
#
# Bulk Modulus (GPa) = 12.50019 44.12969 28.31494
# Shear Modulus (GPa) = 12.54790 32.62297 22.58544
#
# Velocity S-wave (km/s) = 2.26719 3.65565 3.04170
# Velocity P-wave (km/s) = 3.46037 5.99131 4.89234
#
# Compressibility (1/GPa) = 0.07999877
#
# Stress axis : x y z
#
# Youngs Moduli (GPa) = 65.15545 9.45466 46.82402
#
# Poissons Ratio (x) = 0.08163 -0.25870
# Poissons Ratio (y) = 0.56253 1.31708
# Poissons Ratio (z) = -0.35999 0.26594
#
# Static dielectric constant tensor:
#      x y z
#    x 5.283300 0.315830 -0.509870 
#    y 0.315830 4.476520 0.084920 
#    z -0.509870 0.084920 4.495380 
# 
# 
# High freq. dielectric constant tensor:
#      x y z
#    x 1.988170 0.025220 -0.015830 
#    y 0.025220 1.954990 0.009640 
#    z -0.015830 0.009640 1.967450 
# 
# From -- ./inp_files/398997.got.cif
#   From: 2010.06.25/outbox.cif.g09.slc.cpg/sg2_200_cif.got.tgz:398997.got - 2010.06.27 13:26:56.
