data_PCOD8013417
_publ_section_title
;
Structure prediction by ZEFSAII (Michael W. Deem and Ramdas Pophale) SiO2 
 PCOD8013417
Probable space group: P -1
;
_chemical_formula_sum "Si O2"
_cell_formula_units_Z 14
_cell_length_a 6.418347
_cell_length_b 9.695122
_cell_length_c 7.874511
_cell_angle_alpha 97.775018
_cell_angle_beta 79.289091
_cell_angle_gamma 89.880784
_cell_volume 476.854642
_symmetry_space_group_name_H-M "P -1"
_symmetry_group_IT_number 2
_symmetry_cell_setting 'triclinic'
loop_
_space_group_symop_operation_xyz
x,y,z
-x,-y,-z
loop_
_atom_site_type_symbol
_atom_site_label
_atom_site_fract_x
_atom_site_fract_y
_atom_site_fract_z
Si Si1 0.847933 0.820015 0.886474
Si Si2 0.769482 0.536613 0.328844
Si Si3 0.314123 0.756199 0.200607
Si Si4 0.670870 0.249296 0.191181
Si Si5 0.634104 0.960676 0.648981
Si Si6 0.238862 0.464478 0.269477
Si Si7 0.828434 0.829309 0.276273
O O1 0.800631 0.941291 0.776312
O O2 0.691518 0.688120 0.847772
O O3 0.816148 0.882775 0.090773
O O4 0.916850 0.233484 0.196962
O O5 0.609787 0.413843 0.271815
O O6 0.765670 0.553413 0.532660
O O7 0.701570 0.683990 0.278214
O O8 0.007427 0.495805 0.227311
O O9 0.378018 0.597519 0.218189
O O10 0.068710 0.790256 0.289244
O O11 0.447658 0.875528 0.301307
O O12 0.368542 0.785263 0.003105
O O13 0.554213 0.145065 0.315748
O O14 0.737002 0.942584 0.444189
#
# Coordination Sequence:
#
# PCOD8013417 Si02
#       7
#     2   2   2   2   2   2   2
#     4  10  22  44  71  94 128 174 219 266 330 382
#     4   9  17  36  65  95 126 165 220 269 317 384
#     4  10  22  41  65  93 135 173 215 266 324 393
#     4  10  23  41  66  96 130 173 218 268 322 390
#     4  12  24  44  65  97 138 169 213 275 323 385
#     4   9  17  37  68  93 122 177 214 262 330 378
#     4  10  21  40  67  97 129 170 220 268 323 389
#
# _framework density 29.359051999999998
#
# number of rings (size 3 to 8) (size 9 to 14) (size 15 to 20)
#    0.000    2.000    1.429    1.714    2.000    6.286 
#    5.143    2.143    0.000    0.000    0.000    0.000 
#    0.000    0.000    0.000    0.000    0.000    0.000 
#
# Total GULP energy -173660.373283 kJ/mol
# GULP energy per Si atom -12404.312377 kJ/mol
# Density = 2.929223 g / cm^3
# Si number density = 29.359052 Si / 1000 Ang^3
#
#
#
# Elastic Constant Matrix: (Units=GPa)
#
#
# Indices 1 2 3 4 5 6 
#
# 1 42.8036 25.4494 22.3803 8.8884 -11.1354 8.0361
# 2 25.4494 165.1793 52.3313 14.8843 -8.7376 -18.3557
# 3 22.3803 52.3313 153.7786 0.8289 3.7294 -14.6800
# 4 8.8884 14.8843 0.8289 56.2223 -7.3769 7.0344
# 5 -11.1354 -8.7376 3.7294 -7.3769 42.6256 -6.4220
# 6 8.0361 -18.3557 -14.6800 7.0344 -6.4220 38.3646
#
#
#
# Elastic Compliance Matrix: (Units=1/GPa)
#
#
# Indices 1 2 3 4 5 6 
#
# 1 0.031595 -0.004005 -0.004210 -0.001972 0.006141 -0.008756
# 2 -0.004005 0.007937 -0.001704 -0.001865 0.001086 0.004508
# 3 -0.004210 -0.001704 0.007998 0.000435 -0.001656 0.002770
# 4 -0.001972 -0.001865 0.000435 0.019273 0.001868 -0.003534
# 5 0.006141 0.001086 -0.001656 0.001868 0.026152 0.002635
# 6 -0.008756 0.004508 0.002770 -0.003534 0.002635 0.032206
#
#
# Mechanical properties :
#
#
# Convention : Reuss Voigt Hill
#
# Bulk Modulus (GPa) = 36.10969 62.45370 49.28170
# Shear Modulus (GPa) = 32.41933 44.88253 38.65093
#
# Velocity S-wave (km/s) = 3.32661 3.91416 3.63228
# Velocity P-wave (km/s) = 5.20396 6.46112 5.86631
#
# Compressibility (1/GPa) = 0.02769340
#
# Stress axis : x y z
#
# Youngs Moduli (GPa) = 31.65022 125.98523 125.03644
#
# Poissons Ratio (x) = 0.50454 0.52635
# Poissons Ratio (y) = 0.12675 0.21309
# Poissons Ratio (z) = 0.13323 0.21471
#
# Static dielectric constant tensor:
#      x y z
#    x 6.162430 0.013310 -0.128160 
#    y 0.013310 5.682310 0.217810 
#    z -0.128160 0.217810 4.968210 
# 
# 
# High freq. dielectric constant tensor:
#      x y z
#    x 2.251640 -0.003310 -0.000090 
#    y -0.003310 2.212170 0.011260 
#    z -0.000090 0.011260 2.182630 
# 
# From -- ./inp_files/159564.got.cif
#   From: 2010.06.25/outbox.cif.g09.slc.cpg/sg2_80_cif.got.tgz:159564.got - 2010.06.27 13:26:56.
