data_PCOD8013979
_publ_section_title
;
Structure prediction by ZEFSAII (Michael W. Deem and Ramdas Pophale) SiO2 
 PCOD8013979
Probable space group: P -1
;
_chemical_formula_sum "Si O2"
_cell_formula_units_Z 12
_cell_length_a 6.219755
_cell_length_b 18.937616
_cell_length_c 5.012656
_cell_angle_alpha 73.067861
_cell_angle_beta 104.426153
_cell_angle_gamma 83.809128
_cell_volume 536.553390
_symmetry_space_group_name_H-M "P -1"
_symmetry_group_IT_number 2
_symmetry_cell_setting 'triclinic'
loop_
_space_group_symop_operation_xyz
x,y,z
-x,-y,-z
loop_
_atom_site_type_symbol
_atom_site_label
_atom_site_fract_x
_atom_site_fract_y
_atom_site_fract_z
Si Si1 0.220047 0.020999 0.673290
Si Si2 0.936917 0.771961 0.951760
Si Si3 0.917721 0.154756 0.610039
Si Si4 0.482483 0.112215 0.272891
Si Si5 0.254298 0.522496 0.782005
Si Si6 0.037606 0.596197 0.147865
O O1 0.335509 0.064464 0.443631
O O2 0.117755 0.079535 0.813833
O O3 0.399403 0.942082 0.881280
O O4 0.000000 0.000000 0.500000
O O5 0.686179 0.810526 0.944180
O O6 0.995226 0.797524 0.649863
O O7 0.117622 0.795362 0.188516
O O8 0.946263 0.683953 0.055514
O O9 0.680790 0.132741 0.493826
O O10 0.246444 0.567156 0.449090
O O11 0.164738 0.445680 0.788527
O O12 0.500000 0.500000 0.000000
O O13 0.104009 0.578072 0.883495
#
# Coordination Sequence:
#
# PCOD8013979 Si02
#       6
#     2   2   2   2   2   2
#     4   8  16  36  60  83 113 154 202 245 280 336
#     4  11  23  38  57  87 122 151 188 240 291 343
#     4  10  22  38  57  85 118 155 199 240 284 340
#     4   9  19  37  59  84 116 157 196 239 295 337
#     4  10  21  41  64  86 114 152 191 232 285 342
#     4  10  22  38  60  90 118 147 192 237 280 347
#
# _framework density 22.364971000000001
#
# number of rings (size 3 to 8) (size 9 to 14) (size 15 to 20)
#    0.000    2.333    0.000    1.500    0.000    6.000 
#    0.000   28.333    0.000    0.000    0.000    0.000 
#    0.000    0.000    0.000    0.000    0.000    0.000 
#
# Total GULP energy -148682.410219 kJ/mol
# GULP energy per Si atom -12390.200852 kJ/mol
# Density = 2.231407 g / cm^3
# Si number density = 22.364971 Si / 1000 Ang^3
#
#
#
# Elastic Constant Matrix: (Units=GPa)
#
#
# Indices 1 2 3 4 5 6 
#
# 1 77.7401 39.7411 14.1773 -17.1383 23.1710 8.8253
# 2 39.7411 176.7999 39.5519 -16.7147 12.8098 -6.1191
# 3 14.1773 39.5519 81.8313 -5.1221 8.0150 2.8941
# 4 -17.1383 -16.7147 -5.1221 33.4129 -9.6625 0.8544
# 5 23.1710 12.8098 8.0150 -9.6625 22.1333 0.1573
# 6 8.8253 -6.1191 2.8941 0.8544 0.1573 18.1189
#
#
#
# Elastic Compliance Matrix: (Units=1/GPa)
#
#
# Indices 1 2 3 4 5 6 
#
# 1 0.023215 -0.003897 0.000573 0.004535 -0.020185 -0.012753
# 2 -0.003897 0.007438 -0.003145 0.001569 0.001564 0.004825
# 3 0.000573 -0.003145 0.014144 -0.000162 -0.003947 -0.003559
# 4 0.004535 0.001569 -0.000162 0.036041 0.010162 -0.003441
# 5 -0.020185 0.001564 -0.003947 0.010162 0.071202 0.009893
# 6 -0.012753 0.004825 -0.003559 -0.003441 0.009893 0.063677
#
#
# Mechanical properties :
#
#
# Convention : Reuss Voigt Hill
#
# Bulk Modulus (GPa) = 31.38893 58.14580 44.76736
# Shear Modulus (GPa) = 20.89668 30.92642 25.91155
#
# Velocity S-wave (km/s) = 3.06003 3.72264 3.40748
# Velocity P-wave (km/s) = 5.15270 6.67327 5.96166
#
# Compressibility (1/GPa) = 0.03185837
#
# Stress axis : x y z
#
# Youngs Moduli (GPa) = 43.07633 134.45178 70.70368
#
# Poissons Ratio (x) = 0.52391 -0.04054
# Poissons Ratio (y) = 0.16785 0.22239
# Poissons Ratio (z) = -0.02470 0.42291
#
# Static dielectric constant tensor:
#      x y z
#    x 4.266720 -0.241220 0.169570 
#    y -0.241220 4.323620 0.029280 
#    z 0.169570 0.029280 3.980350 
# 
# 
# High freq. dielectric constant tensor:
#      x y z
#    x 1.881060 0.000970 0.011540 
#    y 0.000970 1.891740 0.010040 
#    z 0.011540 0.010040 1.866750 
# 
# From -- ./inp_files/4853.got.cif
#   From: 2010.06.25/outbox.cif.g09.slc.cpg/sg2_3_cif.got.tgz:4853.got - 2010.06.27 13:26:56.
