data_PCOD8013843
_publ_section_title
;
Structure prediction by ZEFSAII (Michael W. Deem and Ramdas Pophale) SiO2 
 PCOD8013843
Probable space group: P -1
;
_chemical_formula_sum "Si O2"
_cell_formula_units_Z 16
_cell_length_a 14.182558
_cell_length_b 16.625607
_cell_length_c 7.225972
_cell_angle_alpha 65.643039
_cell_angle_beta 136.614834
_cell_angle_gamma 139.558635
_cell_volume 720.342252
_symmetry_space_group_name_H-M "P -1"
_symmetry_group_IT_number 2
_symmetry_cell_setting 'triclinic'
loop_
_space_group_symop_operation_xyz
x,y,z
-x,-y,-z
loop_
_atom_site_type_symbol
_atom_site_label
_atom_site_fract_x
_atom_site_fract_y
_atom_site_fract_z
Si Si1 0.082851 0.093943 0.356761
Si Si2 0.880865 0.236803 0.707944
Si Si3 0.580586 0.123613 0.102687
Si Si4 0.732693 0.634883 0.660627
Si Si5 0.742125 0.463553 0.661178
Si Si6 0.664088 0.972466 0.783059
Si Si7 0.961446 0.462102 0.693847
Si Si8 0.568367 0.816181 0.450480
O O1 0.229500 0.248015 0.473387
O O2 0.205450 0.086161 0.403590
O O3 0.000000 0.000000 0.500000
O O4 0.887982 0.037196 0.029477
O O5 0.814150 0.215839 0.415794
O O6 0.847860 0.314534 0.687057
O O7 0.699687 0.092720 0.675613
O O8 0.111990 0.310206 0.996224
O O9 0.441163 0.086273 0.113576
O O10 0.578247 0.206169 0.886690
O O11 0.500000 0.000000 0.000000
O O12 0.500000 0.500000 0.500000
O O13 0.782864 0.587426 0.616684
O O14 0.822081 0.473665 0.564382
O O15 0.507766 0.319848 0.480983
O O16 0.839822 0.452989 0.977351
O O17 0.549134 0.867246 0.556054
O O18 0.000000 0.500000 0.500000
#
# Coordination Sequence:
#
# PCOD8013843 Si02
#       8
#     2   2   2   2   2   2   2   2
#     4  11  23  45  70 101 131 181 236 287 342 406
#     4  10  22  40  65  96 135 177 225 281 346 406
#     4  12  24  39  64 102 141 179 224 285 348 410
#     4  10  21  44  73  95 137 181 231 284 343 415
#     4  10  22  39  67  97 125 184 214 276 340 404
#     4  11  24  42  64 100 138 179 227 282 343 413
#     4  10  21  41  62  93 133 168 227 272 334 405
#     4  12  23  41  71  96 141 177 231 279 349 404
#
# _framework density 22.211665
#
# number of rings (size 3 to 8) (size 9 to 14) (size 15 to 20)
#    0.000    1.250    3.750    2.250    1.750    0.000 
#    6.750    0.000    0.000    3.750    0.000    0.000 
#    0.000    0.000    0.000    0.000    0.000    0.000 
#
# Total GULP energy -198231.038355 kJ/mol
# GULP energy per Si atom -12389.439897 kJ/mol
# Density = 2.216111 g / cm^3
# Si number density = 22.211665 Si / 1000 Ang^3
#
#
#
# Elastic Constant Matrix: (Units=GPa)
#
#
# Indices 1 2 3 4 5 6 
#
# 1 119.2261 43.2437 41.6309 0.2459 -22.4788 0.1387
# 2 43.2437 134.9314 39.2655 2.7536 -9.4398 -10.4748
# 3 41.6309 39.2655 93.8512 13.6535 -14.3564 3.0723
# 4 0.2459 2.7536 13.6535 30.8319 3.6448 4.2287
# 5 -22.4788 -9.4398 -14.3564 3.6448 33.9681 1.7122
# 6 0.1387 -10.4748 3.0723 4.2287 1.7122 37.1609
#
#
#
# Elastic Compliance Matrix: (Units=1/GPa)
#
#
# Indices 1 2 3 4 5 6 
#
# 1 0.011456 -0.002393 -0.003386 0.001094 0.005409 -0.000811
# 2 -0.002393 0.009235 -0.002990 0.000179 -0.000444 0.002860
# 3 -0.003386 -0.002990 0.015048 -0.006645 0.004077 -0.001506
# 4 0.001094 0.000179 -0.006645 0.036487 -0.005784 -0.003290
# 5 0.005409 -0.000444 0.004077 -0.005784 0.035312 -0.001451
# 6 -0.000811 0.002860 -0.001506 -0.003290 -0.001451 0.028285
#
#
# Mechanical properties :
#
#
# Convention : Reuss Voigt Hill
#
# Bulk Modulus (GPa) = 54.93969 66.25431 60.59700
# Shear Modulus (GPa) = 31.36212 35.31676 33.33944
#
# Velocity S-wave (km/s) = 3.76169 3.99182 3.87846
# Velocity P-wave (km/s) = 6.60722 7.15119 6.88458
#
# Compressibility (1/GPa) = 0.01820178
#
# Stress axis : x y z
#
# Youngs Moduli (GPa) = 87.29001 108.27786 66.45563
#
# Poissons Ratio (x) = 0.25913 0.22499
# Poissons Ratio (y) = 0.20890 0.19870
# Poissons Ratio (z) = 0.29553 0.32374
#
# Static dielectric constant tensor:
#      x y z
#    x 4.044800 -0.343160 0.225770 
#    y -0.343160 4.369850 0.102680 
#    z 0.225770 0.102680 4.177370 
# 
# 
# High freq. dielectric constant tensor:
#      x y z
#    x 1.868790 -0.013360 0.007310 
#    y -0.013360 1.888340 0.014730 
#    z 0.007310 0.014730 1.865280 
# 
# From -- ./inp_files/99645.got.cif
#   From: 2010.06.25/outbox.cif.g09.slc.cpg/sg2_50_cif.got.tgz:99645.got - 2010.06.27 13:26:56.
