data_PCOD8013349
_publ_section_title
;
Structure prediction by ZEFSAII (Michael W. Deem and Ramdas Pophale) SiO2 
 PCOD8013349
Probable space group: P -1
;
_chemical_formula_sum "Si O2"
_cell_formula_units_Z 16
_cell_length_a 11.762574
_cell_length_b 9.744987
_cell_length_c 9.691422
_cell_angle_alpha 44.130724
_cell_angle_beta 89.402980
_cell_angle_gamma 96.993146
_cell_volume 760.028923
_symmetry_space_group_name_H-M "P -1"
_symmetry_group_IT_number 2
_symmetry_cell_setting 'triclinic'
loop_
_space_group_symop_operation_xyz
x,y,z
-x,-y,-z
loop_
_atom_site_type_symbol
_atom_site_label
_atom_site_fract_x
_atom_site_fract_y
_atom_site_fract_z
Si Si1 0.334614 0.064406 0.373894
Si Si2 0.922852 0.993848 0.641387
Si Si3 0.125049 0.453526 0.008735
Si Si4 0.187340 0.546345 0.455237
Si Si5 0.299389 0.445224 0.256980
Si Si6 0.694900 0.358302 0.340436
Si Si7 0.533642 0.629594 0.039693
Si Si8 0.992623 0.195110 0.768242
O O1 0.201773 0.955245 0.426337
O O2 0.337897 0.231143 0.373846
O O3 0.381068 0.857708 0.557605
O O4 0.399342 0.153802 0.168255
O O5 0.895436 0.776692 0.869315
O O6 0.000000 0.000000 0.500000
O O7 0.992106 0.146258 0.640389
O O8 0.187804 0.587986 0.788637
O O9 0.203263 0.489245 0.119376
O O10 0.000000 0.500000 0.000000
O O11 0.251572 0.439009 0.415723
O O12 0.277539 0.655953 0.487431
O O13 0.102349 0.370422 0.665525
O O14 0.121919 0.711306 0.265332
O O15 0.411801 0.626670 0.121268
O O16 0.619552 0.530329 0.203539
O O17 0.500000 0.500000 0.000000
O O18 0.000000 0.000000 0.000000
#
# Coordination Sequence:
#
# PCOD8013349 Si02
#       8
#     2   2   2   2   2   2   2   2
#     4  10  21  40  67  91 124 163 221 258 314 371
#     4  11  20  38  62  93 126 162 213 263 303 378
#     4  11  23  36  66  96 127 165 212 258 318 378
#     4  11  26  41  61  96 131 167 211 258 328 381
#     4  10  23  45  61  93 133 162 213 273 305 380
#     4  12  22  41  70  93 124 172 209 262 325 376
#     4  10  21  44  66  92 126 165 218 267 314 369
#     4  11  24  41  62  88 137 173 200 252 328 389
#
# _framework density 21.051829999999999
#
# number of rings (size 3 to 8) (size 9 to 14) (size 15 to 20)
#    0.000    1.250    5.000    3.000    5.250    2.500 
#    0.000    0.625    0.000    0.000    0.000    0.000 
#    0.000    0.000    0.000    0.000    0.000    0.000 
#
# Total GULP energy -198306.508536 kJ/mol
# GULP energy per Si atom -12394.156784 kJ/mol
# Density = 2.100391 g / cm^3
# Si number density = 21.051830 Si / 1000 Ang^3
#
#
#
# Elastic Constant Matrix: (Units=GPa)
#
#
# Indices 1 2 3 4 5 6 
#
# 1 89.9913 10.3090 25.9416 -0.0210 -14.5289 -1.0556
# 2 10.3090 90.6480 34.1983 3.5486 -8.7294 -6.7011
# 3 25.9416 34.1983 106.5675 -20.9617 -7.4150 -8.4481
# 4 -0.0210 3.5486 -20.9617 36.7515 -0.5877 -0.1887
# 5 -14.5289 -8.7294 -7.4150 -0.5877 24.2271 -4.8168
# 6 -1.0556 -6.7011 -8.4481 -0.1887 -4.8168 23.2131
#
#
#
# Elastic Compliance Matrix: (Units=1/GPa)
#
#
# Indices 1 2 3 4 5 6 
#
# 1 0.013138 0.000529 -0.003104 -0.001691 0.007301 0.001122
# 2 0.000529 0.013536 -0.004699 -0.003903 0.004273 0.003076
# 3 -0.003104 -0.004699 0.013703 0.008314 0.001615 0.003892
# 4 -0.001691 -0.003903 0.008314 0.032362 0.001381 0.002372
# 5 0.007301 0.004273 0.001615 0.001381 0.050225 0.012587
# 6 0.001122 0.003076 0.003892 0.002372 0.012587 0.048066
#
#
# Mechanical properties :
#
#
# Convention : Reuss Voigt Hill
#
# Bulk Modulus (GPa) = 38.71446 47.56717 43.14081
# Shear Modulus (GPa) = 25.74840 31.28887 28.51863
#
# Velocity S-wave (km/s) = 3.50107 3.85941 3.68460
# Velocity P-wave (km/s) = 5.89689 6.51954 6.21602
#
# Compressibility (1/GPa) = 0.02583014
#
# Stress axis : x y z
#
# Youngs Moduli (GPa) = 76.11620 73.87698 72.97453
#
# Poissons Ratio (x) = -0.03908 0.22648
# Poissons Ratio (y) = -0.04027 0.34291
# Poissons Ratio (z) = 0.23623 0.34715
#
# Static dielectric constant tensor:
#      x y z
#    x 3.571950 0.141860 -0.250590 
#    y 0.141860 3.702080 -0.239220 
#    z -0.250590 -0.239220 3.424920 
# 
# 
# High freq. dielectric constant tensor:
#      x y z
#    x 1.829240 0.005400 -0.004090 
#    y 0.005400 1.809820 -0.015320 
#    z -0.004090 -0.015320 1.824300 
# 
# From -- ./inp_files/242126.got.cif
#   From: 2010.06.25/outbox.cif.g09.slc.cpg/sg2_122_cif.got.tgz:242126.got - 2010.06.27 13:26:56.
