data_PCOD8013305
_publ_section_title
;
Structure prediction by ZEFSAII (Michael W. Deem and Ramdas Pophale) SiO2 
 PCOD8013305
Probable space group: P -1
;
_chemical_formula_sum "Si O2"
_cell_formula_units_Z 16
_cell_length_a 11.623020
_cell_length_b 19.580492
_cell_length_c 8.593803
_cell_angle_alpha 40.258776
_cell_angle_beta 76.265710
_cell_angle_gamma 45.273096
_cell_volume 680.423149
_symmetry_space_group_name_H-M "P -1"
_symmetry_group_IT_number 2
_symmetry_cell_setting 'triclinic'
loop_
_space_group_symop_operation_xyz
x,y,z
-x,-y,-z
loop_
_atom_site_type_symbol
_atom_site_label
_atom_site_fract_x
_atom_site_fract_y
_atom_site_fract_z
Si Si1 0.842937 0.475725 0.584755
Si Si2 0.153386 0.171445 0.419617
Si Si3 0.845640 0.255438 0.527597
Si Si4 0.401424 0.553322 0.274706
Si Si5 0.996731 0.939815 0.855436
Si Si6 0.390997 0.105388 0.688324
Si Si7 0.236998 0.042440 0.289516
Si Si8 0.998464 0.505157 0.240252
O O1 0.656188 0.528376 0.578406
O O2 0.833405 0.570297 0.558140
O O3 0.830615 0.547712 0.299770
O O4 0.072459 0.248626 0.911541
O O5 0.352808 0.027811 0.728800
O O6 0.201819 0.054622 0.465421
O O7 0.932818 0.300066 0.351395
O O8 0.133832 0.304405 0.129250
O O9 0.585539 0.445116 0.277147
O O10 0.936711 0.176541 0.810266
O O11 0.943478 0.096245 0.655264
O O12 0.500000 0.500000 0.500000
O O13 0.190536 0.785129 0.933460
O O14 0.792120 0.043894 0.649777
O O15 0.149813 0.328979 0.382284
O O16 0.525653 0.092018 0.576488
O O17 0.500000 0.000000 0.000000
#
# Coordination Sequence:
#
# PCOD8013305 Si02
#       8
#     2   2   2   2   2   2   2   2
#     4   9  19  40  64  92 126 169 217 262 320 395
#     4  11  25  43  61  96 141 165 211 278 329 395
#     4  10  21  40  66  97 130 175 223 269 325 395
#     4   9  19  36  63  94 128 167 221 270 318 382
#     4   9  20  41  65  93 125 175 229 271 317 390
#     4  12  23  40  67  95 123 175 222 265 328 396
#     4  10  21  41  63  90 134 166 213 275 328 381
#     4  10  22  40  64  93 130 172 209 270 328 386
#
# _framework density 23.514779000000001
#
# number of rings (size 3 to 8) (size 9 to 14) (size 15 to 20)
#    0.000    2.000    1.250    1.500    5.250    0.500 
#    4.500    5.625    0.000    0.000    0.000    0.000 
#    0.000    0.000    0.000    0.000    0.000    0.000 
#
# Total GULP energy -198272.688271 kJ/mol
# GULP energy per Si atom -12392.043017 kJ/mol
# Density = 2.346126 g / cm^3
# Si number density = 23.514779 Si / 1000 Ang^3
#
#
#
# Elastic Constant Matrix: (Units=GPa)
#
#
# Indices 1 2 3 4 5 6 
#
# 1 138.4475 59.4280 20.8068 8.3519 29.2217 -9.1633
# 2 59.4280 125.2806 27.0371 5.2362 13.6958 -16.4216
# 3 20.8068 27.0371 37.1723 7.4689 0.3124 -1.3688
# 4 8.3519 5.2362 7.4689 26.6277 1.6846 2.5149
# 5 29.2217 13.6958 0.3124 1.6846 23.5981 0.9148
# 6 -9.1633 -16.4216 -1.3688 2.5149 0.9148 50.3680
#
#
#
# Elastic Compliance Matrix: (Units=1/GPa)
#
#
# Indices 1 2 3 4 5 6 
#
# 1 0.012141 -0.003231 -0.004015 -0.001348 -0.013062 0.001351
# 2 -0.003231 0.011629 -0.006608 0.000470 -0.002812 0.003051
# 3 -0.004015 -0.006608 0.035379 -0.007771 0.008959 -0.001698
# 4 -0.001348 0.000470 -0.007771 0.040364 -0.001294 -0.002295
# 5 -0.013062 -0.002812 0.008959 -0.001294 0.060315 -0.004080
# 6 0.001351 0.003051 -0.001698 -0.002295 -0.004080 0.021237
#
#
# Mechanical properties :
#
#
# Convention : Reuss Voigt Hill
#
# Bulk Modulus (GPa) = 31.80660 57.27158 44.53909
# Shear Modulus (GPa) = 22.80472 33.02733 27.91602
#
# Velocity S-wave (km/s) = 3.11755 3.75178 3.44927
# Velocity P-wave (km/s) = 5.14921 6.57086 5.90299
#
# Compressibility (1/GPa) = 0.03144001
#
# Stress axis : x y z
#
# Youngs Moduli (GPa) = 82.36496 85.99419 28.26539
#
# Poissons Ratio (x) = 0.27788 0.11349
# Poissons Ratio (y) = 0.26615 0.18677
# Poissons Ratio (z) = 0.33071 0.56823
#
# Static dielectric constant tensor:
#      x y z
#    x 4.455890 0.049790 0.284070 
#    y 0.049790 4.731230 -0.101760 
#    z 0.284070 -0.101760 3.801690 
# 
# 
# High freq. dielectric constant tensor:
#      x y z
#    x 1.943880 0.010230 0.009330 
#    y 0.010230 1.940390 0.006510 
#    z 0.009330 0.006510 1.887140 
# 
# From -- ./inp_files/282736.got.cif
#   From: 2010.06.25/outbox.cif.g09.slc.cpg/sg2_142_cif.got.tgz:282736.got - 2010.06.27 13:26:56.
