data_PCOD8013318
_publ_section_title
;
Structure prediction by ZEFSAII (Michael W. Deem and Ramdas Pophale) SiO2 
 PCOD8013318
Probable space group: P -1
;
_chemical_formula_sum "Si O2"
_cell_formula_units_Z 16
_cell_length_a 10.995880
_cell_length_b 6.701611
_cell_length_c 11.780037
_cell_angle_alpha 125.212841
_cell_angle_beta 106.242485
_cell_angle_gamma 77.136891
_cell_volume 678.835622
_symmetry_space_group_name_H-M "P -1"
_symmetry_group_IT_number 2
_symmetry_cell_setting 'triclinic'
loop_
_space_group_symop_operation_xyz
x,y,z
-x,-y,-z
loop_
_atom_site_type_symbol
_atom_site_label
_atom_site_fract_x
_atom_site_fract_y
_atom_site_fract_z
Si Si1 0.915754 0.599021 0.849773
Si Si2 0.192087 0.269519 0.491311
Si Si3 0.545940 0.267638 0.092889
Si Si4 0.887070 0.795305 0.139196
Si Si5 0.273829 0.744707 0.307140
Si Si6 0.948704 0.315989 0.299291
Si Si7 0.685615 0.432745 0.981096
Si Si8 0.537372 0.571112 0.407615
O O1 0.784193 0.499062 0.734623
O O2 0.982831 0.345211 0.833268
O O3 0.010739 0.728263 0.834578
O O4 0.879499 0.795857 0.001125
O O5 0.151636 0.442183 0.645410
O O6 0.335766 0.292255 0.496459
O O7 0.084691 0.366748 0.405779
O O8 0.191566 0.979061 0.416521
O O9 0.444043 0.458809 0.072881
O O10 0.572762 0.346394 0.255477
O O11 0.666750 0.277103 0.041222
O O12 0.500000 0.000000 0.000000
O O13 0.885405 0.084635 0.264542
O O14 0.768011 0.659361 0.111630
O O15 0.253273 0.741129 0.161684
O O16 0.421414 0.745397 0.381694
O O17 0.500000 0.500000 0.500000
#
# Coordination Sequence:
#
# PCOD8013318 Si02
#       8
#     2   2   2   2   2   2   2   2
#     4  10  21  40  68  97 128 174 223 276 337 388
#     4  11  25  43  62  96 133 179 222 269 341 394
#     4  10  23  43  67  99 131 175 222 279 340 391
#     4  10  21  40  66  99 129 172 223 273 335 398
#     4  10  21  46  67  96 136 180 226 279 336 401
#     4  11  24  43  63  97 140 171 224 276 329 404
#     4   9  22  41  68  96 134 170 223 280 329 401
#     4  11  25  44  67 101 132 178 231 274 339 413
#
# _framework density 23.569770999999999
#
# number of rings (size 3 to 8) (size 9 to 14) (size 15 to 20)
#    0.000    1.750    1.250    1.500    5.250    0.500 
#    4.500    0.000    0.000    0.000    0.000    0.000 
#    0.000    0.000    0.000    0.000    0.000    0.000 
#
# Total GULP energy -198214.558848 kJ/mol
# GULP energy per Si atom -12388.409928 kJ/mol
# Density = 2.351613 g / cm^3
# Si number density = 23.569771 Si / 1000 Ang^3
#
#
#
# Elastic Constant Matrix: (Units=GPa)
#
#
# Indices 1 2 3 4 5 6 
#
# 1 116.7495 30.6167 29.1947 -0.2841 7.9907 19.3010
# 2 30.6167 69.4517 41.9991 6.1594 -7.5099 19.1444
# 3 29.1947 41.9991 92.2304 3.6210 -1.4212 15.9221
# 4 -0.2841 6.1594 3.6210 34.0605 6.5227 -7.1798
# 5 7.9907 -7.5099 -1.4212 6.5227 35.5020 -1.4796
# 6 19.3010 19.1444 15.9221 -7.1798 -1.4796 49.7506
#
#
#
# Elastic Compliance Matrix: (Units=1/GPa)
#
#
# Indices 1 2 3 4 5 6 
#
# 1 0.010466 -0.003667 -0.001368 0.001108 -0.003480 -0.002155
# 2 -0.003667 0.023888 -0.008396 -0.005891 0.006385 -0.005743
# 3 -0.001368 -0.008396 0.015299 -0.000204 -0.000868 -0.001190
# 4 0.001108 -0.005891 -0.000204 0.033227 -0.007338 0.006479
# 5 -0.003480 0.006385 -0.000868 -0.007338 0.031575 -0.000950
# 6 -0.002155 -0.005743 -0.001190 0.006479 -0.000950 0.024434
#
#
# Mechanical properties :
#
#
# Convention : Reuss Voigt Hill
#
# Bulk Modulus (GPa) = 43.87738 53.56140 48.71939
# Shear Modulus (GPa) = 28.84345 35.63735 32.24040
#
# Velocity S-wave (km/s) = 3.50201 3.89265 3.70249
# Velocity P-wave (km/s) = 5.91679 6.55573 6.24444
#
# Compressibility (1/GPa) = 0.02279079
#
# Stress axis : x y z
#
# Youngs Moduli (GPa) = 95.54527 41.86130 65.36384
#
# Poissons Ratio (x) = 0.15350 0.08944
# Poissons Ratio (y) = 0.35036 0.54881
# Poissons Ratio (z) = 0.13073 0.35148
#
# Static dielectric constant tensor:
#      x y z
#    x 4.536570 0.038480 -0.036370 
#    y 0.038480 3.812030 -0.071550 
#    z -0.036370 -0.071550 4.458400 
# 
# 
# High freq. dielectric constant tensor:
#      x y z
#    x 1.949980 0.001990 0.010590 
#    y 0.001990 1.901980 0.005050 
#    z 0.010590 0.005050 1.932220 
# 
# From -- ./inp_files/411294.got.cif
#   From: 2010.06.25/outbox.cif.g09.slc.cpg/sg2_206_cif.got.tgz:411294.got - 2010.06.27 13:26:56.
