data_PCOD8013909
_publ_section_title
;
Structure prediction by ZEFSAII (Michael W. Deem and Ramdas Pophale) SiO2 
 PCOD8013909
Probable space group: P -1
;
_chemical_formula_sum "Si O2"
_cell_formula_units_Z 12
_cell_length_a 6.755100
_cell_length_b 11.430836
_cell_length_c 11.505851
_cell_angle_alpha 105.231165
_cell_angle_beta 55.713892
_cell_angle_gamma 123.592224
_cell_volume 609.920750
_symmetry_space_group_name_H-M "P -1"
_symmetry_group_IT_number 2
_symmetry_cell_setting 'triclinic'
loop_
_space_group_symop_operation_xyz
x,y,z
-x,-y,-z
loop_
_atom_site_type_symbol
_atom_site_label
_atom_site_fract_x
_atom_site_fract_y
_atom_site_fract_z
Si Si1 0.295730 0.042037 0.860863
Si Si2 0.808192 0.478276 0.806579
Si Si3 0.765578 0.246068 0.923840
Si Si4 0.638762 0.718000 0.254768
Si Si5 0.247439 0.756648 0.804422
Si Si6 0.637102 0.406608 0.449770
O O1 0.291732 0.903260 0.780210
O O2 0.527489 0.110171 0.901705
O O3 0.366670 0.146867 0.757044
O O4 0.000000 0.000000 0.000000
O O5 0.799645 0.387651 0.896325
O O6 0.510227 0.409928 0.823550
O O7 0.919222 0.636522 0.859717
O O8 0.029286 0.486306 0.638462
O O9 0.051227 0.246104 0.816008
O O10 0.675844 0.234240 0.083811
O O11 0.461644 0.676187 0.419324
O O12 0.440534 0.710436 0.657642
O O13 0.500000 0.500000 0.500000
#
# Coordination Sequence:
#
# PCOD8013909 Si02
#       6
#     2   2   2   2   2   2
#     4  11  24  42  62  90 126 163 202 249 308 360
#     4   9  22  38  64  91 121 155 210 244 307 352
#     4  11  21  41  66  90 123 158 207 255 300 357
#     4  11  21  40  66  87 126 164 197 255 301 358
#     4  10  22  40  61  93 124 160 205 246 306 362
#     4  10  21  41  63  91 125 160 201 253 305 356
#
# _framework density 19.674688
#
# number of rings (size 3 to 8) (size 9 to 14) (size 15 to 20)
#    1.000    0.667    3.333    1.500    0.000    1.333 
#    6.000    0.833    0.000    0.000    0.000    0.000 
#    0.000    0.000    0.000    0.000    0.000    0.000 
#
# Total GULP energy -148728.339574 kJ/mol
# GULP energy per Si atom -12394.028298 kJ/mol
# Density = 1.962991 g / cm^3
# Si number density = 19.674688 Si / 1000 Ang^3
#
#
#
# Elastic Constant Matrix: (Units=GPa)
#
#
# Indices 1 2 3 4 5 6 
#
# 1 100.0813 58.5942 44.5006 -5.1753 3.2900 9.7087
# 2 58.5942 148.6906 24.4425 9.1667 7.7271 -6.2183
# 3 44.5006 24.4425 73.5275 -3.5908 17.1490 -15.9089
# 4 -5.1753 9.1667 -3.5908 31.5652 -9.1539 -1.0456
# 5 3.2900 7.7271 17.1490 -9.1539 32.0359 -11.6971
# 6 9.7087 -6.2183 -15.9089 -1.0456 -11.6971 33.4445
#
#
#
# Elastic Compliance Matrix: (Units=1/GPa)
#
#
# Indices 1 2 3 4 5 6 
#
# 1 0.022160 -0.007401 -0.014461 0.004802 0.003800 -0.013209
# 2 -0.007401 0.009814 0.002520 -0.004435 -0.002735 0.004077
# 3 -0.014461 0.002520 0.026515 -0.002161 -0.008769 0.014144
# 4 0.004802 -0.004435 -0.002161 0.037481 0.013396 0.002611
# 5 0.003800 -0.002735 -0.008769 0.013396 0.043618 0.009891
# 6 -0.013209 0.004077 0.014144 0.002611 0.009891 0.044762
#
#
# Mechanical properties :
#
#
# Convention : Reuss Voigt Hill
#
# Bulk Modulus (GPa) = 50.49265 64.15267 57.32266
# Shear Modulus (GPa) = 21.77379 32.39326 27.08352
#
# Velocity S-wave (km/s) = 3.33030 4.06204 3.71424
# Velocity P-wave (km/s) = 6.36454 7.39444 6.89874
#
# Compressibility (1/GPa) = 0.01980486
#
# Stress axis : x y z
#
# Youngs Moduli (GPa) = 45.12700 101.89908 37.71492
#
# Poissons Ratio (x) = 0.75417 0.54539
# Poissons Ratio (y) = 0.33399 -0.09506
# Poissons Ratio (z) = 0.65257 -0.25683
#
# Static dielectric constant tensor:
#      x y z
#    x 3.521450 -0.026830 0.134780 
#    y -0.026830 3.848030 -0.177810 
#    z 0.134780 -0.177810 3.513420 
# 
# 
# High freq. dielectric constant tensor:
#      x y z
#    x 1.763370 -0.002650 0.009630 
#    y -0.002650 1.774880 -0.012640 
#    z 0.009630 -0.012640 1.759560 
# 
# From -- ./inp_files/68053.got.cif
#   From: 2010.06.25/outbox.cif.g09.slc.cpg/sg2_35_cif.got.tgz:68053.got - 2010.06.27 13:26:56.
