data_PCOD8013219
_publ_section_title
;
Structure prediction by ZEFSAII (Michael W. Deem and Ramdas Pophale) SiO2 
 PCOD8013219
Probable space group: P -1
;
_chemical_formula_sum "Si O2"
_cell_formula_units_Z 16
_cell_length_a 13.210426
_cell_length_b 14.456719
_cell_length_c 8.559841
_cell_angle_alpha 77.632822
_cell_angle_beta 48.881657
_cell_angle_gamma 115.368916
_cell_volume 762.249388
_symmetry_space_group_name_H-M "P -1"
_symmetry_group_IT_number 2
_symmetry_cell_setting 'triclinic'
loop_
_space_group_symop_operation_xyz
x,y,z
-x,-y,-z
loop_
_atom_site_type_symbol
_atom_site_label
_atom_site_fract_x
_atom_site_fract_y
_atom_site_fract_z
Si Si1 0.081027 0.051301 0.074939
Si Si2 0.654813 0.874859 0.720906
Si Si3 0.375029 0.062698 0.921526
Si Si4 0.528449 0.616710 0.362650
Si Si5 0.967070 0.562975 0.385847
Si Si6 0.437543 0.564879 0.114883
Si Si7 0.407196 0.894363 0.782318
Si Si8 0.226112 0.608305 0.658469
O O1 0.183613 0.008115 0.041644
O O2 0.254941 0.227532 0.842349
O O3 0.898241 0.983646 0.402959
O O4 0.000000 0.000000 0.000000
O O5 0.573611 0.906191 0.664248
O O6 0.633259 0.910246 0.900298
O O7 0.529154 0.707954 0.883929
O O8 0.604196 0.214741 0.558736
O O9 0.357698 0.940561 0.957790
O O10 0.500000 0.500000 0.500000
O O11 0.535745 0.620584 0.167555
O O12 0.331207 0.571985 0.639803
O O13 0.819859 0.570245 0.590402
O O14 0.812768 0.426617 0.471470
O O15 0.000000 0.500000 0.500000
O O16 0.184644 0.720524 0.032985
O O17 0.500000 0.500000 0.000000
O O18 0.500000 0.000000 0.500000
O O19 0.000000 0.500000 0.000000
#
# Coordination Sequence:
#
# PCOD8013219 Si02
#       8
#     2   2   2   2   2   2   2   2
#     4  11  25  41  70  98 137 179 223 288 352 403
#     4  12  24  46  68  99 140 180 234 282 344 417
#     4  11  23  45  66  98 138 182 226 284 341 416
#     4  10  24  44  62  98 137 170 231 280 336 412
#     4  11  22  44  67  96 135 173 227 282 330 407
#     4  11  25  43  70 100 133 182 233 279 339 413
#     4  12  26  42  69 107 139 177 233 285 347 412
#     4  10  21  40  66  91 134 175 217 275 338 397
#
# _framework density 20.990506
#
# number of rings (size 3 to 8) (size 9 to 14) (size 15 to 20)
#    0.000    1.000    5.000    2.250    3.500    6.000 
#    0.000    0.000    0.000    0.000    0.000    0.000 
#    0.000    0.000    0.000    0.000    0.000    0.000 
#
# Total GULP energy -198341.853422 kJ/mol
# GULP energy per Si atom -12396.365839 kJ/mol
# Density = 2.094273 g / cm^3
# Si number density = 20.990506 Si / 1000 Ang^3
#
#
#
# Elastic Constant Matrix: (Units=GPa)
#
#
# Indices 1 2 3 4 5 6 
#
# 1 133.5693 42.7332 61.7793 -16.1383 -2.9428 -8.2989
# 2 42.7332 98.5856 35.0014 -4.5708 -5.0996 -10.1425
# 3 61.7793 35.0014 141.7858 1.6116 -20.7420 -5.1157
# 4 -16.1383 -4.5708 1.6116 32.0570 -1.4251 -0.6468
# 5 -2.9428 -5.0996 -20.7420 -1.4251 39.2278 -4.4348
# 6 -8.2989 -10.1425 -5.1157 -0.6468 -4.4348 35.5559
#
#
#
# Elastic Compliance Matrix: (Units=1/GPa)
#
#
# Indices 1 2 3 4 5 6 
#
# 1 0.011143 -0.003008 -0.004364 0.005352 -0.001553 0.001019
# 2 -0.003008 0.012328 -0.001507 0.000414 0.000902 0.002718
# 3 -0.004364 -0.001507 0.010074 -0.002695 0.004767 0.000547
# 4 0.005352 0.000414 -0.002695 0.034137 0.000458 0.001658
# 5 -0.001553 0.000902 0.004767 0.000458 0.028499 0.004144
# 6 0.001019 0.002718 0.000547 0.001658 0.004144 0.029763
#
#
# Mechanical properties :
#
#
# Convention : Reuss Voigt Hill
#
# Bulk Modulus (GPa) = 63.34484 72.55204 67.94844
# Shear Modulus (GPa) = 33.56468 36.99660 35.28064
#
# Velocity S-wave (km/s) = 4.00314 4.20282 4.10419
# Velocity P-wave (km/s) = 7.18402 7.62829 7.40949
#
# Compressibility (1/GPa) = 0.01578661
#
# Stress axis : x y z
#
# Youngs Moduli (GPa) = 89.73923 81.11607 99.26261
#
# Poissons Ratio (x) = 0.24402 0.43319
# Poissons Ratio (y) = 0.26996 0.14961
# Poissons Ratio (z) = 0.39163 0.12226
#
# Static dielectric constant tensor:
#      x y z
#    x 3.805010 0.105450 -0.252260 
#    y 0.105450 3.914380 -0.354620 
#    z -0.252260 -0.354620 4.049490 
# 
# 
# High freq. dielectric constant tensor:
#      x y z
#    x 1.833370 -0.002130 -0.015180 
#    y -0.002130 1.826080 -0.000510 
#    z -0.015180 -0.000510 1.829950 
# 
# From -- ./inp_files/272390.got.cif
#   From: 2010.06.25/outbox.cif.g09.slc.cpg/sg2_137_cif.got.tgz:272390.got - 2010.06.27 13:26:56.
