data_PCOD8013670
_publ_section_title
;
Structure prediction by ZEFSAII (Michael W. Deem and Ramdas Pophale) SiO2 
 PCOD8013670
Probable space group: P -1
;
_chemical_formula_sum "Si O2"
_cell_formula_units_Z 14
_cell_length_a 11.757066
_cell_length_b 12.562646
_cell_length_c 11.996566
_cell_angle_alpha 40.305024
_cell_angle_beta 35.379751
_cell_angle_gamma 33.055573
_cell_volume 541.682360
_symmetry_space_group_name_H-M "P -1"
_symmetry_group_IT_number 2
_symmetry_cell_setting 'triclinic'
loop_
_space_group_symop_operation_xyz
x,y,z
-x,-y,-z
loop_
_atom_site_type_symbol
_atom_site_label
_atom_site_fract_x
_atom_site_fract_y
_atom_site_fract_z
Si Si1 0.816829 0.084307 0.919989
Si Si2 0.001236 0.594610 0.667863
Si Si3 0.784750 0.362198 0.100414
Si Si4 0.575534 0.846239 0.663539
Si Si5 0.286353 0.516829 0.297129
Si Si6 0.813600 0.274633 0.387182
Si Si7 0.337945 0.914088 0.191101
O O1 0.884144 0.239820 0.778513
O O2 0.638542 0.172600 0.882942
O O3 0.677108 0.066906 0.146228
O O4 0.061916 0.872874 0.866213
O O5 0.211472 0.464736 0.513226
O O6 0.111935 0.634564 0.651076
O O7 0.932466 0.451709 0.883711
O O8 0.774290 0.810558 0.624543
O O9 0.552920 0.463347 0.127686
O O10 0.699096 0.412489 0.258489
O O11 0.722190 0.613331 0.689482
O O12 0.500000 0.000000 0.500000
O O13 0.611796 0.245416 0.623849
O O14 0.055421 0.078357 0.302351
O O15 0.500000 0.000000 0.000000
#
# Coordination Sequence:
#
# PCOD8013670 Si02
#       7
#     2   2   2   2   2   2   2
#     4  11  24  49  72 105 150 195 242 315 367 432
#     4  12  25  49  74 109 156 191 253 307 370 447
#     4  11  27  46  76 113 149 199 246 299 379 449
#     4  12  28  48  78 108 144 201 253 312 376 437
#     4  12  27  48  75 109 151 195 252 308 368 442
#     4  10  23  42  73 109 149 193 241 303 370 447
#     4  10  21  40  71 106 144 193 244 299 367 436
#
# _framework density 25.845406000000001
#
# number of rings (size 3 to 8) (size 9 to 14) (size 15 to 20)
#    0.000    0.857    2.857    3.000    2.000    4.571 
#    0.000    0.000    0.000    0.000    0.000    0.000 
#    0.000    0.000    0.000    0.000    0.000    0.000 
#
# Total GULP energy -173530.164314 kJ/mol
# GULP energy per Si atom -12395.011737 kJ/mol
# Density = 2.578658 g / cm^3
# Si number density = 25.845406 Si / 1000 Ang^3
#
#
#
# Elastic Constant Matrix: (Units=GPa)
#
#
# Indices 1 2 3 4 5 6 
#
# 1 62.4091 26.2791 17.8783 -9.7974 6.2621 9.4033
# 2 26.2791 75.4401 31.7803 3.1929 1.9521 10.8616
# 3 17.8783 31.7803 186.6292 -3.3016 4.0053 12.5525
# 4 -9.7974 3.1929 -3.3016 37.2458 10.0005 9.7395
# 5 6.2621 1.9521 4.0053 10.0005 39.9750 -0.8719
# 6 9.4033 10.8616 12.5525 9.7395 -0.8719 28.7525
#
#
#
# Elastic Compliance Matrix: (Units=1/GPa)
#
#
# Indices 1 2 3 4 5 6 
#
# 1 0.022386 -0.006830 -0.000113 0.010228 -0.005902 -0.008335
# 2 -0.006830 0.016958 -0.002176 -0.003224 0.001221 -0.002093
# 3 -0.000113 -0.002176 0.005939 0.001520 -0.000901 -0.002276
# 4 0.010228 -0.003224 0.001520 0.037062 -0.011211 -0.015685
# 5 -0.005902 0.001221 -0.000901 -0.011211 0.028918 0.006537
# 6 -0.008335 -0.002093 -0.002276 -0.015685 0.006537 0.044801
#
#
# Mechanical properties :
#
#
# Convention : Reuss Voigt Hill
#
# Bulk Modulus (GPa) = 36.97714 52.92820 44.95267
# Shear Modulus (GPa) = 27.27517 37.76402 32.51959
#
# Velocity S-wave (km/s) = 3.25209 3.82665 3.55101
# Velocity P-wave (km/s) = 5.33288 6.32831 5.85180
#
# Compressibility (1/GPa) = 0.02704373
#
# Stress axis : x y z
#
# Youngs Moduli (GPa) = 44.67145 58.97028 168.38191
#
# Poissons Ratio (x) = 0.40279 0.01904
# Poissons Ratio (y) = 0.30512 0.36636
# Poissons Ratio (z) = 0.00505 0.12831
#
# Static dielectric constant tensor:
#      x y z
#    x 4.769420 0.189650 0.397750 
#    y 0.189650 4.723060 0.159010 
#    z 0.397750 0.159010 5.136230 
# 
# 
# High freq. dielectric constant tensor:
#      x y z
#    x 2.030720 0.011410 0.012130 
#    y 0.011410 2.035960 0.014910 
#    z 0.012130 0.014910 2.055510 
# 
# From -- ./inp_files/427335.got.cif
#   From: 2010.06.25/outbox.cif.g09.slc.cpg/sg2_214_cif.got.tgz:427335.got - 2010.06.27 13:26:56.
