data_PCOD8013775
_publ_section_title
;
Structure prediction by ZEFSAII (Michael W. Deem and Ramdas Pophale) SiO2 
 PCOD8013775
Probable space group: P -1
;
_chemical_formula_sum "Si O2"
_cell_formula_units_Z 10
_cell_length_a 9.343204
_cell_length_b 11.814453
_cell_length_c 13.915531
_cell_angle_alpha 150.585642
_cell_angle_beta 42.867148
_cell_angle_gamma 124.917188
_cell_volume 503.084014
_symmetry_space_group_name_H-M "P -1"
_symmetry_group_IT_number 2
_symmetry_cell_setting 'triclinic'
loop_
_space_group_symop_operation_xyz
x,y,z
-x,-y,-z
loop_
_atom_site_type_symbol
_atom_site_label
_atom_site_fract_x
_atom_site_fract_y
_atom_site_fract_z
Si Si1 0.945237 0.968926 0.645877
Si Si2 0.310198 0.195501 0.699715
Si Si3 0.952948 0.484540 0.214955
Si Si4 0.866689 0.602666 0.549454
Si Si5 0.385796 0.601877 0.834095
O O1 0.923665 0.853764 0.677506
O O2 0.959810 0.764069 0.406639
O O3 0.157799 0.078210 0.619210
O O4 0.737468 0.172092 0.878971
O O5 0.415222 0.375382 0.719580
O O6 0.500000 0.000000 0.500000
O O7 0.174566 0.329931 0.954046
O O8 0.925803 0.426393 0.298368
O O9 0.751509 0.429713 0.215850
O O10 0.615306 0.645190 0.723627
O O11 0.000000 0.500000 0.500000
#
# Coordination Sequence:
#
# PCOD8013775 Si02
#       5
#     2   2   2   2   2
#     4   9  21  39  63  85 122 154 204 236 298 355
#     4  11  23  40  60  91 125 153 199 254 296 349
#     4   9  22  40  64  86 121 160 202 234 306 355
#     4  10  21  41  61  91 124 153 198 250 297 351
#     4  11  21  40  65  87 120 158 203 245 290 360
#
# _framework density 19.877396999999998
#
# number of rings (size 3 to 8) (size 9 to 14) (size 15 to 20)
#    1.200    0.800    0.000    4.800    0.000    4.000 
#    3.600    5.000    0.000    0.000    0.000    0.000 
#    0.000    0.000    0.000    0.000    0.000    0.000 
#
# Total GULP energy -123956.798544 kJ/mol
# GULP energy per Si atom -12395.679854 kJ/mol
# Density = 1.983215 g / cm^3
# Si number density = 19.877397 Si / 1000 Ang^3
#
#
#
# Elastic Constant Matrix: (Units=GPa)
#
#
# Indices 1 2 3 4 5 6 
#
# 1 70.8728 -0.2449 54.0402 -5.6603 1.5518 -12.8051
# 2 -0.2449 57.4843 18.0528 7.2998 -5.6780 -3.4115
# 3 54.0402 18.0528 130.5861 3.7674 -3.7166 8.0268
# 4 -5.6603 7.2998 3.7674 35.9721 -0.8446 -4.1086
# 5 1.5518 -5.6780 -3.7166 -0.8446 24.4549 6.9931
# 6 -12.8051 -3.4115 8.0268 -4.1086 6.9931 36.2125
#
#
#
# Elastic Compliance Matrix: (Units=1/GPa)
#
#
# Indices 1 2 3 4 5 6 
#
# 1 0.027668 0.003659 -0.013278 0.006570 -0.007037 0.015176
# 2 0.003659 0.019524 -0.004269 -0.002502 0.002626 0.003289
# 3 -0.013278 -0.004269 0.014578 -0.003743 0.004701 -0.009661
# 4 0.006570 -0.002502 -0.003743 0.030457 -0.002474 0.006850
# 5 -0.007037 0.002626 0.004701 -0.002474 0.046144 -0.012475
# 6 0.015176 0.003289 -0.009661 0.006850 -0.012475 0.038619
#
#
# Mechanical properties :
#
#
# Convention : Reuss Voigt Hill
#
# Bulk Modulus (GPa) = 29.41591 44.73770 37.07681
# Shear Modulus (GPa) = 23.13772 31.80089 27.46930
#
# Velocity S-wave (km/s) = 3.41548 4.00415 3.72147
# Velocity P-wave (km/s) = 5.51224 6.62822 6.09582
#
# Compressibility (1/GPa) = 0.03399521
#
# Stress axis : x y z
#
# Youngs Moduli (GPa) = 36.14328 51.21786 68.59463
#
# Poissons Ratio (x) = -0.18741 0.91081
# Poissons Ratio (y) = -0.13225 0.29281
# Poissons Ratio (z) = 0.47992 0.21863
#
# Static dielectric constant tensor:
#      x y z
#    x 3.388570 0.075500 0.055450 
#    y 0.075500 3.678560 0.053900 
#    z 0.055450 0.053900 3.675550 
# 
# 
# High freq. dielectric constant tensor:
#      x y z
#    x 1.761250 0.002920 0.000040 
#    y 0.002920 1.785190 0.001180 
#    z 0.000040 0.001180 1.779440 
# 
# From -- ./inp_files/17659.got.cif
#   From: 2010.06.25/outbox.cif.g09.slc.cpg/sg2_9_cif.got.tgz:17659.got - 2010.06.27 13:26:56.
