data_PCOD8013876
_publ_section_title
;
Structure prediction by ZEFSAII (Michael W. Deem and Ramdas Pophale) SiO2 
 PCOD8013876
Probable space group: P -1
;
_chemical_formula_sum "Si O2"
_cell_formula_units_Z 6
_cell_length_a 13.307597
_cell_length_b 6.937643
_cell_length_c 8.994749
_cell_angle_alpha 35.146164
_cell_angle_beta 31.608806
_cell_angle_gamma 30.686543
_cell_volume 210.524821
_symmetry_space_group_name_H-M "P -1"
_symmetry_group_IT_number 2
_symmetry_cell_setting 'triclinic'
loop_
_space_group_symop_operation_xyz
x,y,z
-x,-y,-z
loop_
_atom_site_type_symbol
_atom_site_label
_atom_site_fract_x
_atom_site_fract_y
_atom_site_fract_z
Si Si1 0.112092 0.287424 0.825789
Si Si2 0.633441 0.508528 0.184338
Si Si3 0.309686 0.791874 0.166432
O O1 0.181508 0.604417 0.519049
O O2 0.272249 0.904098 0.764051
O O3 0.850533 0.527166 0.945952
O O4 0.132206 0.175562 0.047565
O O5 0.500000 0.500000 0.500000
O O6 0.451061 0.859784 0.076034
O O7 0.500000 0.500000 0.000000
#
# Coordination Sequence:
#
# PCOD8013876 Si02
#       3
#     2   2   2
#     4  10  23  42  61  86 122 158 194 242 297 350
#     4  10  22  39  63  91 118 155 201 244 291 350
#     4  10  21  41  63  85 121 160 193 241 299 349
#
# _framework density 28.500201000000001
#
# number of rings (size 3 to 8) (size 9 to 14) (size 15 to 20)
#    0.000    2.000    0.000    4.000    0.000   17.333 
#    0.000   23.333    0.000    0.000    0.000    0.000 
#    0.000    0.000    0.000    0.000    0.000    0.000 
#
# Total GULP energy -74433.402701 kJ/mol
# GULP energy per Si atom -12405.567117 kJ/mol
# Density = 2.843533 g / cm^3
# Si number density = 28.500201 Si / 1000 Ang^3
#
#
#
# Elastic Constant Matrix: (Units=GPa)
#
#
# Indices 1 2 3 4 5 6 
#
# 1 304.8576 106.3198 125.3145 -10.3785 5.2718 -25.9573
# 2 106.3198 222.2250 71.2846 -7.1647 30.3320 -52.8909
# 3 125.3145 71.2846 230.3145 9.5513 13.7290 -36.5406
# 4 -10.3785 -7.1647 9.5513 40.7557 -6.1659 19.1661
# 5 5.2718 30.3320 13.7290 -6.1659 63.9505 -2.8821
# 6 -25.9573 -52.8909 -36.5406 19.1661 -2.8821 53.5858
#
#
#
# Elastic Compliance Matrix: (Units=1/GPa)
#
#
# Indices 1 2 3 4 5 6 
#
# 1 0.005008 -0.002257 -0.002637 0.002914 0.001389 -0.002568
# 2 -0.002257 0.007677 0.000463 -0.003581 -0.003544 0.007891
# 3 -0.002637 0.000463 0.006826 -0.005059 -0.001705 0.005552
# 4 0.002914 -0.003581 -0.005059 0.034984 0.005114 -0.017810
# 5 0.001389 -0.003544 -0.001705 0.005114 0.017844 -0.004858
# 6 -0.002568 0.007891 0.005552 -0.017810 -0.004858 0.035101
#
#
# Mechanical properties :
#
#
# Convention : Reuss Voigt Hill
#
# Bulk Modulus (GPa) = 93.90077 151.47055 122.68566
# Shear Modulus (GPa) = 41.71846 61.95694 51.83770
#
# Velocity S-wave (km/s) = 3.83011 4.66758 4.26943
# Velocity P-wave (km/s) = 7.25111 9.07254 8.21248
#
# Compressibility (1/GPa) = 0.01064954
#
# Stress axis : x y z
#
# Youngs Moduli (GPa) = 199.68282 130.25284 146.50348
#
# Poissons Ratio (x) = 0.29394 0.38639
# Poissons Ratio (y) = 0.45063 -0.06788
# Poissons Ratio (z) = 0.52664 -0.06035
#
# Static dielectric constant tensor:
#      x y z
#    x 9.032130 -3.479410 -2.341130 
#    y -3.479410 10.592090 3.786500 
#    z -2.341130 3.786500 9.439180 
# 
# 
# High freq. dielectric constant tensor:
#      x y z
#    x 2.218720 0.017770 0.009260 
#    y 0.017770 2.259000 0.007070 
#    z 0.009260 0.007070 2.146470 
# 
# From -- ./inp_files/174.got.cif
#   From: 2010.06.25/outbox.cif.g09.slc.cpg/sg2_1_cif.got.tgz:174.got - 2010.06.27 13:26:56.
