data_PCOD8014991
_publ_section_title
;
Structure prediction by ZEFSAII (Michael W. Deem and Ramdas Pophale) SiO2 
 PCOD8014991
Probable space group: P -1
;
_chemical_formula_sum "Si O2"
_cell_formula_units_Z 16
_cell_length_a 17.218759
_cell_length_b 12.419980
_cell_length_c 9.762598
_cell_angle_alpha 48.617689
_cell_angle_beta 76.348290
_cell_angle_gamma 37.469672
_cell_volume 738.199823
_symmetry_space_group_name_H-M "P -1"
_symmetry_group_IT_number 2
_symmetry_cell_setting 'triclinic'
loop_
_space_group_symop_operation_xyz
x,y,z
-x,-y,-z
loop_
_atom_site_type_symbol
_atom_site_label
_atom_site_fract_x
_atom_site_fract_y
_atom_site_fract_z
Si Si1 0.109234 0.701042 0.869199
Si Si2 0.253103 0.117625 0.728983
Si Si3 0.100465 0.829309 0.237517
Si Si4 0.499566 0.627726 0.244407
Si Si5 0.847449 0.067723 0.455557
Si Si6 0.363212 0.102127 0.420730
Si Si7 0.541543 0.631775 0.522646
Si Si8 0.034716 0.260910 0.556832
O O1 0.192703 0.725706 0.790501
O O2 0.236650 0.386016 0.138479
O O3 0.957181 0.950549 0.827666
O O4 0.026097 0.787504 0.688666
O O5 0.275675 0.175454 0.531829
O O6 0.179104 0.076613 0.758492
O O7 0.117513 0.391718 0.660247
O O8 0.425411 0.837894 0.973911
O O9 0.295490 0.528676 0.391173
O O10 0.049699 0.759418 0.381044
O O11 0.000000 0.000000 0.000000
O O12 0.694887 0.292358 0.433132
O O13 0.465558 0.764127 0.288115
O O14 0.414727 0.605204 0.283854
O O15 0.865697 0.898326 0.494700
O O16 0.500000 0.000000 0.500000
O O17 0.426340 0.873366 0.489249
#
# Coordination Sequence:
#
# PCOD8014991 Si02
#       8
#     2   2   2   2   2   2   2   2
#     4  10  22  39  64  93 130 159 217 263 314 384
#     4  11  24  43  64  96 130 170 216 262 323 384
#     4  11  20  39  66  91 125 169 211 266 314 377
#     4  11  24  44  65  95 133 172 214 264 321 391
#     4  10  21  42  64  95 123 172 210 261 322 378
#     4  12  25  43  64 100 131 170 214 268 324 381
#     4  11  25  42  64  99 131 170 216 262 328 380
#     4  10  23  40  64  95 125 167 217 260 321 376
#
# _framework density 21.674346
#
# number of rings (size 3 to 8) (size 9 to 14) (size 15 to 20)
#    0.000    1.250    1.250    4.500    1.750    5.000 
#    0.000    3.125    0.000    0.000    0.000    0.000 
#    0.000    0.000    0.000    0.000    0.000    0.000 
#
# Total GULP energy -198225.181894 kJ/mol
# GULP energy per Si atom -12389.073868 kJ/mol
# Density = 2.162501 g / cm^3
# Si number density = 21.674346 Si / 1000 Ang^3
#
#
#
# Elastic Constant Matrix: (Units=GPa)
#
#
# Indices 1 2 3 4 5 6 
#
# 1 86.7110 27.1219 29.8015 -2.5246 11.3825 7.4928
# 2 27.1219 114.4588 25.7107 5.0477 6.4369 21.2834
# 3 29.8015 25.7107 125.5310 7.9778 15.3568 6.4129
# 4 -2.5246 5.0477 7.9778 25.2024 -4.1348 2.6744
# 5 11.3825 6.4369 15.3568 -4.1348 22.5575 2.9320
# 6 7.4928 21.2834 6.4129 2.6744 2.9320 43.3563
#
#
#
# Elastic Compliance Matrix: (Units=1/GPa)
#
#
# Indices 1 2 3 4 5 6 
#
# 1 0.013777 -0.002467 -0.002345 0.001998 -0.004199 -0.000662
# 2 -0.002467 0.010513 -0.001153 -0.001633 -0.000696 -0.004416
# 3 -0.002345 -0.001153 0.009727 -0.004067 -0.005879 0.000181
# 4 0.001998 -0.001633 -0.004067 0.043463 0.010497 -0.002333
# 5 -0.004199 -0.000696 -0.005879 0.010497 0.052872 -0.002286
# 6 -0.000662 -0.004416 0.000181 -0.002333 -0.002286 0.025619
#
#
# Mechanical properties :
#
#
# Convention : Reuss Voigt Hill
#
# Bulk Modulus (GPa) = 45.27415 54.66322 49.96868
# Shear Modulus (GPa) = 28.52877 34.49436 31.51157
#
# Velocity S-wave (km/s) = 3.63195 3.99367 3.81709
# Velocity P-wave (km/s) = 6.20659 6.82208 6.52160
#
# Compressibility (1/GPa) = 0.02208766
#
# Stress axis : x y z
#
# Youngs Moduli (GPa) = 72.58696 95.12458 102.80218
#
# Poissons Ratio (x) = 0.23463 0.24105
# Poissons Ratio (y) = 0.17904 0.11854
# Poissons Ratio (z) = 0.17020 0.10969
#
# Static dielectric constant tensor:
#      x y z
#    x 3.916990 0.155890 0.117630 
#    y 0.155890 4.303410 0.108650 
#    z 0.117630 0.108650 3.627600 
# 
# 
# High freq. dielectric constant tensor:
#      x y z
#    x 1.859250 0.005980 0.012430 
#    y 0.005980 1.867450 0.006570 
#    z 0.012430 0.006570 1.833200 
# 
# From -- ./inp_files/185250.got.cif
#   From: 2010.06.25/outbox.cif.g09.slc.cpg/sg2_93_cif.got.tgz:185250.got - 2010.06.27 13:26:56.
