data_PCOD8014521
_publ_section_title
;
Structure prediction by ZEFSAII (Michael W. Deem and Ramdas Pophale) SiO2 
 PCOD8014521
Probable space group: P -1
;
_chemical_formula_sum "Si O2"
_cell_formula_units_Z 16
_cell_length_a 9.054413
_cell_length_b 11.206156
_cell_length_c 12.731853
_cell_angle_alpha 49.777694
_cell_angle_beta 108.627459
_cell_angle_gamma 124.575772
_cell_volume 809.882196
_symmetry_space_group_name_H-M "P -1"
_symmetry_group_IT_number 2
_symmetry_cell_setting 'triclinic'
loop_
_space_group_symop_operation_xyz
x,y,z
-x,-y,-z
loop_
_atom_site_type_symbol
_atom_site_label
_atom_site_fract_x
_atom_site_fract_y
_atom_site_fract_z
Si Si1 0.851907 0.317947 0.869868
Si Si2 0.252745 0.019473 0.834406
Si Si3 0.208984 0.153643 0.948118
Si Si4 0.080691 0.912550 0.644416
Si Si5 0.603435 0.048877 0.813467
Si Si6 0.249402 0.502281 0.865838
Si Si7 0.845302 0.540572 0.904079
Si Si8 0.417512 0.903713 0.643735
O O1 0.761887 0.245285 0.776618
O O2 0.742199 0.392303 0.872269
O O3 0.055010 0.480201 0.806765
O O4 0.875861 0.168224 0.026740
O O5 0.179596 0.041581 0.693244
O O6 0.263550 0.175525 0.824129
O O7 0.435934 0.013851 0.867543
O O8 0.266034 0.351895 0.889398
O O9 0.336643 0.097715 0.070174
O O10 0.000000 0.000000 0.000000
O O11 0.220355 0.876408 0.632867
O O12 0.917963 0.733833 0.758361
O O13 0.000000 0.000000 0.500000
O O14 0.555570 0.037928 0.686577
O O15 0.399184 0.705734 0.752081
O O16 0.276800 0.482679 0.008745
O O17 0.000000 0.500000 0.000000
O O18 0.500000 0.000000 0.500000
#
# Coordination Sequence:
#
# PCOD8014521 Si02
#       8
#     2   2   2   2   2   2   2   2
#     4  10  16  34  64  90 111 157 210 251 289 364
#     4  10  19  36  57  90 127 158 192 255 318 360
#     4  11  19  33  62  97 124 146 206 267 301 359
#     4  11  21  38  63  91 118 164 213 252 300 375
#     4  10  22  38  59  87 126 163 199 249 318 369
#     4  11  20  36  65  91 122 159 212 253 305 363
#     4  10  16  34  64  92 114 154 211 257 288 361
#     4  11  25  44  58  84 131 167 199 259 327 367
#
# _framework density 19.755958
#
# number of rings (size 3 to 8) (size 9 to 14) (size 15 to 20)
#    0.000    1.500    7.500    2.250    0.000    2.500 
#    0.000    4.375    0.000    3.000    0.000    0.000 
#    0.000    0.000    0.000    0.000    0.000    0.000 
#
# Total GULP energy -198239.797007 kJ/mol
# GULP energy per Si atom -12389.987313 kJ/mol
# Density = 1.971099 g / cm^3
# Si number density = 19.755958 Si / 1000 Ang^3
#
#
#
# Elastic Constant Matrix: (Units=GPa)
#
#
# Indices 1 2 3 4 5 6 
#
# 1 75.5413 44.6238 42.6594 13.1032 -0.8255 -21.8077
# 2 44.6238 152.0167 63.8098 14.8321 -6.0402 -29.3813
# 3 42.6594 63.8098 131.7553 8.6448 -7.2260 -8.9060
# 4 13.1032 14.8321 8.6448 28.6242 0.9408 -1.4950
# 5 -0.8255 -6.0402 -7.2260 0.9408 30.2793 6.3592
# 6 -21.8077 -29.3813 -8.9060 -1.4950 6.3592 40.9504
#
#
#
# Elastic Compliance Matrix: (Units=1/GPa)
#
#
# Indices 1 2 3 4 5 6 
#
# 1 0.020759 -0.001749 -0.004989 -0.006539 -0.002637 0.008886
# 2 -0.001749 0.009960 -0.003703 -0.002967 0.000035 0.005296
# 3 -0.004989 -0.003703 0.010863 0.000671 0.002389 -0.003298
# 4 -0.006539 -0.002967 0.000671 0.039094 -0.001010 -0.003881
# 5 -0.002637 0.000035 0.002389 -0.001010 0.034889 -0.006314
# 6 0.008886 0.005296 -0.003298 -0.003881 -0.006314 0.033073
#
#
# Mechanical properties :
#
#
# Convention : Reuss Voigt Hill
#
# Bulk Modulus (GPa) = 48.30931 73.49992 60.90461
# Shear Modulus (GPa) = 28.34142 33.85213 31.09678
#
# Velocity S-wave (km/s) = 3.79169 4.14395 3.97173
# Velocity P-wave (km/s) = 6.60873 7.75765 7.20613
#
# Compressibility (1/GPa) = 0.02069994
#
# Stress axis : x y z
#
# Youngs Moduli (GPa) = 48.17180 100.39736 92.05782
#
# Poissons Ratio (x) = 0.17557 0.45930
# Poissons Ratio (y) = 0.08424 0.34090
# Poissons Ratio (z) = 0.24034 0.37178
#
# Static dielectric constant tensor:
#      x y z
#    x 3.597050 -0.242390 -0.129490 
#    y -0.242390 4.140290 0.196550 
#    z -0.129490 0.196550 3.239020 
# 
# 
# High freq. dielectric constant tensor:
#      x y z
#    x 1.761270 -0.012710 -0.011030 
#    y -0.012710 1.790760 0.016750 
#    z -0.011030 0.016750 1.724340 
# 
# From -- ./inp_files/389120.got.cif
#   From: 2010.06.25/outbox.cif.g09.slc.cpg/sg2_195_cif.got.tgz:389120.got - 2010.06.27 13:26:56.
