data_PCOD8014360
_publ_section_title
;
Structure prediction by ZEFSAII (Michael W. Deem and Ramdas Pophale) SiO2 
 PCOD8014360
Probable space group: P -1
;
_chemical_formula_sum "Si O2"
_cell_formula_units_Z 16
_cell_length_a 5.187432
_cell_length_b 14.686085
_cell_length_c 12.697510
_cell_angle_alpha 124.873341
_cell_angle_beta 86.297348
_cell_angle_gamma 72.670183
_cell_volume 722.717095
_symmetry_space_group_name_H-M "P -1"
_symmetry_group_IT_number 2
_symmetry_cell_setting 'triclinic'
loop_
_space_group_symop_operation_xyz
x,y,z
-x,-y,-z
loop_
_atom_site_type_symbol
_atom_site_label
_atom_site_fract_x
_atom_site_fract_y
_atom_site_fract_z
Si Si1 0.767547 0.303908 0.122785
Si Si2 0.255186 0.726560 0.659321
Si Si3 0.337271 0.898056 0.621577
Si Si4 0.178638 0.333334 0.487065
Si Si5 0.102336 0.328815 0.781931
Si Si6 0.990244 0.837227 0.172988
Si Si7 0.257565 0.801165 0.350362
Si Si8 0.875601 0.541562 0.800761
O O1 0.782117 0.244262 0.196742
O O2 0.456849 0.405979 0.177469
O O3 0.006800 0.355697 0.141993
O O4 0.843453 0.196547 0.963793
O O5 0.163512 0.853076 0.680697
O O6 0.582774 0.638903 0.565511
O O7 0.060335 0.658587 0.584612
O O8 0.667578 0.803421 0.557170
O O9 0.218574 0.900329 0.507346
O O10 0.288692 0.035697 0.743965
O O11 0.952128 0.566400 0.354837
O O12 0.089906 0.275548 0.864015
O O13 0.421191 0.297567 0.719042
O O14 0.948187 0.267546 0.665779
O O15 0.933542 0.475713 0.871440
O O16 0.189053 0.858924 0.272525
#
# Coordination Sequence:
#
# PCOD8014360 Si02
#       8
#     2   2   2   2   2   2   2   2
#     4  12  28  43  64  98 134 180 215 251 330 393
#     4  10  23  43  67 102 127 168 215 271 328 380
#     4  10  22  44  71  98 131 163 217 281 321 377
#     4  10  22  42  70 101 122 167 221 268 336 356
#     4  10  22  41  65  96 126 169 212 267 321 375
#     4  10  27  43  66  99 133 175 215 259 326 399
#     4  10  21  41  67 100 124 165 216 269 324 372
#     4  12  24  44  70  92 136 170 215 279 310 390
#
# _framework density 22.138674999999999
#
# number of rings (size 3 to 8) (size 9 to 14) (size 15 to 20)
#    1.500    0.000    1.250    3.375    1.750    6.000 
#    0.000    0.625    0.000    0.000    0.000    0.000 
#    0.000    0.000    0.000    0.000    0.000    0.000 
#
# Total GULP energy -198230.334057 kJ/mol
# GULP energy per Si atom -12389.395879 kJ/mol
# Density = 2.208829 g / cm^3
# Si number density = 22.138675 Si / 1000 Ang^3
#
#
#
# Elastic Constant Matrix: (Units=GPa)
#
#
# Indices 1 2 3 4 5 6 
#
# 1 110.5821 10.9517 14.7151 -3.9715 2.0484 -6.3468
# 2 10.9517 61.1863 52.9130 -10.5924 -0.8431 -9.1851
# 3 14.7151 52.9130 113.0576 -17.6724 -12.7164 -9.8387
# 4 -3.9715 -10.5924 -17.6724 29.7700 -1.4464 -2.7248
# 5 2.0484 -0.8431 -12.7164 -1.4464 18.5013 -1.9711
# 6 -6.3468 -9.1851 -9.8387 -2.7248 -1.9711 20.6537
#
#
#
# Elastic Compliance Matrix: (Units=1/GPa)
#
#
# Indices 1 2 3 4 5 6 
#
# 1 0.009383 -0.000535 -0.000815 0.000717 -0.001330 0.002225
# 2 -0.000535 0.029442 -0.013571 0.002565 -0.007074 0.006128
# 3 -0.000815 -0.013571 0.018255 0.006952 0.013050 0.004573
# 4 0.000717 0.002565 0.006952 0.040161 0.009110 0.010840
# 5 -0.001330 -0.007074 0.013050 0.009110 0.064626 0.010031
# 6 0.002225 0.006128 0.004573 0.010840 0.010031 0.056392
#
#
# Mechanical properties :
#
#
# Convention : Reuss Voigt Hill
#
# Bulk Modulus (GPa) = 36.71399 49.10953 42.91176
# Shear Modulus (GPa) = 19.44173 27.53474 23.48823
#
# Velocity S-wave (km/s) = 2.96662 3.53049 3.26077
# Velocity P-wave (km/s) = 5.32486 6.23298 5.79673
#
# Compressibility (1/GPa) = 0.02723757
#
# Stress axis : x y z
#
# Youngs Moduli (GPa) = 106.58103 33.96532 54.77942
#
# Poissons Ratio (x) = 0.01817 0.04463
# Poissons Ratio (y) = 0.05703 0.74341
# Poissons Ratio (z) = 0.08684 0.46095
#
# Static dielectric constant tensor:
#      x y z
#    x 3.853590 -0.076660 -0.001420 
#    y -0.076660 3.879200 -0.240630 
#    z -0.001420 -0.240630 3.729430 
# 
# 
# High freq. dielectric constant tensor:
#      x y z
#    x 1.868510 -0.007360 -0.003770 
#    y -0.007360 1.861310 -0.015570 
#    z -0.003770 -0.015570 1.854990 
# 
# From -- ./inp_files/367073.got.cif
#   From: 2010.06.25/outbox.cif.g09.slc.cpg/sg2_184_cif.got.tgz:367073.got - 2010.06.27 13:26:56.
