data_PCOD8014673
_publ_section_title
;
Structure prediction by ZEFSAII (Michael W. Deem and Ramdas Pophale) SiO2 
 PCOD8014673
Probable space group: P -1
;
_chemical_formula_sum "Si O2"
_cell_formula_units_Z 16
_cell_length_a 7.213868
_cell_length_b 11.286166
_cell_length_c 8.146260
_cell_angle_alpha 102.635747
_cell_angle_beta 71.578054
_cell_angle_gamma 104.618676
_cell_volume 601.865269
_symmetry_space_group_name_H-M "P -1"
_symmetry_group_IT_number 2
_symmetry_cell_setting 'triclinic'
loop_
_space_group_symop_operation_xyz
x,y,z
-x,-y,-z
loop_
_atom_site_type_symbol
_atom_site_label
_atom_site_fract_x
_atom_site_fract_y
_atom_site_fract_z
Si Si1 0.277503 0.019931 0.598917
Si Si2 0.670188 0.643381 0.619585
Si Si3 0.017875 0.672156 0.751954
Si Si4 0.889680 0.132102 0.715387
Si Si5 0.840105 0.083876 0.060485
Si Si6 0.421923 0.749375 0.476418
Si Si7 0.427412 0.440601 0.830968
Si Si8 0.053458 0.408313 0.747976
O O1 0.295331 0.951668 0.750462
O O2 0.495558 0.897275 0.461128
O O3 0.204034 0.919709 0.445482
O O4 0.116213 0.110193 0.672683
O O5 0.569014 0.742803 0.586605
O O6 0.489616 0.540868 0.702405
O O7 0.801422 0.578180 0.443644
O O8 0.816885 0.706084 0.741911
O O9 0.070751 0.768619 0.914258
O O10 0.192904 0.698050 0.572870
O O11 0.960415 0.531762 0.795805
O O12 0.892084 0.279890 0.748900
O O13 0.753495 0.071802 0.892975
O O14 0.000000 0.000000 0.000000
O O15 0.475247 0.677240 0.277489
O O16 0.186210 0.409696 0.878120
O O17 0.500000 0.500000 0.000000
#
# Coordination Sequence:
#
# PCOD8014673 Si02
#       8
#     2   2   2   2   2   2   2   2
#     4  10  21  43  73  96 143 200 238 297 367 424
#     4  11  22  42  72  99 149 192 232 293 366 440
#     4  12  25  42  76 110 136 195 243 301 372 436
#     4  10  21  41  70 105 136 196 244 296 367 431
#     4  10  25  43  67 104 143 184 251 299 359 441
#     4  11  23  46  72 103 147 188 251 296 355 448
#     4  11  23  41  66 108 154 196 231 297 373 432
#     4  11  21  43  67 106 148 178 245 300 357 437
#
# _framework density 26.584022000000001
#
# number of rings (size 3 to 8) (size 9 to 14) (size 15 to 20)
#    0.000    1.250    5.000    1.875    5.250    1.000 
#    0.000    0.625    0.000    0.000    0.000    0.000 
#    0.000    0.000    0.000    0.000    0.000    0.000 
#
# Total GULP energy -198267.492063 kJ/mol
# GULP energy per Si atom -12391.718254 kJ/mol
# Density = 2.652352 g / cm^3
# Si number density = 26.584022 Si / 1000 Ang^3
#
#
#
# Elastic Constant Matrix: (Units=GPa)
#
#
# Indices 1 2 3 4 5 6 
#
# 1 82.7116 23.5424 11.5184 -5.7396 -2.8796 -2.4797
# 2 23.5424 194.1677 54.8342 4.0044 -2.4051 9.6359
# 3 11.5184 54.8342 144.2074 -11.0224 7.2636 11.5857
# 4 -5.7396 4.0044 -11.0224 31.1006 9.0364 -0.5484
# 5 -2.8796 -2.4051 7.2636 9.0364 26.8578 -4.6554
# 6 -2.4797 9.6359 11.5857 -0.5484 -4.6554 36.4267
#
#
#
# Elastic Compliance Matrix: (Units=1/GPa)
#
#
# Indices 1 2 3 4 5 6 
#
# 1 0.012820 -0.001541 -0.000443 0.002174 0.000897 0.001569
# 2 -0.001541 0.006131 -0.002420 -0.002447 0.001728 -0.000773
# 3 -0.000443 -0.002420 0.008690 0.004607 -0.004629 -0.002676
# 4 0.002174 -0.002447 0.004607 0.038709 -0.014594 -0.001952
# 5 0.000897 0.001728 -0.004629 -0.014594 0.044787 0.006580
# 6 0.001569 -0.000773 -0.002676 -0.001952 0.006580 0.029426
#
#
# Mechanical properties :
#
#
# Convention : Reuss Voigt Hill
#
# Bulk Modulus (GPa) = 53.09874 66.76408 59.93141
# Shear Modulus (GPa) = 32.12380 40.95648 36.54014
#
# Velocity S-wave (km/s) = 3.47996 3.92936 3.71147
# Velocity P-wave (km/s) = 6.01366 6.76427 6.39998
#
# Compressibility (1/GPa) = 0.01883284
#
# Stress axis : x y z
#
# Youngs Moduli (GPa) = 78.00564 163.11445 115.07005
#
# Poissons Ratio (x) = 0.25133 0.05098
# Poissons Ratio (y) = 0.12019 0.27847
# Poissons Ratio (z) = 0.03456 0.39474
#
# Static dielectric constant tensor:
#      x y z
#    x 7.062540 1.075240 2.050260 
#    y 1.075240 5.595330 0.947690 
#    z 2.050260 0.947690 7.192790 
# 
# 
# High freq. dielectric constant tensor:
#      x y z
#    x 2.060490 -0.008090 0.005280 
#    y -0.008090 2.082850 -0.002000 
#    z 0.005280 -0.002000 2.078200 
# 
# From -- ./inp_files/180177.got.cif
#   From: 2010.06.25/outbox.cif.g09.slc.cpg/sg2_91_cif.got.tgz:180177.got - 2010.06.27 13:26:56.
