data_PCOD8014564
_publ_section_title
;
Structure prediction by ZEFSAII (Michael W. Deem and Ramdas Pophale) SiO2 
 PCOD8014564
Probable space group: P -1
;
_chemical_formula_sum "Si O2"
_cell_formula_units_Z 12
_cell_length_a 8.864704
_cell_length_b 8.795215
_cell_length_c 9.793707
_cell_angle_alpha 116.615122
_cell_angle_beta 79.647155
_cell_angle_gamma 112.498361
_cell_volume 630.683532
_symmetry_space_group_name_H-M "P -1"
_symmetry_group_IT_number 2
_symmetry_cell_setting 'triclinic'
loop_
_space_group_symop_operation_xyz
x,y,z
-x,-y,-z
loop_
_atom_site_type_symbol
_atom_site_label
_atom_site_fract_x
_atom_site_fract_y
_atom_site_fract_z
Si Si1 0.610888 0.504473 0.855339
Si Si2 0.179790 0.714461 0.162608
Si Si3 0.131762 0.593424 0.827526
Si Si4 0.861358 0.930125 0.605682
Si Si5 0.379110 0.429555 0.612292
Si Si6 0.925813 0.820103 0.849144
O O1 0.704001 0.363279 0.802005
O O2 0.483965 0.429236 0.726529
O O3 0.742895 0.704949 0.885591
O O4 0.500000 0.500000 0.000000
O O5 0.990771 0.600166 0.178357
O O6 0.217576 0.919824 0.283008
O O7 0.214072 0.710875 0.993949
O O8 0.270040 0.557283 0.699634
O O9 0.041522 0.699994 0.794497
O O10 0.725489 0.772938 0.487923
O O11 0.925466 0.866418 0.708315
O O12 0.000000 0.000000 0.500000
O O13 0.500000 0.500000 0.500000
O O14 0.000000 0.000000 0.000000
#
# Coordination Sequence:
#
# PCOD8014564 Si02
#       6
#     2   2   2   2   2   2
#     4  11  24  43  69  95 133 175 216 266 332 388
#     4  10  21  41  68  97 123 177 222 260 318 401
#     4  10  21  41  70  91 130 175 220 258 326 396
#     4  12  25  42  67  99 136 166 220 276 323 382
#     4  12  25  44  63  99 138 169 209 279 333 374
#     4  11  24  43  69  98 127 175 227 261 317 402
#
# _framework density 19.026975
#
# number of rings (size 3 to 8) (size 9 to 14) (size 15 to 20)
#    0.000    1.000    6.667    0.000    2.333    2.667 
#    3.000    2.500    0.000    0.000    0.000    0.000 
#    0.000    0.000    0.000    0.000    0.000    0.000 
#
# Total GULP energy -148820.716761 kJ/mol
# GULP energy per Si atom -12401.726397 kJ/mol
# Density = 1.898367 g / cm^3
# Si number density = 19.026975 Si / 1000 Ang^3
#
#
#
# Elastic Constant Matrix: (Units=GPa)
#
#
# Indices 1 2 3 4 5 6 
#
# 1 121.2681 63.1542 81.3396 2.4521 1.8072 2.8323
# 2 63.1542 126.6365 82.4717 0.7121 1.5886 5.5757
# 3 81.3396 82.4717 165.5868 1.1895 3.7145 9.0655
# 4 2.4521 0.7121 1.1895 46.9241 0.9425 0.0945
# 5 1.8072 1.5886 3.7145 0.9425 49.3290 -1.9208
# 6 2.8323 5.5757 9.0655 0.0945 -1.9208 37.0301
#
#
#
# Elastic Compliance Matrix: (Units=1/GPa)
#
#
# Indices 1 2 3 4 5 6 
#
# 1 0.013307 -0.003529 -0.004814 -0.000522 0.000026 0.000695
# 2 -0.003529 0.012628 -0.004529 0.000108 0.000041 -0.000521
# 3 -0.004814 -0.004529 0.010760 0.000062 -0.000552 -0.001613
# 4 -0.000522 0.000108 0.000062 0.021343 -0.000399 -0.000067
# 5 0.000026 0.000041 -0.000552 -0.000399 0.020365 0.001184
# 6 0.000695 -0.000521 -0.001613 -0.000067 0.001184 0.027487
#
#
# Mechanical properties :
#
#
# Convention : Reuss Voigt Hill
#
# Bulk Modulus (GPa) = 91.31933 96.38027 93.84980
# Shear Modulus (GPa) = 36.95939 39.09171 38.02555
#
# Velocity S-wave (km/s) = 4.41213 4.53762 4.47532
# Velocity P-wave (km/s) = 8.60551 8.84409 8.72561
#
# Compressibility (1/GPa) = 0.01095058
#
# Stress axis : x y z
#
# Youngs Moduli (GPa) = 75.14935 79.18917 92.93992
#
# Poissons Ratio (x) = 0.27948 0.44738
# Poissons Ratio (y) = 0.26522 0.42093
# Poissons Ratio (z) = 0.36174 0.35865
#
# Static dielectric constant tensor:
#      x y z
#    x 3.614430 0.003800 0.002760 
#    y 0.003800 3.554350 0.039160 
#    z 0.002760 0.039160 3.623810 
# 
# 
# High freq. dielectric constant tensor:
#      x y z
#    x 1.745820 -0.003260 0.003650 
#    y -0.003260 1.741990 -0.001970 
#    z 0.003650 -0.001970 1.754700 
# 
# From -- ./inp_files/144375.got.cif
#   From: 2010.06.25/outbox.cif.g09.slc.cpg/sg2_73_cif.got.tgz:144375.got - 2010.06.27 13:26:56.
