data_PCOD8014828
_publ_section_title
;
Structure prediction by ZEFSAII (Michael W. Deem and Ramdas Pophale) SiO2 
 PCOD8014828
Probable space group: P -1
;
_chemical_formula_sum "Si O2"
_cell_formula_units_Z 16
_cell_length_a 7.054386
_cell_length_b 20.303629
_cell_length_c 8.560989
_cell_angle_alpha 59.280022
_cell_angle_beta 126.699736
_cell_angle_gamma 124.363988
_cell_volume 783.156485
_symmetry_space_group_name_H-M "P -1"
_symmetry_group_IT_number 2
_symmetry_cell_setting 'triclinic'
loop_
_space_group_symop_operation_xyz
x,y,z
-x,-y,-z
loop_
_atom_site_type_symbol
_atom_site_label
_atom_site_fract_x
_atom_site_fract_y
_atom_site_fract_z
Si Si1 0.604047 0.471769 0.739119
Si Si2 0.506415 0.101120 0.232942
Si Si3 0.667621 0.268164 0.270146
Si Si4 0.459838 0.084949 0.882283
Si Si5 0.997000 0.611779 0.959093
Si Si6 0.254826 0.334742 0.945731
Si Si7 0.871302 0.198043 0.721958
Si Si8 0.903846 0.063701 0.674716
O O1 0.500000 0.500000 0.500000
O O2 0.744966 0.548218 0.829921
O O3 0.357889 0.409299 0.783189
O O4 0.803214 0.429475 0.842129
O O5 0.495114 0.176049 0.240113
O O6 0.732833 0.073757 0.436279
O O7 0.235886 0.024631 0.203745
O O8 0.552637 0.128201 0.042826
O O9 0.813586 0.263956 0.504695
O O10 0.874306 0.312042 0.186059
O O11 0.494919 0.320926 0.159804
O O12 0.615505 0.146058 0.750723
O O13 0.165604 0.067211 0.724562
O O14 0.500000 0.000000 0.000000
O O15 0.917739 0.645314 0.035898
O O16 0.095778 0.249338 0.885228
O O17 0.964399 0.136769 0.742344
#
# Coordination Sequence:
#
# PCOD8014828 Si02
#       8
#     2   2   2   2   2   2   2   2
#     4  10  22  41  66  93 124 158 191 241 294 358
#     4  10  21  42  61  83 119 163 203 255 311 351
#     4  10  23  40  60  86 123 161 199 252 301 357
#     4  12  24  36  59  87 113 156 206 259 307 359
#     4  10  22  41  62  93 123 155 200 237 299 359
#     4  11  23  39  65  92 123 159 197 247 295 358
#     4  11  24  40  58  90 119 161 209 249 307 357
#     4  10  23  42  59  83 121 160 206 258 305 361
#
# _framework density 20.430143999999999
#
# number of rings (size 3 to 8) (size 9 to 14) (size 15 to 20)
#    0.000    1.500    1.250    3.000    1.750    6.000 
#    0.000    0.000    0.000    0.000    0.000    0.000 
#    0.000    0.000    0.000    0.000    0.000    0.000 
#
# Total GULP energy -198499.238898 kJ/mol
# GULP energy per Si atom -12406.202431 kJ/mol
# Density = 2.038364 g / cm^3
# Si number density = 20.430144 Si / 1000 Ang^3
#
#
#
# Elastic Constant Matrix: (Units=GPa)
#
#
# Indices 1 2 3 4 5 6 
#
# 1 120.0337 35.9434 50.6385 -5.4748 7.7955 17.2179
# 2 35.9434 100.9620 25.9488 -0.4367 5.9798 15.1117
# 3 50.6385 25.9488 93.3875 -13.4205 -1.4370 9.1723
# 4 -5.4748 -0.4367 -13.4205 33.9341 4.2987 -3.4665
# 5 7.7955 5.9798 -1.4370 4.2987 23.7923 0.2413
# 6 17.2179 15.1117 9.1723 -3.4665 0.2413 30.6192
#
#
#
# Elastic Compliance Matrix: (Units=1/GPa)
#
#
# Indices 1 2 3 4 5 6 
#
# 1 0.012178 -0.002023 -0.005733 -0.000278 -0.003736 -0.004134
# 2 -0.002023 0.011897 -0.001985 -0.001113 -0.002203 -0.004248
# 3 -0.005733 -0.001985 0.015064 0.004720 0.002432 0.000206
# 4 -0.000278 -0.001113 0.004720 0.032240 -0.005199 0.002983
# 5 -0.003736 -0.002203 0.002432 -0.005199 0.044879 0.001517
# 6 -0.004134 -0.004248 0.000206 0.002983 0.001517 0.037344
#
#
# Mechanical properties :
#
#
# Convention : Reuss Voigt Hill
#
# Bulk Modulus (GPa) = 50.87443 59.93830 55.40636
# Shear Modulus (GPa) = 27.83399 31.12593 29.47996
#
# Velocity S-wave (km/s) = 3.69507 3.90748 3.80276
# Velocity P-wave (km/s) = 6.56966 7.05405 6.81616
#
# Compressibility (1/GPa) = 0.01965624
#
# Stress axis : x y z
#
# Youngs Moduli (GPa) = 82.11337 84.05688 66.38498
#
# Poissons Ratio (x) = 0.17007 0.38056
# Poissons Ratio (y) = 0.16614 0.13179
# Poissons Ratio (z) = 0.47073 0.16687
#
# Static dielectric constant tensor:
#      x y z
#    x 3.764030 0.244530 -0.085240 
#    y 0.244530 3.992240 -0.098760 
#    z -0.085240 -0.098760 3.770870 
# 
# 
# High freq. dielectric constant tensor:
#      x y z
#    x 1.795640 0.004840 0.000860 
#    y 0.004840 1.807310 -0.002130 
#    z 0.000860 -0.002130 1.807330 
# 
# From -- ./inp_files/52879.got.cif
#   From: 2010.06.25/outbox.cif.g09.slc.cpg/sg2_27_cif.got.tgz:52879.got - 2010.06.27 13:26:56.
