data_PCOD8014951
_publ_section_title
;
Structure prediction by ZEFSAII (Michael W. Deem and Ramdas Pophale) SiO2 
 PCOD8014951
Probable space group: P -1
;
_chemical_formula_sum "Si O2"
_cell_formula_units_Z 16
_cell_length_a 11.900180
_cell_length_b 9.444142
_cell_length_c 12.060030
_cell_angle_alpha 78.684367
_cell_angle_beta 144.415444
_cell_angle_gamma 89.395146
_cell_volume 738.198590
_symmetry_space_group_name_H-M "P -1"
_symmetry_group_IT_number 2
_symmetry_cell_setting 'triclinic'
loop_
_space_group_symop_operation_xyz
x,y,z
-x,-y,-z
loop_
_atom_site_type_symbol
_atom_site_label
_atom_site_fract_x
_atom_site_fract_y
_atom_site_fract_z
Si Si1 0.236667 0.387170 0.983684
Si Si2 0.743087 0.082565 0.984212
Si Si3 0.863540 0.166013 0.656760
Si Si4 0.218512 0.553973 0.325102
Si Si5 0.460787 0.921583 0.719734
Si Si6 0.791733 0.982338 0.290319
Si Si7 0.616706 0.416311 0.775390
Si Si8 0.915335 0.663554 0.351153
O O1 0.006900 0.453490 0.833540
O O2 0.240720 0.371190 0.856576
O O3 0.350665 0.219500 0.142338
O O4 0.370212 0.491145 0.116828
O O5 0.734148 0.057624 0.112786
O O6 0.749773 0.247823 0.935741
O O7 0.942567 0.957938 0.119279
O O8 0.548459 0.064100 0.763999
O O9 0.761848 0.278483 0.657543
O O10 0.720322 0.070660 0.511196
O O11 0.917937 0.274612 0.589459
O O12 0.382465 0.435041 0.553572
O O13 0.277449 0.519079 0.249753
O O14 0.383380 0.922129 0.783966
O O15 0.806449 0.801564 0.326329
O O16 0.000000 0.000000 0.500000
O O17 0.000000 0.500000 0.500000
#
# Coordination Sequence:
#
# PCOD8014951 Si02
#       8
#     2   2   2   2   2   2   2   2
#     4  11  23  42  66  90 128 174 207 256 326 381
#     4  11  24  41  63 100 121 165 216 261 310 381
#     4  10  21  42  64  87 133 165 202 264 316 374
#     4  10  22  46  65  93 129 162 212 272 321 377
#     4  12  21  41  66  87 130 178 202 252 323 376
#     4  11  22  41  62  88 134 172 203 259 313 369
#     4  11  25  41  71  95 122 164 217 271 322 371
#     4  10  22  39  62  95 126 166 214 261 304 373
#
# _framework density 21.674382999999999
#
# number of rings (size 3 to 8) (size 9 to 14) (size 15 to 20)
#    0.000    1.250    7.500    0.750    1.750    3.500 
#    0.000    1.875    0.000    0.000    0.000    0.000 
#    0.000    0.000    0.000    0.000    0.000    0.000 
#
# Total GULP energy -198223.890720 kJ/mol
# GULP energy per Si atom -12388.993170 kJ/mol
# Density = 2.162505 g / cm^3
# Si number density = 21.674383 Si / 1000 Ang^3
#
#
#
# Elastic Constant Matrix: (Units=GPa)
#
#
# Indices 1 2 3 4 5 6 
#
# 1 25.4651 17.2731 24.3459 -5.3934 10.1342 -11.4804
# 2 17.2731 114.3882 53.4275 -0.1649 -18.3372 -3.3441
# 3 24.3459 53.4275 109.2486 9.8583 4.5617 6.2949
# 4 -5.3934 -0.1649 9.8583 46.2612 -9.8225 -0.6926
# 5 10.1342 -18.3372 4.5617 -9.8225 26.7063 -2.1311
# 6 -11.4804 -3.3441 6.2949 -0.6926 -2.1311 26.7066
#
#
#
# Elastic Compliance Matrix: (Units=1/GPa)
#
#
# Indices 1 2 3 4 5 6 
#
# 1 0.100270 -0.010676 -0.018956 0.008826 -0.035414 0.043637
# 2 -0.010676 0.016477 -0.006844 0.004126 0.018102 0.000639
# 3 -0.018956 -0.006844 0.018368 -0.007298 -0.004435 -0.013878
# 4 0.008826 0.004126 -0.007298 0.026698 0.011158 0.007613
# 5 -0.035414 0.018102 -0.004435 0.011158 0.067677 -0.006221
# 6 0.043637 0.000639 -0.013878 0.007613 -0.006221 0.059255
#
#
# Mechanical properties :
#
#
# Convention : Reuss Voigt Hill
#
# Bulk Modulus (GPa) = 16.08663 48.79944 32.44304
# Shear Modulus (GPa) = 13.07467 30.20518 21.63992
#
# Velocity S-wave (km/s) = 2.45874 3.73713 3.16319
# Velocity P-wave (km/s) = 3.93683 6.41757 5.32371
#
# Compressibility (1/GPa) = 0.06216341
#
# Stress axis : x y z
#
# Youngs Moduli (GPa) = 9.97310 60.68883 54.44170
#
# Poissons Ratio (x) = 0.64791 1.03200
# Poissons Ratio (y) = 0.10647 0.37260
# Poissons Ratio (z) = 0.18905 0.41536
#
# Static dielectric constant tensor:
#      x y z
#    x 3.759240 -0.415470 0.185450 
#    y -0.415470 4.094560 0.266980 
#    z 0.185450 0.266980 4.203770 
# 
# 
# High freq. dielectric constant tensor:
#      x y z
#    x 1.819110 -0.034240 0.012560 
#    y -0.034240 1.854630 0.011220 
#    z 0.012560 0.011220 1.861320 
# 
# From -- ./inp_files/527485.got.cif
#   From: 2010.06.25/outbox.cif.g09.slc.cpg/sg2_264_cif.got.tgz:527485.got - 2010.06.27 13:26:56.
