data_PCOD8014277
_publ_section_title
;
Structure prediction by ZEFSAII (Michael W. Deem and Ramdas Pophale) SiO2 
 PCOD8014277
Probable space group: P -1
;
_chemical_formula_sum "Si O2"
_cell_formula_units_Z 14
_cell_length_a 10.757858
_cell_length_b 11.746961
_cell_length_c 11.935671
_cell_angle_alpha 148.798974
_cell_angle_beta 93.867686
_cell_angle_gamma 68.716044
_cell_volume 629.072329
_symmetry_space_group_name_H-M "P -1"
_symmetry_group_IT_number 2
_symmetry_cell_setting 'triclinic'
loop_
_space_group_symop_operation_xyz
x,y,z
-x,-y,-z
loop_
_atom_site_type_symbol
_atom_site_label
_atom_site_fract_x
_atom_site_fract_y
_atom_site_fract_z
Si Si1 0.670937 0.269965 0.776386
Si Si2 0.255555 0.727900 0.467178
Si Si3 0.440752 0.395795 0.574294
Si Si4 0.768976 0.005146 0.868386
Si Si5 0.333759 0.271140 0.244916
Si Si6 0.080656 0.813203 0.102307
Si Si7 0.272962 0.229519 0.553063
O O1 0.700996 0.345643 0.721536
O O2 0.794127 0.247134 0.848947
O O3 0.688392 0.985410 0.527688
O O4 0.500000 0.500000 0.000000
O O5 0.375622 0.768275 0.570006
O O6 0.260860 0.480306 0.313911
O O7 0.087985 0.008511 0.705695
O O8 0.353661 0.411746 0.470586
O O9 0.409447 0.262373 0.563887
O O10 0.383011 0.697386 0.859896
O O11 0.787930 0.801000 0.795114
O O12 0.744444 0.898975 0.664866
O O13 0.909262 0.031304 0.875174
O O14 0.500000 0.000000 0.000000
O O15 0.117591 0.526412 0.823668
#
# Coordination Sequence:
#
# PCOD8014277 Si02
#       7
#     2   2   2   2   2   2   2
#     4  11  24  43  68  93 126 169 219 264 312 384
#     4  12  24  40  63 100 132 168 208 271 320 371
#     4  10  21  41  66  92 126 166 219 264 307 376
#     4   9  19  42  67  88 128 169 213 260 307 379
#     4  11  23  40  67  97 127 169 221 260 313 377
#     4  10  23  43  63  95 137 162 211 264 321 383
#     4   9  20  42  65  90 121 173 211 257 318 379
#
# _framework density 22.254992999999999
#
# number of rings (size 3 to 8) (size 9 to 14) (size 15 to 20)
#    0.000    1.714    1.429    3.429    2.000    3.429 
#    5.143    6.429    0.000    0.000    0.000    0.000 
#    0.000    0.000    0.000    0.000    0.000    0.000 
#
# Total GULP energy -173510.219618 kJ/mol
# GULP energy per Si atom -12393.587116 kJ/mol
# Density = 2.220434 g / cm^3
# Si number density = 22.254993 Si / 1000 Ang^3
#
#
#
# Elastic Constant Matrix: (Units=GPa)
#
#
# Indices 1 2 3 4 5 6 
#
# 1 87.0851 40.0198 65.6634 7.6643 -17.3414 12.4740
# 2 40.0198 126.0759 57.9411 5.4940 2.3333 32.7598
# 3 65.6634 57.9411 166.1542 8.6667 -7.1347 9.3772
# 4 7.6643 5.4940 8.6667 26.8411 6.4369 -0.3895
# 5 -17.3414 2.3333 -7.1347 6.4369 44.8773 5.3970
# 6 12.4740 32.7598 9.3772 -0.3895 5.3970 29.5303
#
#
#
# Elastic Compliance Matrix: (Units=1/GPa)
#
#
# Indices 1 2 3 4 5 6 
#
# 1 0.020097 -0.001814 -0.006326 -0.005418 0.008361 -0.006068
# 2 -0.001814 0.013433 -0.003160 -0.001371 -0.000127 -0.013127
# 3 -0.006326 -0.003160 0.009392 -0.000252 -0.001160 0.003405
# 4 -0.005418 -0.001371 -0.000252 0.041343 -0.008717 0.006028
# 5 0.008361 -0.000127 -0.001160 -0.008717 0.027570 -0.008177
# 6 -0.006068 -0.013127 0.003405 0.006028 -0.008177 0.051482
#
#
# Mechanical properties :
#
#
# Convention : Reuss Voigt Hill
#
# Bulk Modulus (GPa) = 49.20926 78.50710 63.85818
# Shear Modulus (GPa) = 25.94809 34.62912 30.28860
#
# Velocity S-wave (km/s) = 3.41830 3.94892 3.69315
# Velocity P-wave (km/s) = 6.14323 7.49297 6.85142
#
# Compressibility (1/GPa) = 0.02032138
#
# Stress axis : x y z
#
# Youngs Moduli (GPa) = 49.75766 74.44230 106.47787
#
# Poissons Ratio (x) = 0.13507 0.67354
# Poissons Ratio (y) = 0.09028 0.33652
# Poissons Ratio (z) = 0.31475 0.23527
#
# Static dielectric constant tensor:
#      x y z
#    x 4.237340 0.685750 0.247800 
#    y 0.685750 4.313170 0.147640 
#    z 0.247800 0.147640 4.136050 
# 
# 
# High freq. dielectric constant tensor:
#      x y z
#    x 1.868510 0.032520 0.006320 
#    y 0.032520 1.868580 -0.002290 
#    z 0.006320 -0.002290 1.884270 
# 
# From -- ./inp_files/40245.got.cif
#   From: 2010.06.25/outbox.cif.g09.slc.cpg/sg2_21_cif.got.tgz:40245.got - 2010.06.27 13:26:56.
