data_PCOD8014427
_publ_section_title
;
Structure prediction by ZEFSAII (Michael W. Deem and Ramdas Pophale) SiO2 
 PCOD8014427
Probable space group: P -1
;
_chemical_formula_sum "Si O2"
_cell_formula_units_Z 16
_cell_length_a 9.177092
_cell_length_b 11.811814
_cell_length_c 14.258870
_cell_angle_alpha 111.886925
_cell_angle_beta 73.047937
_cell_angle_gamma 49.233308
_cell_volume 704.400125
_symmetry_space_group_name_H-M "P -1"
_symmetry_group_IT_number 2
_symmetry_cell_setting 'triclinic'
loop_
_space_group_symop_operation_xyz
x,y,z
-x,-y,-z
loop_
_atom_site_type_symbol
_atom_site_label
_atom_site_fract_x
_atom_site_fract_y
_atom_site_fract_z
Si Si1 0.271412 0.240916 0.823667
Si Si2 0.306158 0.794473 0.936575
Si Si3 0.227957 0.395066 0.334483
Si Si4 0.284762 0.709295 0.292833
Si Si5 0.636652 0.085371 0.337099
Si Si6 0.873517 0.783766 0.650896
Si Si7 0.908458 0.018027 0.768469
Si Si8 0.368953 0.879410 0.443275
O O1 0.405175 0.210343 0.696092
O O2 0.174541 0.169391 0.792473
O O3 0.530013 0.061059 0.796804
O O4 0.000000 0.500000 0.000000
O O5 0.536154 0.726469 0.822696
O O6 0.433531 0.571426 0.853284
O O7 0.289762 0.860107 0.064023
O O8 0.000000 0.000000 0.000000
O O9 0.369038 0.273673 0.373369
O O10 0.097164 0.349379 0.320955
O O11 0.984922 0.666524 0.488497
O O12 0.271135 0.804729 0.232058
O O13 0.347096 0.750226 0.384610
O O14 0.980992 0.839548 0.403725
O O15 0.500937 0.184894 0.497925
O O16 0.834032 0.067638 0.275737
O O17 0.045405 0.789040 0.650771
#
# Coordination Sequence:
#
# PCOD8014427 Si02
#       8
#     2   2   2   2   2   2   2   2
#     4  11  23  40  65  96 137 169 212 280 332 385
#     4  12  25  40  65  99 139 175 211 274 339 393
#     4  10  23  45  66  93 136 175 219 270 324 404
#     4  10  23  40  69  99 131 171 224 275 323 390
#     4  10  23  40  65 100 130 175 220 268 325 392
#     4  10  23  44  68  91 130 177 220 269 327 392
#     4  11  23  43  68 102 131 171 224 275 330 389
#     4  10  21  41  67  95 124 177 222 268 325 389
#
# _framework density 22.714362999999999
#
# number of rings (size 3 to 8) (size 9 to 14) (size 15 to 20)
#    0.000    1.500    2.500    1.500    5.250    4.000 
#    0.000    3.750    0.000    0.000    0.000    0.000 
#    0.000    0.000    0.000    0.000    0.000    0.000 
#
# Total GULP energy -198261.965791 kJ/mol
# GULP energy per Si atom -12391.372862 kJ/mol
# Density = 2.266266 g / cm^3
# Si number density = 22.714363 Si / 1000 Ang^3
#
#
#
# Elastic Constant Matrix: (Units=GPa)
#
#
# Indices 1 2 3 4 5 6 
#
# 1 111.9731 33.2465 41.2803 1.5142 9.6944 36.7486
# 2 33.2465 84.7625 56.2172 1.5619 8.1419 13.3007
# 3 41.2803 56.2172 147.2675 -6.9429 -2.4762 18.9695
# 4 1.5142 1.5619 -6.9429 43.5761 4.8272 -2.2408
# 5 9.6944 8.1419 -2.4762 4.8272 38.3100 -6.7885
# 6 36.7486 13.3007 18.9695 -2.2408 -6.7885 37.7322
#
#
#
# Elastic Compliance Matrix: (Units=1/GPa)
#
#
# Indices 1 2 3 4 5 6 
#
# 1 0.015561 -0.001956 -0.001867 -0.000843 -0.006138 -0.014681
# 2 -0.001956 0.017134 -0.005862 -0.001167 -0.003719 -0.001926
# 3 -0.001867 -0.005862 0.009730 0.001570 0.002053 -0.000545
# 4 -0.000843 -0.001167 0.001570 0.023583 -0.002151 0.001457
# 5 -0.006138 -0.003719 0.002053 -0.002151 0.030922 0.011693
# 6 -0.014681 -0.001926 -0.000545 0.001457 0.011693 0.043944
#
#
# Mechanical properties :
#
#
# Convention : Reuss Voigt Hill
#
# Bulk Modulus (GPa) = 43.37511 67.27680 55.32595
# Shear Modulus (GPa) = 29.77464 38.14094 33.95779
#
# Velocity S-wave (km/s) = 3.62446 4.10220 3.87071
# Velocity P-wave (km/s) = 6.05417 7.21944 6.66233
#
# Compressibility (1/GPa) = 0.02305470
#
# Stress axis : x y z
#
# Youngs Moduli (GPa) = 64.26321 58.36487 102.77588
#
# Poissons Ratio (x) = 0.11419 0.19187
# Poissons Ratio (y) = 0.12573 0.60243
# Poissons Ratio (z) = 0.11997 0.34211
#
# Static dielectric constant tensor:
#      x y z
#    x 4.249830 0.209190 0.116450 
#    y 0.209190 4.059340 -0.016320 
#    z 0.116450 -0.016320 4.141190 
# 
# 
# High freq. dielectric constant tensor:
#      x y z
#    x 1.903060 0.018830 0.001830 
#    y 0.018830 1.884690 -0.003620 
#    z 0.001830 -0.003620 1.896470 
# 
# From -- ./inp_files/500698.got.cif
#   From: 2010.06.25/outbox.cif.g09.slc.cpg/sg2_251_cif.got.tgz:500698.got - 2010.06.27 13:26:56.
