data_PCOD8014202
_publ_section_title
;
Structure prediction by ZEFSAII (Michael W. Deem and Ramdas Pophale) SiO2 
 PCOD8014202
Probable space group: P -1
;
_chemical_formula_sum "Si O2"
_cell_formula_units_Z 16
_cell_length_a 21.176781
_cell_length_b 17.107981
_cell_length_c 10.978916
_cell_angle_alpha 149.820821
_cell_angle_beta 39.703266
_cell_angle_gamma 157.978006
_cell_volume 738.856753
_symmetry_space_group_name_H-M "P -1"
_symmetry_group_IT_number 2
_symmetry_cell_setting 'triclinic'
loop_
_space_group_symop_operation_xyz
x,y,z
-x,-y,-z
loop_
_atom_site_type_symbol
_atom_site_label
_atom_site_fract_x
_atom_site_fract_y
_atom_site_fract_z
Si Si1 0.248084 0.027733 0.249218
Si Si2 0.966938 0.426193 0.790790
Si Si3 0.684812 0.576668 0.696326
Si Si4 0.388101 0.195856 0.998534
Si Si5 0.748060 0.591709 0.907360
Si Si6 0.041424 0.930674 0.594597
Si Si7 0.138482 0.610994 0.531898
Si Si8 0.586988 0.952843 0.767543
O O1 0.173736 0.098127 0.507716
O O2 0.326771 0.159089 0.176644
O O3 0.394426 0.142986 0.275290
O O4 0.090505 0.703515 0.050831
O O5 0.975907 0.271643 0.628917
O O6 0.041329 0.497164 0.646114
O O7 0.771229 0.234369 0.817097
O O8 0.653901 0.719771 0.919310
O O9 0.710398 0.567924 0.788615
O O10 0.525116 0.273579 0.475377
O O11 0.853714 0.754906 0.606142
O O12 0.588718 0.424219 0.004913
O O13 0.305202 0.932380 0.716242
O O14 0.807344 0.494394 0.719705
O O15 0.893290 0.895595 0.148178
O O16 0.000000 0.500000 0.500000
O O17 0.500000 0.000000 0.000000
#
# Coordination Sequence:
#
# PCOD8014202 Si02
#       8
#     2   2   2   2   2   2   2   2
#     4  10  23  44  65  95 135 174 220 275 334 378
#     4  10  21  41  65  95 131 174 216 274 321 393
#     4  12  25  42  68 101 133 173 225 269 328 397
#     4  11  26  43  67  98 136 172 217 277 331 390
#     4  12  26  44  68  96 136 179 215 275 329 398
#     4  11  22  42  71  90 131 175 223 269 327 393
#     4  11  25  42  67  96 133 175 217 269 334 392
#     4  11  23  38  70  99 129 174 225 273 324 393
#
# _framework density 21.655078
#
# number of rings (size 3 to 8) (size 9 to 14) (size 15 to 20)
#    0.000    1.000    1.250    6.375    5.250    3.500 
#    0.000    0.000    0.000    0.000    0.000    0.000 
#    0.000    0.000    0.000    0.000    0.000    0.000 
#
# Total GULP energy -198341.270290 kJ/mol
# GULP energy per Si atom -12396.329393 kJ/mol
# Density = 2.160579 g / cm^3
# Si number density = 21.655078 Si / 1000 Ang^3
#
#
#
# Elastic Constant Matrix: (Units=GPa)
#
#
# Indices 1 2 3 4 5 6 
#
# 1 -378.1412 34.2105 527.1191 215.3261 -181.8281 281.6273
# 2 34.2105 135.2142 26.8592 -20.7193 -2.1081 16.6017
# 3 527.1191 26.8592 -320.0834 -206.7132 176.1829 -249.8559
# 4 215.3261 -20.7193 -206.7132 -50.9460 88.3180 -119.5155
# 5 -181.8281 -2.1081 176.1829 88.3180 -28.9783 97.9763
# 6 281.6273 16.6017 -249.8559 -119.5155 97.9763 -112.5742
#
#
#
# Elastic Compliance Matrix: (Units=1/GPa)
#
#
# Indices 1 2 3 4 5 6 
#
# 1 0.005382 -0.001435 0.000436 0.003979 -0.004307 0.004314
# 2 -0.001435 0.009068 -0.001219 0.003900 -0.000180 -0.003846
# 3 0.000436 -0.001219 0.005946 -0.004101 0.002993 -0.005328
# 4 0.003979 0.003900 -0.004101 0.022243 -0.002131 -0.005838
# 5 -0.004307 -0.000180 0.002993 -0.002131 0.024245 0.005920
# 6 0.004314 -0.003846 -0.005328 -0.005838 0.005920 0.024517
#
#
# Mechanical properties :
#
#
# Convention : Reuss Voigt Hill
#
# Bulk Modulus (GPa) = 62.66160 68.15193 65.40677
# Shear Modulus (GPa) = 49.42739 -115.24631 -32.90946
#
# Velocity S-wave (km/s) = 4.78272 -7.30305 -3.90258
# Velocity P-wave (km/s) = 7.71351 6.29070 3.15637
#
# Compressibility (1/GPa) = 0.01595874
#
# Stress axis : x y z
#
# Youngs Moduli (GPa) = 185.79536 110.27918 168.17802
#
# Poissons Ratio (x) = 0.15829 -0.07325
# Poissons Ratio (y) = 0.26669 0.20500
# Poissons Ratio (z) = -0.08092 0.13442
#
# Static dielectric constant tensor:
#      x y z
#    x 3.692430 0.216470 -0.080180 
#    y 0.216470 2.775120 1.194400 
#    z -0.080180 1.194400 3.297460 
# 
# 
# High freq. dielectric constant tensor:
#      x y z
#    x 1.840670 0.003830 0.008450 
#    y 0.003830 1.871820 -0.007500 
#    z 0.008450 -0.007500 1.867390 
# 
# From -- ./inp_files/472491.got.cif
#   From: 2010.06.25/outbox.cif.g09.slc.cpg/sg2_237_cif.got.tgz:472491.got - 2010.06.27 13:26:56.
