data_PCOD8014845
_publ_section_title
;
Structure prediction by ZEFSAII (Michael W. Deem and Ramdas Pophale) SiO2 
 PCOD8014845
Probable space group: P -1
;
_chemical_formula_sum "Si O2"
_cell_formula_units_Z 14
_cell_length_a 18.209786
_cell_length_b 4.993057
_cell_length_c 6.118655
_cell_angle_alpha 89.117011
_cell_angle_beta 76.310143
_cell_angle_gamma 103.428460
_cell_volume 524.281735
_symmetry_space_group_name_H-M "P -1"
_symmetry_group_IT_number 2
_symmetry_cell_setting 'triclinic'
loop_
_space_group_symop_operation_xyz
x,y,z
-x,-y,-z
loop_
_atom_site_type_symbol
_atom_site_label
_atom_site_fract_x
_atom_site_fract_y
_atom_site_fract_z
Si Si1 0.149760 0.606038 0.679373
Si Si2 0.524279 0.955349 0.739724
Si Si3 0.090768 0.056992 0.473586
Si Si4 0.284250 0.391802 0.606710
Si Si5 0.675249 0.931682 0.790130
Si Si6 0.812002 0.031122 0.974717
Si Si7 0.569668 0.631251 0.247722
O O1 0.114025 0.286474 0.644768
O O2 0.245460 0.655095 0.593389
O O3 0.135499 0.700841 0.936938
O O4 0.113506 0.778115 0.532341
O O5 0.619890 0.074022 0.672409
O O6 0.529548 0.876807 0.368512
O O7 0.503388 0.626654 0.722596
O O8 0.500000 0.000000 0.000000
O O9 0.000000 0.000000 0.500000
O O10 0.134330 0.118436 0.208932
O O11 0.276275 0.238589 0.382905
O O12 0.373427 0.463610 0.618555
O O13 0.228546 0.198205 0.821319
O O14 0.614908 0.719160 0.990795
O O15 0.742660 0.128895 0.887172
#
# Coordination Sequence:
#
# PCOD8014845 Si02
#       7
#     2   2   2   2   2   2   2
#     4  12  26  50  74 113 145 186 242 284 361 434
#     4  10  21  42  61  96 135 189 240 297 360 408
#     4  12  29  52  80 111 146 188 233 290 361 435
#     4  11  25  46  71 110 139 194 244 293 357 427
#     4  10  21  44  70  99 142 195 237 301 353 424
#     4  11  25  49  75 107 152 187 239 299 351 430
#     4  10  24  41  65  95 140 186 241 302 356 407
#
# _framework density 26.703199999999999
#
# number of rings (size 3 to 8) (size 9 to 14) (size 15 to 20)
#    0.000    1.143    2.857    2.143    8.000    2.286 
#   10.286    0.000    0.000    0.000    0.000    0.000 
#    0.000    0.000    0.000    0.000    0.000    0.000 
#
# Total GULP energy -173495.419471 kJ/mol
# GULP energy per Si atom -12392.529962 kJ/mol
# Density = 2.664242 g / cm^3
# Si number density = 26.703200 Si / 1000 Ang^3
#
#
#
# Elastic Constant Matrix: (Units=GPa)
#
#
# Indices 1 2 3 4 5 6 
#
# 1 218.4621 53.3319 63.0527 8.1702 -0.2376 -13.4428
# 2 53.3319 74.3130 27.4973 31.6492 -4.5896 -11.6504
# 3 63.0527 27.4973 123.4715 17.9786 -8.2399 6.4385
# 4 8.1702 31.6492 17.9786 43.4528 3.3048 6.5501
# 5 -0.2376 -4.5896 -8.2399 3.3048 38.3155 1.4315
# 6 -13.4428 -11.6504 6.4385 6.5501 1.4315 51.9765
#
#
#
# Elastic Compliance Matrix: (Units=1/GPa)
#
#
# Indices 1 2 3 4 5 6 
#
# 1 0.006593 -0.005374 -0.002867 0.003919 -0.001573 0.000405
# 2 -0.005374 0.027587 -0.000511 -0.020324 0.004642 0.007291
# 3 -0.002867 -0.000511 0.010422 -0.003321 0.002516 -0.001798
# 4 0.003919 -0.020324 -0.003321 0.040141 -0.006287 -0.008016
# 5 -0.001573 0.004642 0.002516 -0.006287 0.027716 0.000351
# 6 0.000405 0.007291 -0.001798 -0.008016 0.000351 0.022202
#
#
# Mechanical properties :
#
#
# Convention : Reuss Voigt Hill
#
# Bulk Modulus (GPa) = 36.89987 78.22337 57.56162
# Shear Modulus (GPa) = 31.01795 44.90661 37.96228
#
# Velocity S-wave (km/s) = 3.41190 4.10529 3.77455
# Velocity P-wave (km/s) = 5.41940 7.19920 6.37175
#
# Compressibility (1/GPa) = 0.02710037
#
# Stress axis : x y z
#
# Youngs Moduli (GPa) = 151.66578 36.24833 95.94942
#
# Poissons Ratio (x) = 0.19478 0.27509
# Poissons Ratio (y) = 0.81499 0.04900
# Poissons Ratio (z) = 0.43483 0.01851
#
# Static dielectric constant tensor:
#      x y z
#    x 5.757680 -0.344750 0.448760 
#    y -0.344750 4.527120 0.148560 
#    z 0.448760 0.148560 5.702110 
# 
# 
# High freq. dielectric constant tensor:
#      x y z
#    x 2.091890 -0.015230 0.011960 
#    y -0.015230 2.040290 0.011340 
#    z 0.011960 0.011340 2.107090 
# 
# From -- ./inp_files/114870.got.cif
#   From: 2010.06.25/outbox.cif.g09.slc.cpg/sg2_58_cif.got.tgz:114870.got - 2010.06.27 13:26:56.
