data_PCOD8014708
_publ_section_title
;
Structure prediction by ZEFSAII (Michael W. Deem and Ramdas Pophale) SiO2 
 PCOD8014708
Probable space group: P -1
;
_chemical_formula_sum "Si O2"
_cell_formula_units_Z 16
_cell_length_a 9.276737
_cell_length_b 13.848418
_cell_length_c 21.077722
_cell_angle_alpha 21.965723
_cell_angle_beta 44.970474
_cell_angle_gamma 44.487637
_cell_volume 698.823319
_symmetry_space_group_name_H-M "P -1"
_symmetry_group_IT_number 2
_symmetry_cell_setting 'triclinic'
loop_
_space_group_symop_operation_xyz
x,y,z
-x,-y,-z
loop_
_atom_site_type_symbol
_atom_site_label
_atom_site_fract_x
_atom_site_fract_y
_atom_site_fract_z
Si Si1 0.722040 0.229258 0.915164
Si Si2 0.066558 0.873009 0.771885
Si Si3 0.549036 0.285250 0.809007
Si Si4 0.852187 0.431979 0.532262
Si Si5 0.052627 0.264453 0.349087
Si Si6 0.112211 0.518660 0.853751
Si Si7 0.842464 0.676332 0.256219
Si Si8 0.521520 0.783429 0.681218
O O1 0.738852 0.264547 0.812753
O O2 0.539929 0.476951 0.841655
O O3 0.932375 0.257741 0.865839
O O4 0.675179 0.938146 0.123949
O O5 0.073965 0.766274 0.762723
O O6 0.297170 0.838698 0.752539
O O7 0.973632 0.181586 0.608001
O O8 0.915209 0.743704 0.941492
O O9 0.634131 0.380564 0.658929
O O10 0.343220 0.493097 0.768646
O O11 0.500000 0.000000 0.000000
O O12 0.791141 0.647450 0.364032
O O13 0.000000 0.500000 0.500000
O O14 0.285154 0.192793 0.349171
O O15 0.050310 0.442156 0.178178
O O16 0.867303 0.414020 0.364152
O O17 0.000000 0.000000 0.500000
O O18 0.500000 0.000000 0.500000
#
# Coordination Sequence:
#
# PCOD8014708 Si02
#       8
#     2   2   2   2   2   2   2   2
#     4  10  21  41  70  98 139 185 237 281 364 425
#     4  11  24  44  73 101 142 186 242 288 360 433
#     4  12  23  43  70 102 143 192 236 289 363 430
#     4  12  25  41  71 109 141 179 245 300 352 433
#     4  11  24  42  69 104 145 182 234 294 364 422
#     4  11  24  45  70 101 139 192 236 293 353 434
#     4  10  22  42  68 103 144 187 228 308 355 421
#     4  11  23  42  74  98 135 188 236 292 355 429
#
# _framework density 22.895630000000001
#
# number of rings (size 3 to 8) (size 9 to 14) (size 15 to 20)
#    0.000    1.000    3.750    3.750    0.000    1.500 
#    0.000    3.750    0.000    0.000    0.000    0.000 
#    0.000    0.000    0.000    0.000    0.000    0.000 
#
# Total GULP energy -198255.554709 kJ/mol
# GULP energy per Si atom -12390.972169 kJ/mol
# Density = 2.284352 g / cm^3
# Si number density = 22.895630 Si / 1000 Ang^3
#
#
#
# Elastic Constant Matrix: (Units=GPa)
#
#
# Indices 1 2 3 4 5 6 
#
# 1 111.9146 36.9401 33.7274 3.4495 18.9703 8.1197
# 2 36.9401 122.3692 65.6078 -1.3951 8.0416 -0.3841
# 3 33.7274 65.6078 110.3545 -0.9909 17.4318 -0.1546
# 4 3.4495 -1.3951 -0.9909 44.9338 1.7789 -2.0449
# 5 18.9703 8.0416 17.4318 1.7789 40.8853 2.5767
# 6 8.1197 -0.3841 -0.1546 -2.0449 2.5767 37.4869
#
#
#
# Elastic Compliance Matrix: (Units=1/GPa)
#
#
# Indices 1 2 3 4 5 6 
#
# 1 0.010960 -0.002344 -0.001356 -0.000890 -0.003870 -0.002186
# 2 -0.002344 0.012519 -0.006966 0.000378 0.001546 0.000522
# 3 -0.001356 -0.006966 0.014276 0.000393 -0.004142 0.000587
# 4 -0.000890 0.000378 0.000393 0.022447 -0.000899 0.001485
# 5 -0.003870 0.001546 -0.004142 -0.000899 0.027826 -0.001125
# 6 -0.002186 0.000522 0.000587 0.001485 -0.001125 0.027316
#
#
# Mechanical properties :
#
#
# Convention : Reuss Voigt Hill
#
# Bulk Modulus (GPa) = 60.89325 68.57654 64.73489
# Shear Modulus (GPa) = 35.17403 38.55206 36.86304
#
# Velocity S-wave (km/s) = 3.92379 4.10789 4.01689
# Velocity P-wave (km/s) = 6.86891 7.24682 7.06040
#
# Compressibility (1/GPa) = 0.01642218
#
# Stress axis : x y z
#
# Youngs Moduli (GPa) = 91.24326 79.87824 70.04610
#
# Poissons Ratio (x) = 0.18726 0.09496
# Poissons Ratio (y) = 0.21391 0.48797
# Poissons Ratio (z) = 0.12369 0.55647
#
# Static dielectric constant tensor:
#      x y z
#    x 4.840740 -0.078990 0.293050 
#    y -0.078990 4.382750 -0.299430 
#    z 0.293050 -0.299430 4.314240 
# 
# 
# High freq. dielectric constant tensor:
#      x y z
#    x 1.905970 0.008760 0.007260 
#    y 0.008760 1.900360 -0.018540 
#    z 0.007260 -0.018540 1.905480 
# 
# From -- ./inp_files/559506.got.cif
#   From: 2010.06.25/outbox.cif.g09.slc.cpg/sg2_280_cif.got.tgz:559506.got - 2010.06.27 13:26:56.
