data_PCOD8014759
_publ_section_title
;
Structure prediction by ZEFSAII (Michael W. Deem and Ramdas Pophale) SiO2 
 PCOD8014759
Probable space group: P -1
;
_chemical_formula_sum "Si O2"
_cell_formula_units_Z 16
_cell_length_a 11.528394
_cell_length_b 7.530350
_cell_length_c 11.922494
_cell_angle_alpha 112.349466
_cell_angle_beta 47.107488
_cell_angle_gamma 125.645029
_cell_volume 615.987803
_symmetry_space_group_name_H-M "P -1"
_symmetry_group_IT_number 2
_symmetry_cell_setting 'triclinic'
loop_
_space_group_symop_operation_xyz
x,y,z
-x,-y,-z
loop_
_atom_site_type_symbol
_atom_site_label
_atom_site_fract_x
_atom_site_fract_y
_atom_site_fract_z
Si Si1 0.169641 0.377220 0.419252
Si Si2 0.130459 0.801573 0.596501
Si Si3 0.952117 0.738593 0.296908
Si Si4 0.097507 0.180278 0.885124
Si Si5 0.841960 0.271510 0.191302
Si Si6 0.551575 0.451980 0.178167
Si Si7 0.661566 0.208212 0.890684
Si Si8 0.459106 0.045547 0.299699
O O1 0.131926 0.573037 0.524921
O O2 0.126787 0.228525 0.525564
O O3 0.373591 0.465605 0.264979
O O4 0.041385 0.222754 0.367571
O O5 0.111898 0.828189 0.749444
O O6 0.317736 0.006183 0.482417
O O7 0.827971 0.489202 0.276962
O O8 0.154949 0.784620 0.190210
O O9 0.935663 0.890493 0.243761
O O10 0.994644 0.324812 0.008561
O O11 0.310049 0.321045 0.800771
O O12 0.000000 0.000000 0.000000
O O13 0.648290 0.081409 0.232254
O O14 0.493697 0.254067 0.254712
O O15 0.648676 0.418945 0.995170
O O16 0.636746 0.179606 0.765798
O O17 0.500000 0.000000 0.000000
#
# Coordination Sequence:
#
# PCOD8014759 Si02
#       8
#     2   2   2   2   2   2   2   2
#     4  10  24  44  71 101 141 181 234 287 342 411
#     4  10  23  45  68 101 139 188 227 278 349 415
#     4  11  21  47  74  91 140 194 227 276 351 422
#     4  12  26  43  66 104 142 178 231 292 352 406
#     4  11  23  44  71  98 140 188 225 278 347 422
#     4  11  24  44  69 106 136 179 235 296 342 403
#     4  10  21  41  72 100 132 184 239 276 339 419
#     4  11  22  43  74 101 136 184 238 275 344 421
#
# _framework density 25.974537999999999
#
# number of rings (size 3 to 8) (size 9 to 14) (size 15 to 20)
#    0.000    1.250    3.750    2.250    1.750    2.000 
#    6.750    1.250    0.000    0.000    0.000    0.000 
#    0.000    0.000    0.000    0.000    0.000    0.000 
#
# Total GULP energy -198403.597231 kJ/mol
# GULP energy per Si atom -12400.224827 kJ/mol
# Density = 2.591542 g / cm^3
# Si number density = 25.974538 Si / 1000 Ang^3
#
#
#
# Elastic Constant Matrix: (Units=GPa)
#
#
# Indices 1 2 3 4 5 6 
#
# 1 160.4188 34.7675 44.7396 -7.8339 7.6219 36.8155
# 2 34.7675 61.4641 12.4094 -14.6936 12.7323 27.3377
# 3 44.7396 12.4094 105.4725 -10.1407 4.0288 24.2666
# 4 -7.8339 -14.6936 -10.1407 33.9572 10.1099 2.8736
# 5 7.6219 12.7323 4.0288 10.1099 53.5126 -13.7273
# 6 36.8155 27.3377 24.2666 2.8736 -13.7273 49.2837
#
#
#
# Elastic Compliance Matrix: (Units=1/GPa)
#
#
# Indices 1 2 3 4 5 6 
#
# 1 0.008541 -0.000272 -0.001711 0.002844 -0.003214 -0.006448
# 2 -0.000272 0.046063 0.008005 0.033883 -0.027942 -0.039048
# 3 -0.001711 0.008005 0.013479 0.010513 -0.007897 -0.012611
# 4 0.002844 0.033883 0.010513 0.060177 -0.030393 -0.038070
# 5 -0.003214 -0.027942 -0.007897 -0.030393 0.041111 0.035012
# 6 -0.006448 -0.039048 -0.012611 -0.038070 0.035012 0.064949
#
#
# Mechanical properties :
#
#
# Convention : Reuss Voigt Hill
#
# Bulk Modulus (GPa) = 12.48025 56.79872 34.63948
# Shear Modulus (GPa) = 20.08138 43.04663 31.56401
#
# Velocity S-wave (km/s) = 2.78352 4.07537 3.48974
# Velocity P-wave (km/s) = 3.89177 6.63772 5.44083
#
# Compressibility (1/GPa) = 0.08012661
#
# Stress axis : x y z
#
# Youngs Moduli (GPa) = 117.07711 21.70929 74.18846
#
# Poissons Ratio (x) = 0.00591 0.12696
# Poissons Ratio (y) = 0.03186 -0.59387
# Poissons Ratio (z) = 0.20035 -0.17378
#
# Static dielectric constant tensor:
#      x y z
#    x 5.142880 0.167360 0.295530 
#    y 0.167360 4.997900 0.599990 
#    z 0.295530 0.599990 6.024700 
# 
# 
# High freq. dielectric constant tensor:
#      x y z
#    x 2.044660 0.004110 0.008110 
#    y 0.004110 2.045030 0.001980 
#    z 0.008110 0.001980 2.053450 
# 
# From -- ./inp_files/419588.got.cif
#   From: 2010.06.25/outbox.cif.g09.slc.cpg/sg2_210_cif.got.tgz:419588.got - 2010.06.27 13:26:56.
