data_PCOD8014447
_publ_section_title
;
Structure prediction by ZEFSAII (Michael W. Deem and Ramdas Pophale) SiO2 
 PCOD8014447
Probable space group: P -1
;
_chemical_formula_sum "Si O2"
_cell_formula_units_Z 12
_cell_length_a 7.651029
_cell_length_b 16.668474
_cell_length_c 7.144104
_cell_angle_alpha 124.441128
_cell_angle_beta 75.077645
_cell_angle_gamma 137.182633
_cell_volume 490.157657
_symmetry_space_group_name_H-M "P -1"
_symmetry_group_IT_number 2
_symmetry_cell_setting 'triclinic'
loop_
_space_group_symop_operation_xyz
x,y,z
-x,-y,-z
loop_
_atom_site_type_symbol
_atom_site_label
_atom_site_fract_x
_atom_site_fract_y
_atom_site_fract_z
Si Si1 0.222936 0.032876 0.590112
Si Si2 0.979240 0.420072 0.161586
Si Si3 0.210886 0.705624 0.363236
Si Si4 0.398160 0.448496 0.245089
Si Si5 0.888101 0.749529 0.489240
Si Si6 0.398025 0.247232 0.117989
O O1 0.483271 0.137508 0.524986
O O2 0.280102 0.103522 0.869155
O O3 0.000000 0.000000 0.500000
O O4 0.104758 0.877792 0.451988
O O5 0.700830 0.345365 0.234980
O O6 0.179714 0.592539 0.334023
O O7 0.114247 0.386993 0.200390
O O8 0.916696 0.356758 0.889485
O O9 0.042309 0.726103 0.533549
O O10 0.500000 0.500000 0.500000
O O11 0.631885 0.595784 0.252673
O O12 0.391460 0.328750 0.063311
O O13 0.785199 0.794465 0.712209
#
# Coordination Sequence:
#
# PCOD8014447 Si02
#       6
#     2   2   2   2   2   2
#     4  11  24  42  63  91 130 174 214 262 323 383
#     4  10  21  41  67  96 131 166 213 268 322 375
#     4  10  22  40  65  96 128 170 216 265 320 382
#     4  10  22  39  66  97 126 165 212 265 319 381
#     4  11  22  41  64  94 129 164 218 262 317 387
#     4  10  23  44  64  95 130 167 215 265 322 382
#
# _framework density 24.481919000000001
#
# number of rings (size 3 to 8) (size 9 to 14) (size 15 to 20)
#    0.000    1.667    1.667    2.000    2.333    3.333 
#    6.000    0.833    0.000    0.000    0.000    0.000 
#    0.000    0.000    0.000    0.000    0.000    0.000 
#
# Total GULP energy -148722.303010 kJ/mol
# GULP energy per Si atom -12393.525251 kJ/mol
# Density = 2.442620 g / cm^3
# Si number density = 24.481919 Si / 1000 Ang^3
#
#
#
# Elastic Constant Matrix: (Units=GPa)
#
#
# Indices 1 2 3 4 5 6 
#
# 1 187.2547 40.3456 9.9759 14.5232 10.6920 18.8679
# 2 40.3456 116.5196 9.6620 39.7593 8.4752 15.2421
# 3 9.9759 9.6620 24.4766 9.9163 3.3468 5.7118
# 4 14.5232 39.7593 9.9163 34.3018 2.2979 -8.6248
# 5 10.6920 8.4752 3.3468 2.2979 31.6320 -2.0606
# 6 18.8679 15.2421 5.7118 -8.6248 -2.0606 47.2297
#
#
#
# Elastic Compliance Matrix: (Units=1/GPa)
#
#
# Indices 1 2 3 4 5 6 
#
# 1 0.006067 -0.001035 -0.000580 -0.001689 -0.001746 -0.002404
# 2 -0.001035 0.019265 0.006884 -0.026524 -0.004374 -0.011671
# 3 -0.000580 0.006884 0.052874 -0.025971 -0.006229 -0.013399
# 4 -0.001689 -0.026524 -0.025971 0.074264 0.006739 0.026231
# 5 -0.001746 -0.004374 -0.006229 0.006739 0.033908 0.005572
# 6 -0.002404 -0.011671 -0.013399 0.026231 0.005572 0.032554
#
#
# Mechanical properties :
#
#
# Convention : Reuss Voigt Hill
#
# Bulk Modulus (GPa) = 11.26822 49.80198 30.53510
# Shear Modulus (GPa) = 21.01055 40.51718 30.76387
#
# Velocity S-wave (km/s) = 2.93269 4.07256 3.54869
# Velocity P-wave (km/s) = 4.01002 6.51927 5.41208
#
# Compressibility (1/GPa) = 0.08874517
#
# Stress axis : x y z
#
# Youngs Moduli (GPa) = 164.82198 51.90746 18.91278
#
# Poissons Ratio (x) = 0.05371 0.01097
# Poissons Ratio (y) = 0.17054 -0.13020
# Poissons Ratio (z) = 0.09561 -0.35734
#
# Static dielectric constant tensor:
#      x y z
#    x 4.665690 0.005380 -0.476760 
#    y 0.005380 5.735930 0.680970 
#    z -0.476760 0.680970 4.641620 
# 
# 
# High freq. dielectric constant tensor:
#      x y z
#    x 1.988360 0.010440 -0.011490 
#    y 0.010440 1.974940 0.015130 
#    z -0.011490 0.015130 1.946590 
# 
# From -- ./inp_files/60450.got.cif
#   From: 2010.06.25/outbox.cif.g09.slc.cpg/sg2_31_cif.got.tgz:60450.got - 2010.06.27 13:26:56.
