data_PCOD8014126
_publ_section_title
;
Structure prediction by ZEFSAII (Michael W. Deem and Ramdas Pophale) SiO2 
 PCOD8014126
Probable space group: P -1
;
_chemical_formula_sum "Si O2"
_cell_formula_units_Z 16
_cell_length_a 16.204037
_cell_length_b 6.279163
_cell_length_c 13.096770
_cell_angle_alpha 114.745589
_cell_angle_beta 42.966054
_cell_angle_gamma 94.940392
_cell_volume 770.881379
_symmetry_space_group_name_H-M "P -1"
_symmetry_group_IT_number 2
_symmetry_cell_setting 'triclinic'
loop_
_space_group_symop_operation_xyz
x,y,z
-x,-y,-z
loop_
_atom_site_type_symbol
_atom_site_label
_atom_site_fract_x
_atom_site_fract_y
_atom_site_fract_z
Si Si1 0.108333 0.948969 0.475844
Si Si2 0.945161 0.370439 0.839393
Si Si3 0.295352 0.047039 0.175560
Si Si4 0.247798 0.248635 0.045880
Si Si5 0.892652 0.302514 0.244087
Si Si6 0.848720 0.127988 0.042974
Si Si7 0.718242 0.468875 0.631082
Si Si8 0.462306 0.485450 0.915154
O O1 0.182897 0.666752 0.392962
O O2 0.210011 0.046352 0.350027
O O3 0.000000 0.000000 0.500000
O O4 0.047729 0.102146 0.662469
O O5 0.866122 0.497666 0.834322
O O6 0.028172 0.530285 0.838930
O O7 0.841186 0.344958 0.010825
O O8 0.214118 0.169874 0.172258
O O9 0.357868 0.243947 0.202831
O O10 0.385245 0.769382 0.004950
O O11 0.383573 0.297363 0.931571
O O12 0.247813 0.022380 0.924569
O O13 0.810984 0.247976 0.213489
O O14 0.794182 0.442880 0.450975
O O15 0.999474 0.046101 0.135274
O O16 0.598518 0.368261 0.705947
O O17 0.500000 0.500000 0.000000
#
# Coordination Sequence:
#
# PCOD8014126 Si02
#       8
#     2   2   2   2   2   2   2   2
#     4  12  23  34  58  94 132 161 198 249 311 372
#     4  11  21  39  63  94 125 159 203 256 308 373
#     4  12  23  40  60  88 127 166 203 253 303 372
#     4  11  24  40  64  90 122 173 206 253 308 365
#     4  10  22  39  64  95 122 165 202 254 316 369
#     4  10  21  41  65  90 126 158 208 257 312 367
#     4  12  24  40  60  94 128 162 207 251 306 369
#     4  12  24  41  61  90 123 170 214 246 302 368
#
# _framework density 20.755462999999999
#
# number of rings (size 3 to 8) (size 9 to 14) (size 15 to 20)
#    0.000    0.750    5.000    3.750    1.750    1.000 
#    0.000    0.625    0.000    3.000    0.000    0.000 
#    0.000    0.000    0.000    0.000    0.000    0.000 
#
# Total GULP energy -198251.796782 kJ/mol
# GULP energy per Si atom -12390.737299 kJ/mol
# Density = 2.070822 g / cm^3
# Si number density = 20.755463 Si / 1000 Ang^3
#
#
#
# Elastic Constant Matrix: (Units=GPa)
#
#
# Indices 1 2 3 4 5 6 
#
# 1 111.9709 52.2880 39.0558 -6.5184 9.3215 17.6887
# 2 52.2880 113.4457 32.8263 -6.9754 5.1280 -0.1516
# 3 39.0558 32.8263 62.6404 -8.6000 4.2268 1.5102
# 4 -6.5184 -6.9754 -8.6000 25.9159 2.9636 -0.8990
# 5 9.3215 5.1280 4.2268 2.9636 27.6754 -4.4188
# 6 17.6887 -0.1516 1.5102 -0.8990 -4.4188 37.0177
#
#
#
# Elastic Compliance Matrix: (Units=1/GPa)
#
#
# Indices 1 2 3 4 5 6 
#
# 1 0.014945 -0.004863 -0.006203 0.000642 -0.004439 -0.007423
# 2 -0.004863 0.012043 -0.003214 0.001018 0.000196 0.002552
# 3 -0.006203 -0.003214 0.022234 0.005131 -0.000932 0.002057
# 4 0.000642 0.001018 0.005131 0.041364 -0.005647 -0.000181
# 5 -0.004439 0.000196 -0.000932 -0.005647 0.039413 0.006728
# 6 -0.007423 0.002552 0.002057 -0.000181 0.006728 0.031286
#
#
# Mechanical properties :
#
#
# Convention : Reuss Voigt Hill
#
# Bulk Modulus (GPa) = 48.39910 59.59970 53.99940
# Shear Modulus (GPa) = 25.41516 29.04760 27.23138
#
# Velocity S-wave (km/s) = 3.50309 3.74507 3.62610
# Velocity P-wave (km/s) = 6.30329 6.89045 6.60340
#
# Compressibility (1/GPa) = 0.02066154
#
# Stress axis : x y z
#
# Youngs Moduli (GPa) = 66.91200 83.03258 44.97684
#
# Poissons Ratio (x) = 0.40380 0.27899
# Poissons Ratio (y) = 0.32541 0.14456
# Poissons Ratio (z) = 0.41505 0.26688
#
# Static dielectric constant tensor:
#      x y z
#    x 3.757050 0.046660 0.112040 
#    y 0.046660 4.096450 0.060330 
#    z 0.112040 0.060330 3.010670 
# 
# 
# High freq. dielectric constant tensor:
#      x y z
#    x 1.803140 0.001200 0.004250 
#    y 0.001200 1.834610 -0.008980 
#    z 0.004250 -0.008980 1.778520 
# 
# From -- ./inp_files/69579.got.cif
#   From: 2010.06.25/outbox.cif.g09.slc.cpg/sg2_35_cif.got.tgz:69579.got - 2010.06.27 13:26:56.
