data_PCOD8014375
_publ_section_title
;
Structure prediction by ZEFSAII (Michael W. Deem and Ramdas Pophale) SiO2 
 PCOD8014375
Probable space group: P -1
;
_chemical_formula_sum "Si O2"
_cell_formula_units_Z 16
_cell_length_a 11.864264
_cell_length_b 9.761708
_cell_length_c 18.046305
_cell_angle_alpha 38.661589
_cell_angle_beta 52.143369
_cell_angle_gamma 82.250310
_cell_volume 738.094317
_symmetry_space_group_name_H-M "P -1"
_symmetry_group_IT_number 2
_symmetry_cell_setting 'triclinic'
loop_
_space_group_symop_operation_xyz
x,y,z
-x,-y,-z
loop_
_atom_site_type_symbol
_atom_site_label
_atom_site_fract_x
_atom_site_fract_y
_atom_site_fract_z
Si Si1 0.762543 0.929655 0.755082
Si Si2 0.060906 0.091696 0.684026
Si Si3 0.315955 0.119078 0.462406
Si Si4 0.255977 0.294057 0.903741
Si Si5 0.825200 0.480552 0.289691
Si Si6 0.674678 0.311416 0.581459
Si Si7 0.678396 0.562019 0.807772
Si Si8 0.255480 0.850662 0.014187
O O1 0.786078 0.770709 0.749469
O O2 0.767693 0.170306 0.612100
O O3 0.559301 0.673162 0.990371
O O4 0.941048 0.105218 0.666726
O O5 0.168989 0.999947 0.641348
O O6 0.232388 0.429479 0.504769
O O7 0.916989 0.841650 0.910399
O O8 0.542944 0.387362 0.281737
O O9 0.254089 0.228730 0.378860
O O10 0.296066 0.852644 0.553602
O O11 0.194254 0.332036 0.834556
O O12 0.276773 0.055256 0.983496
O O13 0.728356 0.451297 0.418773
O O14 0.055820 0.665665 0.125965
O O15 0.437050 0.053517 0.796882
O O16 0.746864 0.385161 0.843282
#
# Coordination Sequence:
#
# PCOD8014375 Si02
#       8
#     2   2   2   2   2   2   2   2
#     4  10  21  41  67 104 143 174 221 285 350 411
#     4  12  25  41  71 101 141 183 227 283 346 410
#     4  12  26  46  71 105 138 183 230 284 349 405
#     4  12  27  48  66 103 145 181 234 284 335 408
#     4  12  27  46  74  97 141 190 231 278 339 416
#     4  11  24  43  71 105 135 184 228 282 346 410
#     4  10  22  41  71 102 141 175 224 288 347 410
#     4  11  25  44  70 105 137 179 229 287 341 402
#
# _framework density 21.677446
#
# number of rings (size 3 to 8) (size 9 to 14) (size 15 to 20)
#    0.000    0.750    5.000    1.875    1.750    5.500 
#    0.000    0.000    0.000    0.000    0.000    0.000 
#    0.000    0.000    0.000    0.000    0.000    0.000 
#
# Total GULP energy -198541.278594 kJ/mol
# GULP energy per Si atom -12408.829912 kJ/mol
# Density = 2.162811 g / cm^3
# Si number density = 21.677446 Si / 1000 Ang^3
#
#
#
# Elastic Constant Matrix: (Units=GPa)
#
#
# Indices 1 2 3 4 5 6 
#
# 1 47.7792 22.6618 19.9485 -2.3815 6.7545 -1.3848
# 2 22.6618 104.1095 23.5698 -0.6340 -3.1688 5.7448
# 3 19.9485 23.5698 67.2365 12.9859 -0.1073 4.3837
# 4 -2.3815 -0.6340 12.9859 37.2471 14.1483 -3.0965
# 5 6.7545 -3.1688 -0.1073 14.1483 32.6799 -2.4894
# 6 -1.3848 5.7448 4.3837 -3.0965 -2.4894 22.3364
#
#
#
# Elastic Compliance Matrix: (Units=1/GPa)
#
#
# Indices 1 2 3 4 5 6 
#
# 1 0.028998 -0.004791 -0.009032 0.009160 -0.010076 0.004949
# 2 -0.004791 0.011381 -0.002344 -0.000272 0.002008 -0.002578
# 3 -0.009032 -0.002344 0.020721 -0.010474 0.005875 -0.004821
# 4 0.009160 -0.000272 -0.010474 0.038475 -0.018154 0.006004
# 5 -0.010076 0.002008 0.005875 -0.018154 0.040735 -0.000271
# 6 0.004949 -0.002578 -0.004821 0.006004 -0.000271 0.047488
#
#
# Mechanical properties :
#
#
# Convention : Reuss Voigt Hill
#
# Bulk Modulus (GPa) = 34.76472 39.05394 36.90933
# Shear Modulus (GPa) = 21.76560 28.64904 25.20732
#
# Velocity S-wave (km/s) = 3.17214 3.63933 3.41374
# Velocity P-wave (km/s) = 5.43035 5.97618 5.70979
#
# Compressibility (1/GPa) = 0.02876479
#
# Stress axis : x y z
#
# Youngs Moduli (GPa) = 34.48569 87.86899 48.26062
#
# Poissons Ratio (x) = 0.42100 0.43588
# Poissons Ratio (y) = 0.16523 0.11313
# Poissons Ratio (z) = 0.31147 0.20597
#
# Static dielectric constant tensor:
#      x y z
#    x 3.803700 0.028720 -0.065420 
#    y 0.028720 3.972530 -0.032320 
#    z -0.065420 -0.032320 4.032650 
# 
# 
# High freq. dielectric constant tensor:
#      x y z
#    x 1.845260 0.004670 -0.010070 
#    y 0.004670 1.860350 -0.000550 
#    z -0.010070 -0.000550 1.866170 
# 
# From -- ./inp_files/246016.got.cif
#   From: 2010.06.25/outbox.cif.g09.slc.cpg/sg2_124_cif.got.tgz:246016.got - 2010.06.27 13:26:56.
