data_PCOD8014215
_publ_section_title
;
Structure prediction by ZEFSAII (Michael W. Deem and Ramdas Pophale) SiO2 
 PCOD8014215
Probable space group: P -1
;
_chemical_formula_sum "Si O2"
_cell_formula_units_Z 16
_cell_length_a 14.259195
_cell_length_b 6.498261
_cell_length_c 11.296099
_cell_angle_alpha 68.601127
_cell_angle_beta 88.993310
_cell_angle_gamma 52.155961
_cell_volume 738.670577
_symmetry_space_group_name_H-M "P -1"
_symmetry_group_IT_number 2
_symmetry_cell_setting 'triclinic'
loop_
_space_group_symop_operation_xyz
x,y,z
-x,-y,-z
loop_
_atom_site_type_symbol
_atom_site_label
_atom_site_fract_x
_atom_site_fract_y
_atom_site_fract_z
Si Si1 0.637875 0.876477 0.499783
Si Si2 0.285462 0.856293 0.139475
Si Si3 0.714526 0.592755 0.309108
Si Si4 0.102957 0.901182 0.756661
Si Si5 0.893262 0.492731 0.971227
Si Si6 0.445697 0.555537 0.719480
Si Si7 0.149706 0.633265 0.251482
Si Si8 0.699005 0.104472 0.135086
O O1 0.707264 0.650367 0.436602
O O2 0.729953 0.694456 0.645796
O O3 0.500000 0.000000 0.500000
O O4 0.627652 0.154173 0.420206
O O5 0.408033 0.643504 0.261151
O O6 0.186462 0.830632 0.190486
O O7 0.236109 0.179104 0.090376
O O8 0.313353 0.768683 0.019629
O O9 0.840462 0.272488 0.333255
O O10 0.595339 0.627060 0.274706
O O11 0.705772 0.829513 0.183564
O O12 0.179641 0.995156 0.778574
O O13 0.111718 0.698189 0.897185
O O14 0.959865 0.196916 0.682955
O O15 0.911687 0.371041 0.864576
O O16 0.000000 0.500000 0.000000
O O17 0.420437 0.638672 0.841213
#
# Coordination Sequence:
#
# PCOD8014215 Si02
#       8
#     2   2   2   2   2   2   2   2
#     4  11  25  47  68  94 137 176 224 273 322 393
#     4  12  22  38  67 101 133 177 216 269 344 392
#     4  10  24  44  69  94 133 178 220 278 322 382
#     4  11  22  43  66  96 137 168 219 275 332 396
#     4  12  24  39  65 104 134 171 217 274 336 394
#     4  10  24  42  66  97 131 177 223 277 323 385
#     4  12  26  41  68 101 135 181 215 270 337 389
#     4  10  21  41  65  96 137 172 215 277 335 392
#
# _framework density 21.660536
#
# number of rings (size 3 to 8) (size 9 to 14) (size 15 to 20)
#    0.000    1.000    5.000    1.500    1.750    2.500 
#    0.000    5.625    0.000    0.000    0.000    0.000 
#    0.000    0.000    0.000    0.000    0.000    0.000 
#
# Total GULP energy -198414.494599 kJ/mol
# GULP energy per Si atom -12400.905912 kJ/mol
# Density = 2.161124 g / cm^3
# Si number density = 21.660536 Si / 1000 Ang^3
#
#
#
# Elastic Constant Matrix: (Units=GPa)
#
#
# Indices 1 2 3 4 5 6 
#
# 1 135.7314 50.4134 22.9841 -6.6861 0.5200 2.0632
# 2 50.4134 88.4263 26.1405 -8.3959 6.7944 -3.7741
# 3 22.9841 26.1405 63.7200 -5.5648 -0.8874 -5.7393
# 4 -6.6861 -8.3959 -5.5648 30.1430 -5.8675 -3.0655
# 5 0.5200 6.7944 -0.8874 -5.8675 27.3821 -5.9467
# 6 2.0632 -3.7741 -5.7393 -3.0655 -5.9467 41.6352
#
#
#
# Elastic Compliance Matrix: (Units=1/GPa)
#
#
# Indices 1 2 3 4 5 6 
#
# 1 0.009527 -0.005088 -0.001375 0.000529 0.000944 -0.000949
# 2 -0.005088 0.016035 -0.004561 0.001894 -0.003467 0.000721
# 3 -0.001375 -0.004561 0.018596 0.002723 0.002961 0.002841
# 4 0.000529 0.001894 0.002723 0.036398 0.008362 0.004395
# 5 0.000944 -0.003467 0.002961 0.008362 0.040655 0.006470
# 6 -0.000949 0.000721 0.002841 0.004395 0.006470 0.025770
#
#
# Mechanical properties :
#
#
# Convention : Reuss Voigt Hill
#
# Bulk Modulus (GPa) = 45.22902 54.10598 49.66750
# Shear Modulus (GPa) = 28.34498 32.38805 30.36651
#
# Velocity S-wave (km/s) = 3.62138 3.87105 3.74830
# Velocity P-wave (km/s) = 6.19775 6.70920 6.45854
#
# Compressibility (1/GPa) = 0.02210970
#
# Stress axis : x y z
#
# Youngs Moduli (GPa) = 104.96535 62.36445 53.77569
#
# Poissons Ratio (x) = 0.31729 0.07396
# Poissons Ratio (y) = 0.53403 0.24526
# Poissons Ratio (z) = 0.14436 0.28444
#
# Static dielectric constant tensor:
#      x y z
#    x 4.031270 -0.099920 -0.182110 
#    y -0.099920 4.118970 0.049190 
#    z -0.182110 0.049190 3.668530 
# 
# 
# High freq. dielectric constant tensor:
#      x y z
#    x 1.861580 -0.003900 -0.012340 
#    y -0.003900 1.862730 0.000750 
#    z -0.012340 0.000750 1.827650 
# 
# From -- ./inp_files/68986.got.cif
#   From: 2010.06.25/outbox.cif.g09.slc.cpg/sg2_35_cif.got.tgz:68986.got - 2010.06.27 13:26:56.
