data_PCOD8014139
_publ_section_title
;
Structure prediction by ZEFSAII (Michael W. Deem and Ramdas Pophale) SiO2 
 PCOD8014139
Probable space group: P -1
;
_chemical_formula_sum "Si O2"
_cell_formula_units_Z 14
_cell_length_a 8.852339
_cell_length_b 23.681791
_cell_length_c 6.373618
_cell_angle_alpha 81.679480
_cell_angle_beta 95.293874
_cell_angle_gamma 150.771833
_cell_volume 643.962059
_symmetry_space_group_name_H-M "P -1"
_symmetry_group_IT_number 2
_symmetry_cell_setting 'triclinic'
loop_
_space_group_symop_operation_xyz
x,y,z
-x,-y,-z
loop_
_atom_site_type_symbol
_atom_site_label
_atom_site_fract_x
_atom_site_fract_y
_atom_site_fract_z
Si Si1 0.180751 0.907364 0.626789
Si Si2 0.475908 0.112803 0.617373
Si Si3 0.943130 0.214083 0.955616
Si Si4 0.624406 0.694454 0.364421
Si Si5 0.635346 0.268074 0.780955
Si Si6 0.234895 0.460150 0.489260
Si Si7 0.842416 0.281392 0.192218
O O1 0.887748 0.790668 0.518910
O O2 0.500000 0.000000 0.500000
O O3 0.170364 0.973150 0.622547
O O4 0.190650 0.880383 0.867447
O O5 0.699587 0.150532 0.779693
O O6 0.393116 0.146572 0.694575
O O7 0.639309 0.176610 0.380475
O O8 0.251165 0.291797 0.842054
O O9 0.029064 0.297209 0.064101
O O10 0.450322 0.695474 0.289993
O O11 0.371984 0.567733 0.490082
O O12 0.980266 0.365742 0.687558
O O13 0.624528 0.249909 0.036058
O O14 0.500000 0.500000 0.500000
O O15 0.069238 0.399575 0.275189
#
# Coordination Sequence:
#
# PCOD8014139 Si02
#       7
#     2   2   2   2   2   2   2
#     4  12  23  40  69  96 128 167 218 272 317 366
#     4  10  21  41  66  93 124 170 217 265 308 375
#     4  11  21  38  67  96 125 163 218 265 319 373
#     4  12  26  40  62 102 131 169 213 259 323 388
#     4  10  25  43  64  92 137 170 207 261 322 386
#     4  11  23  43  69  96 125 165 219 267 312 381
#     4  10  21  41  65  91 126 169 211 264 318 369
#
# _framework density 21.740411000000002
#
# number of rings (size 3 to 8) (size 9 to 14) (size 15 to 20)
#    0.000    1.143    2.857    4.286    0.000    6.857 
#    0.000    1.429    0.000    0.000    0.000    0.000 
#    0.000    0.000    0.000    0.000    0.000    0.000 
#
# Total GULP energy -173568.769992 kJ/mol
# GULP energy per Si atom -12397.769285 kJ/mol
# Density = 2.169093 g / cm^3
# Si number density = 21.740411 Si / 1000 Ang^3
#
#
#
# Elastic Constant Matrix: (Units=GPa)
#
#
# Indices 1 2 3 4 5 6 
#
# 1 98.0543 26.0089 34.3423 4.9661 18.8082 -25.2991
# 2 26.0089 121.1671 43.2507 12.0012 5.0716 -43.4802
# 3 34.3423 43.2507 139.8049 0.6523 14.0679 -10.0369
# 4 4.9661 12.0012 0.6523 28.3973 -10.0793 -3.1514
# 5 18.8082 5.0716 14.0679 -10.0793 28.7257 -4.0360
# 6 -25.2991 -43.4802 -10.0369 -3.1514 -4.0360 40.5920
#
#
#
# Elastic Compliance Matrix: (Units=1/GPa)
#
#
# Indices 1 2 3 4 5 6 
#
# 1 0.015254 0.002187 -0.002715 -0.005907 -0.009746 0.009750
# 2 0.002187 0.015887 -0.004026 -0.005844 -0.001964 0.016736
# 3 -0.002715 -0.004026 0.009001 0.000747 -0.002211 -0.003941
# 4 -0.005907 -0.005844 0.000747 0.045259 0.019813 -0.004273
# 5 -0.009746 -0.001964 -0.002211 0.019813 0.049254 -0.002290
# 6 0.009750 0.016736 -0.003941 -0.004273 -0.002290 0.047106
#
#
# Mechanical properties :
#
#
# Convention : Reuss Voigt Hill
#
# Bulk Modulus (GPa) = 32.22264 62.91446 47.56855
# Shear Modulus (GPa) = 24.84925 36.57130 30.71027
#
# Velocity S-wave (km/s) = 3.38449 4.10589 3.76252
# Velocity P-wave (km/s) = 5.48879 7.17492 6.38773
#
# Compressibility (1/GPa) = 0.03103408
#
# Stress axis : x y z
#
# Youngs Moduli (GPa) = 65.55814 62.94270 111.09480
#
# Poissons Ratio (x) = -0.13764 0.30164
# Poissons Ratio (y) = -0.14336 0.44724
# Poissons Ratio (z) = 0.17800 0.25339
#
# Static dielectric constant tensor:
#      x y z
#    x 3.942250 -0.493270 -0.106400 
#    y -0.493270 4.161070 0.109920 
#    z -0.106400 0.109920 4.208780 
# 
# 
# High freq. dielectric constant tensor:
#      x y z
#    x 1.847160 -0.032630 0.001740 
#    y -0.032630 1.847740 0.000550 
#    z 0.001740 0.000550 1.869270 
# 
# From -- ./inp_files/27301.got.cif
#   From: 2010.06.25/outbox.cif.g09.slc.cpg/sg2_14_cif.got.tgz:27301.got - 2010.06.27 13:26:56.
