data_PCOD8014486
_publ_section_title
;
Structure prediction by ZEFSAII (Michael W. Deem and Ramdas Pophale) SiO2 
 PCOD8014486
Probable space group: P -1
;
_chemical_formula_sum "Si O2"
_cell_formula_units_Z 14
_cell_length_a 7.566538
_cell_length_b 15.032218
_cell_length_c 15.010218
_cell_angle_alpha 30.259718
_cell_angle_beta 135.171584
_cell_angle_gamma 136.698862
_cell_volume 573.770089
_symmetry_space_group_name_H-M "P -1"
_symmetry_group_IT_number 2
_symmetry_cell_setting 'triclinic'
loop_
_space_group_symop_operation_xyz
x,y,z
-x,-y,-z
loop_
_atom_site_type_symbol
_atom_site_label
_atom_site_fract_x
_atom_site_fract_y
_atom_site_fract_z
Si Si1 0.366638 0.631034 0.972972
Si Si2 0.065400 0.653169 0.022800
Si Si3 0.726909 0.006864 0.438118
Si Si4 0.800814 0.598421 0.270305
Si Si5 0.374520 0.445573 0.406650
Si Si6 0.834131 0.222958 0.612636
Si Si7 0.026111 0.046492 0.675044
O O1 0.246248 0.446225 0.027942
O O2 0.328250 0.799819 0.759017
O O3 0.674168 0.662385 0.081970
O O4 0.221186 0.610414 0.032188
O O5 0.156626 0.552986 0.224759
O O6 0.139044 0.873944 0.875179
O O7 0.755537 0.976385 0.580349
O O8 0.484725 0.851552 0.438746
O O9 0.000000 0.000000 0.500000
O O10 0.591636 0.509653 0.351362
O O11 0.919861 0.436459 0.422851
O O12 0.040391 0.772254 0.246948
O O13 0.500000 0.500000 0.500000
O O14 0.235212 0.220899 0.548434
O O15 0.957862 0.100175 0.701859
#
# Coordination Sequence:
#
# PCOD8014486 Si02
#       7
#     2   2   2   2   2   2   2
#     4  10  21  41  67  99 129 175 233 272 327 398
#     4  10  22  39  68 102 133 168 229 282 318 401
#     4  12  23  42  71  98 129 181 229 275 332 402
#     4  10  23  45  66  94 140 180 217 279 333 400
#     4  11  22  43  71  99 132 179 225 268 338 401
#     4  11  25  43  64  97 139 179 217 278 344 389
#     4  12  23  43  67 103 135 173 223 280 333 393
#
# _framework density 24.400017999999999
#
# number of rings (size 3 to 8) (size 9 to 14) (size 15 to 20)
#    0.000    1.143    4.286    2.143    2.000    1.143 
#    2.571    1.429    0.000    0.000    0.000    0.000 
#    0.000    0.000    0.000    0.000    0.000    0.000 
#
# Total GULP energy -173506.103348 kJ/mol
# GULP energy per Si atom -12393.293096 kJ/mol
# Density = 2.434448 g / cm^3
# Si number density = 24.400018 Si / 1000 Ang^3
#
#
#
# Elastic Constant Matrix: (Units=GPa)
#
#
# Indices 1 2 3 4 5 6 
#
# 1 21.5815 20.8756 9.3597 -3.8956 7.8835 2.6792
# 2 20.8756 184.4966 74.7492 9.0461 16.6398 5.2599
# 3 9.3597 74.7492 162.2092 2.1271 21.8688 -15.4726
# 4 -3.8956 9.0461 2.1271 44.6623 2.9884 5.1109
# 5 7.8835 16.6398 21.8688 2.9884 26.7940 -0.5766
# 6 2.6792 5.2599 -15.4726 5.1109 -0.5766 32.2181
#
#
#
# Elastic Compliance Matrix: (Units=1/GPa)
#
#
# Indices 1 2 3 4 5 6 
#
# 1 0.059416 -0.005885 0.000772 0.007961 -0.015455 -0.005149
# 2 -0.005885 0.007580 -0.003312 -0.001644 -0.000134 -0.002080
# 3 0.000772 -0.003312 0.008791 0.000147 -0.005263 0.004581
# 4 0.007961 -0.001644 0.000147 0.024178 -0.004230 -0.004234
# 5 -0.015455 -0.000134 -0.005263 -0.004230 0.046726 0.000287
# 6 -0.005149 -0.002080 0.004581 -0.004234 0.000287 0.034683
#
#
# Mechanical properties :
#
#
# Convention : Reuss Voigt Hill
#
# Bulk Modulus (GPa) = 16.96763 64.25071 40.60917
# Shear Modulus (GPa) = 22.94938 38.28841 30.61890
#
# Velocity S-wave (km/s) = 3.07016 3.96561 3.54626
# Velocity P-wave (km/s) = 4.42006 6.88167 5.78335
#
# Compressibility (1/GPa) = 0.05893575
#
# Stress axis : x y z
#
# Youngs Moduli (GPa) = 16.83055 131.92591 113.74842
#
# Poissons Ratio (x) = 0.77640 -0.08778
# Poissons Ratio (y) = 0.09905 0.37677
# Poissons Ratio (z) = -0.01299 0.43698
#
# Static dielectric constant tensor:
#      x y z
#    x 4.110240 0.238910 0.139280 
#    y 0.238910 5.440290 0.195080 
#    z 0.139280 0.195080 4.567800 
# 
# 
# High freq. dielectric constant tensor:
#      x y z
#    x 1.941950 -0.006790 0.015540 
#    y -0.006790 1.989880 0.012380 
#    z 0.015540 0.012380 1.967650 
# 
# From -- ./inp_files/256653.got.cif
#   From: 2010.06.25/outbox.cif.g09.slc.cpg/sg2_129_cif.got.tgz:256653.got - 2010.06.27 13:26:56.
