data_PCOD8014174
_publ_section_title
;
Structure prediction by ZEFSAII (Michael W. Deem and Ramdas Pophale) SiO2 
 PCOD8014174
Probable space group: P -1
;
_chemical_formula_sum "Si O2"
_cell_formula_units_Z 16
_cell_length_a 9.634227
_cell_length_b 9.721803
_cell_length_c 14.656016
_cell_angle_alpha 137.752157
_cell_angle_beta 53.900936
_cell_angle_gamma 102.078851
_cell_volume 677.576441
_symmetry_space_group_name_H-M "P -1"
_symmetry_group_IT_number 2
_symmetry_cell_setting 'triclinic'
loop_
_space_group_symop_operation_xyz
x,y,z
-x,-y,-z
loop_
_atom_site_type_symbol
_atom_site_label
_atom_site_fract_x
_atom_site_fract_y
_atom_site_fract_z
Si Si1 0.059126 0.033989 0.892415
Si Si2 0.911437 0.265204 0.657576
Si Si3 0.296435 0.195458 0.458022
Si Si4 0.393921 0.790840 0.356079
Si Si5 0.487303 0.128190 0.934176
Si Si6 0.354813 0.801676 0.914671
Si Si7 0.260498 0.370694 0.973702
Si Si8 0.417385 0.673277 0.491027
O O1 0.157367 0.204840 0.927100
O O2 0.208486 0.788330 0.675578
O O3 0.863179 0.159174 0.975581
O O4 0.000000 0.000000 0.000000
O O5 0.738036 0.335610 0.686978
O O6 0.072603 0.350896 0.606869
O O7 0.863612 0.365792 0.828908
O O8 0.000000 0.000000 0.500000
O O9 0.427119 0.323307 0.494715
O O10 0.321308 0.031000 0.453444
O O11 0.349518 0.073332 0.280925
O O12 0.612672 0.649093 0.173072
O O13 0.396516 0.816096 0.476489
O O14 0.378443 0.315757 0.995020
O O15 0.351125 0.031486 0.988098
O O16 0.573264 0.238733 0.029414
O O17 0.502145 0.590267 0.695141
#
# Coordination Sequence:
#
# PCOD8014174 Si02
#       8
#     2   2   2   2   2   2   2   2
#     4  12  25  45  70 102 131 179 226 274 339 400
#     4  10  22  37  63  99 129 177 225 263 331 409
#     4  10  21  41  65  93 134 174 218 272 336 395
#     4  10  22  41  64  95 135 174 220 273 333 396
#     4  10  22  45  64  93 136 178 215 284 335 389
#     4  11  25  43  67 100 134 172 233 276 331 393
#     4  11  21  44  67  92 141 179 216 280 339 392
#     4  12  24  43  68 101 134 178 221 281 328 397
#
# _framework density 23.613569999999999
#
# number of rings (size 3 to 8) (size 9 to 14) (size 15 to 20)
#    0.000    1.250    3.750    2.250    1.750    5.000 
#    2.250    2.500    0.000    0.000    0.000    0.000 
#    0.000    0.000    0.000    0.000    0.000    0.000 
#
# Total GULP energy -198217.421061 kJ/mol
# GULP energy per Si atom -12388.588816 kJ/mol
# Density = 2.355982 g / cm^3
# Si number density = 23.613570 Si / 1000 Ang^3
#
#
#
# Elastic Constant Matrix: (Units=GPa)
#
#
# Indices 1 2 3 4 5 6 
#
# 1 131.0445 19.3957 70.8980 -9.9174 -6.7271 19.4793
# 2 19.3957 41.9351 24.2450 -16.3348 -3.1802 3.2153
# 3 70.8980 24.2450 166.6454 -11.8997 2.1344 15.1929
# 4 -9.9174 -16.3348 -11.8997 37.1863 5.0208 2.2462
# 5 -6.7271 -3.1802 2.1344 5.0208 37.6543 -7.2266
# 6 19.4793 3.2153 15.1929 2.2462 -7.2266 22.2641
#
#
#
# Elastic Compliance Matrix: (Units=1/GPa)
#
#
# Indices 1 2 3 4 5 6 
#
# 1 0.011065 -0.001910 -0.003726 0.001256 0.000552 -0.006810
# 2 -0.001910 0.031324 -0.002660 0.012480 0.000374 -0.002175
# 3 -0.003726 -0.002660 0.008320 0.000941 -0.002022 -0.002784
# 4 0.001256 0.012480 0.000941 0.034204 -0.004989 -0.008614
# 5 0.000552 0.000374 -0.002022 -0.004989 0.029568 0.010943
# 6 -0.006810 -0.002175 -0.002784 -0.008614 0.010943 0.057509
#
#
# Mechanical properties :
#
#
# Convention : Reuss Voigt Hill
#
# Bulk Modulus (GPa) = 29.31109 63.18916 46.25012
# Shear Modulus (GPa) = 25.00562 34.42670 29.71616
#
# Velocity S-wave (km/s) = 3.25768 3.82241 3.55129
# Velocity P-wave (km/s) = 5.15653 6.80433 6.03691
#
# Compressibility (1/GPa) = 0.03411678
#
# Stress axis : x y z
#
# Youngs Moduli (GPa) = 90.37125 31.92435 120.19144
#
# Poissons Ratio (x) = 0.06098 0.44787
# Poissons Ratio (y) = 0.17262 0.31971
# Poissons Ratio (z) = 0.33675 0.08492
#
# Static dielectric constant tensor:
#      x y z
#    x 5.001860 0.277460 -0.274910 
#    y 0.277460 4.014150 -0.048540 
#    z -0.274910 -0.048540 4.915190 
# 
# 
# High freq. dielectric constant tensor:
#      x y z
#    x 1.940680 0.013040 0.001140 
#    y 0.013040 1.915290 -0.003210 
#    z 0.001140 -0.003210 1.950660 
# 
# From -- ./inp_files/500956.got.cif
#   From: 2010.06.25/outbox.cif.g09.slc.cpg/sg2_251_cif.got.tgz:500956.got - 2010.06.27 13:26:56.
