data_PCOD8014038
_publ_section_title
;
Structure prediction by ZEFSAII (Michael W. Deem and Ramdas Pophale) SiO2 
 PCOD8014038
Probable space group: P -1
;
_chemical_formula_sum "Si O2"
_cell_formula_units_Z 16
_cell_length_a 12.120946
_cell_length_b 13.779481
_cell_length_c 9.000153
_cell_angle_alpha 108.528891
_cell_angle_beta 62.930486
_cell_angle_gamma 148.250170
_cell_volume 696.633874
_symmetry_space_group_name_H-M "P -1"
_symmetry_group_IT_number 2
_symmetry_cell_setting 'triclinic'
loop_
_space_group_symop_operation_xyz
x,y,z
-x,-y,-z
loop_
_atom_site_type_symbol
_atom_site_label
_atom_site_fract_x
_atom_site_fract_y
_atom_site_fract_z
Si Si1 0.866696 0.085210 0.722396
Si Si2 0.220172 0.058444 0.812078
Si Si3 0.317674 0.395537 0.435575
Si Si4 0.307132 0.619753 0.449382
Si Si5 0.108469 0.793296 0.928143
Si Si6 0.937308 0.487455 0.740581
Si Si7 0.413614 0.933024 0.185569
Si Si8 0.212855 0.160675 0.163572
O O1 0.702480 0.037665 0.690315
O O2 0.078495 0.196277 0.551250
O O3 0.745981 0.902693 0.775491
O O4 0.935795 0.208091 0.874905
O O5 0.440780 0.169688 0.645172
O O6 0.065660 0.861198 0.880604
O O7 0.306808 0.193120 0.958877
O O8 0.056469 0.004104 0.770905
O O9 0.500000 0.500000 0.500000
O O10 0.323312 0.517242 0.450861
O O11 0.350164 0.351094 0.242777
O O12 0.133014 0.505103 0.364156
O O13 0.190161 0.613326 0.639120
O O14 0.941713 0.582893 0.902638
O O15 0.363624 0.936864 0.793171
O O16 0.759738 0.279731 0.795913
O O17 0.500000 0.000000 0.000000
#
# Coordination Sequence:
#
# PCOD8014038 Si02
#       8
#     2   2   2   2   2   2   2   2
#     4  10  22  42  60  90 128 163 217 262 321 387
#     4  10  21  43  67  95 123 171 221 266 330 376
#     4  12  25  41  60  95 130 170 215 267 324 382
#     4  11  24  41  62  94 135 164 215 269 320 393
#     4  10  22  40  69  94 125 170 211 265 327 389
#     4  11  23  42  65  97 131 167 211 270 323 388
#     4  10  21  41  64  94 129 161 211 264 320 393
#     4  10  23  41  67  89 124 171 221 273 318 382
#
# _framework density 22.967589
#
# number of rings (size 3 to 8) (size 9 to 14) (size 15 to 20)
#    0.000    1.500    2.500    1.875    0.000    6.000 
#    0.000    0.000    0.000    0.000    0.000    0.000 
#    0.000    0.000    0.000    0.000    0.000    0.000 
#
# Total GULP energy -198331.599115 kJ/mol
# GULP energy per Si atom -12395.724945 kJ/mol
# Density = 2.291531 g / cm^3
# Si number density = 22.967589 Si / 1000 Ang^3
#
#
#
# Elastic Constant Matrix: (Units=GPa)
#
#
# Indices 1 2 3 4 5 6 
#
# 1 133.9343 25.3894 14.0016 6.4534 3.4164 -9.8286
# 2 25.3894 51.9872 16.0292 6.0989 -0.5044 -2.8421
# 3 14.0016 16.0292 57.2335 1.0594 -0.3580 -3.9375
# 4 6.4534 6.0989 1.0594 36.9138 -1.5644 -7.8315
# 5 3.4164 -0.5044 -0.3580 -1.5644 28.6550 -5.3562
# 6 -9.8286 -2.8421 -3.9375 -7.8315 -5.3562 27.8658
#
#
#
# Elastic Compliance Matrix: (Units=1/GPa)
#
#
# Indices 1 2 3 4 5 6 
#
# 1 0.008460 -0.003699 -0.000877 -0.000397 -0.000688 0.002239
# 2 -0.003699 0.023089 -0.005536 -0.003094 0.000515 -0.000503
# 3 -0.000877 -0.005536 0.019381 0.001030 0.000734 0.002295
# 4 -0.000397 -0.003094 0.001030 0.029610 0.003236 0.008634
# 5 -0.000688 0.000515 0.000734 0.003236 0.036645 0.007867
# 6 0.002239 -0.000503 0.002295 0.008634 0.007867 0.040888
#
#
# Mechanical properties :
#
#
# Convention : Reuss Voigt Hill
#
# Bulk Modulus (GPa) = 32.56564 39.33283 35.94924
# Shear Modulus (GPa) = 26.52072 31.20257 28.86164
#
# Velocity S-wave (km/s) = 3.40178 3.68985 3.54874
# Velocity P-wave (km/s) = 5.44419 5.94271 5.69890
#
# Compressibility (1/GPa) = 0.03070721
#
# Stress axis : x y z
#
# Youngs Moduli (GPa) = 118.20031 43.30984 51.59815
#
# Poissons Ratio (x) = 0.16021 0.04523
# Poissons Ratio (y) = 0.43725 0.28563
# Poissons Ratio (z) = 0.10361 0.23975
#
# Static dielectric constant tensor:
#      x y z
#    x 5.076970 0.265700 -0.299500 
#    y 0.265700 3.777870 -0.038800 
#    z -0.299500 -0.038800 4.141710 
# 
# 
# High freq. dielectric constant tensor:
#      x y z
#    x 1.934600 -0.002670 -0.006090 
#    y -0.002670 1.878650 -0.001130 
#    z -0.006090 -0.001130 1.897330 
# 
# From -- ./inp_files/273369.got.cif
#   From: 2010.06.25/outbox.cif.g09.slc.cpg/sg2_137_cif.got.tgz:273369.got - 2010.06.27 13:26:56.
