data_PCOD8014224
_publ_section_title
;
Structure prediction by ZEFSAII (Michael W. Deem and Ramdas Pophale) SiO2 
 PCOD8014224
Probable space group: P -1
;
_chemical_formula_sum "Si O2"
_cell_formula_units_Z 12
_cell_length_a 12.326528
_cell_length_b 5.020880
_cell_length_c 9.015293
_cell_angle_alpha 97.177495
_cell_angle_beta 75.732581
_cell_angle_gamma 118.141207
_cell_volume 476.799445
_symmetry_space_group_name_H-M "P -1"
_symmetry_group_IT_number 2
_symmetry_cell_setting 'triclinic'
loop_
_space_group_symop_operation_xyz
x,y,z
-x,-y,-z
loop_
_atom_site_type_symbol
_atom_site_label
_atom_site_fract_x
_atom_site_fract_y
_atom_site_fract_z
Si Si1 0.081226 0.829990 0.933806
Si Si2 0.011699 0.288977 0.604279
Si Si3 0.648153 0.726333 0.128363
Si Si4 0.252491 0.052860 0.287300
Si Si5 0.393350 0.684393 0.146244
Si Si6 0.202593 0.140478 0.638441
O O1 0.222439 0.009247 0.971091
O O2 0.103167 0.837757 0.745438
O O3 0.000000 0.500000 0.000000
O O4 0.000000 0.000000 0.000000
O O5 0.887933 0.168781 0.745753
O O6 0.000000 0.500000 0.500000
O O7 0.142165 0.376281 0.655356
O O8 0.000000 0.000000 0.500000
O O9 0.535889 0.818657 0.167428
O O10 0.674752 0.675594 0.286928
O O11 0.609164 0.415280 0.030568
O O12 0.354024 0.950932 0.188047
O O13 0.298058 0.399622 0.254721
O O14 0.242202 0.030177 0.468709
#
# Coordination Sequence:
#
# PCOD8014224 Si02
#       6
#     2   2   2   2   2   2
#     4  10  24  44  71 105 141 188 239 300 361 422
#     4  10  21  41  65  98 143 177 224 296 358 416
#     4   9  25  49  69 107 143 193 247 294 353 442
#     4  11  24  43  71 102 142 190 240 297 371 418
#     4  11  25  47  70 102 148 195 235 297 359 436
#     4   9  23  47  70 112 138 189 245 307 348 440
#
# _framework density 25.167815000000001
#
# number of rings (size 3 to 8) (size 9 to 14) (size 15 to 20)
#    1.000    1.000    0.000    2.000    2.333   10.667 
#    0.000    0.833    0.000    0.000    0.000    0.000 
#    0.000    0.000    0.000    0.000    0.000    0.000 
#
# Total GULP energy -148686.409334 kJ/mol
# GULP energy per Si atom -12390.534111 kJ/mol
# Density = 2.511053 g / cm^3
# Si number density = 25.167815 Si / 1000 Ang^3
#
#
#
# Elastic Constant Matrix: (Units=GPa)
#
#
# Indices 1 2 3 4 5 6 
#
# 1 187.2948 32.6212 1.5692 17.9032 0.5348 9.6197
# 2 32.6212 79.7119 5.4589 -23.8514 2.9184 -13.8825
# 3 1.5692 5.4589 39.8359 10.8878 -8.0592 -3.8930
# 4 17.9032 -23.8514 10.8878 37.7689 6.6392 -3.6946
# 5 0.5348 2.9184 -8.0592 6.6392 42.0938 4.3996
# 6 9.6197 -13.8825 -3.8930 -3.6946 4.3996 46.6322
#
#
#
# Elastic Compliance Matrix: (Units=1/GPa)
#
#
# Indices 1 2 3 4 5 6 
#
# 1 0.007914 -0.007692 0.003912 -0.010798 0.003384 -0.004771
# 2 -0.007692 0.026815 -0.011416 0.026654 -0.009365 0.011612
# 3 0.003912 -0.011416 0.034162 -0.021255 0.011061 -0.004081
# 4 -0.010798 0.026654 -0.021255 0.058903 -0.016599 0.014621
# 5 0.003384 -0.009365 0.011061 -0.016599 0.029798 -0.006689
# 6 -0.004771 0.011612 -0.004081 0.014621 -0.006689 0.027334
#
#
# Mechanical properties :
#
#
# Convention : Reuss Voigt Hill
#
# Bulk Modulus (GPa) = 25.97548 42.90457 34.44003
# Shear Modulus (GPa) = 21.91529 43.11186 32.51357
#
# Velocity S-wave (km/s) = 2.95408 4.14330 3.59816
# Velocity P-wave (km/s) = 4.68815 6.32247 5.56563
#
# Compressibility (1/GPa) = 0.03849784
#
# Stress axis : x y z
#
# Youngs Moduli (GPa) = 126.36305 37.29194 29.27247
#
# Poissons Ratio (x) = 0.28686 -0.11451
# Poissons Ratio (y) = 0.97202 0.33418
# Poissons Ratio (z) = -0.49433 0.42574
#
# Static dielectric constant tensor:
#      x y z
#    x 5.403260 0.192450 0.380550 
#    y 0.192450 4.146090 -0.028820 
#    z 0.380550 -0.028820 4.907840 
# 
# 
# High freq. dielectric constant tensor:
#      x y z
#    x 2.017970 -0.002700 0.001670 
#    y -0.002700 1.990410 -0.002690 
#    z 0.001670 -0.002690 2.015380 
# 
# From -- ./inp_files/229125.got.cif
#   From: 2010.06.25/outbox.cif.g09.slc.cpg/sg2_115_cif.got.tgz:229125.got - 2010.06.27 13:26:56.
