data_PCOD8014923
_publ_section_title
;
Structure prediction by ZEFSAII (Michael W. Deem and Ramdas Pophale) SiO2 
 PCOD8014923
Probable space group: P -1
;
_chemical_formula_sum "Si O2"
_cell_formula_units_Z 14
_cell_length_a 20.428226
_cell_length_b 11.483068
_cell_length_c 7.946502
_cell_angle_alpha 143.006811
_cell_angle_beta 123.427217
_cell_angle_gamma 35.155691
_cell_volume 617.147585
_symmetry_space_group_name_H-M "P -1"
_symmetry_group_IT_number 2
_symmetry_cell_setting 'triclinic'
loop_
_space_group_symop_operation_xyz
x,y,z
-x,-y,-z
loop_
_atom_site_type_symbol
_atom_site_label
_atom_site_fract_x
_atom_site_fract_y
_atom_site_fract_z
Si Si1 0.761265 0.550043 0.416008
Si Si2 0.634381 0.291350 0.415986
Si Si3 0.786181 0.308932 0.816048
Si Si4 0.973134 0.222723 0.596139
Si Si5 0.404872 0.451426 0.687412
Si Si6 0.209236 0.293536 0.886440
Si Si7 0.667196 0.052307 0.652608
O O1 0.874973 0.347531 0.462787
O O2 0.651697 0.651399 0.473706
O O3 0.716284 0.848289 0.649308
O O4 0.796615 0.366731 0.086724
O O5 0.500000 0.500000 0.500000
O O6 0.677756 0.361726 0.701599
O O7 0.655688 0.348137 0.332127
O O8 0.699733 0.962240 0.142012
O O9 0.767363 0.523262 0.907758
O O10 0.903468 0.960642 0.535678
O O11 0.920849 0.486753 0.953315
O O12 0.000000 0.000000 0.500000
O O13 0.548094 0.164651 0.543558
O O14 0.368416 0.662614 0.030595
O O15 0.228316 0.139642 0.562184
#
# Coordination Sequence:
#
# PCOD8014923 Si02
#       7
#     2   2   2   2   2   2   2
#     4  11  22  41  65  93 126 168 209 259 319 374
#     4  12  24  41  65  96 129 168 209 262 314 375
#     4  10  24  42  66  94 128 169 211 262 314 370
#     4  10  21  42  67  93 126 165 215 261 312 377
#     4  11  22  38  61  91 133 166 208 258 314 372
#     4  10  21  42  63  95 126 165 214 255 313 374
#     4  10  22  39  60  95 130 168 209 257 312 379
#
# _framework density 22.685013000000001
#
# number of rings (size 3 to 8) (size 9 to 14) (size 15 to 20)
#    0.000    1.429    1.429    4.286    2.000    1.143 
#    5.143    2.857    0.000   12.000    0.000    0.000 
#    0.000    0.000    0.000    0.000    0.000    0.000 
#
# Total GULP energy -173505.281481 kJ/mol
# GULP energy per Si atom -12393.234391 kJ/mol
# Density = 2.263338 g / cm^3
# Si number density = 22.685013 Si / 1000 Ang^3
#
#
#
# Elastic Constant Matrix: (Units=GPa)
#
#
# Indices 1 2 3 4 5 6 
#
# 1 62.2969 20.8035 4.0336 0.9772 -10.1481 17.8713
# 2 20.8035 118.6509 11.9064 6.0186 2.7508 21.4971
# 3 4.0336 11.9064 92.0008 10.4116 -18.6160 5.1902
# 4 0.9772 6.0186 10.4116 35.4791 5.2949 5.0895
# 5 -10.1481 2.7508 -18.6160 5.2949 30.7438 -0.1545
# 6 17.8713 21.4971 5.1902 5.0895 -0.1545 41.1288
#
#
#
# Elastic Compliance Matrix: (Units=1/GPa)
#
#
# Indices 1 2 3 4 5 6 
#
# 1 0.020258 -0.002481 0.001541 -0.000683 0.007922 -0.007586
# 2 -0.002481 0.009771 -0.001425 -0.000244 -0.002533 -0.003828
# 3 0.001541 -0.001425 0.013589 -0.005103 0.009739 -0.000972
# 4 -0.000683 -0.000244 -0.005103 0.031455 -0.008725 -0.002857
# 5 0.007922 -0.002533 0.009739 -0.008725 0.042757 -0.002107
# 6 -0.007586 -0.003828 -0.000972 -0.002857 -0.002107 0.030079
#
#
# Mechanical properties :
#
#
# Convention : Reuss Voigt Hill
#
# Bulk Modulus (GPa) = 25.71440 38.49285 32.10363
# Shear Modulus (GPa) = 30.19275 37.21735 33.70505
#
# Velocity S-wave (km/s) = 3.65218 4.05484 3.85877
# Velocity P-wave (km/s) = 5.39858 6.23920 5.83405
#
# Compressibility (1/GPa) = 0.03888871
#
# Stress axis : x y z
#
# Youngs Moduli (GPa) = 49.36244 102.34559 73.58829
#
# Poissons Ratio (x) = 0.25394 -0.11341
# Poissons Ratio (y) = 0.12248 0.10484
# Poissons Ratio (z) = -0.07608 0.14582
#
# Static dielectric constant tensor:
#      x y z
#    x 3.992750 -0.142870 -0.728260 
#    y -0.142870 3.439570 -0.530510 
#    z -0.728260 -0.530510 3.687370 
# 
# 
# High freq. dielectric constant tensor:
#      x y z
#    x 1.897830 0.026090 -0.011190 
#    y 0.026090 1.886320 0.012470 
#    z -0.011190 0.012470 1.903600 
# 
# From -- ./inp_files/283414.got.cif
#   From: 2010.06.25/outbox.cif.g09.slc.cpg/sg2_142_cif.got.tgz:283414.got - 2010.06.27 13:26:56.
