data_PCOD8014324
_publ_section_title
;
Structure prediction by ZEFSAII (Michael W. Deem and Ramdas Pophale) SiO2 
 PCOD8014324
Probable space group: P -1
;
_chemical_formula_sum "Si O2"
_cell_formula_units_Z 16
_cell_length_a 15.025744
_cell_length_b 23.593637
_cell_length_c 18.058137
_cell_angle_alpha 21.006769
_cell_angle_beta 151.249440
_cell_angle_gamma 161.030720
_cell_volume 744.958743
_symmetry_space_group_name_H-M "P -1"
_symmetry_group_IT_number 2
_symmetry_cell_setting 'triclinic'
loop_
_space_group_symop_operation_xyz
x,y,z
-x,-y,-z
loop_
_atom_site_type_symbol
_atom_site_label
_atom_site_fract_x
_atom_site_fract_y
_atom_site_fract_z
Si Si1 0.190500 0.899794 0.561807
Si Si2 0.503426 0.817997 0.969775
Si Si3 0.702082 0.406670 0.747356
Si Si4 0.010396 0.327065 0.994355
Si Si5 0.774652 0.855109 0.380388
Si Si6 0.090517 0.161689 0.938872
Si Si7 0.585837 0.547707 0.744674
Si Si8 0.522039 0.678011 0.843803
O O1 0.321203 0.832308 0.778912
O O2 0.949991 0.685495 0.595086
O O3 0.053699 0.930361 0.484411
O O4 0.418443 0.139479 0.390374
O O5 0.397409 0.736080 0.075363
O O6 0.479236 0.632217 0.141257
O O7 0.821756 0.075894 0.881991
O O8 0.451969 0.341903 0.604836
O O9 0.802328 0.333486 0.854603
O O10 0.159324 0.349135 0.147441
O O11 0.230165 0.530832 0.847343
O O12 0.832630 0.074159 0.138194
O O13 0.661956 0.754373 0.503839
O O14 0.323208 0.426163 0.752926
O O15 0.239213 0.165319 0.110832
O O16 0.000000 0.000000 0.000000
O O17 0.500000 0.500000 0.000000
#
# Coordination Sequence:
#
# PCOD8014324 Si02
#       8
#     2   2   2   2   2   2   2   2
#     4  12  24  41  70  95 128 180 220 265 335 393
#     4  11  22  42  65  98 134 166 219 279 319 387
#     4  12  25  41  67 101 131 167 224 279 319 390
#     4  11  24  45  64  96 136 171 214 273 333 387
#     4  12  24  40  69  96 131 177 217 265 336 392
#     4   9  22  41  67  96 134 174 218 274 326 385
#     4  10  21  41  66  96 132 170 218 267 324 395
#     4  11  24  45  70  95 138 174 218 274 335 401
#
# _framework density 21.477698
#
# number of rings (size 3 to 8) (size 9 to 14) (size 15 to 20)
#    0.000    1.000    3.750    3.000    3.500    1.500 
#    0.000    0.625    0.000    0.000    0.000    0.000 
#    0.000    0.000    0.000    0.000    0.000    0.000 
#
# Total GULP energy -198381.329175 kJ/mol
# GULP energy per Si atom -12398.833073 kJ/mol
# Density = 2.142881 g / cm^3
# Si number density = 21.477698 Si / 1000 Ang^3
#
#
#
# Elastic Constant Matrix: (Units=GPa)
#
#
# Indices 1 2 3 4 5 6 
#
# 1 88.5461 24.7367 28.5871 -7.8576 -12.1317 20.8463
# 2 24.7367 76.2268 21.7982 -3.8360 -18.5171 18.3069
# 3 28.5871 21.7982 90.3495 -16.1999 -25.0762 17.7001
# 4 -7.8576 -3.8360 -16.1999 24.5840 0.5650 -6.2270
# 5 -12.1317 -18.5171 -25.0762 0.5650 42.0759 -0.8960
# 6 20.8463 18.3069 17.7001 -6.2270 -0.8960 38.0708
#
#
#
# Elastic Compliance Matrix: (Units=1/GPa)
#
#
# Indices 1 2 3 4 5 6 
#
# 1 0.014257 -0.002206 -0.002197 0.001342 0.001696 -0.005465
# 2 -0.002206 0.017137 -0.000304 -0.000093 0.006582 -0.006752
# 3 -0.002197 -0.000304 0.016913 0.008962 0.009090 -0.004835
# 4 0.001342 -0.000093 0.008962 0.047654 0.005113 0.003058
# 5 0.001696 0.006582 0.009090 0.005113 0.032358 -0.006722
# 6 -0.005465 -0.006752 -0.004835 0.003058 -0.006722 0.035096
#
#
# Mechanical properties :
#
#
# Convention : Reuss Voigt Hill
#
# Bulk Modulus (GPa) = 25.71046 45.04071 35.37559
# Shear Modulus (GPa) = 26.91154 32.94617 29.92886
#
# Velocity S-wave (km/s) = 3.54361 3.92084 3.73699
# Velocity P-wave (km/s) = 5.36094 6.44312 5.92678
#
# Compressibility (1/GPa) = 0.03889467
#
# Stress axis : x y z
#
# Youngs Moduli (GPa) = 70.13970 58.35183 59.12497
#
# Poissons Ratio (x) = 0.12875 0.12988
# Poissons Ratio (y) = 0.15476 0.01795
# Poissons Ratio (z) = 0.15408 0.01771
#
# Static dielectric constant tensor:
#      x y z
#    x 4.040090 0.191160 -0.188100 
#    y 0.191160 4.201020 -0.251440 
#    z -0.188100 -0.251440 3.754940 
# 
# 
# High freq. dielectric constant tensor:
#      x y z
#    x 1.847540 0.007760 -0.018030 
#    y 0.007760 1.857780 -0.010590 
#    z -0.018030 -0.010590 1.827980 
# 
# From -- ./inp_files/184944.got.cif
#   From: 2010.06.25/outbox.cif.g09.slc.cpg/sg2_93_cif.got.tgz:184944.got - 2010.06.27 13:26:56.
