data_PCOD8014967
_publ_section_title
;
Structure prediction by ZEFSAII (Michael W. Deem and Ramdas Pophale) SiO2 
 PCOD8014967
Probable space group: P -1
;
_chemical_formula_sum "Si O2"
_cell_formula_units_Z 16
_cell_length_a 6.730182
_cell_length_b 12.081222
_cell_length_c 11.185896
_cell_angle_alpha 111.410258
_cell_angle_beta 101.847839
_cell_angle_gamma 71.928834
_cell_volume 800.610599
_symmetry_space_group_name_H-M "P -1"
_symmetry_group_IT_number 2
_symmetry_cell_setting 'triclinic'
loop_
_space_group_symop_operation_xyz
x,y,z
-x,-y,-z
loop_
_atom_site_type_symbol
_atom_site_label
_atom_site_fract_x
_atom_site_fract_y
_atom_site_fract_z
Si Si1 0.551434 0.831036 0.704791
Si Si2 0.439769 0.680336 0.165452
Si Si3 0.990242 0.708421 0.796453
Si Si4 0.818483 0.080780 0.123150
Si Si5 0.826314 0.480233 0.059100
Si Si6 0.732735 0.049924 0.845661
Si Si7 0.182202 0.567204 0.551344
Si Si8 0.437478 0.653045 0.430960
O O1 0.738158 0.739360 0.765749
O O2 0.344117 0.864098 0.772351
O O3 0.505681 0.761932 0.552888
O O4 0.625357 0.953243 0.727786
O O5 0.681208 0.610662 0.138527
O O6 0.391392 0.815633 0.158224
O O7 0.390280 0.694194 0.305422
O O8 0.299715 0.602010 0.056510
O O9 0.075856 0.822423 0.895782
O O10 0.056182 0.590030 0.840097
O O11 0.104485 0.683394 0.672844
O O12 0.704720 0.031857 0.978776
O O13 0.016820 0.979596 0.165807
O O14 0.000000 0.500000 0.000000
O O15 0.231222 0.622743 0.452332
O O16 0.386321 0.474716 0.595243
O O17 0.000000 0.500000 0.500000
#
# Coordination Sequence:
#
# PCOD8014967 Si02
#       8
#     2   2   2   2   2   2   2   2
#     4  11  23  38  67  93 118 162 213 255 309 354
#     4  11  25  44  60  92 133 163 204 250 314 377
#     4  11  21  39  66  94 123 156 209 259 303 367
#     4  10  21  42  64  91 122 156 214 264 299 357
#     4  11  26  40  64  94 128 166 200 252 317 374
#     4  10  23  41  63  88 124 165 205 260 305 364
#     4  11  22  39  62  93 128 162 206 251 305 372
#     4  11  24  38  63  94 126 166 202 255 310 370
#
# _framework density 19.984746999999999
#
# number of rings (size 3 to 8) (size 9 to 14) (size 15 to 20)
#    0.000    1.250    5.000    0.375    3.500    1.500 
#    0.000    0.625    0.000    0.000    0.000    0.000 
#    0.000    0.000    0.000    0.000    0.000    0.000 
#
# Total GULP energy -198353.235596 kJ/mol
# GULP energy per Si atom -12397.077225 kJ/mol
# Density = 1.993926 g / cm^3
# Si number density = 19.984747 Si / 1000 Ang^3
#
#
#
# Elastic Constant Matrix: (Units=GPa)
#
#
# Indices 1 2 3 4 5 6 
#
# 1 110.9839 53.1359 42.5098 -2.7746 -15.7938 -6.0839
# 2 53.1359 138.8969 41.3996 0.1058 -3.9317 -15.2865
# 3 42.5098 41.3996 93.4464 2.1245 -7.5022 -4.0768
# 4 -2.7746 0.1058 2.1245 29.8932 2.6669 -0.3306
# 5 -15.7938 -3.9317 -7.5022 2.6669 32.5817 10.1402
# 6 -6.0839 -15.2865 -4.0768 -0.3306 10.1402 31.9880
#
#
#
# Elastic Compliance Matrix: (Units=1/GPa)
#
#
# Indices 1 2 3 4 5 6 
#
# 1 0.013047 -0.003851 -0.003889 0.001006 0.005363 -0.001544
# 2 -0.003851 0.009882 -0.002648 0.000086 -0.002694 0.004507
# 3 -0.003889 -0.002648 0.013750 -0.001452 0.001291 -0.000677
# 4 0.001006 0.000086 -0.001452 0.033935 -0.003038 0.001361
# 5 0.005363 -0.002694 0.001291 -0.003038 0.037227 -0.011935
# 6 -0.001544 0.004507 -0.000677 0.001361 -0.011935 0.036833
#
#
# Mechanical properties :
#
#
# Convention : Reuss Voigt Hill
#
# Bulk Modulus (GPa) = 62.87576 68.60197 65.73887
# Shear Modulus (GPa) = 29.28241 32.64471 30.96356
#
# Velocity S-wave (km/s) = 3.83200 4.04602 3.94046
# Velocity P-wave (km/s) = 7.14906 7.49858 7.32591
#
# Compressibility (1/GPa) = 0.01590438
#
# Stress axis : x y z
#
# Youngs Moduli (GPa) = 76.64414 101.19703 72.72466
#
# Poissons Ratio (x) = 0.38972 0.28282
# Poissons Ratio (y) = 0.29516 0.19254
# Poissons Ratio (z) = 0.29806 0.26793
#
# Static dielectric constant tensor:
#      x y z
#    x 3.705140 -0.094240 0.081090 
#    y -0.094240 3.553400 0.428150 
#    z 0.081090 0.428150 5.947220 
# 
# 
# High freq. dielectric constant tensor:
#      x y z
#    x 1.787040 -0.008970 -0.000790 
#    y -0.008970 1.773730 0.024690 
#    z -0.000790 0.024690 1.781310 
# 
# From -- ./inp_files/76404.got.cif
#   From: 2010.06.25/outbox.cif.g09.slc.cpg/sg2_39_cif.got.tgz:76404.got - 2010.06.27 13:26:56.
