data_PCOD8014060
_publ_section_title
;
Structure prediction by ZEFSAII (Michael W. Deem and Ramdas Pophale) SiO2 
 PCOD8014060
Probable space group: P -1
;
_chemical_formula_sum "Si O2"
_cell_formula_units_Z 16
_cell_length_a 21.663298
_cell_length_b 7.862252
_cell_length_c 6.489045
_cell_angle_alpha 74.670924
_cell_angle_beta 104.653886
_cell_angle_gamma 140.136358
_cell_volume 680.963614
_symmetry_space_group_name_H-M "P -1"
_symmetry_group_IT_number 2
_symmetry_cell_setting 'triclinic'
loop_
_space_group_symop_operation_xyz
x,y,z
-x,-y,-z
loop_
_atom_site_type_symbol
_atom_site_label
_atom_site_fract_x
_atom_site_fract_y
_atom_site_fract_z
Si Si1 0.694892 0.278063 0.104563
Si Si2 0.626587 0.434641 0.270841
Si Si3 0.928611 0.061933 0.400311
Si Si4 0.762420 0.674958 0.686725
Si Si5 0.103766 0.346160 0.706558
Si Si6 0.911832 0.386806 0.093026
Si Si7 0.563091 0.783855 0.873864
Si Si8 0.274494 0.097656 0.112967
O O1 0.627447 0.263642 0.185958
O O2 0.780933 0.374851 0.290279
O O3 0.624108 0.983703 0.053823
O O4 0.748312 0.487516 0.894328
O O5 0.674830 0.493717 0.510020
O O6 0.512671 0.236585 0.283536
O O7 0.684837 0.706958 0.110223
O O8 0.893405 0.188789 0.301258
O O9 0.043309 0.291686 0.475356
O O10 0.864725 0.854978 0.602505
O O11 0.909994 0.897614 0.234149
O O12 0.760852 0.857850 0.743310
O O13 0.061957 0.370487 0.858488
O O14 0.000000 0.500000 0.000000
O O15 0.815234 0.209378 0.935099
O O16 0.500000 0.500000 0.000000
O O17 0.640634 0.861396 0.753128
#
# Coordination Sequence:
#
# PCOD8014060 Si02
#       8
#     2   2   2   2   2   2   2   2
#     4  11  22  42  65 100 128 175 233 271 336 407
#     4  10  21  42  68  91 130 179 216 286 341 385
#     4  11  24  45  65 103 138 181 227 272 344 396
#     4  11  22  40  68  92 138 180 217 285 333 398
#     4  11  24  42  70  96 139 178 227 271 335 403
#     4  12  24  43  67  99 140 180 224 279 337 402
#     4  10  22  42  67  95 131 175 223 284 341 397
#     4  10  21  41  64  95 132 174 225 275 338 399
#
# _framework density 23.496115
#
# number of rings (size 3 to 8) (size 9 to 14) (size 15 to 20)
#    0.000    1.250    3.750    2.250    0.000    4.000 
#    2.250    2.500    0.000    0.000    0.000    0.000 
#    0.000    0.000    0.000    0.000    0.000    0.000 
#
# Total GULP energy -198271.770654 kJ/mol
# GULP energy per Si atom -12391.985666 kJ/mol
# Density = 2.344264 g / cm^3
# Si number density = 23.496115 Si / 1000 Ang^3
#
#
#
# Elastic Constant Matrix: (Units=GPa)
#
#
# Indices 1 2 3 4 5 6 
#
# 1 162.6873 57.2082 34.2077 12.0846 -12.3544 9.3720
# 2 57.2082 127.7427 41.4341 37.7474 -8.1468 4.1726
# 3 34.2077 41.4341 57.8195 14.8860 -10.1188 -1.9048
# 4 12.0846 37.7474 14.8860 31.2201 2.7054 -2.9478
# 5 -12.3544 -8.1468 -10.1188 2.7054 35.4938 20.2500
# 6 9.3720 4.1726 -1.9048 -2.9478 20.2500 47.4350
#
#
#
# Elastic Compliance Matrix: (Units=1/GPa)
#
#
# Indices 1 2 3 4 5 6 
#
# 1 0.007942 -0.002757 -0.002581 0.001009 0.002775 -0.002552
# 2 -0.002757 0.016092 -0.004780 -0.016959 0.005118 -0.004301
# 3 -0.002581 -0.004780 0.024725 -0.005631 0.006061 -0.001014
# 4 0.001009 -0.016959 -0.005631 0.057307 -0.016069 0.011487
# 5 0.002775 0.005118 0.006061 -0.016069 0.045301 -0.021093
# 6 -0.002552 -0.004301 -0.001014 0.011487 -0.021093 0.031642
#
#
# Mechanical properties :
#
#
# Convention : Reuss Voigt Hill
#
# Bulk Modulus (GPa) = 35.06088 68.21658 51.63873
# Shear Modulus (GPa) = 23.50155 37.18977 30.34566
#
# Velocity S-wave (km/s) = 3.16607 3.98276 3.59767
# Velocity P-wave (km/s) = 5.32163 7.08844 6.26761
#
# Compressibility (1/GPa) = 0.02852182
#
# Stress axis : x y z
#
# Youngs Moduli (GPa) = 125.91558 62.14357 40.44538
#
# Poissons Ratio (x) = 0.17135 0.10439
# Poissons Ratio (y) = 0.34719 0.19333
# Poissons Ratio (z) = 0.32497 0.29705
#
# Static dielectric constant tensor:
#      x y z
#    x 5.388770 -0.119400 0.083950 
#    y -0.119400 4.497030 0.294130 
#    z 0.083950 0.294130 4.033480 
# 
# 
# High freq. dielectric constant tensor:
#      x y z
#    x 1.961890 0.004090 -0.002360 
#    y 0.004090 1.930860 0.030260 
#    z -0.002360 0.030260 1.890200 
# 
# From -- ./inp_files/122528.got.cif
#   From: 2010.06.25/outbox.cif.g09.slc.cpg/sg2_62_cif.got.tgz:122528.got - 2010.06.27 13:26:56.
