data_PCOD8014963
_publ_section_title
;
Structure prediction by ZEFSAII (Michael W. Deem and Ramdas Pophale) SiO2 
 PCOD8014963
Probable space group: P -1
;
_chemical_formula_sum "Si O2"
_cell_formula_units_Z 16
_cell_length_a 12.393948
_cell_length_b 10.638028
_cell_length_c 11.772228
_cell_angle_alpha 60.315087
_cell_angle_beta 144.033603
_cell_angle_gamma 123.242635
_cell_volume 758.200422
_symmetry_space_group_name_H-M "P -1"
_symmetry_group_IT_number 2
_symmetry_cell_setting 'triclinic'
loop_
_space_group_symop_operation_xyz
x,y,z
-x,-y,-z
loop_
_atom_site_type_symbol
_atom_site_label
_atom_site_fract_x
_atom_site_fract_y
_atom_site_fract_z
Si Si1 0.790800 0.692498 0.416846
Si Si2 0.231971 0.921154 0.248147
Si Si3 0.836226 0.762463 0.915491
Si Si4 0.179816 0.192075 0.363305
Si Si5 0.762444 0.248543 0.234845
Si Si6 0.600939 0.047416 0.388181
Si Si7 0.160890 0.992587 0.732469
Si Si8 0.443019 0.505367 0.078702
O O1 0.768030 0.699550 0.530769
O O2 0.007695 0.691265 0.572598
O O3 0.730454 0.830040 0.237578
O O4 0.635334 0.545446 0.301602
O O5 0.170359 0.066959 0.165558
O O6 0.374514 0.961116 0.243710
O O7 0.331406 0.878404 0.464419
O O8 0.054440 0.774787 0.132178
O O9 0.791949 0.705736 0.772349
O O10 0.684776 0.659357 0.918231
O O11 0.955046 0.090211 0.219168
O O12 0.305556 0.076599 0.524254
O O13 0.645830 0.187874 0.277478
O O14 0.711593 0.109751 0.162739
O O15 0.687265 0.382598 0.061666
O O16 0.000000 0.000000 0.500000
O O17 0.500000 0.500000 0.000000
#
# Coordination Sequence:
#
# PCOD8014963 Si02
#       8
#     2   2   2   2   2   2   2   2
#     4  10  21  42  64  94 125 165 201 260 311 358
#     4   9  21  35  63  85 121 159 207 258 300 356
#     4  10  22  42  55  88 125 163 204 256 303 361
#     4   9  17  37  66  86 121 152 205 261 304 353
#     4  10  20  40  65  91 125 157 205 257 305 368
#     4  10  16  35  62  96 111 154 211 249 310 361
#     4   8  15  35  64  94 113 150 205 251 308 347
#     4  12  28  41  58  93 129 167 211 241 313 384
#
# _framework density 21.102601
#
# number of rings (size 3 to 8) (size 9 to 14) (size 15 to 20)
#    0.000    2.500    3.750    0.750    1.750    3.500 
#   11.250    2.500    0.000    0.000    0.000    0.000 
#    0.000    0.000    0.000    0.000    0.000    0.000 
#
# Total GULP energy -198292.613603 kJ/mol
# GULP energy per Si atom -12393.288350 kJ/mol
# Density = 2.105457 g / cm^3
# Si number density = 21.102601 Si / 1000 Ang^3
#
#
#
# Elastic Constant Matrix: (Units=GPa)
#
#
# Indices 1 2 3 4 5 6 
#
# 1 114.9335 19.5599 24.8713 13.9348 -10.0060 24.3371
# 2 19.5599 60.3451 24.3583 21.3923 -5.3397 21.5065
# 3 24.8713 24.3583 57.6879 21.8523 -3.5780 11.2365
# 4 13.9348 21.3923 21.8523 34.9821 1.7621 5.2805
# 5 -10.0060 -5.3397 -3.5780 1.7621 27.2267 -6.3322
# 6 24.3371 21.5065 11.2365 5.2805 -6.3322 37.7565
#
#
#
# Elastic Compliance Matrix: (Units=1/GPa)
#
#
# Indices 1 2 3 4 5 6 
#
# 1 0.010936 0.000730 -0.002867 -0.002255 0.002567 -0.005865
# 2 0.000730 0.027238 -0.004519 -0.012398 0.002931 -0.012415
# 3 -0.002867 -0.004519 0.025294 -0.011818 0.001885 -0.001136
# 4 -0.002255 -0.012398 -0.011818 0.044058 -0.006555 0.004772
# 5 0.002567 0.002931 0.001885 -0.006555 0.039780 0.003703
# 6 -0.005865 -0.012415 -0.001136 0.004772 0.003703 0.037630
#
#
# Mechanical properties :
#
#
# Convention : Reuss Voigt Hill
#
# Bulk Modulus (GPa) = 19.93836 41.17174 30.55505
# Shear Modulus (GPa) = 23.25937 30.93820 27.09878
#
# Velocity S-wave (km/s) = 3.32355 3.83310 3.58738
# Velocity P-wave (km/s) = 4.91902 6.25643 5.62759
#
# Compressibility (1/GPa) = 0.05015457
#
# Stress axis : x y z
#
# Youngs Moduli (GPa) = 91.44230 36.71346 39.53532
#
# Poissons Ratio (x) = -0.02679 0.11334
# Poissons Ratio (y) = -0.06672 0.17867
# Poissons Ratio (z) = 0.26215 0.16592
#
# Static dielectric constant tensor:
#      x y z
#    x 3.957900 0.213270 0.018340 
#    y 0.213270 3.904880 0.046710 
#    z 0.018340 0.046710 3.764370 
# 
# 
# High freq. dielectric constant tensor:
#      x y z
#    x 1.838120 0.014250 0.004830 
#    y 0.014250 1.797660 0.002390 
#    z 0.004830 0.002390 1.813330 
# 
# From -- ./inp_files/427907.got.cif
#   From: 2010.06.25/outbox.cif.g09.slc.cpg/sg2_214_cif.got.tgz:427907.got - 2010.06.27 13:26:56.
