data_PCOD8014725
_publ_section_title
;
Structure prediction by ZEFSAII (Michael W. Deem and Ramdas Pophale) SiO2 
 PCOD8014725
Probable space group: P -1
;
_chemical_formula_sum "Si O2"
_cell_formula_units_Z 12
_cell_length_a 15.128166
_cell_length_b 12.769144
_cell_length_c 7.918845
_cell_angle_alpha 48.348994
_cell_angle_beta 115.252119
_cell_angle_gamma 151.249038
_cell_volume 495.260571
_symmetry_space_group_name_H-M "P -1"
_symmetry_group_IT_number 2
_symmetry_cell_setting 'triclinic'
loop_
_space_group_symop_operation_xyz
x,y,z
-x,-y,-z
loop_
_atom_site_type_symbol
_atom_site_label
_atom_site_fract_x
_atom_site_fract_y
_atom_site_fract_z
Si Si1 0.811274 0.168764 0.655505
Si Si2 0.638022 0.713414 0.539742
Si Si3 0.777729 0.183478 0.222320
Si Si4 0.429063 0.831311 0.791513
Si Si5 0.231991 0.195230 0.918238
Si Si6 0.880347 0.799116 0.844015
O O1 0.767564 0.131522 0.464415
O O2 0.000000 0.500000 0.500000
O O3 0.621157 0.971495 0.836206
O O4 0.865260 0.075947 0.824159
O O5 0.500000 0.500000 0.500000
O O6 0.477124 0.502749 0.788149
O O7 0.825979 0.848017 0.604826
O O8 0.709128 0.961901 0.297632
O O9 0.622714 0.122470 0.149437
O O10 0.000000 0.500000 0.000000
O O11 0.500000 0.000000 0.500000
O O12 0.223995 0.480629 0.982064
O O13 0.183106 0.245264 0.968700
O O14 0.128554 0.099354 0.749315
#
# Coordination Sequence:
#
# PCOD8014725 Si02
#       6
#     2   2   2   2   2   2
#     4  11  22  41  76 104 141 187 242 295 357 426
#     4  12  27  46  70 100 147 190 232 293 359 426
#     4  11  26  47  69 105 150 186 236 297 365 426
#     4  10  21  41  71 101 141 181 240 291 352 427
#     4  11  22  43  75 103 135 181 247 297 350 416
#     4  11  23  43  73 104 132 182 246 296 347 427
#
# _framework density 24.229672000000001
#
# number of rings (size 3 to 8) (size 9 to 14) (size 15 to 20)
#    0.000    1.000    3.333    4.500    4.667    2.000 
#    0.000    1.667    0.000    0.000    0.000    0.000 
#    0.000    0.000    0.000    0.000    0.000    0.000 
#
# Total GULP energy -148703.831235 kJ/mol
# GULP energy per Si atom -12391.985936 kJ/mol
# Density = 2.417452 g / cm^3
# Si number density = 24.229672 Si / 1000 Ang^3
#
#
#
# Elastic Constant Matrix: (Units=GPa)
#
#
# Indices 1 2 3 4 5 6 
#
# 1 121.7292 36.3421 37.6810 -15.0723 25.4302 7.0003
# 2 36.3421 100.0416 17.4847 -7.1756 15.4055 2.0957
# 3 37.6810 17.4847 83.6283 -23.4009 21.5981 -8.1831
# 4 -15.0723 -7.1756 -23.4009 46.4625 -3.6037 6.0217
# 5 25.4302 15.4055 21.5981 -3.6037 37.2153 -15.2005
# 6 7.0003 2.0957 -8.1831 6.0217 -15.2005 39.1105
#
#
#
# Elastic Compliance Matrix: (Units=1/GPa)
#
#
# Indices 1 2 3 4 5 6 
#
# 1 0.012087 -0.002390 -0.002873 0.002279 -0.007848 -0.006037
# 2 -0.002390 0.011576 -0.000371 0.000778 -0.003599 -0.001789
# 3 -0.002873 -0.000371 0.017152 0.007065 -0.007030 0.000303
# 4 0.002279 0.000778 0.007065 0.026178 -0.005552 -0.005160
# 5 -0.007848 -0.003599 -0.007030 -0.005552 0.044773 0.018383
# 6 -0.006037 -0.001789 0.000303 -0.005160 0.018383 0.034747
#
#
# Mechanical properties :
#
#
# Convention : Reuss Voigt Hill
#
# Bulk Modulus (GPa) = 33.84497 54.26831 44.05664
# Shear Modulus (GPa) = 29.82750 38.81709 34.32229
#
# Velocity S-wave (km/s) = 3.51241 4.00690 3.76778
# Velocity P-wave (km/s) = 5.51798 6.62217 6.09513
#
# Compressibility (1/GPa) = 0.02954649
#
# Stress axis : x y z
#
# Youngs Moduli (GPa) = 82.73673 86.38220 58.30372
#
# Poissons Ratio (x) = 0.20647 0.16748
# Poissons Ratio (y) = 0.19776 0.02165
# Poissons Ratio (z) = 0.23766 0.03207
#
# Static dielectric constant tensor:
#      x y z
#    x 4.612150 -0.501010 0.907140 
#    y -0.501010 3.677460 0.726170 
#    z 0.907140 0.726170 3.179410 
# 
# 
# High freq. dielectric constant tensor:
#      x y z
#    x 1.986160 0.004140 0.001150 
#    y 0.004140 1.956730 -0.012950 
#    z 0.001150 -0.012950 1.959180 
# 
# From -- ./inp_files/236944.got.cif
#   From: 2010.06.25/outbox.cif.g09.slc.cpg/sg2_119_cif.got.tgz:236944.got - 2010.06.27 13:26:56.
