data_PCOD8014257
_publ_section_title
;
Structure prediction by ZEFSAII (Michael W. Deem and Ramdas Pophale) SiO2 
 PCOD8014257
Probable space group: P -1
;
_chemical_formula_sum "Si O2"
_cell_formula_units_Z 14
_cell_length_a 11.523089
_cell_length_b 9.079876
_cell_length_c 19.465595
_cell_angle_alpha 139.439774
_cell_angle_beta 148.338892
_cell_angle_gamma 36.644450
_cell_volume 618.583926
_symmetry_space_group_name_H-M "P -1"
_symmetry_group_IT_number 2
_symmetry_cell_setting 'triclinic'
loop_
_space_group_symop_operation_xyz
x,y,z
-x,-y,-z
loop_
_atom_site_type_symbol
_atom_site_label
_atom_site_fract_x
_atom_site_fract_y
_atom_site_fract_z
Si Si1 0.161592 0.905120 0.200630
Si Si2 0.498124 0.882026 0.594039
Si Si3 0.706269 0.981229 0.316915
Si Si4 0.163892 0.596349 0.488359
Si Si5 0.933402 0.778642 0.600999
Si Si6 0.485433 0.665208 0.845397
Si Si7 0.394197 0.934556 0.028240
O O1 0.318038 0.605952 0.177611
O O2 0.293031 0.022377 0.258529
O O3 0.166932 0.010006 0.315916
O O4 0.888370 0.979353 0.061831
O O5 0.601754 0.623870 0.510655
O O6 0.435710 0.846030 0.627830
O O7 0.246088 0.099872 0.511310
O O8 0.548560 0.878367 0.156201
O O9 0.941450 0.720604 0.365282
O O10 0.772408 0.175782 0.374556
O O11 0.082794 0.478715 0.472033
O O12 0.213252 0.718307 0.701892
O O13 0.581437 0.848869 0.925357
O O14 0.488474 0.688119 0.938458
#
# Coordination Sequence:
#
# PCOD8014257 Si02
#       7
#     2   2   2   2   2   2   2
#     4  10  21  41  66  90 123 165 211 259 305 364
#     4  11  24  41  65  99 124 163 209 258 316 368
#     4  11  25  40  63  93 133 167 199 256 321 371
#     4  10  23  43  60  97 130 163 206 255 313 376
#     4  10  23  40  69  96 123 159 216 260 303 373
#     4  10  22  42  65  91 123 166 215 257 305 365
#     4  10  24  41  59  94 126 165 213 252 307 375
#
# _framework density 22.632335999999999
#
# number of rings (size 3 to 8) (size 9 to 14) (size 15 to 20)
#    0.000    1.714    0.000    3.429    8.000    2.857 
#    0.000   10.000    0.000    0.000    0.000    0.000 
#    0.000    0.000    0.000    0.000    0.000    0.000 
#
# Total GULP energy -173605.855203 kJ/mol
# GULP energy per Si atom -12400.418229 kJ/mol
# Density = 2.258082 g / cm^3
# Si number density = 22.632336 Si / 1000 Ang^3
#
#
#
# Elastic Constant Matrix: (Units=GPa)
#
#
# Indices 1 2 3 4 5 6 
#
# 1 59.5397 14.7724 42.7191 -13.9048 -3.3021 19.6349
# 2 14.7724 90.2426 44.4656 -0.2319 -3.1123 6.8081
# 3 42.7191 44.4656 162.7439 -18.1943 9.6002 3.1297
# 4 -13.9048 -0.2319 -18.1943 30.3057 -1.2327 4.9907
# 5 -3.3021 -3.1123 9.6002 -1.2327 28.9048 -0.7196
# 6 19.6349 6.8081 3.1297 4.9907 -0.7196 24.2126
#
#
#
# Elastic Compliance Matrix: (Units=1/GPa)
#
#
# Indices 1 2 3 4 5 6 
#
# 1 0.038131 0.000432 -0.007806 0.018640 0.006952 -0.033670
# 2 0.000432 0.013317 -0.004013 -0.001475 0.002674 -0.003193
# 3 -0.007806 -0.004013 0.009539 0.000968 -0.004304 0.005898
# 4 0.018640 -0.001475 0.000968 0.046238 0.003017 -0.024267
# 5 0.006952 0.002674 -0.004304 0.003017 0.037103 -0.005352
# 6 -0.033670 -0.003193 0.005898 -0.024267 -0.005352 0.073583
#
#
# Mechanical properties :
#
#
# Convention : Reuss Voigt Hill
#
# Bulk Modulus (GPa) = 26.16901 57.38226 41.77563
# Shear Modulus (GPa) = 19.72981 30.72257 25.22619
#
# Velocity S-wave (km/s) = 2.95575 3.68837 3.34220
# Velocity P-wave (km/s) = 4.82041 6.59909 5.77860
#
# Compressibility (1/GPa) = 0.03821314
#
# Stress axis : x y z
#
# Youngs Moduli (GPa) = 26.22524 75.09066 104.83466
#
# Poissons Ratio (x) = -0.03245 0.81833
# Poissons Ratio (y) = -0.01133 0.42072
# Poissons Ratio (z) = 0.20471 0.30135
#
# Static dielectric constant tensor:
#      x y z
#    x 4.254700 -0.211900 0.087830 
#    y -0.211900 3.959710 0.139200 
#    z 0.087830 0.139200 4.377970 
# 
# 
# High freq. dielectric constant tensor:
#      x y z
#    x 1.908630 -0.016490 0.003910 
#    y -0.016490 1.888470 0.010380 
#    z 0.003910 0.010380 1.902660 
# 
# From -- ./inp_files/270038.got.cif
#   From: 2010.06.25/outbox.cif.g09.slc.cpg/sg2_136_cif.got.tgz:270038.got - 2010.06.27 13:26:56.
