data_PCOD8014555
_publ_section_title
;
Structure prediction by ZEFSAII (Michael W. Deem and Ramdas Pophale) SiO2 
 PCOD8014555
Probable space group: P -1
;
_chemical_formula_sum "Si O2"
_cell_formula_units_Z 16
_cell_length_a 23.592078
_cell_length_b 9.024147
_cell_length_c 20.629341
_cell_angle_alpha 151.709396
_cell_angle_beta 160.417555
_cell_angle_gamma 27.259593
_cell_volume 647.189170
_symmetry_space_group_name_H-M "P -1"
_symmetry_group_IT_number 2
_symmetry_cell_setting 'triclinic'
loop_
_space_group_symop_operation_xyz
x,y,z
-x,-y,-z
loop_
_atom_site_type_symbol
_atom_site_label
_atom_site_fract_x
_atom_site_fract_y
_atom_site_fract_z
Si Si1 0.136112 0.787912 0.968339
Si Si2 0.299867 0.299493 0.207969
Si Si3 0.996916 0.710503 0.433576
Si Si4 0.358625 0.390140 0.167372
Si Si5 0.513130 0.390864 0.801361
Si Si6 0.283828 0.766552 0.588825
Si Si7 0.652613 0.284101 0.130824
Si Si8 0.923549 0.451863 0.819565
O O1 0.997892 0.610312 0.727744
O O2 0.215339 0.704863 0.095304
O O3 0.299721 0.621516 0.030944
O O4 0.053242 0.189441 0.027684
O O5 0.362909 0.473646 0.281714
O O6 0.231438 0.533914 0.288504
O O7 0.467022 0.959693 0.277185
O O8 0.123592 0.203729 0.962257
O O9 0.177147 0.594423 0.629244
O O10 0.815307 0.867073 0.343379
O O11 0.000000 0.000000 0.500000
O O12 0.560606 0.242137 0.297941
O O13 0.273907 0.101252 0.961219
O O14 0.365757 0.470127 0.615659
O O15 0.445033 0.693007 0.895953
O O16 0.126291 0.679245 0.350783
O O17 0.500000 0.500000 0.000000
#
# Coordination Sequence:
#
# PCOD8014555 Si02
#       8
#     2   2   2   2   2   2   2   2
#     4  10  23  43  70 101 131 181 224 279 323 402
#     4  10  22  43  65  92 138 183 214 283 328 394
#     4  12  23  43  71 101 131 171 229 278 334 396
#     4  11  22  40  68 101 136 176 226 276 337 388
#     4  10  21  41  68  95 142 173 224 270 339 390
#     4  11  24  43  71 102 131 180 228 275 325 406
#     4  12  23  40  66 100 135 174 212 282 344 398
#     4  10  24  46  68  97 137 183 229 269 334 395
#
# _framework density 24.722294000000002
#
# number of rings (size 3 to 8) (size 9 to 14) (size 15 to 20)
#    0.000    1.250    3.750    1.500    0.000    7.500 
#    6.750    3.750    0.000    0.000    0.000    0.000 
#    0.000    0.000    0.000    0.000    0.000    0.000 
#
# Total GULP energy -198286.947902 kJ/mol
# GULP energy per Si atom -12392.934244 kJ/mol
# Density = 2.466602 g / cm^3
# Si number density = 24.722294 Si / 1000 Ang^3
#
#
#
# Elastic Constant Matrix: (Units=GPa)
#
#
# Indices 1 2 3 4 5 6 
#
# 1 124.8047 18.3491 -6.1731 -4.9263 -1.5782 17.8561
# 2 18.3491 58.2807 13.1389 -13.6478 -7.4480 14.6754
# 3 -6.1731 13.1389 66.0976 -4.8754 -12.1548 16.0164
# 4 -4.9263 -13.6478 -4.8754 41.5599 -1.6426 -5.0452
# 5 -1.5782 -7.4480 -12.1548 -1.6426 34.9182 -9.1751
# 6 17.8561 14.6754 16.0164 -5.0452 -9.1751 32.9572
#
#
#
# Elastic Compliance Matrix: (Units=1/GPa)
#
#
# Indices 1 2 3 4 5 6 
#
# 1 0.009222 -0.002184 0.002494 -0.000012 -0.000602 -0.005405
# 2 -0.002184 0.021491 -0.002193 0.005946 0.002500 -0.005714
# 3 0.002494 -0.002193 0.018578 0.000925 0.004016 -0.008143
# 4 -0.000012 0.005946 0.000925 0.026483 0.003332 0.001891
# 5 -0.000602 0.002500 0.004016 0.003332 0.032490 0.006816
# 6 -0.005405 -0.005714 -0.008143 0.001891 0.006816 0.041960
#
#
# Mechanical properties :
#
#
# Convention : Reuss Voigt Hill
#
# Bulk Modulus (GPa) = 21.96632 33.31254 27.63943
# Shear Modulus (GPa) = 29.55673 36.81161 33.18417
#
# Velocity S-wave (km/s) = 3.46142 3.86295 3.66768
# Velocity P-wave (km/s) = 4.98796 5.77931 5.39816
#
# Compressibility (1/GPa) = 0.04552423
#
# Stress axis : x y z
#
# Youngs Moduli (GPa) = 108.43328 46.53038 53.82744
#
# Poissons Ratio (x) = 0.10164 -0.13423
# Poissons Ratio (y) = 0.23685 0.11804
# Poissons Ratio (z) = -0.27040 0.10204
#
# Static dielectric constant tensor:
#      x y z
#    x 4.997760 0.040950 -0.170440 
#    y 0.040950 4.399060 -0.378310 
#    z -0.170440 -0.378310 4.213310 
# 
# 
# High freq. dielectric constant tensor:
#      x y z
#    x 2.004560 -0.006940 -0.012180 
#    y -0.006940 1.967720 -0.029760 
#    z -0.012180 -0.029760 1.966960 
# 
# From -- ./inp_files/495324.got.cif
#   From: 2010.06.25/outbox.cif.g09.slc.cpg/sg2_248_cif.got.tgz:495324.got - 2010.06.27 13:26:56.
