data_PCOD8014706
_publ_section_title
;
Structure prediction by ZEFSAII (Michael W. Deem and Ramdas Pophale) SiO2 
 PCOD8014706
Probable space group: P -1
;
_chemical_formula_sum "Si O2"
_cell_formula_units_Z 16
_cell_length_a 8.930831
_cell_length_b 8.930942
_cell_length_c 12.335302
_cell_angle_alpha 109.352432
_cell_angle_beta 70.651521
_cell_angle_gamma 66.382424
_cell_volume 717.583789
_symmetry_space_group_name_H-M "P -1"
_symmetry_group_IT_number 2
_symmetry_cell_setting 'triclinic'
loop_
_space_group_symop_operation_xyz
x,y,z
-x,-y,-z
loop_
_atom_site_type_symbol
_atom_site_label
_atom_site_fract_x
_atom_site_fract_y
_atom_site_fract_z
Si Si1 0.989688 0.144385 0.849805
Si Si2 0.220966 0.657302 0.250813
Si Si3 0.185772 0.314238 0.132929
Si Si4 0.334702 0.165322 0.823430
Si Si5 0.856446 0.356409 0.499978
Si Si6 0.355665 0.510303 0.849801
Si Si7 0.279586 0.220435 0.320185
Si Si8 0.157255 0.721040 0.749252
O O1 0.903029 0.155748 0.753241
O O2 0.174028 0.153239 0.799141
O O3 0.826039 0.326137 0.999986
O O4 0.045914 0.950179 0.850666
O O5 0.151498 0.521870 0.200467
O O6 0.178870 0.725802 0.402621
O O7 0.450101 0.545921 0.149376
O O8 0.314418 0.185597 0.173833
O O9 0.978197 0.348381 0.200360
O O10 0.290460 0.209622 0.971903
O O11 0.346868 0.325926 0.799080
O O12 0.538683 0.961288 0.707555
O O13 0.740667 0.586397 0.593890
O O14 0.774259 0.321082 0.402559
O O15 0.086426 0.240671 0.406091
O O16 0.344211 0.597047 0.753298
#
# Coordination Sequence:
#
# PCOD8014706 Si02
#       8
#     2   2   2   2   2   2   2   2
#     4  12  26  44  67 103 140 172 222 279 337 397
#     4  11  25  44  71  97 136 180 221 275 333 396
#     4  10  21  41  70  97 138 170 216 279 342 388
#     4  12  24  42  69 100 138 175 226 269 347 392
#     4   9  22  46  68  91 142 172 228 269 338 383
#     4  12  26  44  67 103 140 172 222 279 337 397
#     4   9  21  40  70 103 124 179 229 276 321 409
#     4  11  25  44  71  97 136 180 221 275 333 396
#
# _framework density 22.297046999999999
#
# number of rings (size 3 to 8) (size 9 to 14) (size 15 to 20)
#    0.000    1.250    2.500    3.000    7.000    1.000 
#    0.000    1.250    0.000    0.000    0.000    0.000 
#    0.000    0.000    0.000    0.000    0.000    0.000 
#
# Total GULP energy -198424.428566 kJ/mol
# GULP energy per Si atom -12401.526785 kJ/mol
# Density = 2.224630 g / cm^3
# Si number density = 22.297047 Si / 1000 Ang^3
#
#
#
# Elastic Constant Matrix: (Units=GPa)
#
#
# Indices 1 2 3 4 5 6 
#
# 1 99.5444 67.1577 20.5386 2.5991 1.5566 -11.1486
# 2 67.1577 126.8845 39.6880 -3.5287 -1.0020 -26.3427
# 3 20.5386 39.6880 86.1228 -2.6938 1.8445 -26.2736
# 4 2.5991 -3.5287 -2.6938 22.6459 -8.8495 3.4163
# 5 1.5566 -1.0020 1.8445 -8.8495 16.2170 -3.6170
# 6 -11.1486 -26.3427 -26.2736 3.4163 -3.6170 41.1134
#
#
#
# Elastic Compliance Matrix: (Units=1/GPa)
#
#
# Indices 1 2 3 4 5 6 
#
# 1 0.016218 -0.009018 -0.000238 -0.005097 -0.005218 -0.001568
# 2 -0.009018 0.014879 -0.003088 0.004431 0.005725 0.005250
# 3 -0.000238 -0.003088 0.015488 0.000172 -0.000089 0.007832
# 4 -0.005097 0.004431 0.000172 0.058177 0.032397 -0.000417
# 5 -0.005218 0.005725 -0.000089 0.032397 0.081700 0.006692
# 6 -0.001568 0.005250 0.007832 -0.000417 0.006692 0.032890
#
#
# Mechanical properties :
#
#
# Convention : Reuss Voigt Hill
#
# Bulk Modulus (GPa) = 45.67052 63.03558 54.35305
# Shear Modulus (GPa) = 19.89350 28.33975 24.11662
#
# Velocity S-wave (km/s) = 2.99022 3.56899 3.29235
# Velocity P-wave (km/s) = 5.69641 6.73170 6.23558
#
# Compressibility (1/GPa) = 0.02189596
#
# Stress axis : x y z
#
# Youngs Moduli (GPa) = 61.66042 67.21094 64.56634
#
# Poissons Ratio (x) = 0.60610 0.01536
# Poissons Ratio (y) = 0.55605 0.19941
# Poissons Ratio (z) = 0.01467 0.20758
#
# Static dielectric constant tensor:
#      x y z
#    x 4.038860 -0.161350 0.194150 
#    y -0.161350 4.156630 -0.277290 
#    z 0.194150 -0.277290 4.013440 
# 
# 
# High freq. dielectric constant tensor:
#      x y z
#    x 1.878190 -0.007350 0.005620 
#    y -0.007350 1.883550 -0.008040 
#    z 0.005620 -0.008040 1.868520 
# 
# From -- ./inp_files/242956.got.cif
#   From: 2010.06.25/outbox.cif.g09.slc.cpg/sg2_122_cif.got.tgz:242956.got - 2010.06.27 13:26:56.
