data_PCOD8014460
_publ_section_title
;
Structure prediction by ZEFSAII (Michael W. Deem and Ramdas Pophale) SiO2 
 PCOD8014460
Probable space group: P -1
;
_chemical_formula_sum "Si O2"
_cell_formula_units_Z 12
_cell_length_a 8.130135
_cell_length_b 8.886688
_cell_length_c 11.462256
_cell_angle_alpha 139.010401
_cell_angle_beta 97.527061
_cell_angle_gamma 71.762541
_cell_volume 508.500127
_symmetry_space_group_name_H-M "P -1"
_symmetry_group_IT_number 2
_symmetry_cell_setting 'triclinic'
loop_
_space_group_symop_operation_xyz
x,y,z
-x,-y,-z
loop_
_atom_site_type_symbol
_atom_site_label
_atom_site_fract_x
_atom_site_fract_y
_atom_site_fract_z
Si Si1 0.228148 0.204189 0.349102
Si Si2 0.704139 0.961178 0.994914
Si Si3 0.837256 0.049817 0.599164
Si Si4 0.378719 0.010230 0.654444
Si Si5 0.698157 0.336573 0.393286
Si Si6 0.189469 0.430874 0.032634
O O1 0.221881 0.072711 0.149262
O O2 0.175077 0.496393 0.495557
O O3 0.105164 0.123408 0.381995
O O4 0.418873 0.121974 0.378750
O O5 0.805107 0.722340 0.938793
O O6 0.500000 0.000000 0.000000
O O7 0.724343 0.207470 0.193351
O O8 0.762428 0.330090 0.793477
O O9 0.675196 0.989068 0.485639
O O10 0.000000 0.000000 0.500000
O O11 0.254858 0.875676 0.629620
O O12 0.328719 0.280284 0.861206
O O13 0.500000 0.500000 0.500000
O O14 0.000000 0.500000 0.000000
#
# Coordination Sequence:
#
# PCOD8014460 Si02
#       6
#     2   2   2   2   2   2
#     4  11  23  40  67 106 125 168 229 277 319 390
#     4  11  20  40  69 101 127 172 221 273 328 387
#     4  12  26  42  64  92 139 182 217 267 337 392
#     4  10  21  41  67  97 127 172 219 271 333 386
#     4   9  18  35  65  93 132 156 209 276 329 369
#     4  11  23  43  68  90 138 178 210 269 340 392
#
# _framework density 23.598814000000001
#
# number of rings (size 3 to 8) (size 9 to 14) (size 15 to 20)
#    0.000    1.333    6.667    1.500    2.333    2.000 
#    0.000    4.167    0.000    0.000    0.000    0.000 
#    0.000    0.000    0.000    0.000    0.000    0.000 
#
# Total GULP energy -148771.964141 kJ/mol
# GULP energy per Si atom -12397.663678 kJ/mol
# Density = 2.354510 g / cm^3
# Si number density = 23.598814 Si / 1000 Ang^3
#
#
#
# Elastic Constant Matrix: (Units=GPa)
#
#
# Indices 1 2 3 4 5 6 
#
# 1 35.9885 22.2964 2.8623 1.4134 3.9829 14.8164
# 2 22.2964 131.6186 55.7700 -13.6622 -8.0213 14.3603
# 3 2.8623 55.7700 190.8807 -1.5531 9.3460 28.0452
# 4 1.4134 -13.6622 -1.5531 49.0800 -2.1577 2.5398
# 5 3.9829 -8.0213 9.3460 -2.1577 10.4614 -4.0622
# 6 14.8164 14.3603 28.0452 2.5398 -4.0622 39.8999
#
#
#
# Elastic Compliance Matrix: (Units=1/GPa)
#
#
# Indices 1 2 3 4 5 6 
#
# 1 0.051611 -0.013512 0.009291 -0.005806 -0.049408 -0.025493
# 2 -0.013512 0.013655 -0.005882 0.004742 0.024338 0.006414
# 3 0.009291 -0.005882 0.009246 -0.002008 -0.020525 -0.009794
# 4 -0.005806 0.004742 -0.002008 0.022276 0.012918 0.001758
# 5 -0.049408 0.024338 -0.020525 0.012918 0.169781 0.040477
# 6 -0.025493 0.006414 -0.009794 0.001758 0.040477 0.043114
#
#
# Mechanical properties :
#
#
# Convention : Reuss Voigt Hill
#
# Bulk Modulus (GPa) = 18.41449 57.81616 38.11532
# Shear Modulus (GPa) = 14.36823 38.39220 26.38022
#
# Velocity S-wave (km/s) = 2.47017 4.03782 3.34707
# Velocity P-wave (km/s) = 3.99447 6.80378 5.57885
#
# Compressibility (1/GPa) = 0.05430508
#
# Stress axis : x y z
#
# Youngs Moduli (GPa) = 19.37577 73.23351 108.15763
#
# Poissons Ratio (x) = 0.98956 -1.00495
# Poissons Ratio (y) = 0.26181 0.63623
# Poissons Ratio (z) = -0.18003 0.43079
#
# Static dielectric constant tensor:
#      x y z
#    x 3.953010 0.237550 0.246930 
#    y 0.237550 4.793000 0.183670 
#    z 0.246930 0.183670 5.101450 
# 
# 
# High freq. dielectric constant tensor:
#      x y z
#    x 1.912270 -0.007950 0.002080 
#    y -0.007950 1.943960 -0.002570 
#    z 0.002080 -0.002570 1.949150 
# 
# From -- ./inp_files/156431.got.cif
#   From: 2010.06.25/outbox.cif.g09.slc.cpg/sg2_79_cif.got.tgz:156431.got - 2010.06.27 13:26:56.
