data_PCOD8014750
_publ_section_title
;
Structure prediction by ZEFSAII (Michael W. Deem and Ramdas Pophale) SiO2 
 PCOD8014750
Probable space group: P -1
;
_chemical_formula_sum "Si O2"
_cell_formula_units_Z 14
_cell_length_a 15.996563
_cell_length_b 15.467184
_cell_length_c 7.774330
_cell_angle_alpha 119.039349
_cell_angle_beta 78.191619
_cell_angle_gamma 153.066387
_cell_volume 622.672168
_symmetry_space_group_name_H-M "P -1"
_symmetry_group_IT_number 2
_symmetry_cell_setting 'triclinic'
loop_
_space_group_symop_operation_xyz
x,y,z
-x,-y,-z
loop_
_atom_site_type_symbol
_atom_site_label
_atom_site_fract_x
_atom_site_fract_y
_atom_site_fract_z
Si Si1 0.966963 0.240990 0.007520
Si Si2 0.615729 0.516371 0.323767
Si Si3 0.585607 0.351441 0.860056
Si Si4 0.682042 0.237928 0.282740
Si Si5 0.832407 0.213591 0.373253
Si Si6 0.856423 0.906363 0.834769
Si Si7 0.512717 0.759999 0.574522
O O1 0.221160 0.527607 0.104203
O O2 0.903886 0.249671 0.190865
O O3 0.975651 0.137868 0.974569
O O4 0.784261 0.057882 0.756664
O O5 0.825801 0.810063 0.577839
O O6 0.394297 0.346051 0.227786
O O7 0.578377 0.392683 0.366189
O O8 0.667495 0.522059 0.124783
O O9 0.555045 0.366928 0.697583
O O10 0.341961 0.046701 0.716541
O O11 0.715560 0.195065 0.381419
O O12 0.592620 0.244233 0.402627
O O13 0.931291 0.522960 0.365721
O O14 0.500000 0.000000 0.000000
O O15 0.000000 0.000000 0.000000
#
# Coordination Sequence:
#
# PCOD8014750 Si02
#       7
#     2   2   2   2   2   2   2
#     4  11  23  45  65 102 138 171 234 273 325 420
#     4  10  23  43  66 101 138 172 229 278 326 401
#     4  12  24  43  72  97 139 185 214 279 346 390
#     4  11  22  43  73  95 135 180 220 283 337 392
#     4  11  24  44  68  98 138 175 221 282 334 395
#     4  10  21  41  71  96 135 181 219 281 334 388
#     4  11  23  42  69 101 135 178 230 274 335 407
#
# _framework density 22.483741999999999
#
# number of rings (size 3 to 8) (size 9 to 14) (size 15 to 20)
#    0.000    1.143    5.714    0.857    0.000    4.571 
#    0.000   11.429    0.000    0.000    0.000    0.000 
#    0.000    0.000    0.000    0.000    0.000    0.000 
#
# Total GULP energy -173528.387908 kJ/mol
# GULP energy per Si atom -12394.884851 kJ/mol
# Density = 2.243257 g / cm^3
# Si number density = 22.483742 Si / 1000 Ang^3
#
#
#
# Elastic Constant Matrix: (Units=GPa)
#
#
# Indices 1 2 3 4 5 6 
#
# 1 130.5235 16.8928 45.0661 -10.9843 12.5249 10.6699
# 2 16.8928 54.0097 36.2342 -6.2527 5.9121 18.9474
# 3 45.0661 36.2342 127.4915 -9.2643 13.0821 6.5936
# 4 -10.9843 -6.2527 -9.2643 46.0606 4.0124 1.5778
# 5 12.5249 5.9121 13.0821 4.0124 44.3773 11.1019
# 6 10.6699 18.9474 6.5936 1.5778 11.1019 21.4803
#
#
#
# Elastic Compliance Matrix: (Units=1/GPa)
#
#
# Indices 1 2 3 4 5 6 
#
# 1 0.009188 0.000954 -0.003067 0.001928 -0.000963 -0.004108
# 2 0.000954 0.035286 -0.008983 0.003840 0.005302 -0.031864
# 3 -0.003067 -0.008983 0.011449 0.000375 -0.003243 0.007582
# 4 0.001928 0.003840 0.000375 0.023115 -0.001970 -0.005140
# 5 -0.000963 0.005302 -0.003243 -0.001970 0.027563 -0.017304
# 6 -0.004108 -0.031864 0.007582 -0.005140 -0.017304 0.083695
#
#
# Mechanical properties :
#
#
# Convention : Reuss Voigt Hill
#
# Bulk Modulus (GPa) = 29.64758 56.49011 43.06884
# Shear Modulus (GPa) = 22.34830 36.63907 29.49368
#
# Velocity S-wave (km/s) = 3.15616 4.04119 3.62578
# Velocity P-wave (km/s) = 5.14749 6.85232 6.06016
#
# Compressibility (1/GPa) = 0.03372957
#
# Stress axis : x y z
#
# Youngs Moduli (GPa) = 108.84336 28.33995 87.34515
#
# Poissons Ratio (x) = -0.02703 0.26792
# Poissons Ratio (y) = -0.10382 0.78460
# Poissons Ratio (z) = 0.33387 0.25457
#
# Static dielectric constant tensor:
#      x y z
#    x 4.158760 0.333590 0.028040 
#    y 0.333590 3.942750 0.296610 
#    z 0.028040 0.296610 4.545760 
# 
# 
# High freq. dielectric constant tensor:
#      x y z
#    x 1.888610 0.019250 0.004200 
#    y 0.019250 1.852640 0.019630 
#    z 0.004200 0.019630 1.912780 
# 
# From -- ./inp_files/313862.got.cif
#   From: 2010.06.25/outbox.cif.g09.slc.cpg/sg2_157_cif.got.tgz:313862.got - 2010.06.27 13:26:56.
