data_PCOD8014739
_publ_section_title
;
Structure prediction by ZEFSAII (Michael W. Deem and Ramdas Pophale) SiO2 
 PCOD8014739
Probable space group: P -1
;
_chemical_formula_sum "Si O2"
_cell_formula_units_Z 16
_cell_length_a 13.967431
_cell_length_b 14.610727
_cell_length_c 11.658280
_cell_angle_alpha 29.424382
_cell_angle_beta 38.980195
_cell_angle_gamma 55.315334
_cell_volume 688.862618
_symmetry_space_group_name_H-M "P -1"
_symmetry_group_IT_number 2
_symmetry_cell_setting 'triclinic'
loop_
_space_group_symop_operation_xyz
x,y,z
-x,-y,-z
loop_
_atom_site_type_symbol
_atom_site_label
_atom_site_fract_x
_atom_site_fract_y
_atom_site_fract_z
Si Si1 0.810247 0.107852 0.484153
Si Si2 0.069908 0.956423 0.330841
Si Si3 0.201721 0.745640 0.982809
Si Si4 0.670934 0.600433 0.795169
Si Si5 0.400385 0.127833 0.258812
Si Si6 0.760919 0.360907 0.685338
Si Si7 0.957142 0.536300 0.872630
Si Si8 0.857268 0.772823 0.229082
O O1 0.792729 0.064626 0.685169
O O2 0.676738 0.938971 0.721693
O O3 0.812684 0.328741 0.201093
O O4 0.992280 0.112758 0.280696
O O5 0.921355 0.743356 0.681623
O O6 0.152999 0.041479 0.038267
O O7 0.350325 0.944135 0.594796
O O8 0.237883 0.557810 0.098401
O O9 0.177449 0.719011 0.170704
O O10 0.037869 0.761739 0.065482
O O11 0.650222 0.694304 0.833715
O O12 0.792069 0.784678 0.405178
O O13 0.500000 0.500000 0.000000
O O14 0.591312 0.200344 0.979923
O O15 0.734063 0.566650 0.516853
O O16 0.885352 0.401347 0.422218
O O17 0.000000 0.500000 0.000000
#
# Coordination Sequence:
#
# PCOD8014739 Si02
#       8
#     2   2   2   2   2   2   2   2
#     4  10  22  42  66  95 129 168 225 277 330 389
#     4  10  21  41  71  91 123 175 224 279 323 388
#     4  11  24  42  64  99 137 178 225 275 323 403
#     4  11  24  41  67  97 138 180 222 263 338 403
#     4  12  24  42  66  98 137 179 214 276 342 398
#     4  11  22  40  66  94 139 172 214 280 341 386
#     4  10  22  42  70  94 126 175 227 277 328 395
#     4  11  22  43  69  96 134 176 230 275 323 400
#
# _framework density 23.226692
#
# number of rings (size 3 to 8) (size 9 to 14) (size 15 to 20)
#    0.000    1.250    5.000    1.875    1.750    3.500 
#    0.000    3.125    0.000    0.000    0.000    0.000 
#    0.000    0.000    0.000    0.000    0.000    0.000 
#
# Total GULP energy -198256.902347 kJ/mol
# GULP energy per Si atom -12391.056397 kJ/mol
# Density = 2.317383 g / cm^3
# Si number density = 23.226692 Si / 1000 Ang^3
#
#
#
# Elastic Constant Matrix: (Units=GPa)
#
#
# Indices 1 2 3 4 5 6 
#
# 1 117.8283 39.6191 71.6142 -7.8819 11.1007 16.4554
# 2 39.6191 69.0853 19.0036 -2.9458 -2.6303 12.8268
# 3 71.6142 19.0036 124.0724 -7.4863 5.3026 0.6609
# 4 -7.8819 -2.9458 -7.4863 36.0390 7.6004 -3.0462
# 5 11.1007 -2.6303 5.3026 7.6004 39.2983 -6.9464
# 6 16.4554 12.8268 0.6609 -3.0462 -6.9464 20.2340
#
#
#
# Elastic Compliance Matrix: (Units=1/GPa)
#
#
# Indices 1 2 3 4 5 6 
#
# 1 0.019012 -0.005945 -0.009555 0.002076 -0.007279 -0.013568
# 2 -0.005945 0.019057 0.000434 -0.000606 0.001825 -0.006725
# 3 -0.009555 0.000434 0.013433 0.000957 0.002133 0.007933
# 4 0.002076 -0.000606 0.000957 0.029770 -0.006342 0.000969
# 5 -0.007279 0.001825 0.002133 -0.006342 0.031112 0.014419
# 6 -0.013568 -0.006725 0.007933 0.000969 0.014419 0.069556
#
#
# Mechanical properties :
#
#
# Convention : Reuss Voigt Hill
#
# Bulk Modulus (GPa) = 46.79317 63.49555 55.14436
# Shear Modulus (GPa) = 22.81062 31.16419 26.98741
#
# Velocity S-wave (km/s) = 3.13723 3.66695 3.41238
# Velocity P-wave (km/s) = 5.77174 6.73241 6.27050
#
# Compressibility (1/GPa) = 0.02137064
#
# Stress axis : x y z
#
# Youngs Moduli (GPa) = 52.59711 52.47428 74.44490
#
# Poissons Ratio (x) = 0.31193 0.71131
# Poissons Ratio (y) = 0.31266 -0.03228
# Poissons Ratio (z) = 0.50256 -0.02275
#
# Static dielectric constant tensor:
#      x y z
#    x 4.042040 0.201320 0.252150 
#    y 0.201320 4.485230 -0.330050 
#    z 0.252150 -0.330050 4.503810 
# 
# 
# High freq. dielectric constant tensor:
#      x y z
#    x 1.902690 0.023290 0.019850 
#    y 0.023290 1.916230 -0.019060 
#    z 0.019850 -0.019060 1.923170 
# 
# From -- ./inp_files/455364.got.cif
#   From: 2010.06.25/outbox.cif.g09.slc.cpg/sg2_228_cif.got.tgz:455364.got - 2010.06.27 13:26:56.
