data_PCOD8014104
_publ_section_title
;
Structure prediction by ZEFSAII (Michael W. Deem and Ramdas Pophale) SiO2 
 PCOD8014104
Probable space group: P -1
;
_chemical_formula_sum "Si O2"
_cell_formula_units_Z 16
_cell_length_a 17.045587
_cell_length_b 8.233586
_cell_length_c 13.407726
_cell_angle_alpha 88.228797
_cell_angle_beta 146.045057
_cell_angle_gamma 116.222420
_cell_volume 700.121572
_symmetry_space_group_name_H-M "P -1"
_symmetry_group_IT_number 2
_symmetry_cell_setting 'triclinic'
loop_
_space_group_symop_operation_xyz
x,y,z
-x,-y,-z
loop_
_atom_site_type_symbol
_atom_site_label
_atom_site_fract_x
_atom_site_fract_y
_atom_site_fract_z
Si Si1 0.072499 0.803604 0.505253
Si Si2 0.382146 0.269350 0.947815
Si Si3 0.944028 0.671299 0.715907
Si Si4 0.877733 0.838980 0.140830
Si Si5 0.777134 0.083783 0.811946
Si Si6 0.294500 0.650762 0.362849
Si Si7 0.254926 0.302006 0.218003
Si Si8 0.775309 0.403566 0.351636
O O1 0.239920 0.802356 0.674884
O O2 0.013998 0.811035 0.332216
O O3 0.854748 0.558869 0.331706
O O4 0.177024 0.036466 0.675193
O O5 0.307332 0.272126 0.975269
O O6 0.500000 0.500000 0.000000
O O7 0.545133 0.265187 0.142870
O O8 0.726574 0.419076 0.542338
O O9 0.954148 0.593994 0.620792
O O10 0.953303 0.872163 0.705309
O O11 0.132506 0.783613 0.987560
O O12 0.769118 0.692499 0.926060
O O13 0.812897 0.264708 0.770141
O O14 0.529560 0.849717 0.570775
O O15 0.853315 0.966667 0.857667
O O16 0.162748 0.387957 0.172762
O O17 0.500000 0.500000 0.500000
#
# Coordination Sequence:
#
# PCOD8014104 Si02
#       8
#     2   2   2   2   2   2   2   2
#     4  11  24  47  62 102 133 172 224 282 335 400
#     4  12  23  43  70  95 131 179 221 275 336 401
#     4  11  23  39  65  94 124 175 217 271 330 403
#     4  11  23  42  68  97 133 172 229 270 333 400
#     4   9  21  40  60  91 126 169 216 278 324 397
#     4  10  21  41  65  87 132 172 220 273 342 385
#     4   9  21  40  64  95 130 173 217 276 327 401
#     4  11  25  41  70  95 140 171 218 281 339 404
#
# _framework density 22.853175
#
# number of rings (size 3 to 8) (size 9 to 14) (size 15 to 20)
#    0.000    1.500    2.500    1.875    7.000    2.000 
#    2.250    2.500    0.000    0.000    0.000    0.000 
#    0.000    0.000    0.000    0.000    0.000    0.000 
#
# Total GULP energy -198317.781848 kJ/mol
# GULP energy per Si atom -12394.861365 kJ/mol
# Density = 2.280116 g / cm^3
# Si number density = 22.853175 Si / 1000 Ang^3
#
#
#
# Elastic Constant Matrix: (Units=GPa)
#
#
# Indices 1 2 3 4 5 6 
#
# 1 75.3331 43.1968 8.2452 -15.5804 -7.4276 -11.1686
# 2 43.1968 158.2206 27.9600 -8.4188 4.2468 7.7910
# 3 8.2452 27.9600 67.6173 -12.3245 -18.7649 -8.7851
# 4 -15.5804 -8.4188 -12.3245 36.1322 3.4616 -4.8529
# 5 -7.4276 4.2468 -18.7649 3.4616 38.5325 -10.6194
# 6 -11.1686 7.7910 -8.7851 -4.8529 -10.6194 28.2581
#
#
#
# Elastic Compliance Matrix: (Units=1/GPa)
#
#
# Indices 1 2 3 4 5 6 
#
# 1 0.027016 -0.010620 0.012582 0.015329 0.018609 0.027143
# 2 -0.010620 0.011840 -0.010306 -0.006357 -0.012316 -0.016386
# 3 0.012582 -0.010306 0.031278 0.015238 0.025634 0.029788
# 4 0.015329 -0.006357 0.015238 0.039961 0.014319 0.024792
# 5 0.018609 -0.012316 0.025634 0.014319 0.053468 0.041272
# 6 0.027143 -0.016386 0.029788 0.024792 0.041272 0.079662
#
#
# Mechanical properties :
#
#
# Convention : Reuss Voigt Hill
#
# Bulk Modulus (GPa) = 18.71059 51.10834 34.90947
# Shear Modulus (GPa) = 18.00314 35.36916 26.68615
#
# Velocity S-wave (km/s) = 2.80978 3.93831 3.42090
# Velocity P-wave (km/s) = 4.32799 6.56450 5.55987
#
# Compressibility (1/GPa) = 0.05344567
#
# Stress axis : x y z
#
# Youngs Moduli (GPa) = 37.01514 84.45879 31.97120
#
# Poissons Ratio (x) = 0.89691 -0.40225
# Poissons Ratio (y) = 0.39308 0.32951
# Poissons Ratio (z) = -0.46571 0.87047
#
# Static dielectric constant tensor:
#      x y z
#    x 4.197030 -0.256420 -0.039810 
#    y -0.256420 4.669140 0.037180 
#    z -0.039810 0.037180 4.159210 
# 
# 
# High freq. dielectric constant tensor:
#      x y z
#    x 1.889580 -0.004140 0.003600 
#    y -0.004140 1.922270 0.004750 
#    z 0.003600 0.004750 1.908850 
# 
# From -- ./inp_files/462167.got.cif
#   From: 2010.06.25/outbox.cif.g09.slc.cpg/sg2_232_cif.got.tgz:462167.got - 2010.06.27 13:26:56.
