data_PCOD8014409
_publ_section_title
;
Structure prediction by ZEFSAII (Michael W. Deem and Ramdas Pophale) SiO2 
 PCOD8014409
Probable space group: P -1
;
_chemical_formula_sum "Si O2"
_cell_formula_units_Z 14
_cell_length_a 5.221245
_cell_length_b 12.231971
_cell_length_c 10.177485
_cell_angle_alpha 91.537642
_cell_angle_beta 111.773624
_cell_angle_gamma 79.991748
_cell_volume 593.934568
_symmetry_space_group_name_H-M "P -1"
_symmetry_group_IT_number 2
_symmetry_cell_setting 'triclinic'
loop_
_space_group_symop_operation_xyz
x,y,z
-x,-y,-z
loop_
_atom_site_type_symbol
_atom_site_label
_atom_site_fract_x
_atom_site_fract_y
_atom_site_fract_z
Si Si1 0.316578 0.537017 0.839358
Si Si2 0.722315 0.679368 0.796863
Si Si3 0.844310 0.886028 0.380394
Si Si4 0.473021 0.808613 0.502008
Si Si5 0.780465 0.011831 0.126168
Si Si6 0.433868 0.304666 0.742426
Si Si7 0.935639 0.184471 0.987042
O O1 0.464873 0.621616 0.787170
O O2 0.288113 0.431439 0.739879
O O3 0.001875 0.590908 0.818551
O O4 0.500000 0.500000 0.000000
O O5 0.633655 0.753234 0.655967
O O6 0.792532 0.759285 0.931245
O O7 0.653335 0.896076 0.475461
O O8 0.755012 0.996793 0.277794
O O9 0.790452 0.778388 0.280918
O O10 0.166893 0.874451 0.483905
O O11 0.449626 0.712856 0.385516
O O12 0.021194 0.911341 0.118169
O O13 0.860775 0.130534 0.110163
O O14 0.500000 0.000000 0.000000
O O15 0.681582 0.278268 0.895638
#
# Coordination Sequence:
#
# PCOD8014409 Si02
#       7
#     2   2   2   2   2   2   2
#     4  12  27  42  69 100 134 173 219 268 327 385
#     4  12  28  45  65 100 138 169 219 270 325 388
#     4  10  21  41  67  92 132 169 221 266 318 386
#     4  10  23  43  66  92 137 177 211 265 325 386
#     4  11  21  39  69 101 122 170 225 270 327 391
#     4  10  23  41  70  91 135 175 219 265 323 380
#     4  11  24  41  68  98 133 167 219 278 328 381
#
# _framework density 23.571619999999999
#
# number of rings (size 3 to 8) (size 9 to 14) (size 15 to 20)
#    0.857    0.286    4.286    1.286    8.000    1.143 
#    0.000    1.429    0.000    0.000    0.000    0.000 
#    0.000    0.000    0.000    0.000    0.000    0.000 
#
# Total GULP energy -173593.210753 kJ/mol
# GULP energy per Si atom -12399.515054 kJ/mol
# Density = 2.351797 g / cm^3
# Si number density = 23.571620 Si / 1000 Ang^3
#
#
#
# Elastic Constant Matrix: (Units=GPa)
#
#
# Indices 1 2 3 4 5 6 
#
# 1 84.7693 4.1342 11.7561 -6.0503 1.5663 7.7929
# 2 4.1342 42.6670 7.3836 3.1293 3.2053 12.1090
# 3 11.7561 7.3836 110.3724 -23.1176 2.9211 1.5007
# 4 -6.0503 3.1293 -23.1176 31.5449 4.3485 3.8151
# 5 1.5663 3.2053 2.9211 4.3485 35.1388 -8.2416
# 6 7.7929 12.1090 1.5007 3.8151 -8.2416 35.7043
#
#
#
# Elastic Compliance Matrix: (Units=1/GPa)
#
#
# Indices 1 2 3 4 5 6 
#
# 1 0.012407 -0.000235 -0.000700 0.002492 -0.001537 -0.003220
# 2 -0.000235 0.027093 -0.002059 -0.002470 -0.004277 -0.009774
# 3 -0.000700 -0.002059 0.011149 0.008640 -0.002013 -0.001006
# 4 0.002492 -0.002470 0.008640 0.040450 -0.007020 -0.006012
# 5 -0.001537 -0.004277 -0.002013 -0.007020 0.032318 0.010080
# 6 -0.003220 -0.009774 -0.001006 -0.006012 0.010080 0.035037
#
#
# Mechanical properties :
#
#
# Convention : Reuss Voigt Hill
#
# Bulk Modulus (GPa) = 22.38957 31.59516 26.99237
# Shear Modulus (GPa) = 27.88204 34.77992 31.33098
#
# Velocity S-wave (km/s) = 3.44301 3.84539 3.64975
# Velocity P-wave (km/s) = 5.03239 5.75752 5.40712
#
# Compressibility (1/GPa) = 0.04466365
#
# Stress axis : x y z
#
# Youngs Moduli (GPa) = 80.59671 36.91048 89.69425
#
# Poissons Ratio (x) = 0.00866 0.06274
# Poissons Ratio (y) = 0.01890 0.18465
# Poissons Ratio (z) = 0.05638 0.07599
#
# Static dielectric constant tensor:
#      x y z
#    x 4.315700 0.055860 -0.083410 
#    y 0.055860 4.358130 -0.062440 
#    z -0.083410 -0.062440 4.066290 
# 
# 
# High freq. dielectric constant tensor:
#      x y z
#    x 1.935170 0.004190 0.001420 
#    y 0.004190 1.928170 -0.004840 
#    z 0.001420 -0.004840 1.933130 
# 
# From -- ./inp_files/364380.got.cif
#   From: 2010.06.25/outbox.cif.g09.slc.cpg/sg2_183_cif.got.tgz:364380.got - 2010.06.27 13:26:56.
