data_PCOD8014935
_publ_section_title
;
Structure prediction by ZEFSAII (Michael W. Deem and Ramdas Pophale) SiO2 
 PCOD8014935
Probable space group: P -1
;
_chemical_formula_sum "Si O2"
_cell_formula_units_Z 14
_cell_length_a 11.403963
_cell_length_b 13.222825
_cell_length_c 19.343058
_cell_angle_alpha 24.394592
_cell_angle_beta 133.342335
_cell_angle_gamma 145.913935
_cell_volume 645.449723
_symmetry_space_group_name_H-M "P -1"
_symmetry_group_IT_number 2
_symmetry_cell_setting 'triclinic'
loop_
_space_group_symop_operation_xyz
x,y,z
-x,-y,-z
loop_
_atom_site_type_symbol
_atom_site_label
_atom_site_fract_x
_atom_site_fract_y
_atom_site_fract_z
Si Si1 0.688258 0.777191 0.012087
Si Si2 0.669407 0.305496 0.645449
Si Si3 0.944595 0.052830 0.538880
Si Si4 0.535567 0.764204 0.637071
Si Si5 0.130985 0.383683 0.611891
Si Si6 0.062917 0.217493 0.003984
Si Si7 0.819358 0.129998 0.301022
O O1 0.488142 0.449221 0.176051
O O2 0.732936 0.643814 0.048328
O O3 0.870933 0.007748 0.000622
O O4 0.637082 0.982110 0.828494
O O5 0.832066 0.553857 0.618164
O O6 0.796860 0.551660 0.478415
O O7 0.423669 0.147628 0.655839
O O8 0.812032 0.962842 0.471476
O O9 0.013352 0.834729 0.706429
O O10 0.784212 0.970061 0.586825
O O11 0.355707 0.555064 0.635547
O O12 0.500000 0.000000 0.500000
O O13 0.000000 0.500000 0.500000
O O14 0.968514 0.001142 0.808725
O O15 0.100289 0.515686 0.869722
#
# Coordination Sequence:
#
# PCOD8014935 Si02
#       7
#     2   2   2   2   2   2   2
#     4  10  22  38  68  96 130 166 218 268 326 384
#     4  12  23  42  67  99 127 170 221 271 320 385
#     4  11  24  45  65  96 134 171 219 268 327 384
#     4  11  23  41  67  96 132 173 211 272 334 378
#     4  11  22  38  64 102 132 164 217 271 325 384
#     4  10  21  42  63  97 133 172 209 272 328 381
#     4  11  24  43  69  93 129 180 218 264 324 395
#
# _framework density 21.690304000000001
#
# number of rings (size 3 to 8) (size 9 to 14) (size 15 to 20)
#    0.000    1.143    4.286    2.143    2.000    2.857 
#    0.000    7.143    0.000    0.000    0.000    0.000 
#    0.000    0.000    0.000    0.000    0.000    0.000 
#
# Total GULP energy -173448.849593 kJ/mol
# GULP energy per Si atom -12389.203542 kJ/mol
# Density = 2.164094 g / cm^3
# Si number density = 21.690304 Si / 1000 Ang^3
#
#
#
# Elastic Constant Matrix: (Units=GPa)
#
#
# Indices 1 2 3 4 5 6 
#
# 1 138.4355 36.1041 62.7465 -9.1513 19.3693 27.1965
# 2 36.1041 70.7660 33.4871 -6.6597 4.0498 19.3279
# 3 62.7465 33.4871 126.1603 1.2000 7.8495 14.2367
# 4 -9.1513 -6.6597 1.2000 27.1121 -7.1046 2.3264
# 5 19.3693 4.0498 7.8495 -7.1046 39.5207 1.1125
# 6 27.1965 19.3279 14.2367 2.3264 1.1125 31.4170
#
#
#
# Elastic Compliance Matrix: (Units=1/GPa)
#
#
# Indices 1 2 3 4 5 6 
#
# 1 0.011868 -0.001313 -0.004489 0.003495 -0.003949 -0.007550
# 2 -0.001313 0.019632 -0.003546 0.005533 0.000606 -0.009765
# 3 -0.004489 -0.003546 0.010993 -0.003039 -0.000203 0.001319
# 4 0.003495 0.005533 -0.003039 0.041870 0.006086 -0.008368
# 5 -0.003949 0.000606 -0.000203 0.006086 0.028264 0.001687
# 6 -0.007550 -0.009765 0.001319 -0.008368 0.001687 0.044336
#
#
# Mechanical properties :
#
#
# Convention : Reuss Voigt Hill
#
# Bulk Modulus (GPa) = 42.02486 66.67080 54.34783
# Shear Modulus (GPa) = 27.23418 33.14490 30.18954
#
# Velocity S-wave (km/s) = 3.54728 3.91333 3.73479
# Velocity P-wave (km/s) = 6.01619 7.15704 6.61127
#
# Compressibility (1/GPa) = 0.02379544
#
# Stress axis : x y z
#
# Youngs Moduli (GPa) = 84.26136 50.93633 90.96438
#
# Poissons Ratio (x) = 0.06690 0.40838
# Poissons Ratio (y) = 0.11067 0.32258
# Poissons Ratio (z) = 0.37829 0.18063
#
# Static dielectric constant tensor:
#      x y z
#    x 3.944720 0.091690 0.000900 
#    y 0.091690 4.018710 0.105930 
#    z 0.000900 0.105930 3.998270 
# 
# 
# High freq. dielectric constant tensor:
#      x y z
#    x 1.842660 0.004670 0.005420 
#    y 0.004670 1.867290 0.003920 
#    z 0.005420 0.003920 1.848240 
# 
# From -- ./inp_files/175884.got.cif
#   From: 2010.06.25/outbox.cif.g09.slc.cpg/sg2_88_cif.got.tgz:175884.got - 2010.06.27 13:26:56.
