data_PCOD8014769
_publ_section_title
;
Structure prediction by ZEFSAII (Michael W. Deem and Ramdas Pophale) SiO2 
 PCOD8014769
Probable space group: P -1
;
_chemical_formula_sum "Si O2"
_cell_formula_units_Z 16
_cell_length_a 10.847893
_cell_length_b 12.922002
_cell_length_c 9.028650
_cell_angle_alpha 98.155688
_cell_angle_beta 140.230688
_cell_angle_gamma 64.071268
_cell_volume 685.362473
_symmetry_space_group_name_H-M "P -1"
_symmetry_group_IT_number 2
_symmetry_cell_setting 'triclinic'
loop_
_space_group_symop_operation_xyz
x,y,z
-x,-y,-z
loop_
_atom_site_type_symbol
_atom_site_label
_atom_site_fract_x
_atom_site_fract_y
_atom_site_fract_z
Si Si1 0.941228 0.110194 0.252163
Si Si2 0.822268 0.494207 0.140721
Si Si3 0.005238 0.646864 0.427645
Si Si4 0.523822 0.879983 0.431963
Si Si5 0.190565 0.849651 0.317186
Si Si6 0.655243 0.273098 0.274061
Si Si7 0.969042 0.269020 0.064826
Si Si8 0.636898 0.896861 0.224707
O O1 0.176359 0.076920 0.535784
O O2 0.742616 0.170148 0.204261
O O3 0.980378 0.983266 0.195817
O O4 0.882221 0.208983 0.090835
O O5 0.898241 0.402315 0.329967
O O6 0.992681 0.545345 0.296417
O O7 0.573736 0.607453 0.960760
O O8 0.832949 0.416666 0.990251
O O9 0.165170 0.687420 0.511640
O O10 0.751540 0.763995 0.226962
O O11 0.333682 0.858365 0.317201
O O12 0.486375 0.895655 0.222670
O O13 0.500000 0.000000 0.500000
O O14 0.771942 0.770294 0.681962
O O15 0.361183 0.786510 0.600033
O O16 0.082141 0.769234 0.149091
O O17 0.500000 0.000000 0.000000
#
# Coordination Sequence:
#
# PCOD8014769 Si02
#       8
#     2   2   2   2   2   2   2   2
#     4  10  22  46  65 105 138 175 233 287 346 415
#     4  11  23  45  74  98 135 186 238 281 347 401
#     4  10  23  45  69 103 133 176 234 293 338 399
#     4  11  23  44  66  98 143 182 222 273 351 425
#     4  12  26  44  68 103 144 184 220 284 364 401
#     4  11  25  44  71 104 137 177 237 292 336 412
#     4  11  24  46  68  99 137 181 231 280 342 426
#     4  10  21  41  72 105 134 173 229 289 343 402
#
# _framework density 23.345310000000001
#
# number of rings (size 3 to 8) (size 9 to 14) (size 15 to 20)
#    0.000    1.250    6.250    1.125    1.750    5.500 
#    0.000    1.250    0.000    0.000    0.000    0.000 
#    0.000    0.000    0.000    0.000    0.000    0.000 
#
# Total GULP energy -198401.059094 kJ/mol
# GULP energy per Si atom -12400.066193 kJ/mol
# Density = 2.329218 g / cm^3
# Si number density = 23.345310 Si / 1000 Ang^3
#
#
#
# Elastic Constant Matrix: (Units=GPa)
#
#
# Indices 1 2 3 4 5 6 
#
# 1 75.5637 35.1105 27.0126 -12.9529 -0.4285 -13.7257
# 2 35.1105 175.4379 47.5299 12.9762 2.9370 -19.3563
# 3 27.0126 47.5299 77.7126 -14.5010 -13.4283 -15.7901
# 4 -12.9529 12.9762 -14.5010 50.6786 0.2084 0.4093
# 5 -0.4285 2.9370 -13.4283 0.2084 22.7252 -5.0762
# 6 -13.7257 -19.3563 -15.7901 0.4093 -5.0762 25.5008
#
#
#
# Elastic Compliance Matrix: (Units=1/GPa)
#
#
# Indices 1 2 3 4 5 6 
#
# 1 0.017007 -0.002445 -0.002332 0.004256 0.000536 0.005892
# 2 -0.002445 0.008143 -0.005504 -0.004274 -0.004156 0.000698
# 3 -0.002332 -0.005504 0.024149 0.007546 0.017757 0.012934
# 4 0.004256 -0.004274 0.007546 0.024013 0.005877 0.004504
# 5 0.000536 -0.004156 0.017757 0.005877 0.059427 0.019864
# 6 0.005892 0.000698 0.012934 0.004504 0.019864 0.054806
#
#
# Mechanical properties :
#
#
# Convention : Reuss Voigt Hill
#
# Bulk Modulus (GPa) = 34.79958 60.89113 47.84535
# Shear Modulus (GPa) = 22.96876 34.38500 28.67688
#
# Velocity S-wave (km/s) = 3.14007 3.84198 3.50863
# Velocity P-wave (km/s) = 5.29958 6.76909 6.07890
#
# Compressibility (1/GPa) = 0.02873598
#
# Stress axis : x y z
#
# Youngs Moduli (GPa) = 58.80087 122.79959 41.40911
#
# Poissons Ratio (x) = 0.30030 0.09656
# Poissons Ratio (y) = 0.14380 0.22793
# Poissons Ratio (z) = 0.13711 0.67592
#
# Static dielectric constant tensor:
#      x y z
#    x 4.570610 -0.261290 0.209660 
#    y -0.261290 4.509910 0.099590 
#    z 0.209660 0.099590 4.265770 
# 
# 
# High freq. dielectric constant tensor:
#      x y z
#    x 1.904280 0.000330 0.004660 
#    y 0.000330 1.935480 0.008830 
#    z 0.004660 0.008830 1.925230 
# 
# From -- ./inp_files/270559.got.cif
#   From: 2010.06.25/outbox.cif.g09.slc.cpg/sg2_136_cif.got.tgz:270559.got - 2010.06.27 13:26:56.
