data_PCOD8014912
_publ_section_title
;
Structure prediction by ZEFSAII (Michael W. Deem and Ramdas Pophale) SiO2 
 PCOD8014912
Probable space group: P -1
;
_chemical_formula_sum "Si O2"
_cell_formula_units_Z 16
_cell_length_a 10.273272
_cell_length_b 12.419565
_cell_length_c 18.055422
_cell_angle_alpha 37.170040
_cell_angle_beta 34.717914
_cell_angle_gamma 59.329364
_cell_volume 719.022086
_symmetry_space_group_name_H-M "P -1"
_symmetry_group_IT_number 2
_symmetry_cell_setting 'triclinic'
loop_
_space_group_symop_operation_xyz
x,y,z
-x,-y,-z
loop_
_atom_site_type_symbol
_atom_site_label
_atom_site_fract_x
_atom_site_fract_y
_atom_site_fract_z
Si Si1 0.884849 0.596262 0.275447
Si Si2 0.461031 0.820090 0.850124
Si Si3 0.462521 0.218829 0.620839
Si Si4 0.238123 0.981103 0.164465
Si Si5 0.983049 0.558675 0.559678
Si Si6 0.757942 0.936908 0.347980
Si Si7 0.595370 0.648869 0.017001
Si Si8 0.426279 0.745234 0.746111
O O1 0.721845 0.411968 0.400999
O O2 0.761115 0.752588 0.246423
O O3 0.881149 0.532840 0.397751
O O4 0.161142 0.688237 0.061369
O O5 0.567756 0.820314 0.717786
O O6 0.502352 0.037347 0.737851
O O7 0.612524 0.736668 0.878532
O O8 0.395894 0.178271 0.587801
O O9 0.124119 0.793375 0.374382
O O10 0.268213 0.174684 0.087723
O O11 0.044440 0.957549 0.200384
O O12 0.500000 0.000000 0.000000
O O13 0.000000 0.500000 0.500000
O O14 0.694223 0.479076 0.759143
O O15 0.632115 0.812280 0.548269
O O16 0.767775 0.155427 0.229288
O O17 0.721224 0.493702 0.049891
#
# Coordination Sequence:
#
# PCOD8014912 Si02
#       8
#     2   2   2   2   2   2   2   2
#     4  10  22  38  64  95 128 174 215 261 335 386
#     4  10  22  42  63  94 128 171 219 267 317 388
#     4  10  21  42  63  92 132 171 217 270 324 384
#     4  12  24  40  65 104 125 167 218 267 335 386
#     4  11  21  40  62  95 136 165 209 274 321 381
#     4  10  23  44  69  92 133 173 214 274 324 379
#     4  11  23  40  68  93 131 171 215 266 325 385
#     4  10  22  46  65  91 133 176 218 267 318 382
#
# _framework density 22.252447
#
# number of rings (size 3 to 8) (size 9 to 14) (size 15 to 20)
#    0.000    1.500    2.500    2.250    1.750    0.500 
#   20.250    0.625    0.000    0.000    0.000    0.000 
#    0.000    0.000    0.000    0.000    0.000    0.000 
#
# Total GULP energy -198388.995104 kJ/mol
# GULP energy per Si atom -12399.312194 kJ/mol
# Density = 2.220180 g / cm^3
# Si number density = 22.252447 Si / 1000 Ang^3
#
#
#
# Elastic Constant Matrix: (Units=GPa)
#
#
# Indices 1 2 3 4 5 6 
#
# 1 97.1557 40.3331 39.9922 -4.7250 13.0004 7.3880
# 2 40.3331 98.5822 42.2336 -29.9534 5.8401 5.8971
# 3 39.9922 42.2336 86.9425 -25.1497 10.5739 4.1954
# 4 -4.7250 -29.9534 -25.1497 47.0368 -4.2933 5.7947
# 5 13.0004 5.8401 10.5739 -4.2933 39.2051 -6.4878
# 6 7.3880 5.8971 4.1954 5.7947 -6.4878 34.9271
#
#
#
# Elastic Compliance Matrix: (Units=1/GPa)
#
#
# Indices 1 2 3 4 5 6 
#
# 1 0.014875 -0.004915 -0.005274 -0.004584 -0.003542 -0.001580
# 2 -0.004915 0.016195 -0.003071 0.008553 0.000545 -0.002644
# 3 -0.005274 -0.003071 0.017843 0.007114 -0.002173 -0.002093
# 4 -0.004584 0.008553 0.007114 0.030890 0.000662 -0.006331
# 5 -0.003542 0.000545 -0.002173 0.000662 0.028261 0.006058
# 6 -0.001580 -0.002644 -0.002093 -0.006331 0.006058 0.031839
#
#
# Mechanical properties :
#
#
# Convention : Reuss Voigt Hill
#
# Bulk Modulus (GPa) = 44.65551 58.64423 51.64987
# Shear Modulus (GPa) = 28.75437 34.90858 31.83147
#
# Velocity S-wave (km/s) = 3.59860 3.96504 3.78626
# Velocity P-wave (km/s) = 6.11374 6.88283 6.50965
#
# Compressibility (1/GPa) = 0.02239365
#
# Stress axis : x y z
#
# Youngs Moduli (GPa) = 67.22606 61.74830 56.04544
#
# Poissons Ratio (x) = 0.30349 0.29557
# Poissons Ratio (y) = 0.33042 0.17210
# Poissons Ratio (z) = 0.35454 0.18961
#
# Static dielectric constant tensor:
#      x y z
#    x 4.129800 -0.127100 0.271930 
#    y -0.127100 4.105140 -0.315650 
#    z 0.271930 -0.315650 4.057930 
# 
# 
# High freq. dielectric constant tensor:
#      x y z
#    x 1.877470 -0.004170 0.016010 
#    y -0.004170 1.883120 -0.019720 
#    z 0.016010 -0.019720 1.868660 
# 
# From -- ./inp_files/569127.got.cif
#   From: 2010.06.25/outbox.cif.g09.slc.cpg/sg2_285_cif.got.tgz:569127.got - 2010.06.27 13:26:56.
