data_PCOD8014184
_publ_section_title
;
Structure prediction by ZEFSAII (Michael W. Deem and Ramdas Pophale) SiO2 
 PCOD8014184
Probable space group: P -1
;
_chemical_formula_sum "Si O2"
_cell_formula_units_Z 16
_cell_length_a 12.301984
_cell_length_b 8.883594
_cell_length_c 17.740358
_cell_angle_alpha 103.103109
_cell_angle_beta 49.680373
_cell_angle_gamma 141.376634
_cell_volume 747.772682
_symmetry_space_group_name_H-M "P -1"
_symmetry_group_IT_number 2
_symmetry_cell_setting 'triclinic'
loop_
_space_group_symop_operation_xyz
x,y,z
-x,-y,-z
loop_
_atom_site_type_symbol
_atom_site_label
_atom_site_fract_x
_atom_site_fract_y
_atom_site_fract_z
Si Si1 0.373943 0.468972 0.763898
Si Si2 0.586015 0.136146 0.894788
Si Si3 0.190002 0.633115 0.498788
Si Si4 0.910440 0.242485 0.013591
Si Si5 0.777330 0.748311 0.356103
Si Si6 0.841625 0.091868 0.690517
Si Si7 0.531624 0.784111 0.252879
Si Si8 0.967564 0.682417 0.695515
O O1 0.292778 0.407360 0.706234
O O2 0.387599 0.307107 0.764675
O O3 0.668861 0.819934 0.683228
O O4 0.152523 0.348961 0.900963
O O5 0.638605 0.033316 0.808726
O O6 0.849872 0.494911 0.804902
O O7 0.331002 0.002289 0.966268
O O8 0.500000 0.000000 0.000000
O O9 0.475775 0.842590 0.357362
O O10 0.000000 0.500000 0.500000
O O11 0.073482 0.378357 0.566533
O O12 0.210613 0.798448 0.565057
O O13 0.798393 0.104075 0.131296
O O14 0.000000 0.500000 0.000000
O O15 0.500000 0.500000 0.500000
O O16 0.014324 0.871352 0.304287
O O17 0.900132 0.030472 0.313873
O O18 0.275683 0.535875 0.281963
#
# Coordination Sequence:
#
# PCOD8014184 Si02
#       8
#     2   2   2   2   2   2   2   2
#     4  12  25  42  68  97 137 175 217 271 335 390
#     4  10  21  43  69  93 132 180 220 275 336 385
#     4   9  20  38  72  94 121 178 220 259 337 388
#     4  11  23  40  64  99 128 168 232 270 313 399
#     4  12  27  42  66 103 136 173 223 273 332 402
#     4  11  23  45  68  98 134 174 216 277 333 393
#     4  10  21  41  65  94 131 175 214 271 337 386
#     4   9  21  42  64  96 133 171 224 272 327 400
#
# _framework density 21.396875999999999
#
# number of rings (size 3 to 8) (size 9 to 14) (size 15 to 20)
#    0.000    1.500    2.500    2.625    3.500    2.000 
#    2.250    7.500    0.000    0.000    0.000    0.000 
#    0.000    0.000    0.000    0.000    0.000    0.000 
#
# Total GULP energy -198354.802147 kJ/mol
# GULP energy per Si atom -12397.175134 kJ/mol
# Density = 2.134818 g / cm^3
# Si number density = 21.396876 Si / 1000 Ang^3
#
#
#
# Elastic Constant Matrix: (Units=GPa)
#
#
# Indices 1 2 3 4 5 6 
#
# 1 102.4731 40.3550 37.8810 7.0039 6.3373 -12.7332
# 2 40.3550 85.4009 25.0288 -4.3926 10.7261 -2.9828
# 3 37.8810 25.0288 124.6517 13.5489 11.1957 -1.5938
# 4 7.0039 -4.3926 13.5489 22.7535 -3.2788 1.1101
# 5 6.3373 10.7261 11.1957 -3.2788 45.8371 1.9101
# 6 -12.7332 -2.9828 -1.5938 1.1101 1.9101 32.4675
#
#
#
# Elastic Compliance Matrix: (Units=1/GPa)
#
#
# Indices 1 2 3 4 5 6 
#
# 1 0.013911 -0.005829 -0.002492 -0.004232 -0.000460 0.004969
# 2 -0.005829 0.015484 -0.001788 0.005619 -0.001936 -0.001030
# 3 -0.002492 -0.001788 0.009949 -0.005784 -0.002067 -0.000334
# 4 -0.004232 0.005619 -0.005784 0.050588 0.004444 -0.003419
# 5 -0.000460 -0.001936 -0.002067 0.004444 0.023238 -0.001979
# 6 0.004969 -0.001030 -0.000334 -0.003419 -0.001979 0.032871
#
#
# Mechanical properties :
#
#
# Convention : Reuss Voigt Hill
#
# Bulk Modulus (GPa) = 52.28598 57.67281 54.97940
# Shear Modulus (GPa) = 28.96299 34.16236 31.56267
#
# Velocity S-wave (km/s) = 3.68313 4.00009 3.84488
# Velocity P-wave (km/s) = 6.52508 6.95317 6.74252
#
# Compressibility (1/GPa) = 0.01912558
#
# Stress axis : x y z
#
# Youngs Moduli (GPa) = 71.88689 64.58214 100.51636
#
# Poissons Ratio (x) = 0.37647 0.25049
# Poissons Ratio (y) = 0.41905 0.17969
# Poissons Ratio (z) = 0.17914 0.11545
#
# Static dielectric constant tensor:
#      x y z
#    x 4.079540 -0.066170 0.006910 
#    y -0.066170 3.713030 -0.058500 
#    z 0.006910 -0.058500 4.086640 
# 
# 
# High freq. dielectric constant tensor:
#      x y z
#    x 1.854740 -0.012310 0.001970 
#    y -0.012310 1.823880 0.000690 
#    z 0.001970 0.000690 1.852490 
# 
# From -- ./inp_files/190098.got.cif
#   From: 2010.06.25/outbox.cif.g09.slc.cpg/sg2_96_cif.got.tgz:190098.got - 2010.06.27 13:26:56.
