data_PCOD8014762
_publ_section_title
;
Structure prediction by ZEFSAII (Michael W. Deem and Ramdas Pophale) SiO2 
 PCOD8014762
Probable space group: P -1
;
_chemical_formula_sum "Si O2"
_cell_formula_units_Z 14
_cell_length_a 16.013653
_cell_length_b 9.339316
_cell_length_c 14.606817
_cell_angle_alpha 29.625223
_cell_angle_beta 41.205557
_cell_angle_gamma 37.822972
_cell_volume 646.463703
_symmetry_space_group_name_H-M "P -1"
_symmetry_group_IT_number 2
_symmetry_cell_setting 'triclinic'
loop_
_space_group_symop_operation_xyz
x,y,z
-x,-y,-z
loop_
_atom_site_type_symbol
_atom_site_label
_atom_site_fract_x
_atom_site_fract_y
_atom_site_fract_z
Si Si1 0.636506 0.966977 0.460441
Si Si2 0.653334 0.456877 0.876574
Si Si3 0.928939 0.534778 0.906780
Si Si4 0.795505 0.764269 0.071140
Si Si5 0.830448 0.691074 0.700407
Si Si6 0.074158 0.082264 0.805287
Si Si7 0.362375 0.645194 0.591242
O O1 0.673025 0.666502 0.662762
O O2 0.770419 0.922582 0.310099
O O3 0.500000 0.000000 0.500000
O O4 0.599878 0.279412 0.380092
O O5 0.714315 0.546393 0.868817
O O6 0.500000 0.500000 0.000000
O O7 0.741321 0.099968 0.976127
O O8 0.867480 0.708287 0.766041
O O9 0.091462 0.462397 0.822958
O O10 0.857142 0.777593 0.913143
O O11 0.912118 0.198029 0.122238
O O12 0.675555 0.652494 0.212105
O O13 0.967591 0.447782 0.665135
O O14 0.766525 0.045666 0.515233
O O15 0.000000 0.000000 0.000000
O O16 0.500000 0.500000 0.500000
#
# Coordination Sequence:
#
# PCOD8014762 Si02
#       7
#     2   2   2   2   2   2   2
#     4  11  26  45  70 101 136 181 234 279 340 409
#     4  11  25  41  66  97 135 182 225 276 338 408
#     4  10  22  39  68  95 129 170 217 287 332 399
#     4  11  22  41  64  97 133 168 221 274 347 391
#     4  10  23  42  68  93 133 179 233 271 342 400
#     4  10  21  41  72 101 128 176 228 288 327 404
#     4  11  25  44  63  97 141 177 221 284 344 408
#
# _framework density 21.656281
#
# number of rings (size 3 to 8) (size 9 to 14) (size 15 to 20)
#    0.000    1.429    2.857    1.714    4.000    8.571 
#    0.000    2.143    0.000    0.000    0.000    0.000 
#    0.000    0.000    0.000    0.000    0.000    0.000 
#
# Total GULP energy -173441.541575 kJ/mol
# GULP energy per Si atom -12388.681541 kJ/mol
# Density = 2.160699 g / cm^3
# Si number density = 21.656281 Si / 1000 Ang^3
#
#
#
# Elastic Constant Matrix: (Units=GPa)
#
#
# Indices 1 2 3 4 5 6 
#
# 1 137.5506 12.0772 17.1475 20.7403 -9.7028 3.7540
# 2 12.0772 76.6217 12.2152 24.0769 6.5576 -7.6716
# 3 17.1475 12.2152 72.7304 20.5098 -13.1126 -1.0685
# 4 20.7403 24.0769 20.5098 36.7682 -9.3887 -10.5410
# 5 -9.7028 6.5576 -13.1126 -9.3887 33.7787 5.8964
# 6 3.7540 -7.6716 -1.0685 -10.5410 5.8964 32.2532
#
#
#
# Elastic Compliance Matrix: (Units=1/GPa)
#
#
# Indices 1 2 3 4 5 6 
#
# 1 0.008227 -0.000134 -0.000348 -0.004810 0.001411 -0.002831
# 2 -0.000134 0.018031 -0.000730 -0.012855 -0.007653 0.001478
# 3 -0.000348 -0.000730 0.017220 -0.008619 0.004903 -0.003276
# 4 -0.004810 -0.012855 -0.008619 0.048805 0.009333 0.011461
# 5 0.001411 -0.007653 0.004903 0.009333 0.036958 -0.005529
# 6 -0.002831 0.001478 -0.003276 0.011461 -0.005529 0.036334
#
#
# Mechanical properties :
#
#
# Convention : Reuss Voigt Hill
#
# Bulk Modulus (GPa) = 24.35740 41.08696 32.72218
# Shear Modulus (GPa) = 27.52032 36.92421 32.22226
#
# Velocity S-wave (km/s) = 3.56866 4.13366 3.86151
# Velocity P-wave (km/s) = 5.31528 6.46501 5.91813
#
# Compressibility (1/GPa) = 0.04105529
#
# Stress axis : x y z
#
# Youngs Moduli (GPa) = 121.54608 55.45984 58.07115
#
# Poissons Ratio (x) = 0.00744 0.02020
# Poissons Ratio (y) = 0.01630 0.04238
# Poissons Ratio (z) = 0.04228 0.04047
#
# Static dielectric constant tensor:
#      x y z
#    x 4.261300 -0.053440 -0.318310 
#    y -0.053440 4.164880 -0.224870 
#    z -0.318310 -0.224870 3.739330 
# 
# 
# High freq. dielectric constant tensor:
#      x y z
#    x 1.857860 -0.000540 -0.022400 
#    y -0.000540 1.862490 -0.001510 
#    z -0.022400 -0.001510 1.836330 
# 
# From -- ./inp_files/419116.got.cif
#   From: 2010.06.25/outbox.cif.g09.slc.cpg/sg2_210_cif.got.tgz:419116.got - 2010.06.27 13:26:56.
