data_PCOD8014372
_publ_section_title
;
Structure prediction by ZEFSAII (Michael W. Deem and Ramdas Pophale) SiO2 
 PCOD8014372
Probable space group: P -1
;
_chemical_formula_sum "Si O2"
_cell_formula_units_Z 14
_cell_length_a 13.290309
_cell_length_b 9.284901
_cell_length_c 20.043518
_cell_angle_alpha 145.122035
_cell_angle_beta 153.583434
_cell_angle_gamma 41.315330
_cell_volume 627.926178
_symmetry_space_group_name_H-M "P -1"
_symmetry_group_IT_number 2
_symmetry_cell_setting 'triclinic'
loop_
_space_group_symop_operation_xyz
x,y,z
-x,-y,-z
loop_
_atom_site_type_symbol
_atom_site_label
_atom_site_fract_x
_atom_site_fract_y
_atom_site_fract_z
Si Si1 0.345604 0.070513 0.514374
Si Si2 0.940789 0.771604 0.102102
Si Si3 0.612727 0.611525 0.458736
Si Si4 0.271590 0.213074 0.146364
Si Si5 0.140729 0.487883 0.918843
Si Si6 0.040059 0.291024 0.643970
Si Si7 0.447280 0.211540 0.768793
O O1 0.385055 0.332514 0.598488
O O2 0.297195 0.126320 0.584466
O O3 0.575549 0.885387 0.576738
O O4 0.148027 0.932904 0.307204
O O5 0.802609 0.716538 0.066607
O O6 0.795111 0.923037 0.015088
O O7 0.000000 0.500000 0.000000
O O8 0.401643 0.457145 0.296259
O O9 0.846901 0.471178 0.564608
O O10 0.048855 0.298051 0.089087
O O11 0.432690 0.030154 0.216273
O O12 0.042497 0.342919 0.743247
O O13 0.371157 0.605319 0.080156
O O14 0.276485 0.354203 0.773684
O O15 0.000000 0.000000 0.500000
#
# Coordination Sequence:
#
# PCOD8014372 Si02
#       7
#     2   2   2   2   2   2   2
#     4  11  24  43  74 105 130 175 230 285 334 394
#     4  10  21  41  67 102 136 166 218 286 340 387
#     4  11  24  42  72 101 137 169 231 276 342 389
#     4  11  23  43  71 103 134 174 226 288 336 390
#     4  11  24  43  67  98 139 176 229 278 334 398
#     4  12  26  45  67  98 143 184 222 273 337 410
#     4  12  26  43  70  99 139 181 225 273 342 403
#
# _framework density 22.295615000000002
#
# number of rings (size 3 to 8) (size 9 to 14) (size 15 to 20)
#    0.000    0.857    4.286    3.429    8.000    1.714 
#    0.000    0.714    0.000    0.000    0.000    0.000 
#    0.000    0.000    0.000    0.000    0.000    0.000 
#
# Total GULP energy -173547.991732 kJ/mol
# GULP energy per Si atom -12396.285124 kJ/mol
# Density = 2.224487 g / cm^3
# Si number density = 22.295615 Si / 1000 Ang^3
#
#
#
# Elastic Constant Matrix: (Units=GPa)
#
#
# Indices 1 2 3 4 5 6 
#
# 1 124.3621 74.4418 27.9566 -23.5755 6.0838 12.5885
# 2 74.4418 57.8095 58.4791 3.4127 -12.0485 16.1279
# 3 27.9566 58.4791 82.2047 -16.6465 6.8480 4.3761
# 4 -23.5755 3.4127 -16.6465 19.9807 12.6959 2.6173
# 5 6.0838 -12.0485 6.8480 12.6959 52.6183 -5.1070
# 6 12.5885 16.1279 4.3761 2.6173 -5.1070 33.2515
#
#
#
# Elastic Compliance Matrix: (Units=1/GPa)
#
#
# Indices 1 2 3 4 5 6 
#
# 1 0.002429 0.009863 -0.010331 -0.010662 0.005639 -0.002639
# 2 0.009863 -0.008910 0.010433 0.030369 -0.012358 -0.005074
# 3 -0.010331 0.010433 0.004883 -0.013974 0.006347 0.000283
# 4 -0.010662 0.030369 -0.013974 0.019067 0.004466 -0.009669
# 5 0.005639 -0.012358 0.006347 0.004466 0.014089 0.004836
# 6 -0.002639 -0.005074 0.000283 -0.009669 0.004836 0.035001
#
#
# Mechanical properties :
#
#
# Convention : Reuss Voigt Hill
#
# Bulk Modulus (GPa) = 54.54674 65.12572 59.83623
# Shear Modulus (GPa) = 94.80747 28.07000 61.43874
#
# Velocity S-wave (km/s) = 6.52803 3.55208 5.25512
# Velocity P-wave (km/s) = 9.01879 6.78944 7.98233
#
# Compressibility (1/GPa) = 0.01833290
#
# Stress axis : x y z
#
# Youngs Moduli (GPa) = 411.61292 -112.23704 204.81163
#
# Poissons Ratio (x) = 1.10701 2.11593
# Poissons Ratio (y) = -4.05980 -2.13686
# Poissons Ratio (z) = 4.25242 1.17100
#
# Static dielectric constant tensor:
#      x y z
#    x 4.634740 0.399590 -0.266180 
#    y 0.399590 4.095610 -0.288720 
#    z -0.266180 -0.288720 4.271910 
# 
# 
# High freq. dielectric constant tensor:
#      x y z
#    x 1.893890 0.026810 0.001970 
#    y 0.026810 1.863350 -0.007900 
#    z 0.001970 -0.007900 1.883210 
# 
# From -- ./inp_files/567085.got.cif
#   From: 2010.06.25/outbox.cif.g09.slc.cpg/sg2_284_cif.got.tgz:567085.got - 2010.06.27 13:26:56.
