data_PCOD8014690
_publ_section_title
;
Structure prediction by ZEFSAII (Michael W. Deem and Ramdas Pophale) SiO2 
 PCOD8014690
Probable space group: P -1
;
_chemical_formula_sum "Si O2"
_cell_formula_units_Z 14
_cell_length_a 11.966479
_cell_length_b 9.619407
_cell_length_c 8.141665
_cell_angle_alpha 47.850892
_cell_angle_beta 73.827837
_cell_angle_gamma 67.455972
_cell_volume 641.429464
_symmetry_space_group_name_H-M "P -1"
_symmetry_group_IT_number 2
_symmetry_cell_setting 'triclinic'
loop_
_space_group_symop_operation_xyz
x,y,z
-x,-y,-z
loop_
_atom_site_type_symbol
_atom_site_label
_atom_site_fract_x
_atom_site_fract_y
_atom_site_fract_z
Si Si1 0.536810 0.105271 0.058640
Si Si2 0.586640 0.480897 0.324360
Si Si3 0.819953 0.566547 0.296886
Si Si4 0.629700 0.053137 0.552796
Si Si5 0.758208 0.901125 0.290583
Si Si6 0.995778 0.827683 0.425732
Si Si7 0.861713 0.879412 0.784188
O O1 0.491373 0.010341 0.311651
O O2 0.682805 0.060293 0.061189
O O3 0.474215 0.334193 0.909872
O O4 0.500000 0.000000 0.000000
O O5 0.500000 0.500000 0.500000
O O6 0.721928 0.478201 0.319799
O O7 0.596346 0.287646 0.366423
O O8 0.758776 0.692327 0.379779
O O9 0.927472 0.393162 0.463104
O O10 0.872152 0.693376 0.043899
O O11 0.690182 0.938807 0.460094
O O12 0.720912 0.985201 0.723204
O O13 0.896095 0.904344 0.262166
O O14 0.935201 0.820013 0.633347
O O15 0.080722 0.970335 0.264673
#
# Coordination Sequence:
#
# PCOD8014690 Si02
#       7
#     2   2   2   2   2   2   2
#     4  12  22  43  68  92 127 172 220 263 323 384
#     4  12  24  39  71  97 121 171 222 264 314 389
#     4  12  22  42  68  96 126 175 219 255 323 390
#     4  11  22  43  64  97 134 164 216 272 321 375
#     4  11  25  41  64  97 136 169 206 273 326 373
#     4  10  23  42  65  98 132 164 217 268 319 377
#     4  10  21  41  70  95 127 173 214 265 317 385
#
# _framework density 21.826248
#
# number of rings (size 3 to 8) (size 9 to 14) (size 15 to 20)
#    0.000    0.857    5.714    1.286    0.000    1.143 
#    0.000    4.286    0.000    0.000    0.000    0.000 
#    0.000    0.000    0.000    0.000    0.000    0.000 
#
# Total GULP energy -173567.671739 kJ/mol
# GULP energy per Si atom -12397.690839 kJ/mol
# Density = 2.177657 g / cm^3
# Si number density = 21.826248 Si / 1000 Ang^3
#
#
#
# Elastic Constant Matrix: (Units=GPa)
#
#
# Indices 1 2 3 4 5 6 
#
# 1 131.4249 18.6692 55.1882 -18.1272 27.0379 -3.8721
# 2 18.6692 106.0466 40.3277 -19.2284 4.4015 -6.0247
# 3 55.1882 40.3277 91.7753 -18.6364 0.2495 5.0637
# 4 -18.1272 -19.2284 -18.6364 36.4727 -3.9041 4.0890
# 5 27.0379 4.4015 0.2495 -3.9041 46.9098 -4.0614
# 6 -3.8721 -6.0247 5.0637 4.0890 -4.0614 27.0134
#
#
#
# Elastic Compliance Matrix: (Units=1/GPa)
#
#
# Indices 1 2 3 4 5 6 
#
# 1 0.012467 0.001587 -0.007895 0.002002 -0.006929 0.002276
# 2 0.001587 0.012271 -0.005750 0.003802 -0.001438 0.003250
# 3 -0.007895 -0.005750 0.019316 0.004095 0.004814 -0.005931
# 4 0.002002 0.003802 0.004095 0.033105 0.000831 -0.004519
# 5 -0.006929 -0.001438 0.004814 0.000831 0.025621 0.001510
# 6 0.002276 0.003250 -0.005931 -0.004519 0.001510 0.040093
#
#
# Mechanical properties :
#
#
# Convention : Reuss Voigt Hill
#
# Bulk Modulus (GPa) = 50.15229 61.95745 56.05487
# Shear Modulus (GPa) = 28.79629 36.41663 32.60646
#
# Velocity S-wave (km/s) = 3.63622 4.08913 3.86931
# Velocity P-wave (km/s) = 6.37631 7.12341 6.76019
#
# Compressibility (1/GPa) = 0.01993927
#
# Stress axis : x y z
#
# Youngs Moduli (GPa) = 80.20914 81.49549 51.77063
#
# Poissons Ratio (x) = -0.12936 0.40872
# Poissons Ratio (y) = -0.12732 0.29768
# Poissons Ratio (z) = 0.63324 0.46859
#
# Static dielectric constant tensor:
#      x y z
#    x 4.372180 -0.086360 0.185120 
#    y -0.086360 3.954100 -0.133630 
#    z 0.185120 -0.133630 3.985470 
# 
# 
# High freq. dielectric constant tensor:
#      x y z
#    x 1.877440 -0.008770 0.009470 
#    y -0.008770 1.863710 -0.003720 
#    z 0.009470 -0.003720 1.842210 
# 
# From -- ./inp_files/176955.got.cif
#   From: 2010.06.25/outbox.cif.g09.slc.cpg/sg2_89_cif.got.tgz:176955.got - 2010.06.27 13:26:56.
