data_PCOD8014755
_publ_section_title
;
Structure prediction by ZEFSAII (Michael W. Deem and Ramdas Pophale) SiO2 
 PCOD8014755
Probable space group: P -1
;
_chemical_formula_sum "Si O2"
_cell_formula_units_Z 14
_cell_length_a 13.945433
_cell_length_b 7.851077
_cell_length_c 8.694584
_cell_angle_alpha 56.707115
_cell_angle_beta 94.661524
_cell_angle_gamma 59.930486
_cell_volume 599.290433
_symmetry_space_group_name_H-M "P -1"
_symmetry_group_IT_number 2
_symmetry_cell_setting 'triclinic'
loop_
_space_group_symop_operation_xyz
x,y,z
-x,-y,-z
loop_
_atom_site_type_symbol
_atom_site_label
_atom_site_fract_x
_atom_site_fract_y
_atom_site_fract_z
Si Si1 0.665060 0.693033 0.942319
Si Si2 0.089241 0.865278 0.729194
Si Si3 0.900737 0.372011 0.591616
Si Si4 0.220642 0.158049 0.893026
Si Si5 0.764913 0.781007 0.637189
Si Si6 0.416568 0.811743 0.844388
Si Si7 0.885945 0.932257 0.809562
O O1 0.694889 0.702613 0.763962
O O2 0.517208 0.851919 0.871882
O O3 0.760519 0.370958 0.163114
O O4 0.691178 0.854376 0.965116
O O5 0.000000 0.000000 0.500000
O O6 0.053768 0.117192 0.704297
O O7 0.037797 0.736099 0.883071
O O8 0.858185 0.563332 0.345990
O O9 0.873249 0.526865 0.669594
O O10 0.832909 0.241293 0.644298
O O11 0.317197 0.906595 0.920056
O O12 0.129398 0.130662 0.988505
O O13 0.657024 0.036817 0.395182
O O14 0.822245 0.881882 0.696756
O O15 0.500000 0.500000 0.000000
#
# Coordination Sequence:
#
# PCOD8014755 Si02
#       7
#     2   2   2   2   2   2   2
#     4  11  22  43  67  92 137 175 219 270 336 396
#     4  10  21  41  71  97 134 178 212 279 334 396
#     4   9  21  42  67  98 141 168 215 282 332 387
#     4  10  21  43  67  98 126 181 221 273 335 398
#     4  10  23  43  67 101 128 178 224 276 332 396
#     4  11  26  40  65  97 133 172 224 279 331 393
#     4   9  22  42  70  99 130 172 226 268 337 393
#
# _framework density 23.360962000000001
#
# number of rings (size 3 to 8) (size 9 to 14) (size 15 to 20)
#    0.857    1.143    1.429    0.857    6.000    2.857 
#    0.000    3.571    0.000    0.000    0.000    0.000 
#    0.000    0.000    0.000    0.000    0.000    0.000 
#
# Total GULP energy -173446.222857 kJ/mol
# GULP energy per Si atom -12389.015918 kJ/mol
# Density = 2.330779 g / cm^3
# Si number density = 23.360962 Si / 1000 Ang^3
#
#
#
# Elastic Constant Matrix: (Units=GPa)
#
#
# Indices 1 2 3 4 5 6 
#
# 1 83.0755 18.5386 18.2846 3.2753 -21.8257 -13.0946
# 2 18.5386 105.1490 51.2264 -6.2129 -5.9654 7.3994
# 3 18.2846 51.2264 81.9280 11.6589 -16.1677 -1.1725
# 4 3.2753 -6.2129 11.6589 36.9752 -8.3185 -9.8061
# 5 -21.8257 -5.9654 -16.1677 -8.3185 36.5713 -5.8881
# 6 -13.0946 7.3994 -1.1725 -9.8061 -5.8881 31.0480
#
#
#
# Elastic Compliance Matrix: (Units=1/GPa)
#
#
# Indices 1 2 3 4 5 6 
#
# 1 0.017860 -0.003074 0.000116 0.003983 0.013047 0.012002
# 2 -0.003074 0.015466 -0.010366 0.004017 -0.003757 -0.004818
# 3 0.000116 -0.010366 0.020883 -0.006148 0.006635 0.002624
# 4 0.003983 0.004017 -0.006148 0.035293 0.010537 0.013635
# 5 0.013047 -0.003757 0.006635 0.010537 0.042759 0.018086
# 6 0.012002 -0.004818 0.002624 0.013635 0.018086 0.046254
#
#
# Mechanical properties :
#
#
# Convention : Reuss Voigt Hill
#
# Bulk Modulus (GPa) = 36.28391 49.58352 42.93371
# Shear Modulus (GPa) = 23.32633 33.05910 28.19272
#
# Velocity S-wave (km/s) = 3.16336 3.76592 3.47771
# Velocity P-wave (km/s) = 5.37662 6.33881 5.87744
#
# Compressibility (1/GPa) = 0.02756043
#
# Stress axis : x y z
#
# Youngs Moduli (GPa) = 55.99006 64.65981 47.88586
#
# Poissons Ratio (x) = 0.19879 -0.00555
# Poissons Ratio (y) = 0.17214 0.49637
# Poissons Ratio (z) = -0.00649 0.67025
#
# Static dielectric constant tensor:
#      x y z
#    x 4.791640 -0.396640 -0.098490 
#    y -0.396640 4.556380 0.125390 
#    z -0.098490 0.125390 4.250240 
# 
# 
# High freq. dielectric constant tensor:
#      x y z
#    x 1.922710 0.003200 -0.012420 
#    y 0.003200 1.931930 0.013630 
#    z -0.012420 0.013630 1.926920 
# 
# From -- ./inp_files/297898.got.cif
#   From: 2010.06.25/outbox.cif.g09.slc.cpg/sg2_149_cif.got.tgz:297898.got - 2010.06.27 13:26:56.
