data_PCOD8014159
_publ_section_title
;
Structure prediction by ZEFSAII (Michael W. Deem and Ramdas Pophale) SiO2 
 PCOD8014159
Probable space group: P -1
;
_chemical_formula_sum "Si O2"
_cell_formula_units_Z 16
_cell_length_a 14.689240
_cell_length_b 9.114252
_cell_length_c 11.981133
_cell_angle_alpha 36.845959
_cell_angle_beta 59.477946
_cell_angle_gamma 80.171788
_cell_volume 737.303604
_symmetry_space_group_name_H-M "P -1"
_symmetry_group_IT_number 2
_symmetry_cell_setting 'triclinic'
loop_
_space_group_symop_operation_xyz
x,y,z
-x,-y,-z
loop_
_atom_site_type_symbol
_atom_site_label
_atom_site_fract_x
_atom_site_fract_y
_atom_site_fract_z
Si Si1 0.541395 0.311022 0.247724
Si Si2 0.750761 0.774935 0.948386
Si Si3 0.766799 0.218691 0.831220
Si Si4 0.441585 0.689111 0.011191
Si Si5 0.117143 0.812900 0.000010
Si Si6 0.150731 0.395683 0.653709
Si Si7 0.866604 0.408809 0.106000
Si Si8 0.284505 0.881241 0.420275
O O1 0.606336 0.368235 0.051471
O O2 0.500000 0.000000 0.500000
O O3 0.630043 0.493423 0.178036
O O4 0.438976 0.412313 0.235287
O O5 0.741341 0.922760 0.977419
O O6 0.776284 0.971061 0.705978
O O7 0.856171 0.691701 0.946059
O O8 0.849218 0.457746 0.551052
O O9 0.640376 0.219817 0.921252
O O10 0.839337 0.288894 0.857540
O O11 0.574620 0.937886 0.773922
O O12 0.164004 0.718977 0.920316
O O13 0.176261 0.141555 0.766011
O O14 0.975434 0.689633 0.157185
O O15 0.253411 0.591717 0.555597
O O16 0.773039 0.173121 0.388451
O O17 0.000000 0.500000 0.000000
#
# Coordination Sequence:
#
# PCOD8014159 Si02
#       8
#     2   2   2   2   2   2   2   2
#     4  10  21  41  65  92 132 169 217 260 316 380
#     4  10  24  41  64  95 131 169 218 265 319 392
#     4  11  24  43  66  96 135 173 215 264 327 386
#     4  10  23  40  67  98 131 172 214 263 323 390
#     4  11  24  42  66  95 128 170 222 267 324 383
#     4  10  23  43  65  92 129 174 216 272 318 383
#     4  12  24  42  67  93 127 171 217 270 327 377
#     4  10  22  45  65  96 131 166 217 270 317 391
#
# _framework density 21.700693999999999
#
# number of rings (size 3 to 8) (size 9 to 14) (size 15 to 20)
#    0.000    1.500    1.250    2.625    1.750   11.000 
#    0.000    4.375    0.000    0.000    0.000    0.000 
#    0.000    0.000    0.000    0.000    0.000    0.000 
#
# Total GULP energy -198424.292654 kJ/mol
# GULP energy per Si atom -12401.518291 kJ/mol
# Density = 2.165130 g / cm^3
# Si number density = 21.700694 Si / 1000 Ang^3
#
#
#
# Elastic Constant Matrix: (Units=GPa)
#
#
# Indices 1 2 3 4 5 6 
#
# 1 71.5155 37.6796 11.4015 2.2383 9.0392 -8.5667
# 2 37.6796 153.4583 40.3611 1.9818 10.0500 -11.9322
# 3 11.4015 40.3611 82.7784 -6.2783 8.8256 -6.7940
# 4 2.2383 1.9818 -6.2783 33.8920 4.1662 5.8764
# 5 9.0392 10.0500 8.8256 4.1662 29.1156 -1.1522
# 6 -8.5667 -11.9322 -6.7940 5.8764 -1.1522 45.8436
#
#
#
# Elastic Compliance Matrix: (Units=1/GPa)
#
#
# Indices 1 2 3 4 5 6 
#
# 1 0.016671 -0.003673 0.000007 -0.000805 -0.003709 0.002170
# 2 -0.003673 0.008490 -0.003566 -0.001045 -0.000516 0.001116
# 3 0.000007 -0.003566 0.014505 0.003213 -0.003599 0.000720
# 4 -0.000805 -0.001045 0.003213 0.031548 -0.005040 -0.004117
# 5 -0.003709 -0.000516 -0.003599 -0.005040 0.037497 0.000228
# 6 0.002170 0.001116 0.000720 -0.004117 0.000228 0.023150
#
#
# Mechanical properties :
#
#
# Convention : Reuss Voigt Hill
#
# Bulk Modulus (GPa) = 39.68017 54.07074 46.87546
# Shear Modulus (GPa) = 32.31518 36.32425 34.31971
#
# Velocity S-wave (km/s) = 3.86311 4.09574 3.98113
# Velocity P-wave (km/s) = 6.18248 6.88022 6.54066
#
# Compressibility (1/GPa) = 0.02520151
#
# Stress axis : x y z
#
# Youngs Moduli (GPa) = 59.98404 117.78037 68.94224
#
# Poissons Ratio (x) = 0.43263 -0.00050
# Poissons Ratio (y) = 0.22034 0.24588
# Poissons Ratio (z) = -0.00044 0.42006
#
# Static dielectric constant tensor:
#      x y z
#    x 3.933120 0.066380 0.228660 
#    y 0.066380 4.157860 -0.123220 
#    z 0.228660 -0.123220 3.912290 
# 
# 
# High freq. dielectric constant tensor:
#      x y z
#    x 1.856740 0.009790 0.015420 
#    y 0.009790 1.862650 -0.009680 
#    z 0.015420 -0.009680 1.848190 
# 
# From -- ./inp_files/284984.got.cif
#   From: 2010.06.25/outbox.cif.g09.slc.cpg/sg2_143_cif.got.tgz:284984.got - 2010.06.27 13:26:56.
