data_PCOD8014642
_publ_section_title
;
Structure prediction by ZEFSAII (Michael W. Deem and Ramdas Pophale) SiO2 
 PCOD8014642
Probable space group: P -1
;
_chemical_formula_sum "Si O2"
_cell_formula_units_Z 16
_cell_length_a 11.707763
_cell_length_b 13.507723
_cell_length_c 8.361168
_cell_angle_alpha 115.864359
_cell_angle_beta 141.266119
_cell_angle_gamma 66.932364
_cell_volume 741.354760
_symmetry_space_group_name_H-M "P -1"
_symmetry_group_IT_number 2
_symmetry_cell_setting 'triclinic'
loop_
_space_group_symop_operation_xyz
x,y,z
-x,-y,-z
loop_
_atom_site_type_symbol
_atom_site_label
_atom_site_fract_x
_atom_site_fract_y
_atom_site_fract_z
Si Si1 0.092486 0.263915 0.814586
Si Si2 0.833325 0.089169 0.417802
Si Si3 0.055967 0.875392 0.923815
Si Si4 0.601147 0.166903 0.922784
Si Si5 0.750666 0.897962 0.373635
Si Si6 0.917898 0.533445 0.260418
Si Si7 0.405542 0.391207 0.849126
Si Si8 0.110017 0.320409 0.219490
O O1 0.250870 0.182233 0.840570
O O2 0.004301 0.365298 0.679066
O O3 0.916037 0.202088 0.635194
O O4 0.183266 0.304546 0.106370
O O5 0.726062 0.029823 0.400712
O O6 0.693724 0.107032 0.133650
O O7 0.000000 0.000000 0.500000
O O8 0.954001 0.857976 0.632758
O O9 0.985564 0.788636 0.910200
O O10 0.275491 0.859349 0.119584
O O11 0.000000 0.000000 0.000000
O O12 0.398321 0.122961 0.666812
O O13 0.570646 0.298650 0.000186
O O14 0.708270 0.581149 0.093467
O O15 0.000000 0.500000 0.500000
O O16 0.949901 0.422054 0.113286
O O17 0.278525 0.351236 0.537252
O O18 0.500000 0.500000 0.000000
#
# Coordination Sequence:
#
# PCOD8014642 Si02
#       8
#     2   2   2   2   2   2   2   2
#     4  11  21  42  70 101 140 179 228 291 351 411
#     4  10  22  38  69 100 134 181 234 282 346 419
#     4  12  25  44  70 102 142 185 234 284 347 421
#     4  12  23  43  74  99 136 185 241 285 349 416
#     4  11  22  46  66 102 135 187 237 280 350 418
#     4  10  21  41  69  97 132 180 232 281 343 420
#     4  11  24  43  70 102 137 184 238 288 347 422
#     4  11  24  42  68 104 144 181 232 293 349 413
#
# _framework density 21.582108999999999
#
# number of rings (size 3 to 8) (size 9 to 14) (size 15 to 20)
#    0.000    1.000    5.000    3.000    5.250    0.500 
#    0.000    3.125    0.000    0.000    0.000    0.000 
#    0.000    0.000    0.000    0.000    0.000    0.000 
#
# Total GULP energy -198213.644798 kJ/mol
# GULP energy per Si atom -12388.352800 kJ/mol
# Density = 2.153299 g / cm^3
# Si number density = 21.582109 Si / 1000 Ang^3
#
#
#
# Elastic Constant Matrix: (Units=GPa)
#
#
# Indices 1 2 3 4 5 6 
#
# 1 126.1847 68.3671 40.8236 11.0567 10.3798 4.4268
# 2 68.3671 179.5468 29.5975 6.3502 10.9813 19.8517
# 3 40.8236 29.5975 54.1857 7.6304 0.9244 2.3571
# 4 11.0567 6.3502 7.6304 34.4206 7.2583 4.9729
# 5 10.3798 10.9813 0.9244 7.2583 31.5863 0.7210
# 6 4.4268 19.8517 2.3571 4.9729 0.7210 55.8829
#
#
#
# Elastic Compliance Matrix: (Units=1/GPa)
#
#
# Indices 1 2 3 4 5 6 
#
# 1 0.012423 -0.003410 -0.007298 -0.001338 -0.002392 0.000685
# 2 -0.003410 0.007438 -0.001466 0.000711 -0.001532 -0.002354
# 3 -0.007298 -0.001466 0.025203 -0.003652 0.003002 0.000322
# 4 -0.001338 0.000711 -0.003652 0.032034 -0.006999 -0.002753
# 5 -0.002392 -0.001532 0.003002 -0.006999 0.034480 0.000785
# 6 0.000685 -0.002354 0.000322 -0.002753 0.000785 0.018898
#
#
# Mechanical properties :
#
#
# Convention : Reuss Voigt Hill
#
# Bulk Modulus (GPa) = 48.26690 70.83261 59.54976
# Shear Modulus (GPa) = 30.91586 39.11990 35.01788
#
# Velocity S-wave (km/s) = 3.78891 4.26209 4.03245
# Velocity P-wave (km/s) = 6.44624 7.55724 7.02374
#
# Compressibility (1/GPa) = 0.02071813
#
# Stress axis : x y z
#
# Youngs Moduli (GPa) = 80.49480 134.43882 39.67792
#
# Poissons Ratio (x) = 0.45838 0.28956
# Poissons Ratio (y) = 0.27445 0.05816
# Poissons Ratio (z) = 0.58743 0.19706
#
# Static dielectric constant tensor:
#      x y z
#    x 4.831230 0.199620 0.234300 
#    y 0.199620 4.535150 0.012360 
#    z 0.234300 0.012360 3.770040 
# 
# 
# High freq. dielectric constant tensor:
#      x y z
#    x 1.849630 0.017460 0.004510 
#    y 0.017460 1.870970 0.000520 
#    z 0.004510 0.000520 1.812600 
# 
# From -- ./inp_files/274169.got.cif
#   From: 2010.06.25/outbox.cif.g09.slc.cpg/sg2_138_cif.got.tgz:274169.got - 2010.06.27 13:26:56.
