data_PCOD8014580
_publ_section_title
;
Structure prediction by ZEFSAII (Michael W. Deem and Ramdas Pophale) SiO2 
 PCOD8014580
Probable space group: P -1
;
_chemical_formula_sum "Si O2"
_cell_formula_units_Z 16
_cell_length_a 10.766232
_cell_length_b 5.722400
_cell_length_c 12.900081
_cell_angle_alpha 116.853961
_cell_angle_beta 92.789043
_cell_angle_gamma 101.635105
_cell_volume 685.541119
_symmetry_space_group_name_H-M "P -1"
_symmetry_group_IT_number 2
_symmetry_cell_setting 'triclinic'
loop_
_space_group_symop_operation_xyz
x,y,z
-x,-y,-z
loop_
_atom_site_type_symbol
_atom_site_label
_atom_site_fract_x
_atom_site_fract_y
_atom_site_fract_z
Si Si1 0.784405 0.597270 0.755393
Si Si2 0.241663 0.990771 0.429351
Si Si3 0.993078 0.547902 0.889350
Si Si4 0.019481 0.017183 0.297169
Si Si5 0.424531 0.173024 0.279492
Si Si6 0.557371 0.738199 0.129784
Si Si7 0.339717 0.411363 0.682523
Si Si8 0.813677 0.178004 0.202896
O O1 0.772013 0.330592 0.629419
O O2 0.650462 0.680511 0.777151
O O3 0.844798 0.549280 0.859424
O O4 0.883926 0.853711 0.763552
O O5 0.104326 0.065353 0.416335
O O6 0.345954 0.115009 0.370681
O O7 0.291135 0.119998 0.567669
O O8 0.097516 0.804584 0.894552
O O9 0.028144 0.300989 0.783221
O O10 0.000000 0.500000 0.000000
O O11 0.891971 0.129595 0.301220
O O12 0.561103 0.384191 0.348325
O O13 0.447528 0.898898 0.176509
O O14 0.589474 0.615013 0.213527
O O15 0.687216 0.937228 0.129586
O O16 0.500000 0.500000 0.000000
O O17 0.220138 0.537772 0.723009
#
# Coordination Sequence:
#
# PCOD8014580 Si02
#       8
#     2   2   2   2   2   2   2   2
#     4   9  20  39  63 100 131 165 215 271 337 388
#     4  10  21  41  69 100 135 167 221 280 330 392
#     4  10  21  43  66  97 130 169 224 278 328 390
#     4   9  20  42  62  98 132 162 215 268 338 391
#     4  10  22  42  67  96 130 175 225 273 332 387
#     4  11  26  48  63  94 138 180 226 268 326 395
#     4  11  24  43  65  96 134 180 224 270 330 392
#     4  10  23  44  67  94 133 176 221 268 335 397
#
# _framework density 23.339224000000002
#
# number of rings (size 3 to 8) (size 9 to 14) (size 15 to 20)
#    0.000    2.000    0.000    1.875    0.000   10.500 
#   29.250    8.750    0.000    0.000    0.000    0.000 
#    0.000    0.000    0.000    0.000    0.000    0.000 
#
# Total GULP energy -198271.297218 kJ/mol
# GULP energy per Si atom -12391.956076 kJ/mol
# Density = 2.328610 g / cm^3
# Si number density = 23.339224 Si / 1000 Ang^3
#
#
#
# Elastic Constant Matrix: (Units=GPa)
#
#
# Indices 1 2 3 4 5 6 
#
# 1 140.3984 41.4325 54.9145 4.0728 5.5542 -30.3066
# 2 41.4325 80.2994 31.6950 6.2110 5.4771 -15.6794
# 3 54.9145 31.6950 124.4204 8.4036 21.4379 -8.7781
# 4 4.0728 6.2110 8.4036 25.9294 2.5526 -0.5865
# 5 5.5542 5.4771 21.4379 2.5526 23.5803 -1.8643
# 6 -30.3066 -15.6794 -8.7781 -0.5865 -1.8643 61.4239
#
#
#
# Elastic Compliance Matrix: (Units=1/GPa)
#
#
# Indices 1 2 3 4 5 6 
#
# 1 0.010299 -0.003227 -0.003834 0.000279 0.002078 0.003776
# 2 -0.003227 0.015589 -0.002157 -0.002435 -0.000475 0.002041
# 3 -0.003834 -0.002157 0.011939 -0.001855 -0.009331 -0.001037
# 4 0.000279 -0.002435 -0.001855 0.039911 -0.002168 -0.000434
# 5 0.002078 -0.000475 -0.009331 -0.002168 0.050834 0.001093
# 6 0.003776 0.002041 -0.001037 -0.000434 0.001093 0.018545
#
#
# Mechanical properties :
#
#
# Convention : Reuss Voigt Hill
#
# Bulk Modulus (GPa) = 51.56763 66.80024 59.18393
# Shear Modulus (GPa) = 29.06706 36.65844 32.86275
#
# Velocity S-wave (km/s) = 3.53287 3.96748 3.75647
# Velocity P-wave (km/s) = 6.22771 7.04780 6.65041
#
# Compressibility (1/GPa) = 0.01939201
#
# Stress axis : x y z
#
# Youngs Moduli (GPa) = 97.09436 64.14798 83.76026
#
# Poissons Ratio (x) = 0.20699 0.32115
# Poissons Ratio (y) = 0.31330 0.18064
# Poissons Ratio (z) = 0.37227 0.13834
#
# Static dielectric constant tensor:
#      x y z
#    x 4.811350 -0.154140 0.411680 
#    y -0.154140 4.466210 0.100860 
#    z 0.411680 0.100860 4.075680 
# 
# 
# High freq. dielectric constant tensor:
#      x y z
#    x 1.942310 -0.000130 0.013430 
#    y -0.000130 1.944590 0.004560 
#    z 0.013430 0.004560 1.878770 
# 
# From -- ./inp_files/72011.got.cif
#   From: 2010.06.25/outbox.cif.g09.slc.cpg/sg2_37_cif.got.tgz:72011.got - 2010.06.27 13:26:56.
