data_PCOD8014279
_publ_section_title
;
Structure prediction by ZEFSAII (Michael W. Deem and Ramdas Pophale) SiO2 
 PCOD8014279
Probable space group: P -1
;
_chemical_formula_sum "Si O2"
_cell_formula_units_Z 16
_cell_length_a 20.314864
_cell_length_b 19.477505
_cell_length_c 8.643577
_cell_angle_alpha 135.512550
_cell_angle_beta 42.698049
_cell_angle_gamma 160.418788
_cell_volume 773.980192
_symmetry_space_group_name_H-M "P -1"
_symmetry_group_IT_number 2
_symmetry_cell_setting 'triclinic'
loop_
_space_group_symop_operation_xyz
x,y,z
-x,-y,-z
loop_
_atom_site_type_symbol
_atom_site_label
_atom_site_fract_x
_atom_site_fract_y
_atom_site_fract_z
Si Si1 0.616220 0.352332 0.840130
Si Si2 0.717901 0.790200 0.220795
Si Si3 0.595077 0.175124 0.023127
Si Si4 0.551917 0.583438 0.710274
Si Si5 0.877552 0.799051 0.689104
Si Si6 0.363155 0.604032 0.468918
Si Si7 0.375005 0.974444 0.764158
Si Si8 0.929941 0.516397 0.768950
O O1 0.710468 0.428552 0.627247
O O2 0.783528 0.466138 0.859490
O O3 0.416894 0.106846 0.800263
O O4 0.541371 0.393255 0.074656
O O5 0.546993 0.577665 0.258652
O O6 0.591294 0.762574 0.307570
O O7 0.818450 0.804312 0.953521
O O8 0.875758 0.978277 0.374365
O O9 0.820258 0.363594 0.857912
O O10 0.447074 0.060500 0.951060
O O11 0.615610 0.285657 0.277237
O O12 0.500000 0.000000 0.000000
O O13 0.500000 0.500000 0.500000
O O14 0.792243 0.783726 0.661895
O O15 0.801114 0.618595 0.536052
O O16 0.135927 0.750605 0.843218
O O17 0.500000 0.000000 0.500000
O O18 0.000000 0.500000 0.500000
#
# Coordination Sequence:
#
# PCOD8014279 Si02
#       8
#     2   2   2   2   2   2   2   2
#     4  11  23  41  69  96 128 179 216 267 336 392
#     4  10  21  41  66  92 131 173 215 264 330 385
#     4  11  26  44  69  99 129 172 224 278 337 391
#     4  11  23  40  63  93 134 171 215 269 315 391
#     4  10  21  41  66  92 132 170 218 265 324 388
#     4  11  22  42  64  97 133 168 218 275 327 391
#     4  11  23  46  67  93 132 170 216 277 335 394
#     4  11  25  46  69  93 132 174 220 272 339 400
#
# _framework density 20.672364000000002
#
# number of rings (size 3 to 8) (size 9 to 14) (size 15 to 20)
#    0.000    1.250    5.000    1.500    7.000    4.000 
#    0.000    0.000    0.000    0.000    0.000    0.000 
#    0.000    0.000    0.000    0.000    0.000    0.000 
#
# Total GULP energy -198246.773791 kJ/mol
# GULP energy per Si atom -12390.423362 kJ/mol
# Density = 2.062531 g / cm^3
# Si number density = 20.672364 Si / 1000 Ang^3
#
#
#
# Elastic Constant Matrix: (Units=GPa)
#
#
# Indices 1 2 3 4 5 6 
#
# 1 99.0369 35.2036 37.7738 5.4888 3.0307 -5.6520
# 2 35.2036 125.1182 30.9822 10.1203 -21.2776 5.5217
# 3 37.7738 30.9822 117.8450 23.1459 8.3179 -15.0370
# 4 5.4888 10.1203 23.1459 33.2553 1.7162 4.8964
# 5 3.0307 -21.2776 8.3179 1.7162 6.5714 6.9687
# 6 -5.6520 5.5217 -15.0370 4.8964 6.9687 34.2966
#
#
#
# Elastic Compliance Matrix: (Units=1/GPa)
#
#
# Indices 1 2 3 4 5 6 
#
# 1 0.009884 0.004982 -0.008478 0.002539 0.031979 -0.009750
# 2 0.004982 -0.015096 0.014576 -0.005723 -0.100981 0.030978
# 3 -0.008478 0.014576 0.001615 -0.005287 0.067380 -0.015972
# 4 0.002539 -0.005723 -0.005287 0.036424 -0.020358 -0.002042
# 5 0.031979 -0.100981 0.067380 -0.020358 -0.416493 0.138603
# 6 -0.009750 0.030978 -0.015972 -0.002042 0.138603 -0.012311
#
#
# Mechanical properties :
#
#
# Convention : Reuss Voigt Hill
#
# Bulk Modulus (GPa) = 53.86705 61.10213 57.48459
# Shear Modulus (GPa) = -12.13747 30.69403 9.27828
#
# Velocity S-wave (km/s) = -2.42572 3.85747 2.12085
# Velocity P-wave (km/s) = 4.27418 7.03290 5.81938
#
# Compressibility (1/GPa) = 0.01856422
#
# Stress axis : x y z
#
# Youngs Moduli (GPa) = 101.17018 -66.24429 619.02224
#
# Poissons Ratio (x) = 0.33000 5.24801
# Poissons Ratio (y) = -0.50398 -9.02312
# Poissons Ratio (z) = 0.85771 0.96560
#
# Static dielectric constant tensor:
#      x y z
#    x 3.979590 -0.005870 0.122030 
#    y -0.005870 4.359070 0.182160 
#    z 0.122030 0.182160 3.877540 
# 
# 
# High freq. dielectric constant tensor:
#      x y z
#    x 1.810100 0.002960 0.006000 
#    y 0.002960 1.817270 0.015420 
#    z 0.006000 0.015420 1.808150 
# 
# From -- ./inp_files/349719.got.cif
#   From: 2010.06.25/outbox.cif.g09.slc.cpg/sg2_175_cif.got.tgz:349719.got - 2010.06.27 13:26:56.
