data_PCOD8014034
_publ_section_title
;
Structure prediction by ZEFSAII (Michael W. Deem and Ramdas Pophale) SiO2 
 PCOD8014034
Probable space group: P -1
;
_chemical_formula_sum "Si O2"
_cell_formula_units_Z 16
_cell_length_a 6.968265
_cell_length_b 15.668078
_cell_length_c 17.329165
_cell_angle_alpha 146.850197
_cell_angle_beta 135.792567
_cell_angle_gamma 51.094762
_cell_volume 719.448342
_symmetry_space_group_name_H-M "P -1"
_symmetry_group_IT_number 2
_symmetry_cell_setting 'triclinic'
loop_
_space_group_symop_operation_xyz
x,y,z
-x,-y,-z
loop_
_atom_site_type_symbol
_atom_site_label
_atom_site_fract_x
_atom_site_fract_y
_atom_site_fract_z
Si Si1 0.627102 0.629405 0.297909
Si Si2 0.390532 0.885760 0.320223
Si Si3 0.991238 0.372423 0.126475
Si Si4 0.434847 0.323576 0.335355
Si Si5 0.001436 0.860380 0.663213
Si Si6 0.854121 0.897128 0.817114
Si Si7 0.499993 0.844221 0.155647
Si Si8 0.803199 0.593082 0.956885
O O1 0.403857 0.718031 0.241079
O O2 0.763603 0.746829 0.484760
O O3 0.467463 0.504943 0.207989
O O4 0.873732 0.541232 0.252611
O O5 0.592569 0.867435 0.289188
O O6 0.500000 0.000000 0.500000
O O7 0.090146 0.964434 0.264020
O O8 0.288609 0.316052 0.204590
O O9 0.033350 0.379543 0.052945
O O10 0.776567 0.247148 0.989502
O O11 0.500000 0.500000 0.500000
O O12 0.215601 0.269960 0.294578
O O13 0.702148 0.203655 0.330456
O O14 0.039458 0.864390 0.769781
O O15 0.568771 0.988703 0.777245
O O16 0.000000 0.000000 0.000000
O O17 0.730368 0.757274 0.103150
O O18 0.000000 0.500000 0.000000
#
# Coordination Sequence:
#
# PCOD8014034 Si02
#       8
#     2   2   2   2   2   2   2   2
#     4  10  21  41  64  93 132 168 214 270 324 379
#     4   9  19  40  65  87 123 170 212 263 321 374
#     4  11  23  40  65  95 131 170 211 265 324 382
#     4  12  26  43  67  97 131 170 219 265 321 393
#     4  10  24  41  66  94 127 173 215 267 324 382
#     4  11  25  44  64  93 130 173 215 265 320 378
#     4  10  22  43  63  95 130 164 216 266 321 381
#     4  11  24  38  66  99 127 171 215 266 324 388
#
# _framework density 22.239262
#
# number of rings (size 3 to 8) (size 9 to 14) (size 15 to 20)
#    0.000    1.500    2.500    1.500    3.500    6.000 
#    0.000    0.000    0.000   10.500    0.000    0.000 
#    0.000    0.000    0.000    0.000    0.000    0.000 
#
# Total GULP energy -198303.586598 kJ/mol
# GULP energy per Si atom -12393.974162 kJ/mol
# Density = 2.218864 g / cm^3
# Si number density = 22.239262 Si / 1000 Ang^3
#
#
#
# Elastic Constant Matrix: (Units=GPa)
#
#
# Indices 1 2 3 4 5 6 
#
# 1 77.9579 25.9040 25.4298 3.3228 -11.3010 1.7901
# 2 25.9040 101.5417 14.2713 0.1678 -2.4535 2.0696
# 3 25.4298 14.2713 97.8449 -7.2558 -17.1346 11.7164
# 4 3.3228 0.1678 -7.2558 39.6477 1.3452 -4.0368
# 5 -11.3010 -2.4535 -17.1346 1.3452 31.6507 2.8631
# 6 1.7901 2.0696 11.7164 -4.0368 2.8631 39.1397
#
#
#
# Elastic Compliance Matrix: (Units=1/GPa)
#
#
# Indices 1 2 3 4 5 6 
#
# 1 0.015594 -0.003457 -0.003026 -0.001984 0.003756 -0.000104
# 2 -0.003457 0.010825 -0.000805 0.000114 -0.000826 -0.000101
# 3 -0.003026 -0.000805 0.012797 0.001998 0.006052 -0.003887
# 4 -0.001984 0.000114 0.001998 0.026013 -0.000926 0.002237
# 5 0.003756 -0.000826 0.006052 -0.000926 0.036614 -0.004714
# 6 -0.000104 -0.000101 -0.003887 0.002237 -0.004714 0.027299
#
#
# Mechanical properties :
#
#
# Convention : Reuss Voigt Hill
#
# Bulk Modulus (GPa) = 40.58026 45.39497 42.98762
# Shear Modulus (GPa) = 32.90972 36.20358 34.55665
#
# Velocity S-wave (km/s) = 3.85099 4.03912 3.94618
# Velocity P-wave (km/s) = 6.16930 6.49685 6.33519
#
# Compressibility (1/GPa) = 0.02464252
#
# Stress axis : x y z
#
# Youngs Moduli (GPa) = 64.12523 92.37856 78.14097
#
# Poissons Ratio (x) = 0.31934 0.23643
# Poissons Ratio (y) = 0.22167 0.06287
# Poissons Ratio (z) = 0.19403 0.07433
#
# Static dielectric constant tensor:
#      x y z
#    x 4.082760 0.219930 -0.193760 
#    y 0.219930 4.594680 0.109540 
#    z -0.193760 0.109540 4.177060 
# 
# 
# High freq. dielectric constant tensor:
#      x y z
#    x 1.856090 0.004980 -0.011610 
#    y 0.004980 1.893110 0.004740 
#    z -0.011610 0.004740 1.881600 
# 
# From -- ./inp_files/101250.got.cif
#   From: 2010.06.25/outbox.cif.g09.slc.cpg/sg2_51_cif.got.tgz:101250.got - 2010.06.27 13:26:56.
