data_PCOD8014962
_publ_section_title
;
Structure prediction by ZEFSAII (Michael W. Deem and Ramdas Pophale) SiO2 
 PCOD8014962
Probable space group: P -1
;
_chemical_formula_sum "Si O2"
_cell_formula_units_Z 14
_cell_length_a 28.348187
_cell_length_b 16.786850
_cell_length_c 16.157731
_cell_angle_alpha 162.767388
_cell_angle_beta 19.719538
_cell_angle_gamma 161.268335
_cell_volume 674.463861
_symmetry_space_group_name_H-M "P -1"
_symmetry_group_IT_number 2
_symmetry_cell_setting 'triclinic'
loop_
_space_group_symop_operation_xyz
x,y,z
-x,-y,-z
loop_
_atom_site_type_symbol
_atom_site_label
_atom_site_fract_x
_atom_site_fract_y
_atom_site_fract_z
Si Si1 0.323404 0.285874 0.048550
Si Si2 0.181315 0.729030 0.445623
Si Si3 0.095624 0.625428 0.153637
Si Si4 0.206115 0.685205 0.551888
Si Si5 0.323867 0.364293 0.762333
Si Si6 0.605427 0.300979 0.180034
Si Si7 0.019724 0.976674 0.347811
O O1 0.313767 0.983099 0.724311
O O2 0.500000 0.500000 0.000000
O O3 0.275477 0.452514 0.221469
O O4 0.203591 0.194608 0.234089
O O5 0.217036 0.787457 0.541113
O O6 0.000000 0.500000 0.500000
O O7 0.200322 0.030983 0.668129
O O8 0.304951 0.620133 0.099796
O O9 0.978652 0.474728 0.275181
O O10 0.090191 0.919539 0.418668
O O11 0.276136 0.752635 0.010530
O O12 0.042581 0.376913 0.921486
O O13 0.499671 0.393611 0.506491
O O14 0.293501 0.411339 0.762794
O O15 0.500000 0.000000 0.000000
O O16 0.000000 0.000000 0.500000
#
# Coordination Sequence:
#
# PCOD8014962 Si02
#       7
#     2   2   2   2   2   2   2
#     4  10  21  42  64  90 122 164 202 260 329 382
#     4  12  24  42  63  95 132 168 215 266 314 374
#     4  10  23  40  68  88 123 170 207 249 327 377
#     4  10  22  40  64  90 123 165 207 250 313 393
#     4  11  25  40  62  91 134 167 218 260 313 373
#     4  11  24  44  65  92 134 173 215 261 320 383
#     4  10  22  42  64  94 122 157 216 266 313 385
#
# _framework density 20.757227
#
# number of rings (size 3 to 8) (size 9 to 14) (size 15 to 20)
#    0.000    1.429    1.429    3.000    4.000    2.286 
#    7.714    0.000    0.000    0.000    0.000    0.000 
#    0.000    0.000    0.000    0.000    0.000    0.000 
#
# Total GULP energy -173620.762280 kJ/mol
# GULP energy per Si atom -12401.483020 kJ/mol
# Density = 2.070998 g / cm^3
# Si number density = 20.757227 Si / 1000 Ang^3
#
#
#
# Elastic Constant Matrix: (Units=GPa)
#
#
# Indices 1 2 3 4 5 6 
#
# 1 85.7762 42.3214 19.9444 -23.8061 2.6445 -4.2655
# 2 42.3214 70.7495 6.7423 -3.2033 -1.8954 -10.0345
# 3 19.9444 6.7423 91.6156 -10.6356 2.6757 0.5177
# 4 -23.8061 -3.2033 -10.6356 37.2140 -0.9976 -7.9702
# 5 2.6445 -1.8954 2.6757 -0.9976 27.4969 -8.7828
# 6 -4.2655 -10.0345 0.5177 -7.9702 -8.7828 37.8051
#
#
#
# Elastic Compliance Matrix: (Units=1/GPa)
#
#
# Indices 1 2 3 4 5 6 
#
# 1 0.021743 -0.012050 -0.002356 0.012474 -0.001758 0.001509
# 2 -0.012050 0.021814 0.000335 -0.004706 0.003841 0.004326
# 3 -0.002356 0.000335 0.011637 0.001790 -0.000869 -0.000161
# 4 0.012474 -0.004706 0.001790 0.036829 0.002334 0.008441
# 5 -0.001758 0.003841 -0.000869 0.002334 0.040391 0.010709
# 6 0.001509 0.004326 -0.000161 0.008441 0.010709 0.032040
#
#
# Mechanical properties :
#
#
# Convention : Reuss Voigt Hill
#
# Bulk Modulus (GPa) = 36.96441 42.90636 39.93538
# Shear Modulus (GPa) = 24.80005 32.44539 28.62272
#
# Velocity S-wave (km/s) = 3.46029 3.95788 3.71742
# Velocity P-wave (km/s) = 5.81476 6.44995 6.14057
#
# Compressibility (1/GPa) = 0.02705305
#
# Stress axis : x y z
#
# Youngs Moduli (GPa) = 45.99244 45.84196 85.92966
#
# Poissons Ratio (x) = 0.55240 0.20241
# Poissons Ratio (y) = 0.55421 -0.02879
# Poissons Ratio (z) = 0.10834 -0.01536
#
# Static dielectric constant tensor:
#      x y z
#    x 2.897370 0.450540 0.195640 
#    y 0.450540 2.982050 -0.243840 
#    z 0.195640 -0.243840 4.028070 
# 
# 
# High freq. dielectric constant tensor:
#      x y z
#    x 1.795020 -0.012970 -0.004920 
#    y -0.012970 1.815840 0.006620 
#    z -0.004920 0.006620 1.833590 
# 
# From -- ./inp_files/75272.got.cif
#   From: 2010.06.25/outbox.cif.g09.slc.cpg/sg2_38_cif.got.tgz:75272.got - 2010.06.27 13:26:56.
