data_PCOD8014996
_publ_section_title
;
Structure prediction by ZEFSAII (Michael W. Deem and Ramdas Pophale) SiO2 
 PCOD8014996
Probable space group: P -1
;
_chemical_formula_sum "Si O2"
_cell_formula_units_Z 16
_cell_length_a 8.678923
_cell_length_b 12.944115
_cell_length_c 12.647974
_cell_angle_alpha 133.616357
_cell_angle_beta 127.131816
_cell_angle_gamma 51.278122
_cell_volume 764.394739
_symmetry_space_group_name_H-M "P -1"
_symmetry_group_IT_number 2
_symmetry_cell_setting 'triclinic'
loop_
_space_group_symop_operation_xyz
x,y,z
-x,-y,-z
loop_
_atom_site_type_symbol
_atom_site_label
_atom_site_fract_x
_atom_site_fract_y
_atom_site_fract_z
Si Si1 0.030284 0.096982 0.178958
Si Si2 0.952136 0.435659 0.328212
Si Si3 0.823972 0.908854 0.340704
Si Si4 0.864281 0.408335 0.835233
Si Si5 0.546486 0.076931 0.677805
Si Si6 0.261183 0.535469 0.404481
Si Si7 0.495413 0.597908 0.168498
Si Si8 0.901454 0.113719 0.371452
O O1 0.927618 0.066641 0.225352
O O2 0.937231 0.270853 0.223653
O O3 0.270058 0.050316 0.273442
O O4 0.000000 0.000000 0.000000
O O5 0.148254 0.427339 0.331017
O O6 0.000000 0.500000 0.500000
O O7 0.729421 0.549938 0.275384
O O8 0.635310 0.862800 0.268507
O O9 0.994728 0.767082 0.252424
O O10 0.901989 0.964133 0.521910
O O11 0.740485 0.048529 0.317479
O O12 0.757205 0.491274 0.744185
O O13 0.668295 0.428019 0.839840
O O14 0.000000 0.500000 0.000000
O O15 0.599917 0.222946 0.771089
O O16 0.500000 0.000000 0.500000
O O17 0.500000 0.500000 0.500000
O O18 0.144574 0.707302 0.516880
O O19 0.500000 0.500000 0.000000
#
# Coordination Sequence:
#
# PCOD8014996 Si02
#       8
#     2   2   2   2   2   2   2   2
#     4  12  26  43  66 101 145 178 221 286 352 404
#     4  12  24  44  68 100 138 180 228 282 341 410
#     4  10  22  41  69  96 131 172 229 283 326 401
#     4  11  24  42  68  99 132 173 225 284 342 396
#     4  12  24  42  71 102 131 182 238 276 334 414
#     4  11  24  41  66  95 135 178 227 273 335 409
#     4  12  25  45  71 100 136 182 230 281 340 410
#     4  10  21  42  64  95 133 175 220 279 334 397
#
# _framework density 20.931595999999999
#
# number of rings (size 3 to 8) (size 9 to 14) (size 15 to 20)
#    0.000    0.750    2.500    6.000    5.250    1.000 
#    0.000    0.625    0.000    0.000    0.000    0.000 
#    0.000    0.000    0.000    0.000    0.000    0.000 
#
# Total GULP energy -198270.801523 kJ/mol
# GULP energy per Si atom -12391.925095 kJ/mol
# Density = 2.088395 g / cm^3
# Si number density = 20.931596 Si / 1000 Ang^3
#
#
#
# Elastic Constant Matrix: (Units=GPa)
#
#
# Indices 1 2 3 4 5 6 
#
# 1 164.3931 31.2119 44.0897 -14.2184 -10.7171 16.3986
# 2 31.2119 76.4912 25.7577 -2.8052 -3.2549 13.4618
# 3 44.0897 25.7577 144.8823 -6.9237 -13.9065 11.8121
# 4 -14.2184 -2.8052 -6.9237 36.4084 2.3538 5.3496
# 5 -10.7171 -3.2549 -13.9065 2.3538 37.6839 -6.0211
# 6 16.3986 13.4618 11.8121 5.3496 -6.0211 43.5989
#
#
#
# Elastic Compliance Matrix: (Units=1/GPa)
#
#
# Indices 1 2 3 4 5 6 
#
# 1 0.007351 -0.002015 -0.001509 0.002656 0.000884 -0.001938
# 2 -0.002015 0.015132 -0.001809 0.000595 -0.000542 -0.003572
# 3 -0.001509 -0.001809 0.007998 0.000773 0.002184 -0.000834
# 4 0.002656 0.000595 0.000773 0.029569 -0.001592 -0.005240
# 5 0.000884 -0.000542 0.002184 -0.001592 0.028179 0.003330
# 6 -0.001938 -0.003572 -0.000834 -0.005240 0.003330 0.026097
#
#
# Mechanical properties :
#
#
# Convention : Reuss Voigt Hill
#
# Bulk Modulus (GPa) = 50.47018 65.32059 57.89538
# Shear Modulus (GPa) = 37.99459 42.51871 40.25665
#
# Velocity S-wave (km/s) = 4.26511 4.51190 4.39024
# Velocity P-wave (km/s) = 6.95839 7.64313 7.30879
#
# Compressibility (1/GPa) = 0.01981368
#
# Stress axis : x y z
#
# Youngs Moduli (GPa) = 136.03680 66.08325 125.03698
#
# Poissons Ratio (x) = 0.13318 0.18867
# Poissons Ratio (y) = 0.27417 0.22624
# Poissons Ratio (z) = 0.20527 0.11957
#
# Static dielectric constant tensor:
#      x y z
#    x 3.949920 0.286550 -0.115560 
#    y 0.286550 4.146720 -0.039720 
#    z -0.115560 -0.039720 3.779650 
# 
# 
# High freq. dielectric constant tensor:
#      x y z
#    x 1.834650 0.014620 -0.008110 
#    y 0.014620 1.821710 0.000490 
#    z -0.008110 0.000490 1.822360 
# 
# From -- ./inp_files/393176.got.cif
#   From: 2010.06.25/outbox.cif.g09.slc.cpg/sg2_197_cif.got.tgz:393176.got - 2010.06.27 13:26:56.
