data_PCOD8014136
_publ_section_title
;
Structure prediction by ZEFSAII (Michael W. Deem and Ramdas Pophale) SiO2 
 PCOD8014136
Probable space group: P -1
;
_chemical_formula_sum "Si O2"
_cell_formula_units_Z 14
_cell_length_a 22.417007
_cell_length_b 9.076568
_cell_length_c 9.558574
_cell_angle_alpha 121.020083
_cell_angle_beta 151.977134
_cell_angle_gamma 48.351556
_cell_volume 668.554899
_symmetry_space_group_name_H-M "P -1"
_symmetry_group_IT_number 2
_symmetry_cell_setting 'triclinic'
loop_
_space_group_symop_operation_xyz
x,y,z
-x,-y,-z
loop_
_atom_site_type_symbol
_atom_site_label
_atom_site_fract_x
_atom_site_fract_y
_atom_site_fract_z
Si Si1 0.578380 0.622046 0.681448
Si Si2 0.817129 0.211780 0.592963
Si Si3 0.839456 0.647274 0.305438
Si Si4 0.868494 0.871345 0.726175
Si Si5 0.399083 0.354033 0.579717
Si Si6 0.306480 0.045399 0.313887
Si Si7 0.734442 0.037080 0.111601
O O1 0.500000 0.500000 0.500000
O O2 0.625233 0.579345 0.597781
O O3 0.466304 0.857823 0.595801
O O4 0.733695 0.551642 0.051215
O O5 0.678003 0.437153 0.392692
O O6 0.846158 0.092762 0.446505
O O7 0.785688 0.088925 0.586006
O O8 0.957839 0.220160 0.937470
O O9 0.853337 0.712086 0.522224
O O10 0.000000 0.500000 0.500000
O O11 0.755776 0.832638 0.116464
O O12 0.802551 0.889984 0.750889
O O13 0.317378 0.234243 0.384807
O O14 0.571231 0.216463 0.906406
O O15 0.243655 0.980416 0.019165
#
# Coordination Sequence:
#
# PCOD8014136 Si02
#       7
#     2   2   2   2   2   2   2
#     4  11  22  40  67  97 127 170 219 260 314 380
#     4  10  22  42  64  91 128 171 212 260 312 384
#     4  11  22  43  67  91 128 176 209 257 326 387
#     4  10  24  41  63  94 131 166 215 258 317 382
#     4  11  20  41  67  91 128 167 211 265 322 368
#     4  11  22  41  65  93 130 162 211 272 314 376
#     4  10  21  41  65  91 124 168 211 259 323 374
#
# _framework density 20.940688000000002
#
# number of rings (size 3 to 8) (size 9 to 14) (size 15 to 20)
#    0.000    1.429    2.857    3.000    0.000    4.000 
#    7.714    0.000    0.000    0.000    0.000    0.000 
#    0.000    0.000    0.000    0.000    0.000    0.000 
#
# Total GULP energy -173572.284921 kJ/mol
# GULP energy per Si atom -12398.020352 kJ/mol
# Density = 2.089303 g / cm^3
# Si number density = 20.940688 Si / 1000 Ang^3
#
#
#
# Elastic Constant Matrix: (Units=GPa)
#
#
# Indices 1 2 3 4 5 6 
#
# 1 136.3810 54.1867 47.0280 15.5787 -3.1402 -2.1521
# 2 54.1867 119.4116 50.0816 3.9045 5.8268 -2.6353
# 3 47.0280 50.0816 128.5101 19.4203 -0.7525 4.0502
# 4 15.5787 3.9045 19.4203 36.2987 2.3950 2.9962
# 5 -3.1402 5.8268 -0.7525 2.3950 26.4480 4.9732
# 6 -2.1521 -2.6353 4.0502 2.9962 4.9732 26.2245
#
#
#
# Elastic Compliance Matrix: (Units=1/GPa)
#
#
# Indices 1 2 3 4 5 6 
#
# 1 0.009806 -0.003735 -0.001672 -0.003104 0.002100 0.000644
# 2 -0.003735 0.011744 -0.003651 0.002383 -0.003702 0.001867
# 3 -0.001672 -0.003651 0.010566 -0.004493 0.001678 -0.001941
# 4 -0.003104 0.002383 -0.004493 0.031443 -0.003444 -0.002261
# 5 0.002100 -0.003702 0.001678 -0.003444 0.040698 -0.007783
# 6 0.000644 0.001867 -0.001941 -0.002261 -0.007783 0.040407
#
#
# Mechanical properties :
#
#
# Convention : Reuss Voigt Hill
#
# Bulk Modulus (GPa) = 71.42348 76.32171 73.87259
# Shear Modulus (GPa) = 29.86022 33.32799 31.59411
#
# Velocity S-wave (km/s) = 3.78026 3.99374 3.88847
# Velocity P-wave (km/s) = 7.29626 7.60213 7.45076
#
# Compressibility (1/GPa) = 0.01400100
#
# Stress axis : x y z
#
# Youngs Moduli (GPa) = 101.97734 85.14653 94.64378
#
# Poissons Ratio (x) = 0.31806 0.15822
# Poissons Ratio (y) = 0.38093 0.34551
# Poissons Ratio (z) = 0.17047 0.31084
#
# Static dielectric constant tensor:
#      x y z
#    x 3.864770 0.054420 0.000650 
#    y 0.054420 3.886800 0.080050 
#    z 0.000650 0.080050 3.927500 
# 
# 
# High freq. dielectric constant tensor:
#      x y z
#    x 1.801790 -0.006360 -0.008250 
#    y -0.006360 1.827930 0.005240 
#    z -0.008250 0.005240 1.827750 
# 
# From -- ./inp_files/157100.got.cif
#   From: 2010.06.25/outbox.cif.g09.slc.cpg/sg2_79_cif.got.tgz:157100.got - 2010.06.27 13:26:56.
