data_PCOD8014088
_publ_section_title
;
Structure prediction by ZEFSAII (Michael W. Deem and Ramdas Pophale) SiO2 
 PCOD8014088
Probable space group: P -1
;
_chemical_formula_sum "Si O2"
_cell_formula_units_Z 16
_cell_length_a 13.951166
_cell_length_b 12.428012
_cell_length_c 9.805137
_cell_angle_alpha 33.699611
_cell_angle_beta 118.540134
_cell_angle_gamma 101.710107
_cell_volume 759.785917
_symmetry_space_group_name_H-M "P -1"
_symmetry_group_IT_number 2
_symmetry_cell_setting 'triclinic'
loop_
_space_group_symop_operation_xyz
x,y,z
-x,-y,-z
loop_
_atom_site_type_symbol
_atom_site_label
_atom_site_fract_x
_atom_site_fract_y
_atom_site_fract_z
Si Si1 0.569227 0.817212 0.346920
Si Si2 0.817494 0.909034 0.124700
Si Si3 0.226714 0.460093 0.384721
Si Si4 0.618601 0.350439 0.563825
Si Si5 0.186390 0.989020 0.289875
Si Si6 0.610866 0.884234 0.601312
Si Si7 0.033762 0.918341 0.762106
Si Si8 0.632275 0.466881 0.161234
O O1 0.710070 0.693464 0.537408
O O2 0.512057 0.640486 0.501422
O O3 0.565069 0.934930 0.362258
O O4 0.500000 0.000000 0.000000
O O5 0.806419 0.685532 0.376311
O O6 0.900682 0.953648 0.247518
O O7 0.862603 0.903435 0.004629
O O8 0.689582 0.100608 0.846658
O O9 0.327986 0.547432 0.394785
O O10 0.108574 0.667097 0.059064
O O11 0.625098 0.490830 0.292917
O O12 0.281812 0.054056 0.358817
O O13 0.079297 0.051213 0.256330
O O14 0.255191 0.740372 0.583923
O O15 0.500000 0.000000 0.500000
O O16 0.664882 0.636837 0.926130
O O17 0.000000 0.000000 0.500000
O O18 0.500000 0.500000 0.000000
#
# Coordination Sequence:
#
# PCOD8014088 Si02
#       8
#     2   2   2   2   2   2   2   2
#     4  12  25  40  67 101 139 178 218 273 337 400
#     4  10  22  47  69  95 131 167 233 276 328 398
#     4  11  25  42  69  95 135 179 221 275 334 391
#     4  10  21  41  64  99 132 175 216 275 331 399
#     4  11  25  44  70  97 133 179 222 278 336 389
#     4  12  25  42  67 103 135 172 226 271 333 408
#     4  11  28  45  68  98 136 177 227 280 325 398
#     4  11  21  39  67  96 131 172 218 275 330 386
#
# _framework density 21.058562999999999
#
# number of rings (size 3 to 8) (size 9 to 14) (size 15 to 20)
#    0.000    1.000    3.750    2.250    5.250    2.000 
#    0.000    0.000    0.000    0.000    0.000    0.000 
#    0.000    0.000    0.000    0.000    0.000    0.000 
#
# Total GULP energy -198258.397687 kJ/mol
# GULP energy per Si atom -12391.149855 kJ/mol
# Density = 2.101063 g / cm^3
# Si number density = 21.058563 Si / 1000 Ang^3
#
#
#
# Elastic Constant Matrix: (Units=GPa)
#
#
# Indices 1 2 3 4 5 6 
#
# 1 136.9120 48.4315 48.8407 4.6285 0.8224 -24.1284
# 2 48.4315 87.7011 57.6298 17.1576 -18.0904 -13.5764
# 3 48.8407 57.6298 126.0700 6.6665 -12.2441 -19.2490
# 4 4.6285 17.1576 6.6665 40.3108 -1.8738 -1.5555
# 5 0.8224 -18.0904 -12.2441 -1.8738 34.1869 -4.8276
# 6 -24.1284 -13.5764 -19.2490 -1.5555 -4.8276 42.1841
#
#
#
# Elastic Compliance Matrix: (Units=1/GPa)
#
#
# Indices 1 2 3 4 5 6 
#
# 1 0.010134 -0.004914 -0.001527 0.001172 -0.002870 0.003233
# 2 -0.004914 0.022125 -0.006597 -0.007246 0.009364 0.002104
# 3 -0.001527 -0.006597 0.012011 0.001160 0.001289 0.002675
# 4 0.001172 -0.007246 0.001160 0.027459 -0.001991 -0.000348
# 5 -0.002870 0.009364 0.001289 -0.001991 0.035467 0.005946
# 6 0.003233 0.002104 0.002675 -0.000348 0.005946 0.028120
#
#
# Mechanical properties :
#
#
# Convention : Reuss Voigt Hill
#
# Bulk Modulus (GPa) = 54.95584 73.38744 64.17164
# Shear Modulus (GPa) = 29.85826 36.38843 33.12334
#
# Velocity S-wave (km/s) = 3.76954 4.16139 3.97030
# Velocity P-wave (km/s) = 6.71560 7.61672 7.18031
#
# Compressibility (1/GPa) = 0.01819643
#
# Stress axis : x y z
#
# Youngs Moduli (GPa) = 98.67441 45.19679 83.25437
#
# Poissons Ratio (x) = 0.22209 0.12712
# Poissons Ratio (y) = 0.48488 0.54919
# Poissons Ratio (z) = 0.15067 0.29814
#
# Static dielectric constant tensor:
#      x y z
#    x 3.723500 -0.437260 -0.157110 
#    y -0.437260 1.729640 -0.763570 
#    z -0.157110 -0.763570 3.633190 
# 
# 
# High freq. dielectric constant tensor:
#      x y z
#    x 1.831460 -0.002560 -0.006680 
#    y -0.002560 1.829940 -0.001590 
#    z -0.006680 -0.001590 1.828820 
# 
# From -- ./inp_files/304593.got.cif
#   From: 2010.06.25/outbox.cif.g09.slc.cpg/sg2_153_cif.got.tgz:304593.got - 2010.06.27 13:26:56.
