data_PCOD8014774
_publ_section_title
;
Structure prediction by ZEFSAII (Michael W. Deem and Ramdas Pophale) SiO2 
 PCOD8014774
Probable space group: P -1
;
_chemical_formula_sum "Si O2"
_cell_formula_units_Z 14
_cell_length_a 17.324240
_cell_length_b 23.911449
_cell_length_c 9.229578
_cell_angle_alpha 149.242866
_cell_angle_beta 150.105462
_cell_angle_gamma 20.764451
_cell_volume 649.398289
_symmetry_space_group_name_H-M "P -1"
_symmetry_group_IT_number 2
_symmetry_cell_setting 'triclinic'
loop_
_space_group_symop_operation_xyz
x,y,z
-x,-y,-z
loop_
_atom_site_type_symbol
_atom_site_label
_atom_site_fract_x
_atom_site_fract_y
_atom_site_fract_z
Si Si1 0.265728 0.070546 0.739686
Si Si2 0.768027 0.323301 0.031918
Si Si3 0.227565 0.854193 0.135430
Si Si4 0.194368 0.176126 0.551181
Si Si5 0.593013 0.804853 0.295688
Si Si6 0.567145 0.580380 0.862168
Si Si7 0.988650 0.719990 0.937520
O O1 0.159003 0.195593 0.710164
O O2 0.349318 0.905512 0.467589
O O3 0.103661 0.154797 0.804306
O O4 0.500000 0.000000 0.000000
O O5 0.868791 0.274505 0.924727
O O6 0.932085 0.317485 0.379148
O O7 0.500000 0.500000 0.000000
O O8 0.811580 0.178962 0.844584
O O9 0.382169 0.687677 0.928198
O O10 0.000000 0.000000 0.000000
O O11 0.331046 0.207785 0.774927
O O12 0.341782 0.990325 0.332558
O O13 0.786483 0.754871 0.609414
O O14 0.557918 0.692484 0.993945
O O15 0.500000 0.500000 0.500000
O O16 0.822079 0.456547 0.071187
#
# Coordination Sequence:
#
# PCOD8014774 Si02
#       7
#     2   2   2   2   2   2   2
#     4  12  23  43  68 105 133 176 236 285 340 412
#     4  11  23  43  68 100 140 182 226 283 351 407
#     4  12  23  44  70  92 141 188 225 282 344 409
#     4  10  21  41  72  94 137 178 233 281 346 405
#     4  10  21  44  70  97 133 183 228 286 343 408
#     4  12  24  41  67 103 141 180 229 284 350 414
#     4  11  24  41  71 100 141 177 231 284 345 415
#
# _framework density 21.558419000000001
#
# number of rings (size 3 to 8) (size 9 to 14) (size 15 to 20)
#    0.000    0.857    5.714    1.286    0.000    0.571 
#    2.571    0.714    0.000    0.000    0.000    0.000 
#    0.000    0.000    0.000    0.000    0.000    0.000 
#
# Total GULP energy -173458.836007 kJ/mol
# GULP energy per Si atom -12389.916858 kJ/mol
# Density = 2.150935 g / cm^3
# Si number density = 21.558419 Si / 1000 Ang^3
#
#
#
# Elastic Constant Matrix: (Units=GPa)
#
#
# Indices 1 2 3 4 5 6 
#
# 1 182.7190 43.4007 56.2326 8.1134 -0.2240 9.7663
# 2 43.4007 128.9632 39.8292 -10.0793 2.3818 -7.0917
# 3 56.2326 39.8292 111.6208 8.3985 8.7144 -0.4326
# 4 8.1134 -10.0793 8.3985 31.3484 2.5225 6.5315
# 5 -0.2240 2.3818 8.7144 2.5225 40.2318 7.4153
# 6 9.7663 -7.0917 -0.4326 6.5315 7.4153 42.1183
#
#
#
# Elastic Compliance Matrix: (Units=1/GPa)
#
#
# Indices 1 2 3 4 5 6 
#
# 1 0.006920 -0.001658 -0.002902 -0.001240 0.001199 -0.001932
# 2 -0.001658 0.009593 -0.002847 0.004016 -0.000476 0.001431
# 3 -0.002902 -0.002847 0.011890 -0.003419 -0.002444 0.001276
# 4 -0.001240 0.004016 -0.003419 0.035419 -0.000913 -0.004403
# 5 0.001199 -0.000476 -0.002444 -0.000913 0.026378 -0.004886
# 6 -0.001932 0.001431 0.001276 -0.004403 -0.004886 0.025988
#
#
# Mechanical properties :
#
#
# Convention : Reuss Voigt Hill
#
# Bulk Modulus (GPa) = 73.59510 78.02533 75.81021
# Shear Modulus (GPa) = 36.89198 41.66240 39.27719
#
# Velocity S-wave (km/s) = 4.14122 4.40083 4.27300
# Velocity P-wave (km/s) = 7.55499 7.87998 7.71920
#
# Compressibility (1/GPa) = 0.01358786
#
# Stress axis : x y z
#
# Youngs Moduli (GPa) = 144.51609 104.24491 84.10419
#
# Poissons Ratio (x) = 0.17281 0.24409
# Poissons Ratio (y) = 0.23956 0.23947
# Poissons Ratio (z) = 0.41943 0.29682
#
# Static dielectric constant tensor:
#      x y z
#    x 4.735690 0.098390 0.002660 
#    y 0.098390 3.921140 -0.319710 
#    z 0.002660 -0.319710 3.510460 
# 
# 
# High freq. dielectric constant tensor:
#      x y z
#    x 1.875310 0.001640 0.009050 
#    y 0.001640 1.855280 -0.020490 
#    z 0.009050 -0.020490 1.814420 
# 
# From -- ./inp_files/244693.got.cif
#   From: 2010.06.25/outbox.cif.g09.slc.cpg/sg2_123_cif.got.tgz:244693.got - 2010.06.27 13:26:56.
