data_PCOD8014137
_publ_section_title
;
Structure prediction by ZEFSAII (Michael W. Deem and Ramdas Pophale) SiO2 
 PCOD8014137
Probable space group: P -1
;
_chemical_formula_sum "Si O2"
_cell_formula_units_Z 16
_cell_length_a 13.702817
_cell_length_b 8.980622
_cell_length_c 11.195119
_cell_angle_alpha 123.107168
_cell_angle_beta 53.223407
_cell_angle_gamma 133.330797
_cell_volume 780.708155
_symmetry_space_group_name_H-M "P -1"
_symmetry_group_IT_number 2
_symmetry_cell_setting 'triclinic'
loop_
_space_group_symop_operation_xyz
x,y,z
-x,-y,-z
loop_
_atom_site_type_symbol
_atom_site_label
_atom_site_fract_x
_atom_site_fract_y
_atom_site_fract_z
Si Si1 0.983148 0.031613 0.796476
Si Si2 0.282525 0.106971 0.665074
Si Si3 0.244877 0.803820 0.358374
Si Si4 0.005712 0.798449 0.377485
Si Si5 0.815254 0.569373 0.613319
Si Si6 0.494821 0.463950 0.811577
Si Si7 0.494371 0.126700 0.950966
Si Si8 0.722796 0.945632 0.096854
O O1 0.925212 0.800197 0.686650
O O2 0.988339 0.198707 0.769821
O O3 0.881990 0.012174 0.970783
O O4 0.143577 0.124714 0.766018
O O5 0.419584 0.344595 0.688944
O O6 0.266816 0.971880 0.738598
O O7 0.308615 0.006311 0.486705
O O8 0.148430 0.817515 0.333241
O O9 0.156140 0.594109 0.411719
O O10 0.371690 0.794842 0.199742
O O11 0.864509 0.590797 0.446874
O O12 0.000000 0.000000 0.500000
O O13 0.651477 0.498992 0.715366
O O14 0.392732 0.312057 0.928961
O O15 0.506859 0.683026 0.902922
O O16 0.348278 0.977765 0.914874
O O17 0.500000 0.000000 0.000000
#
# Coordination Sequence:
#
# PCOD8014137 Si02
#       8
#     2   2   2   2   2   2   2   2
#     4  11  20  41  66  92 123 174 212 261 311 384
#     4  10  24  38  67  95 131 164 213 258 333 366
#     4  12  22  41  64 101 122 168 218 269 304 380
#     4  10  22  37  64  93 127 166 216 261 314 372
#     4  11  21  38  70  89 125 163 230 254 301 380
#     4  10  23  43  64  97 120 175 208 261 314 381
#     4  12  24  39  69  95 130 163 220 261 314 377
#     4  10  21  41  65  91 124 172 213 253 311 388
#
# _framework density 20.494216000000002
#
# number of rings (size 3 to 8) (size 9 to 14) (size 15 to 20)
#    0.750    0.500    5.000    2.625    1.750    2.000 
#    0.000    3.750    0.000    2.250    0.000    0.000 
#    0.000    0.000    0.000    0.000    0.000    0.000 
#
# Total GULP energy -198271.516116 kJ/mol
# GULP energy per Si atom -12391.969757 kJ/mol
# Density = 2.044757 g / cm^3
# Si number density = 20.494216 Si / 1000 Ang^3
#
#
#
# Elastic Constant Matrix: (Units=GPa)
#
#
# Indices 1 2 3 4 5 6 
#
# 1 126.4070 29.7613 17.1965 16.1279 7.0483 -11.6358
# 2 29.7613 49.3595 8.6344 -5.0663 7.1688 -11.8412
# 3 17.1965 8.6344 57.3377 -1.0562 5.0318 2.1868
# 4 16.1279 -5.0663 -1.0562 17.9899 -6.3684 2.9497
# 5 7.0483 7.1688 5.0318 -6.3684 33.5572 -8.3541
# 6 -11.6358 -11.8412 2.1868 2.9497 -8.3541 25.0211
#
#
#
# Elastic Compliance Matrix: (Units=1/GPa)
#
#
# Indices 1 2 3 4 5 6 
#
# 1 0.012342 -0.007275 -0.002783 -0.014746 -0.002568 0.003421
# 2 -0.007275 0.028446 -0.002242 0.013117 0.000490 0.008893
# 3 -0.002783 -0.002242 0.019089 0.002940 -0.002540 -0.005218
# 4 -0.014746 0.013117 0.002940 0.078315 0.013298 -0.005700
# 5 -0.002568 0.000490 -0.002540 0.013298 0.035517 0.009550
# 6 0.003421 0.008893 -0.005218 -0.005700 0.009550 0.050082
#
#
# Mechanical properties :
#
#
# Convention : Reuss Voigt Hill
#
# Bulk Modulus (GPa) = 28.34682 38.25427 33.30055
# Shear Modulus (GPa) = 19.21968 27.14778 23.18373
#
# Velocity S-wave (km/s) = 3.06569 3.64353 3.36703
# Velocity P-wave (km/s) = 5.13741 6.03381 5.60356
#
# Compressibility (1/GPa) = 0.03527732
#
# Stress axis : x y z
#
# Youngs Moduli (GPa) = 81.02554 35.15377 52.38646
#
# Poissons Ratio (x) = 0.25573 0.14578
# Poissons Ratio (y) = 0.58943 0.11748
# Poissons Ratio (z) = 0.22548 0.07883
#
# Static dielectric constant tensor:
#      x y z
#    x 4.027860 -0.391770 0.353190 
#    y -0.391770 4.120440 -0.860370 
#    z 0.353190 -0.860370 4.357730 
# 
# 
# High freq. dielectric constant tensor:
#      x y z
#    x 1.817340 -0.006750 -0.005630 
#    y -0.006750 1.774540 -0.022600 
#    z -0.005630 -0.022600 1.797800 
# 
# From -- ./inp_files/446299.got.cif
#   From: 2010.06.25/outbox.cif.g09.slc.cpg/sg2_224_cif.got.tgz:446299.got - 2010.06.27 13:26:56.
