data_PCOD8014798
_publ_section_title
;
Structure prediction by ZEFSAII (Michael W. Deem and Ramdas Pophale) SiO2 
 PCOD8014798
Probable space group: P -1
;
_chemical_formula_sum "Si O2"
_cell_formula_units_Z 14
_cell_length_a 8.686398
_cell_length_b 11.858018
_cell_length_c 19.196317
_cell_angle_alpha 39.414419
_cell_angle_beta 30.304821
_cell_angle_gamma 50.158873
_cell_volume 631.344750
_symmetry_space_group_name_H-M "P -1"
_symmetry_group_IT_number 2
_symmetry_cell_setting 'triclinic'
loop_
_space_group_symop_operation_xyz
x,y,z
-x,-y,-z
loop_
_atom_site_type_symbol
_atom_site_label
_atom_site_fract_x
_atom_site_fract_y
_atom_site_fract_z
Si Si1 0.955674 0.848546 0.679931
Si Si2 0.667274 0.514529 0.737767
Si Si3 0.850862 0.230295 0.508514
Si Si4 0.121605 0.696372 0.834973
Si Si5 0.616560 0.816288 0.065616
Si Si6 0.791753 0.821169 0.152673
Si Si7 0.623245 0.352382 0.975021
O O1 0.079830 0.749398 0.610732
O O2 0.092924 0.756129 0.737661
O O3 0.025704 0.061124 0.548137
O O4 0.583053 0.828292 0.838518
O O5 0.485402 0.689614 0.708882
O O6 0.625457 0.358913 0.769463
O O7 0.526716 0.401103 0.911861
O O8 0.009856 0.595564 0.585382
O O9 0.485220 0.212450 0.668622
O O10 0.000000 0.500000 0.000000
O O11 0.947633 0.819818 0.896589
O O12 0.651860 0.822438 0.130819
O O13 0.500000 0.000000 0.000000
O O14 0.016052 0.662557 0.148955
O O15 0.000000 0.000000 0.000000
O O16 0.500000 0.500000 0.000000
#
# Coordination Sequence:
#
# PCOD8014798 Si02
#       7
#     2   2   2   2   2   2   2
#     4  11  22  44  74 105 142 183 236 289 348 414
#     4  11  24  42  69 104 138 180 236 288 346 411
#     4  11  26  44  69 108 147 179 232 302 348 411
#     4  10  21  41  74 101 129 187 237 276 341 423
#     4  11  23  41  69 102 140 185 236 284 344 420
#     4  12  26  45  71  98 137 191 237 282 356 421
#     4  12  22  42  74 101 132 188 237 283 340 427
#
# _framework density 22.174890000000001
#
# number of rings (size 3 to 8) (size 9 to 14) (size 15 to 20)
#    0.000    0.857    5.714    2.571    2.000    1.714 
#    0.000    2.857    0.000    0.000    0.000    0.000 
#    0.000    0.000    0.000    0.000    0.000    0.000 
#
# Total GULP energy -173464.425411 kJ/mol
# GULP energy per Si atom -12390.316101 kJ/mol
# Density = 2.212442 g / cm^3
# Si number density = 22.174890 Si / 1000 Ang^3
#
#
#
# Elastic Constant Matrix: (Units=GPa)
#
#
# Indices 1 2 3 4 5 6 
#
# 1 100.1409 35.1478 52.9339 3.8882 13.9718 1.8430
# 2 35.1478 110.8712 33.0578 4.3535 -8.1846 -11.0813
# 3 52.9339 33.0578 121.8803 10.8664 -3.7300 1.4315
# 4 3.8882 4.3535 10.8664 36.6928 0.1582 -7.1109
# 5 13.9718 -8.1846 -3.7300 0.1582 47.6155 -9.4015
# 6 1.8430 -11.0813 1.4315 -7.1109 -9.4015 46.9042
#
#
#
# Elastic Compliance Matrix: (Units=1/GPa)
#
#
# Indices 1 2 3 4 5 6 
#
# 1 0.015265 -0.003830 -0.005754 0.000075 -0.006090 -0.002538
# 2 -0.003830 0.011256 -0.001333 0.000148 0.003666 0.003608
# 3 -0.005754 -0.001333 0.011380 -0.002687 0.002284 -0.000386
# 4 0.000075 0.000148 -0.002687 0.028916 0.000609 0.004620
# 5 -0.006090 0.003666 0.002284 0.000609 0.024800 0.006099
# 6 -0.002538 0.003608 -0.000386 0.004620 0.006099 0.024207
#
#
# Mechanical properties :
#
#
# Convention : Reuss Voigt Hill
#
# Bulk Modulus (GPa) = 62.24119 63.90794 63.07457
# Shear Modulus (GPa) = 34.96153 40.35934 37.66044
#
# Velocity S-wave (km/s) = 3.97498 4.27083 4.12556
# Velocity P-wave (km/s) = 7.01403 7.29400 7.15539
#
# Compressibility (1/GPa) = 0.01606653
#
# Stress axis : x y z
#
# Youngs Moduli (GPa) = 65.50796 88.83759 87.87712
#
# Poissons Ratio (x) = 0.34023 0.50568
# Poissons Ratio (y) = 0.25088 0.11716
# Poissons Ratio (z) = 0.37696 0.11844
#
# Static dielectric constant tensor:
#      x y z
#    x 3.875460 -1.024310 -2.684260 
#    y -1.024310 3.650890 -2.158970 
#    z -2.684260 -2.158970 -2.301150 
# 
# 
# High freq. dielectric constant tensor:
#      x y z
#    x 1.877030 -0.004710 0.005870 
#    y -0.004710 1.876670 -0.005180 
#    z 0.005870 -0.005180 1.869530 
# 
# From -- ./inp_files/158586.got.cif
#   From: 2010.06.25/outbox.cif.g09.slc.cpg/sg2_80_cif.got.tgz:158586.got - 2010.06.27 13:26:56.
