data_PCOD8014489
_publ_section_title
;
Structure prediction by ZEFSAII (Michael W. Deem and Ramdas Pophale) SiO2 
 PCOD8014489
Probable space group: P -1
;
_chemical_formula_sum "Si O2"
_cell_formula_units_Z 16
_cell_length_a 19.847076
_cell_length_b 16.868632
_cell_length_c 12.045075
_cell_angle_alpha 146.543227
_cell_angle_beta 146.095593
_cell_angle_gamma 19.634273
_cell_volume 725.478615
_symmetry_space_group_name_H-M "P -1"
_symmetry_group_IT_number 2
_symmetry_cell_setting 'triclinic'
loop_
_space_group_symop_operation_xyz
x,y,z
-x,-y,-z
loop_
_atom_site_type_symbol
_atom_site_label
_atom_site_fract_x
_atom_site_fract_y
_atom_site_fract_z
Si Si1 0.703732 0.106793 0.802690
Si Si2 0.007020 0.810843 0.198450
Si Si3 0.267489 0.137570 0.017127
Si Si4 0.832618 0.278595 0.460743
Si Si5 0.449415 0.502216 0.099790
Si Si6 0.312916 0.144873 0.653698
Si Si7 0.056107 0.317729 0.713912
Si Si8 0.137918 0.600416 0.900325
O O1 0.698117 0.256357 0.895694
O O2 0.605717 0.062689 0.555837
O O3 0.576418 0.262267 0.921747
O O4 0.938063 0.840235 0.839143
O O5 0.165549 0.648663 0.330047
O O6 0.979545 0.998296 0.336331
O O7 0.783155 0.966196 0.113478
O O8 0.104245 0.625284 0.015645
O O9 0.103373 0.401003 0.156880
O O10 0.497999 0.965129 0.151788
O O11 0.235758 0.153182 0.860015
O O12 0.600248 0.464332 0.327349
O O13 0.930204 0.289737 0.515633
O O14 0.315772 0.543290 0.052251
O O15 0.153938 0.230385 0.624039
O O16 0.205442 0.371970 0.695920
#
# Coordination Sequence:
#
# PCOD8014489 Si02
#       8
#     2   2   2   2   2   2   2   2
#     4  11  27  46  64  96 129 173 226 272 323 376
#     4  10  21  41  67  99 133 168 206 270 329 385
#     4  10  21  43  64  95 139 170 212 262 328 390
#     4  10  21  41  69  96 132 170 210 266 330 381
#     4  11  25  47  70  93 128 176 220 275 321 387
#     4  12  25  40  69 100 127 178 220 263 324 396
#     4  10  22  40  67  97 136 171 208 271 322 389
#     4  12  25  44  68  95 136 170 219 272 325 386
#
# _framework density 22.054406
#
# number of rings (size 3 to 8) (size 9 to 14) (size 15 to 20)
#    0.000    1.250    2.500    2.625    1.750    4.000 
#    2.250    0.000    0.000    0.000    0.000    0.000 
#    0.000    0.000    0.000    0.000    0.000    0.000 
#
# Total GULP energy -198449.992047 kJ/mol
# GULP energy per Si atom -12403.124503 kJ/mol
# Density = 2.200421 g / cm^3
# Si number density = 22.054406 Si / 1000 Ang^3
#
#
#
# Elastic Constant Matrix: (Units=GPa)
#
#
# Indices 1 2 3 4 5 6 
#
# 1 104.5176 29.0222 30.7824 -19.2091 19.3774 -0.4860
# 2 29.0222 89.1311 28.0216 -17.4678 9.3828 4.3303
# 3 30.7824 28.0216 92.1091 -8.4478 15.1160 1.8401
# 4 -19.2091 -17.4678 -8.4478 30.9421 -1.3361 4.1034
# 5 19.3774 9.3828 15.1160 -1.3361 33.6046 -0.9921
# 6 -0.4860 4.3303 1.8401 4.1034 -0.9921 20.0805
#
#
#
# Elastic Compliance Matrix: (Units=1/GPa)
#
#
# Indices 1 2 3 4 5 6 
#
# 1 0.012912 -0.001605 -0.002291 0.006330 -0.005736 -0.000708
# 2 -0.001605 0.014364 -0.002846 0.006841 -0.001661 -0.004356
# 3 -0.002291 -0.002846 0.013183 0.000531 -0.003821 -0.000947
# 4 0.006330 0.006841 0.000531 0.041396 -0.004450 -0.010050
# 5 -0.005736 -0.001661 -0.003821 -0.004450 0.035166 0.003216
# 6 -0.000708 -0.004356 -0.000947 -0.010050 0.003216 0.053021
#
#
# Mechanical properties :
#
#
# Convention : Reuss Voigt Hill
#
# Bulk Modulus (GPa) = 37.07222 51.26780 44.17001
# Shear Modulus (GPa) = 25.97165 30.12089 28.04627
#
# Velocity S-wave (km/s) = 3.43537 3.69962 3.56994
# Velocity P-wave (km/s) = 5.70803 6.44563 6.08801
#
# Compressibility (1/GPa) = 0.02697438
#
# Stress axis : x y z
#
# Youngs Moduli (GPa) = 77.44902 69.61752 75.85635
#
# Poissons Ratio (x) = 0.11175 0.17376
# Poissons Ratio (y) = 0.12432 0.21591
# Poissons Ratio (z) = 0.17741 0.19816
#
# Static dielectric constant tensor:
#      x y z
#    x 3.948110 0.186250 0.089080 
#    y 0.186250 3.820320 0.025280 
#    z 0.089080 0.025280 4.130090 
# 
# 
# High freq. dielectric constant tensor:
#      x y z
#    x 1.872400 0.015410 0.011430 
#    y 0.015410 1.860110 0.001230 
#    z 0.011430 0.001230 1.875200 
# 
# From -- ./inp_files/84290.got.cif
#   From: 2010.06.25/outbox.cif.g09.slc.cpg/sg2_43_cif.got.tgz:84290.got - 2010.06.27 13:26:56.
