data_PCOD8014777
_publ_section_title
;
Structure prediction by ZEFSAII (Michael W. Deem and Ramdas Pophale) SiO2 
 PCOD8014777
Probable space group: P -1
;
_chemical_formula_sum "Si O2"
_cell_formula_units_Z 16
_cell_length_a 28.665032
_cell_length_b 15.543797
_cell_length_c 9.137599
_cell_angle_alpha 134.081727
_cell_angle_beta 142.805328
_cell_angle_gamma 19.061232
_cell_volume 769.283929
_symmetry_space_group_name_H-M "P -1"
_symmetry_group_IT_number 2
_symmetry_cell_setting 'triclinic'
loop_
_space_group_symop_operation_xyz
x,y,z
-x,-y,-z
loop_
_atom_site_type_symbol
_atom_site_label
_atom_site_fract_x
_atom_site_fract_y
_atom_site_fract_z
Si Si1 0.598755 0.057358 0.824366
Si Si2 0.760195 0.575002 0.674045
Si Si3 0.471495 0.431662 0.457220
Si Si4 0.027616 0.082082 0.575923
Si Si5 0.940624 0.397323 0.205162
Si Si6 0.078811 0.002339 0.270287
Si Si7 0.296687 0.049335 0.714264
Si Si8 0.360561 0.772723 0.063133
O O1 0.398680 0.300769 0.564553
O O2 0.707606 0.783998 0.758507
O O3 0.675447 0.052020 0.902788
O O4 0.629118 0.070054 0.076743
O O5 0.860153 0.398942 0.567515
O O6 0.885833 0.397878 0.923441
O O7 0.500000 0.500000 0.500000
O O8 0.277680 0.721314 0.378522
O O9 0.530560 0.225655 0.278278
O O10 0.593922 0.259924 0.698615
O O11 0.000000 0.000000 0.500000
O O12 0.054896 0.017934 0.399593
O O13 0.194027 0.923622 0.856088
O O14 0.774779 0.715549 0.207067
O O15 0.129866 0.199492 0.427632
O O16 0.967455 0.273201 0.262784
O O17 0.000000 0.000000 0.000000
O O18 0.500000 0.500000 0.000000
#
# Coordination Sequence:
#
# PCOD8014777 Si02
#       8
#     2   2   2   2   2   2   2   2
#     4  10  23  44  69  98 134 171 224 273 329 395
#     4  10  23  43  69  98 134 176 214 276 334 392
#     4  12  25  42  67 100 130 174 220 271 332 393
#     4  12  26  43  67  95 131 178 220 273 334 388
#     4  10  21  43  68  99 132 170 220 270 331 392
#     4  12  27  42  64  99 137 170 218 273 325 403
#     4  10  21  41  72  97 129 174 217 273 327 396
#     4  12  24  42  66  95 130 172 222 275 321 395
#
# _framework density 20.798562
#
# number of rings (size 3 to 8) (size 9 to 14) (size 15 to 20)
#    0.000    1.000    2.500    3.750    5.250    1.500 
#    0.000    0.625    0.000    0.000    0.000    0.000 
#    0.000    0.000    0.000    0.000    0.000    0.000 
#
# Total GULP energy -198224.809830 kJ/mol
# GULP energy per Si atom -12389.050614 kJ/mol
# Density = 2.075122 g / cm^3
# Si number density = 20.798562 Si / 1000 Ang^3
#
#
#
# Elastic Constant Matrix: (Units=GPa)
#
#
# Indices 1 2 3 4 5 6 
#
# 1 164.8866 71.0842 64.1871 1.6528 -7.8295 0.1779
# 2 71.0842 119.5199 37.4832 15.1516 -11.9498 -14.4811
# 3 64.1871 37.4832 138.9844 -6.2205 -11.4668 -1.5605
# 4 1.6528 15.1516 -6.2205 25.3945 -1.6190 -5.5613
# 5 -7.8295 -11.9498 -11.4668 -1.6190 41.6059 4.3778
# 6 0.1779 -14.4811 -1.5605 -5.5613 4.3778 34.1681
#
#
#
# Elastic Compliance Matrix: (Units=1/GPa)
#
#
# Indices 1 2 3 4 5 6 
#
# 1 0.009388 -0.005094 -0.002950 0.001228 -0.000239 -0.002112
# 2 -0.005094 0.013408 -0.001379 -0.006954 0.001791 0.004285
# 3 -0.002950 -0.001379 0.009226 0.003425 0.001704 0.000191
# 4 0.001228 -0.006954 0.003425 0.045306 0.000465 0.004517
# 5 -0.000239 0.001791 0.001704 0.000465 0.025236 -0.002319
# 6 -0.002112 0.004285 0.000191 0.004517 -0.002319 0.032135
#
#
# Mechanical properties :
#
#
# Convention : Reuss Voigt Hill
#
# Bulk Modulus (GPa) = 75.89717 85.43334 80.66525
# Shear Modulus (GPa) = 31.65809 36.94279 34.30044
#
# Velocity S-wave (km/s) = 3.90568 4.21909 4.06541
# Velocity P-wave (km/s) = 7.54386 8.05606 7.80416
#
# Compressibility (1/GPa) = 0.01317572
#
# Stress axis : x y z
#
# Youngs Moduli (GPa) = 106.52166 74.57958 108.39317
#
# Poissons Ratio (x) = 0.37987 0.31980
# Poissons Ratio (y) = 0.54257 0.14950
# Poissons Ratio (z) = 0.31428 0.10286
#
# Static dielectric constant tensor:
#      x y z
#    x 3.931530 -0.001670 -0.033810 
#    y -0.001670 3.795640 0.339190 
#    z -0.033810 0.339190 3.935070 
# 
# 
# High freq. dielectric constant tensor:
#      x y z
#    x 1.806720 0.005670 -0.007100 
#    y 0.005670 1.829550 0.005610 
#    z -0.007100 0.005610 1.834860 
# 
# From -- ./inp_files/182369.got.cif
#   From: 2010.06.25/outbox.cif.g09.slc.cpg/sg2_92_cif.got.tgz:182369.got - 2010.06.27 13:26:56.
