data_PCOD8014233
_publ_section_title
;
Structure prediction by ZEFSAII (Michael W. Deem and Ramdas Pophale) SiO2 
 PCOD8014233
Probable space group: P -1
;
_chemical_formula_sum "Si O2"
_cell_formula_units_Z 12
_cell_length_a 11.702430
_cell_length_b 13.916346
_cell_length_c 10.202832
_cell_angle_alpha 76.739906
_cell_angle_beta 74.277082
_cell_angle_gamma 20.666109
_cell_volume 563.035619
_symmetry_space_group_name_H-M "P -1"
_symmetry_group_IT_number 2
_symmetry_cell_setting 'triclinic'
loop_
_space_group_symop_operation_xyz
x,y,z
-x,-y,-z
loop_
_atom_site_type_symbol
_atom_site_label
_atom_site_fract_x
_atom_site_fract_y
_atom_site_fract_z
Si Si1 0.790215 0.975582 0.342857
Si Si2 0.637976 0.861730 0.638556
Si Si3 0.742770 0.520432 0.477249
Si Si4 0.757200 0.246342 0.907931
Si Si5 0.394107 0.998828 0.133992
Si Si6 0.352851 0.414197 0.803738
O O1 0.994781 0.760116 0.458285
O O2 0.045240 0.826938 0.213299
O O3 0.538007 0.106645 0.290204
O O4 0.557269 0.234319 0.407249
O O5 0.540750 0.013555 0.735196
O O6 0.038988 0.548871 0.599391
O O7 0.500000 0.000000 0.500000
O O8 0.589179 0.604191 0.361442
O O9 0.595630 0.294051 0.846003
O O10 0.500000 0.500000 0.000000
O O11 0.000000 0.000000 0.000000
O O12 0.013523 0.272327 0.140635
O O13 0.591332 0.744570 0.131285
O O14 0.500000 0.000000 0.000000
#
# Coordination Sequence:
#
# PCOD8014233 Si02
#       6
#     2   2   2   2   2   2
#     4  11  23  40  67  97 130 175 217 267 331 395
#     4   9  20  38  65  97 133 163 215 277 327 390
#     4  10  21  41  66 101 128 164 219 277 339 379
#     4  12  28  46  65  94 136 182 225 269 319 395
#     4  11  24  41  66  99 130 180 219 270 340 394
#     4  11  24  44  67  92 138 167 220 282 320 394
#
# _framework density 21.313039
#
# number of rings (size 3 to 8) (size 9 to 14) (size 15 to 20)
#    0.000    1.333    0.000    6.000    4.667    5.333 
#    0.000    0.000    0.000    0.000    0.000    0.000 
#    0.000    0.000    0.000    0.000    0.000    0.000 
#
# Total GULP energy -148758.934250 kJ/mol
# GULP energy per Si atom -12396.577854 kJ/mol
# Density = 2.126453 g / cm^3
# Si number density = 21.313039 Si / 1000 Ang^3
#
#
#
# Elastic Constant Matrix: (Units=GPa)
#
#
# Indices 1 2 3 4 5 6 
#
# 1 103.8763 33.1091 71.0980 -1.2850 13.6898 -21.7203
# 2 33.1091 108.0288 51.1427 -1.1473 15.0547 1.8041
# 3 71.0980 51.1427 123.1856 6.1119 4.2298 -19.8908
# 4 -1.2850 -1.1473 6.1119 44.2241 -3.0106 0.0381
# 5 13.6898 15.0547 4.2298 -3.0106 34.6099 -5.5215
# 6 -21.7203 1.8041 -19.8908 0.0381 -5.5215 37.8513
#
#
#
# Elastic Compliance Matrix: (Units=1/GPa)
#
#
# Indices 1 2 3 4 5 6 
#
# 1 0.017666 -0.000474 -0.009155 0.001436 -0.004796 0.004648
# 2 -0.000474 0.012947 -0.005708 0.000745 -0.005429 -0.004681
# 3 -0.009155 -0.005708 0.016431 -0.002377 0.004579 0.004323
# 4 0.001436 0.000745 -0.002377 0.023095 0.001362 -0.000285
# 5 -0.004796 -0.005429 0.004579 0.001362 0.033476 0.004795
# 6 0.004648 -0.004681 0.004323 -0.000285 0.004795 0.032281
#
#
# Mechanical properties :
#
#
# Convention : Reuss Voigt Hill
#
# Bulk Modulus (GPa) = 61.09292 71.75448 66.42370
# Shear Modulus (GPa) = 29.06540 35.31980 32.19260
#
# Velocity S-wave (km/s) = 3.69689 4.07528 3.89069
# Velocity P-wave (km/s) = 6.85197 7.47555 7.17054
#
# Compressibility (1/GPa) = 0.01636851
#
# Stress axis : x y z
#
# Youngs Moduli (GPa) = 56.60580 77.23801 60.86215
#
# Poissons Ratio (x) = 0.03661 0.55722
# Poissons Ratio (y) = 0.02683 0.34741
# Poissons Ratio (z) = 0.51825 0.44088
#
# Static dielectric constant tensor:
#      x y z
#    x 3.876460 -0.226610 0.448310 
#    y -0.226610 4.048510 0.030060 
#    z 0.448310 0.030060 3.765880 
# 
# 
# High freq. dielectric constant tensor:
#      x y z
#    x 1.829890 -0.009810 0.009090 
#    y -0.009810 1.849520 0.000140 
#    z 0.009090 0.000140 1.844650 
# 
# From -- ./inp_files/26525.got.cif
#   From: 2010.06.25/outbox.cif.g09.slc.cpg/sg2_14_cif.got.tgz:26525.got - 2010.06.27 13:26:56.
