data_PCOD8014592
_publ_section_title
;
Structure prediction by ZEFSAII (Michael W. Deem and Ramdas Pophale) SiO2 
 PCOD8014592
Probable space group: P -1
;
_chemical_formula_sum "Si O2"
_cell_formula_units_Z 14
_cell_length_a 13.149298
_cell_length_b 19.863389
_cell_length_c 8.791520
_cell_angle_alpha 35.536972
_cell_angle_beta 147.630189
_cell_angle_gamma 148.109488
_cell_volume 610.407434
_symmetry_space_group_name_H-M "P -1"
_symmetry_group_IT_number 2
_symmetry_cell_setting 'triclinic'
loop_
_space_group_symop_operation_xyz
x,y,z
-x,-y,-z
loop_
_atom_site_type_symbol
_atom_site_label
_atom_site_fract_x
_atom_site_fract_y
_atom_site_fract_z
Si Si1 0.035119 0.797062 0.123978
Si Si2 0.829207 0.563088 0.796611
Si Si3 0.695570 0.981586 0.724025
Si Si4 0.565789 0.722458 0.549027
Si Si5 0.600889 0.720942 0.257928
Si Si6 0.470660 0.908321 0.273441
Si Si7 0.134827 0.470975 0.437497
O O1 0.241360 0.868404 0.139288
O O2 0.997494 0.652355 0.387981
O O3 0.078339 0.892253 0.152685
O O4 0.817507 0.772784 0.810859
O O5 0.789284 0.680796 0.589602
O O6 0.618504 0.412448 0.835391
O O7 0.896685 0.593436 0.650282
O O8 0.032081 0.568553 0.135484
O O9 0.680701 0.981715 0.521185
O O10 0.500000 0.000000 0.500000
O O11 0.669502 0.840687 0.004789
O O12 0.560787 0.768383 0.284166
O O13 0.464306 0.777998 0.439479
O O14 0.398344 0.559241 0.646372
O O15 0.500000 0.000000 0.000000
#
# Coordination Sequence:
#
# PCOD8014592 Si02
#       7
#     2   2   2   2   2   2   2
#     4  11  25  46  68 101 141 184 229 288 340 412
#     4   9  20  39  70 100 135 182 230 287 338 412
#     4  10  22  43  71  96 134 181 228 281 342 415
#     4  11  25  43  66 104 140 182 231 285 342 409
#     4  10  21  41  69 103 135 182 235 280 344 413
#     4  11  26  45  70 103 137 180 227 286 355 411
#     4  10  22  43  67 101 139 182 232 279 351 408
#
# _framework density 22.935503000000001
#
# number of rings (size 3 to 8) (size 9 to 14) (size 15 to 20)
#    0.000    1.714    0.000    3.857    4.000    5.714 
#    5.143    0.000    0.000    0.000    0.000    0.000 
#    0.000    0.000    0.000    0.000    0.000    0.000 
#
# Total GULP energy -173563.049719 kJ/mol
# GULP energy per Si atom -12397.360694 kJ/mol
# Density = 2.288330 g / cm^3
# Si number density = 22.935503 Si / 1000 Ang^3
#
#
#
# Elastic Constant Matrix: (Units=GPa)
#
#
# Indices 1 2 3 4 5 6 
#
# 1 87.8780 50.1746 43.8352 0.9643 -13.3015 -1.9830
# 2 50.1746 100.6060 72.3862 16.0230 -13.6419 0.0825
# 3 43.8352 72.3862 118.3980 -1.5727 -15.2894 2.0891
# 4 0.9643 16.0230 -1.5727 36.9944 1.8026 -1.3984
# 5 -13.3015 -13.6419 -15.2894 1.8026 42.8853 0.5912
# 6 -1.9830 0.0825 2.0891 -1.3984 0.5912 38.6364
#
#
#
# Elastic Compliance Matrix: (Units=1/GPa)
#
#
# Indices 1 2 3 4 5 6 
#
# 1 0.016625 -0.007523 -0.001255 0.002703 0.002189 0.001002
# 2 -0.007523 0.024271 -0.011991 -0.010910 0.001574 -0.000208
# 3 -0.001255 -0.011991 0.016520 0.005830 0.001451 -0.000743
# 4 0.002703 -0.010910 0.005830 0.032067 -0.001916 0.001037
# 5 0.002189 0.001574 0.001451 -0.001916 0.025101 -0.000423
# 6 0.001002 -0.000208 -0.000743 0.001037 -0.000423 0.026018
#
#
# Mechanical properties :
#
#
# Convention : Reuss Voigt Hill
#
# Bulk Modulus (GPa) = 62.98382 71.07489 67.02935
# Shear Modulus (GPa) = 26.67637 33.06897 29.87267
#
# Velocity S-wave (km/s) = 3.41413 3.80126 3.61288
# Velocity P-wave (km/s) = 6.56221 7.09383 6.83319
#
# Compressibility (1/GPa) = 0.01587709
#
# Stress axis : x y z
#
# Youngs Moduli (GPa) = 60.15118 41.20227 60.53274
#
# Poissons Ratio (x) = 0.30995 0.07597
# Poissons Ratio (y) = 0.45250 0.72587
# Poissons Ratio (z) = 0.07549 0.49407
#
# Static dielectric constant tensor:
#      x y z
#    x 4.293410 -0.300960 0.046350 
#    y -0.300960 4.371530 0.203840 
#    z 0.046350 0.203840 4.202380 
# 
# 
# High freq. dielectric constant tensor:
#      x y z
#    x 1.902190 -0.005180 0.002320 
#    y -0.005180 1.904660 0.007810 
#    z 0.002320 0.007810 1.906560 
# 
# From -- ./inp_files/319196.got.cif
#   From: 2010.06.25/outbox.cif.g09.slc.cpg/sg2_160_cif.got.tgz:319196.got - 2010.06.27 13:26:56.
