data_PCOD8014152
_publ_section_title
;
Structure prediction by ZEFSAII (Michael W. Deem and Ramdas Pophale) SiO2 
 PCOD8014152
Probable space group: P -1
;
_chemical_formula_sum "Si O2"
_cell_formula_units_Z 16
_cell_length_a 14.613546
_cell_length_b 11.219409
_cell_length_c 9.798668
_cell_angle_alpha 62.107574
_cell_angle_beta 58.577132
_cell_angle_gamma 109.412059
_cell_volume 781.713125
_symmetry_space_group_name_H-M "P -1"
_symmetry_group_IT_number 2
_symmetry_cell_setting 'triclinic'
loop_
_space_group_symop_operation_xyz
x,y,z
-x,-y,-z
loop_
_atom_site_type_symbol
_atom_site_label
_atom_site_fract_x
_atom_site_fract_y
_atom_site_fract_z
Si Si1 0.667350 0.370797 0.548017
Si Si2 0.194171 0.211261 0.749029
Si Si3 0.314410 0.329047 0.293134
Si Si4 0.694023 0.900148 0.072003
Si Si5 0.372872 0.678928 0.083029
Si Si6 0.741223 0.961367 0.683505
Si Si7 0.134584 0.672242 0.193927
Si Si8 0.917079 0.400812 0.259924
O O1 0.786056 0.613891 0.322070
O O2 0.641067 0.294592 0.762651
O O3 0.747117 0.322111 0.433248
O O4 0.494749 0.238425 0.679912
O O5 0.293927 0.269567 0.500754
O O6 0.270904 0.202827 0.819436
O O7 0.000000 0.000000 0.000000
O O8 0.265585 0.440458 0.258685
O O9 0.203352 0.121085 0.398188
O O10 0.500000 0.500000 0.000000
O O11 0.722186 0.903569 0.887309
O O12 0.814140 0.127914 0.916946
O O13 0.294197 0.726590 0.034822
O O14 0.568555 0.847018 0.810458
O O15 0.880735 0.209414 0.423872
O O16 0.000000 0.500000 0.500000
O O17 0.048360 0.590782 0.159361
O O18 0.000000 0.500000 0.000000
#
# Coordination Sequence:
#
# PCOD8014152 Si02
#       8
#     2   2   2   2   2   2   2   2
#     4  10  21  42  64  91 127 165 211 254 309 382
#     4  11  24  40  69  98 127 168 215 265 312 372
#     4   9  21  41  65  92 131 166 202 258 317 379
#     4  11  23  41  69  93 121 170 216 256 311 386
#     4   9  19  40  68  89 117 169 211 247 307 381
#     4  10  21  41  65  92 126 163 207 261 314 373
#     4  12  22  40  64  90 123 162 215 258 310 379
#     4  12  26  41  59  92 132 159 206 268 322 363
#
# _framework density 20.467866000000001
#
# number of rings (size 3 to 8) (size 9 to 14) (size 15 to 20)
#    0.000    1.500    2.500    2.625    5.250    2.000 
#    6.750    2.500    0.000    0.000    0.000    0.000 
#    0.000    0.000    0.000    0.000    0.000    0.000 
#
# Total GULP energy -198391.501153 kJ/mol
# GULP energy per Si atom -12399.468822 kJ/mol
# Density = 2.042128 g / cm^3
# Si number density = 20.467866 Si / 1000 Ang^3
#
#
#
# Elastic Constant Matrix: (Units=GPa)
#
#
# Indices 1 2 3 4 5 6 
#
# 1 74.6565 12.1953 10.1492 11.5298 3.0120 13.8860
# 2 12.1953 114.2552 22.4126 0.9581 8.4294 -2.3233
# 3 10.1492 22.4126 83.9922 7.4941 7.8205 9.8508
# 4 11.5298 0.9581 7.4941 39.0509 0.8209 0.3411
# 5 3.0120 8.4294 7.8205 0.8209 28.6599 -3.8115
# 6 13.8860 -2.3233 9.8508 0.3411 -3.8115 32.0875
#
#
#
# Elastic Compliance Matrix: (Units=1/GPa)
#
#
# Indices 1 2 3 4 5 6 
#
# 1 0.015767 -0.001634 -0.000049 -0.004502 -0.001980 -0.007114
# 2 -0.001634 0.009577 -0.002493 0.000745 -0.001726 0.001953
# 3 -0.000049 -0.002493 0.013683 -0.002434 -0.003558 -0.004757
# 4 -0.004502 0.000745 -0.002434 0.027354 0.000469 0.002514
# 5 -0.001980 -0.001726 -0.003558 0.000469 0.037398 0.006262
# 6 -0.007114 0.001953 -0.004757 0.002514 0.006262 0.036562
#
#
# Mechanical properties :
#
#
# Convention : Reuss Voigt Hill
#
# Bulk Modulus (GPa) = 32.59958 40.26869 36.43414
# Shear Modulus (GPa) = 31.46300 35.16945 33.31623
#
# Velocity S-wave (km/s) = 3.92496 4.14971 4.03889
# Velocity P-wave (km/s) = 6.04170 6.53276 6.29202
#
# Compressibility (1/GPa) = 0.03067524
#
# Stress axis : x y z
#
# Youngs Moduli (GPa) = 63.42547 104.42150 73.08160
#
# Poissons Ratio (x) = 0.17064 0.00356
# Poissons Ratio (y) = 0.10365 0.18217
# Poissons Ratio (z) = 0.00309 0.26030
#
# Static dielectric constant tensor:
#      x y z
#    x 3.810730 -0.258410 -0.019530 
#    y -0.258410 3.944250 -0.056380 
#    z -0.019530 -0.056380 3.725630 
# 
# 
# High freq. dielectric constant tensor:
#      x y z
#    x 1.791380 -0.011740 0.001580 
#    y -0.011740 1.811070 -0.010530 
#    z 0.001580 -0.010530 1.795130 
# 
# From -- ./inp_files/208911.got.cif
#   From: 2010.06.25/outbox.cif.g09.slc.cpg/sg2_105_cif.got.tgz:208911.got - 2010.06.27 13:26:56.
