data_PCOD8014588
_publ_section_title
;
Structure prediction by ZEFSAII (Michael W. Deem and Ramdas Pophale) SiO2 
 PCOD8014588
Probable space group: P -1
;
_chemical_formula_sum "Si O2"
_cell_formula_units_Z 14
_cell_length_a 13.745538
_cell_length_b 9.605398
_cell_length_c 9.596594
_cell_angle_alpha 117.451701
_cell_angle_beta 133.353614
_cell_angle_gamma 97.224238
_cell_volume 595.363001
_symmetry_space_group_name_H-M "P -1"
_symmetry_group_IT_number 2
_symmetry_cell_setting 'triclinic'
loop_
_space_group_symop_operation_xyz
x,y,z
-x,-y,-z
loop_
_atom_site_type_symbol
_atom_site_label
_atom_site_fract_x
_atom_site_fract_y
_atom_site_fract_z
Si Si1 0.695469 0.932726 0.976468
Si Si2 0.172872 0.012098 0.159457
Si Si3 0.917867 0.384775 0.009822
Si Si4 0.426649 0.699300 0.376360
Si Si5 0.152966 0.626681 0.595517
Si Si6 0.670552 0.660500 0.048755
Si Si7 0.743727 0.644266 0.413593
O O1 0.849374 0.011536 0.044297
O O2 0.492170 0.734312 0.619632
O O3 0.727031 0.865629 0.120583
O O4 0.700198 0.121164 0.105124
O O5 0.388343 0.143149 0.462615
O O6 0.128427 0.147282 0.255329
O O7 0.056805 0.779890 0.009610
O O8 0.046701 0.587100 0.332977
O O9 0.701731 0.252566 0.749025
O O10 0.000000 0.500000 0.000000
O O11 0.300998 0.451625 0.091134
O O12 0.245843 0.531995 0.633147
O O13 0.000000 0.500000 0.500000
O O14 0.792084 0.731765 0.341177
O O15 0.462428 0.481830 0.809851
#
# Coordination Sequence:
#
# PCOD8014588 Si02
#       7
#     2   2   2   2   2   2   2
#     4  10  23  41  74  93 129 173 234 259 333 390
#     4   9  22  44  70  94 129 178 226 268 327 385
#     4  12  26  41  66 102 142 171 217 272 339 394
#     4   9  21  43  71  93 130 177 224 268 320 401
#     4  12  25  46  62  99 139 178 207 275 340 397
#     4  10  21  41  69 102 123 170 228 283 317 380
#     4  10  24  40  68  98 136 161 227 282 324 381
#
# _framework density 23.515066000000001
#
# number of rings (size 3 to 8) (size 9 to 14) (size 15 to 20)
#    0.857    0.857    1.429    1.714    4.000    3.429 
#    2.571    1.429    0.000    0.000    0.000    0.000 
#    0.000    0.000    0.000    0.000    0.000    0.000 
#
# Total GULP energy -173485.819328 kJ/mol
# GULP energy per Si atom -12391.844238 kJ/mol
# Density = 2.346154 g / cm^3
# Si number density = 23.515066 Si / 1000 Ang^3
#
#
#
# Elastic Constant Matrix: (Units=GPa)
#
#
# Indices 1 2 3 4 5 6 
#
# 1 80.4037 48.6091 35.5287 -0.1775 -28.1634 -10.1060
# 2 48.6091 155.6773 55.7815 -1.2692 -31.3828 3.8654
# 3 35.5287 55.7815 123.1758 -4.8639 -43.9889 -0.6334
# 4 -0.1775 -1.2692 -4.8639 39.8975 -3.6078 -11.3600
# 5 -28.1634 -31.3828 -43.9889 -3.6078 30.5387 -3.4851
# 6 -10.1060 3.8654 -0.6334 -11.3600 -3.4851 38.7831
#
#
#
# Elastic Compliance Matrix: (Units=1/GPa)
#
#
# Indices 1 2 3 4 5 6 
#
# 1 0.023162 -0.003874 0.004626 0.005895 0.025944 0.010555
# 2 -0.003874 0.008893 -0.002122 -0.000305 0.002267 -0.001816
# 3 0.004626 -0.002122 0.019293 0.007035 0.031462 0.006620
# 4 0.005895 -0.000305 0.007035 0.031405 0.020417 0.012715
# 5 0.025944 0.002267 0.031462 0.020417 0.109339 0.022854
# 6 0.010555 -0.001816 0.006620 0.012715 0.022854 0.034602
#
#
# Mechanical properties :
#
#
# Convention : Reuss Voigt Hill
#
# Bulk Modulus (GPa) = 20.57278 71.01061 45.79169
# Shear Modulus (GPa) = 20.35523 36.46636 28.41080
#
# Velocity S-wave (km/s) = 2.94534 3.94225 3.47968
# Velocity P-wave (km/s) = 4.50938 7.14040 5.97159
#
# Compressibility (1/GPa) = 0.04860793
#
# Stress axis : x y z
#
# Youngs Moduli (GPa) = 43.17331 112.44929 51.83314
#
# Poissons Ratio (x) = 0.43560 -0.23976
# Poissons Ratio (y) = 0.16724 0.10998
# Poissons Ratio (z) = -0.19970 0.23860
#
# Static dielectric constant tensor:
#      x y z
#    x 3.818120 0.522270 -0.052910 
#    y 0.522270 2.881540 -0.387410 
#    z -0.052910 -0.387410 4.450090 
# 
# 
# High freq. dielectric constant tensor:
#      x y z
#    x 1.930190 -0.012950 -0.008200 
#    y -0.012950 1.916700 -0.002330 
#    z -0.008200 -0.002330 1.946280 
# 
# From -- ./inp_files/296262.got.cif
#   From: 2010.06.25/outbox.cif.g09.slc.cpg/sg2_149_cif.got.tgz:296262.got - 2010.06.27 13:26:56.
