data_PCOD8014357
_publ_section_title
;
Structure prediction by ZEFSAII (Michael W. Deem and Ramdas Pophale) SiO2 
 PCOD8014357
Probable space group: P -1
;
_chemical_formula_sum "Si O2"
_cell_formula_units_Z 16
_cell_length_a 8.820653
_cell_length_b 21.244601
_cell_length_c 9.818233
_cell_angle_alpha 33.618550
_cell_angle_beta 67.682184
_cell_angle_gamma 50.850565
_cell_volume 742.893197
_symmetry_space_group_name_H-M "P -1"
_symmetry_group_IT_number 2
_symmetry_cell_setting 'triclinic'
loop_
_space_group_symop_operation_xyz
x,y,z
-x,-y,-z
loop_
_atom_site_type_symbol
_atom_site_label
_atom_site_fract_x
_atom_site_fract_y
_atom_site_fract_z
Si Si1 0.851365 0.937089 0.520442
Si Si2 0.683453 0.375794 0.564242
Si Si3 0.504604 0.131622 0.770832
Si Si4 0.952217 0.625174 0.467425
Si Si5 0.214245 0.916764 0.994589
Si Si6 0.555474 0.454594 0.908582
Si Si7 0.702355 0.152510 0.406386
Si Si8 0.012482 0.347329 0.902938
O O1 0.072280 0.890638 0.572711
O O2 0.686110 0.069629 0.437412
O O3 0.849070 0.801815 0.790531
O O4 0.801512 0.979895 0.302287
O O5 0.500000 0.500000 0.500000
O O6 0.734770 0.222203 0.852003
O O7 0.619933 0.411841 0.363462
O O8 0.894589 0.355259 0.544111
O O9 0.274026 0.278785 0.559877
O O10 0.596701 0.132066 0.883050
O O11 0.649604 0.115110 0.632287
O O12 0.500000 0.000000 0.000000
O O13 0.918096 0.684634 0.219357
O O14 0.050399 0.457597 0.748468
O O15 0.000000 0.000000 0.000000
O O16 0.770711 0.421321 0.857341
O O17 0.500000 0.500000 0.000000
O O18 0.550750 0.322083 0.118022
#
# Coordination Sequence:
#
# PCOD8014357 Si02
#       8
#     2   2   2   2   2   2   2   2
#     4  10  22  40  72  98 134 179 229 283 331 413
#     4  12  25  44  73 101 132 179 238 281 337 418
#     4  12  25  45  68  99 143 184 223 285 355 410
#     4  11  24  43  68 100 136 180 224 285 347 409
#     4  12  25  44  71 106 135 179 238 281 338 417
#     4  11  22  41  69  98 129 176 229 284 338 407
#     4  10  21  41  66  99 133 177 228 279 347 404
#     4  10  22  42  67  96 138 174 223 277 351 398
#
# _framework density 21.537413999999998
#
# number of rings (size 3 to 8) (size 9 to 14) (size 15 to 20)
#    0.000    1.000    2.500    4.500    7.000    0.000 
#    2.250    2.500    0.000    0.000    0.000    0.000 
#    0.000    0.000    0.000    0.000    0.000    0.000 
#
# Total GULP energy -198466.920763 kJ/mol
# GULP energy per Si atom -12404.182548 kJ/mol
# Density = 2.148839 g / cm^3
# Si number density = 21.537414 Si / 1000 Ang^3
#
#
#
# Elastic Constant Matrix: (Units=GPa)
#
#
# Indices 1 2 3 4 5 6 
#
# 1 82.2750 18.8260 29.2964 -10.2101 -4.3292 16.7232
# 2 18.8260 111.7313 47.4702 -3.9445 -2.6383 5.6828
# 3 29.2964 47.4702 149.4492 3.8631 -16.0742 10.7514
# 4 -10.2101 -3.9445 3.8631 35.8754 1.7870 2.4801
# 5 -4.3292 -2.6383 -16.0742 1.7870 35.5967 -2.2959
# 6 16.7232 5.6828 10.7514 2.4801 -2.2959 24.2381
#
#
#
# Elastic Compliance Matrix: (Units=1/GPa)
#
#
# Indices 1 2 3 4 5 6 
#
# 1 0.015939 -0.001038 -0.002197 0.005376 -0.000067 -0.010335
# 2 -0.001038 0.010554 -0.003241 0.001296 -0.000907 -0.000539
# 3 -0.002197 -0.003241 0.008647 -0.002013 0.003432 -0.001028
# 4 0.005376 0.001296 -0.002013 0.030312 -0.002095 -0.006421
# 5 -0.000067 -0.000907 0.003432 -0.002095 0.029786 0.001773
# 6 -0.010335 -0.000539 -0.001028 -0.006421 0.001773 0.049796
#
#
# Mechanical properties :
#
#
# Convention : Reuss Voigt Hill
#
# Bulk Modulus (GPa) = 45.07358 59.40453 52.23905
# Shear Modulus (GPa) = 30.23316 35.66624 32.94970
#
# Velocity S-wave (km/s) = 3.75073 4.07383 3.91561
# Velocity P-wave (km/s) = 6.30324 7.05479 6.68957
#
# Compressibility (1/GPa) = 0.02218595
#
# Stress axis : x y z
#
# Youngs Moduli (GPa) = 62.74008 94.75335 115.65275
#
# Poissons Ratio (x) = 0.09836 0.25414
# Poissons Ratio (y) = 0.06513 0.37484
# Poissons Ratio (z) = 0.13787 0.30710
#
# Static dielectric constant tensor:
#      x y z
#    x 3.461530 0.333620 -0.010900 
#    y 0.333620 3.604870 -0.302690 
#    z -0.010900 -0.302690 4.068240 
# 
# 
# High freq. dielectric constant tensor:
#      x y z
#    x 1.832020 -0.002610 -0.012060 
#    y -0.002610 1.854620 -0.005870 
#    z -0.012060 -0.005870 1.859330 
# 
# From -- ./inp_files/216440.got.cif
#   From: 2010.06.25/outbox.cif.g09.slc.cpg/sg2_109_cif.got.tgz:216440.got - 2010.06.27 13:26:56.
