data_PCOD8014736
_publ_section_title
;
Structure prediction by ZEFSAII (Michael W. Deem and Ramdas Pophale) SiO2 
 PCOD8014736
Probable space group: P -1
;
_chemical_formula_sum "Si O2"
_cell_formula_units_Z 14
_cell_length_a 11.040581
_cell_length_b 11.675368
_cell_length_c 11.511236
_cell_angle_alpha 39.355591
_cell_angle_beta 72.616852
_cell_angle_gamma 99.625088
_cell_volume 676.176843
_symmetry_space_group_name_H-M "P -1"
_symmetry_group_IT_number 2
_symmetry_cell_setting 'triclinic'
loop_
_space_group_symop_operation_xyz
x,y,z
-x,-y,-z
loop_
_atom_site_type_symbol
_atom_site_label
_atom_site_fract_x
_atom_site_fract_y
_atom_site_fract_z
Si Si1 0.622899 0.845003 0.781008
Si Si2 0.485714 0.800402 0.094981
Si Si3 0.145014 0.276637 0.633523
Si Si4 0.190195 0.724152 0.766992
Si Si5 0.777773 0.941440 0.049644
Si Si6 0.598045 0.426770 0.164364
Si Si7 0.282811 0.064817 0.678146
O O1 0.483485 0.700136 0.835225
O O2 0.776251 0.106884 0.481336
O O3 0.537059 0.870699 0.891274
O O4 0.688710 0.707044 0.907500
O O5 0.290977 0.558163 0.347089
O O6 0.500000 0.000000 0.000000
O O7 0.624673 0.796273 0.115994
O O8 0.157011 0.121077 0.658958
O O9 0.956075 0.185757 0.754136
O O10 0.183203 0.229204 0.788763
O O11 0.278639 0.617453 0.802037
O O12 0.238967 0.856629 0.772331
O O13 0.000000 0.500000 0.000000
O O14 0.720562 0.003379 0.132268
O O15 0.463746 0.315403 0.394267
#
# Coordination Sequence:
#
# PCOD8014736 Si02
#       7
#     2   2   2   2   2   2   2
#     4  10  22  43  61  94 125 165 215 264 323 381
#     4  12  25  37  62  98 132 168 214 261 324 389
#     4   9  20  42  64  91 125 172 215 256 323 382
#     4  11  25  40  64 100 123 164 221 269 321 384
#     4   9  21  40  64  93 124 171 213 259 316 381
#     4  10  21  41  71  85 124 173 213 264 317 383
#     4   9  18  40  65  87 122 167 211 263 319 379
#
# _framework density 20.704643999999998
#
# number of rings (size 3 to 8) (size 9 to 14) (size 15 to 20)
#    0.857    1.143    1.429    2.143    4.000    3.429 
#    2.571    0.000    0.000    0.000    0.000    0.000 
#    0.000    0.000    0.000    0.000    0.000    0.000 
#
# Total GULP energy -173462.013364 kJ/mol
# GULP energy per Si atom -12390.143812 kJ/mol
# Density = 2.065752 g / cm^3
# Si number density = 20.704644 Si / 1000 Ang^3
#
#
#
# Elastic Constant Matrix: (Units=GPa)
#
#
# Indices 1 2 3 4 5 6 
#
# 1 70.8565 20.0387 49.0836 6.5902 -4.4947 -14.2805
# 2 20.0387 80.3861 51.4384 22.7696 -6.5113 -19.4160
# 3 49.0836 51.4384 166.6322 6.6186 -10.3751 -10.2139
# 4 6.5902 22.7696 6.6186 32.8100 -10.6475 1.3061
# 5 -4.4947 -6.5113 -10.3751 -10.6475 22.7641 -6.5966
# 6 -14.2805 -19.4160 -10.2139 1.3061 -6.5966 26.8079
#
#
#
# Elastic Compliance Matrix: (Units=1/GPa)
#
#
# Indices 1 2 3 4 5 6 
#
# 1 0.020299 0.003039 -0.005786 -0.004297 0.003686 0.011926
# 2 0.003039 0.025658 -0.006826 -0.017026 0.002374 0.019015
# 3 -0.005786 -0.006826 0.009516 0.004908 0.002362 -0.004058
# 4 -0.004297 -0.017026 0.004908 0.047662 0.015553 -0.011246
# 5 0.003686 0.002374 0.002362 0.015553 0.059002 0.018344
# 6 0.011926 0.019015 -0.004058 -0.011246 0.018344 0.060943
#
#
# Mechanical properties :
#
#
# Convention : Reuss Voigt Hill
#
# Bulk Modulus (GPa) = 27.52829 62.11069 44.81949
# Shear Modulus (GPa) = 19.65905 29.63067 24.64486
#
# Velocity S-wave (km/s) = 3.08474 3.78711 3.45382
# Velocity P-wave (km/s) = 5.10020 7.01331 6.13182
#
# Compressibility (1/GPa) = 0.03632626
#
# Stress axis : x y z
#
# Youngs Moduli (GPa) = 49.26387 38.97401 105.08509
#
# Poissons Ratio (x) = -0.11843 0.60804
# Poissons Ratio (y) = -0.14970 0.71730
# Poissons Ratio (z) = 0.28505 0.26603
#
# Static dielectric constant tensor:
#      x y z
#    x 3.335390 -0.102660 -0.048300 
#    y -0.102660 3.497130 0.242220 
#    z -0.048300 0.242220 3.831100 
# 
# 
# High freq. dielectric constant tensor:
#      x y z
#    x 1.787180 -0.015570 -0.001650 
#    y -0.015570 1.806580 0.013420 
#    z -0.001650 0.013420 1.813490 
# 
# From -- ./inp_files/427365.got.cif
#   From: 2010.06.25/outbox.cif.g09.slc.cpg/sg2_214_cif.got.tgz:427365.got - 2010.06.27 13:26:56.
