data_PCOD8014356
_publ_section_title
;
Structure prediction by ZEFSAII (Michael W. Deem and Ramdas Pophale) SiO2 
 PCOD8014356
Probable space group: P -1
;
_chemical_formula_sum "Si O2"
_cell_formula_units_Z 16
_cell_length_a 8.262445
_cell_length_b 11.465457
_cell_length_c 14.616802
_cell_angle_alpha 83.970861
_cell_angle_beta 62.046895
_cell_angle_gamma 41.355747
_cell_volume 732.345925
_symmetry_space_group_name_H-M "P -1"
_symmetry_group_IT_number 2
_symmetry_cell_setting 'triclinic'
loop_
_space_group_symop_operation_xyz
x,y,z
-x,-y,-z
loop_
_atom_site_type_symbol
_atom_site_label
_atom_site_fract_x
_atom_site_fract_y
_atom_site_fract_z
Si Si1 0.221476 0.157947 0.334695
Si Si2 0.414196 0.010683 0.919146
Si Si3 0.622714 0.448989 0.757353
Si Si4 0.829553 0.554059 0.330813
Si Si5 0.840115 0.458911 0.024164
Si Si6 0.332373 0.635906 0.446173
Si Si7 0.710021 0.876489 0.369413
Si Si8 0.605669 0.660044 0.888937
O O1 0.315666 0.077988 0.211836
O O2 0.010694 0.382153 0.371918
O O3 0.019940 0.164878 0.444298
O O4 0.541829 0.010447 0.312973
O O5 0.375060 0.888880 0.930464
O O6 0.500000 0.000000 0.000000
O O7 0.096122 0.230422 0.955729
O O8 0.375082 0.475083 0.841988
O O9 0.626637 0.469441 0.644728
O O10 0.541709 0.608819 0.822660
O O11 0.962133 0.226927 0.708572
O O12 0.504084 0.669703 0.374617
O O13 0.771537 0.708235 0.376248
O O14 0.055103 0.455982 0.193071
O O15 0.609048 0.585528 0.988388
O O16 0.000000 0.500000 0.000000
O O17 0.500000 0.500000 0.500000
O O18 0.500000 0.000000 0.500000
#
# Coordination Sequence:
#
# PCOD8014356 Si02
#       8
#     2   2   2   2   2   2   2   2
#     4  10  22  41  68  94 133 171 223 273 327 392
#     4  11  23  42  68  97 129 176 226 267 332 401
#     4  11  24  42  71 100 135 178 224 277 345 395
#     4   9  21  40  67  91 135 173 219 269 335 385
#     4  12  24  43  72  95 138 178 221 281 335 394
#     4  10  21  41  66  99 132 174 225 274 334 401
#     4  11  22  44  64  97 137 174 219 270 331 405
#     4  10  22  44  66  99 135 177 221 278 333 397
#
# _framework density 21.847598999999999
#
# number of rings (size 3 to 8) (size 9 to 14) (size 15 to 20)
#    0.000    1.500    2.500    2.625    3.500    1.500 
#    9.000    2.500    0.000    0.000    0.000    0.000 
#    0.000    0.000    0.000    0.000    0.000    0.000 
#
# Total GULP energy -198222.746223 kJ/mol
# GULP energy per Si atom -12388.921639 kJ/mol
# Density = 2.179787 g / cm^3
# Si number density = 21.847599 Si / 1000 Ang^3
#
#
#
# Elastic Constant Matrix: (Units=GPa)
#
#
# Indices 1 2 3 4 5 6 
#
# 1 94.9185 37.1790 56.7227 -1.1153 5.1688 -5.6776
# 2 37.1790 126.7963 41.6622 14.7118 6.8350 0.1289
# 3 56.7227 41.6622 152.0238 1.5589 7.4082 1.4386
# 4 -1.1153 14.7118 1.5589 31.4061 -5.9100 5.6235
# 5 5.1688 6.8350 7.4082 -5.9100 38.8923 -4.3192
# 6 -5.6776 0.1289 1.4386 5.6235 -4.3192 23.0253
#
#
#
# Elastic Compliance Matrix: (Units=1/GPa)
#
#
# Indices 1 2 3 4 5 6 
#
# 1 0.014759 -0.002951 -0.004752 0.001515 0.000092 0.003600
# 2 -0.002951 0.009923 -0.001480 -0.005058 -0.001816 0.000204
# 3 -0.004752 -0.001480 0.008820 0.000255 -0.000967 -0.001958
# 4 0.001515 -0.005058 0.000255 0.036613 0.005364 -0.007550
# 5 0.000092 -0.001816 -0.000967 0.005364 0.027455 0.003933
# 6 0.003600 0.000204 -0.001958 -0.007550 0.003933 0.047021
#
#
# Mechanical properties :
#
#
# Convention : Reuss Voigt Hill
#
# Bulk Modulus (GPa) = 66.06914 71.65181 68.86047
# Shear Modulus (GPa) = 29.76164 34.54305 32.15235
#
# Velocity S-wave (km/s) = 3.69486 3.98061 3.84039
# Velocity P-wave (km/s) = 6.96485 7.34809 7.15903
#
# Compressibility (1/GPa) = 0.01513566
#
# Stress axis : x y z
#
# Youngs Moduli (GPa) = 67.75442 100.78004 113.38192
#
# Poissons Ratio (x) = 0.29736 0.53884
# Poissons Ratio (y) = 0.19991 0.16780
# Poissons Ratio (z) = 0.32200 0.14915
#
# Static dielectric constant tensor:
#      x y z
#    x 4.081240 -0.083270 -0.391880 
#    y -0.083270 4.340180 0.521750 
#    z -0.391880 0.521750 4.835930 
# 
# 
# High freq. dielectric constant tensor:
#      x y z
#    x 1.841750 -0.011220 -0.003690 
#    y -0.011220 1.848090 0.001970 
#    z -0.003690 0.001970 1.880560 
# 
# From -- ./inp_files/313451.got.cif
#   From: 2010.06.25/outbox.cif.g09.slc.cpg/sg2_157_cif.got.tgz:313451.got - 2010.06.27 13:26:56.
