data_PCOD8014909
_publ_section_title
;
Structure prediction by ZEFSAII (Michael W. Deem and Ramdas Pophale) SiO2 
 PCOD8014909
Probable space group: P -1
;
_chemical_formula_sum "Si O2"
_cell_formula_units_Z 14
_cell_length_a 14.512453
_cell_length_b 8.598505
_cell_length_c 12.329612
_cell_angle_alpha 55.846127
_cell_angle_beta 60.486330
_cell_angle_gamma 32.579805
_cell_volume 684.927043
_symmetry_space_group_name_H-M "P -1"
_symmetry_group_IT_number 2
_symmetry_cell_setting 'triclinic'
loop_
_space_group_symop_operation_xyz
x,y,z
-x,-y,-z
loop_
_atom_site_type_symbol
_atom_site_label
_atom_site_fract_x
_atom_site_fract_y
_atom_site_fract_z
Si Si1 0.218379 0.344593 0.996477
Si Si2 0.368882 0.225051 0.392941
Si Si3 0.903171 0.613509 0.174483
Si Si4 0.536374 0.679686 0.141435
Si Si5 0.441318 0.702403 0.852363
Si Si6 0.486158 0.298595 0.603017
Si Si7 0.145868 0.643035 0.544553
O O1 0.077165 0.489367 0.111026
O O2 0.374311 0.978521 0.049570
O O3 0.131669 0.463523 0.881797
O O4 0.291929 0.447564 0.942940
O O5 0.435985 0.291373 0.245006
O O6 0.193603 0.538346 0.430624
O O7 0.500000 0.000000 0.500000
O O8 0.356892 0.042941 0.406215
O O9 0.928724 0.444432 0.329052
O O10 0.751360 0.968539 0.144897
O O11 0.558642 0.428594 0.203194
O O12 0.505880 0.760517 0.252877
O O13 0.500000 0.500000 0.000000
O O14 0.500000 0.500000 0.500000
O O15 0.309153 0.477119 0.584381
O O16 0.000000 0.000000 0.500000
#
# Coordination Sequence:
#
# PCOD8014909 Si02
#       7
#     2   2   2   2   2   2   2
#     4  10  23  39  64  92 130 170 209 267 328 385
#     4  10  21  42  63  92 127 173 215 264 316 402
#     4  11  22  43  63  93 132 167 217 270 320 396
#     4  11  22  40  65  95 127 170 214 266 327 386
#     4  12  23  39  68  99 128 173 218 263 334 398
#     4  11  23  41  67  94 126 167 222 273 320 385
#     4  11  24  42  66  93 126 175 220 264 324 391
#
# _framework density 20.440135999999999
#
# number of rings (size 3 to 8) (size 9 to 14) (size 15 to 20)
#    0.000    1.143    5.714    1.714    6.000    0.571 
#    0.000    2.143    0.000    0.000    0.000    0.000 
#    0.000    0.000    0.000    0.000    0.000    0.000 
#
# Total GULP energy -173584.794863 kJ/mol
# GULP energy per Si atom -12398.913919 kJ/mol
# Density = 2.039361 g / cm^3
# Si number density = 20.440136 Si / 1000 Ang^3
#
#
#
# Elastic Constant Matrix: (Units=GPa)
#
#
# Indices 1 2 3 4 5 6 
#
# 1 80.0701 40.1260 36.8144 11.5520 -11.7671 22.9726
# 2 40.1260 128.4737 45.0094 12.8784 -13.1902 21.2762
# 3 36.8144 45.0094 126.0718 6.8768 -21.9363 4.6916
# 4 11.5520 12.8784 6.8768 36.8267 0.7268 -2.4601
# 5 -11.7671 -13.1902 -21.9363 0.7268 36.0625 -1.0201
# 6 22.9726 21.2762 4.6916 -2.4601 -1.0201 39.1003
#
#
#
# Elastic Compliance Matrix: (Units=1/GPa)
#
#
# Indices 1 2 3 4 5 6 
#
# 1 0.019393 -0.002274 -0.003650 -0.005334 0.003102 -0.009974
# 2 -0.002274 0.010510 -0.002516 -0.002804 0.001509 -0.004218
# 3 -0.003650 -0.002516 0.010563 0.000124 0.004379 0.002368
# 4 -0.005334 -0.002804 0.000124 0.030279 -0.003118 0.006469
# 5 0.003102 0.001509 0.004379 -0.003118 0.031948 -0.002532
# 6 -0.009974 -0.004218 0.002368 0.006469 -0.002532 0.033787
#
#
# Mechanical properties :
#
#
# Convention : Reuss Voigt Hill
#
# Bulk Modulus (GPa) = 42.39389 64.27947 53.33668
# Shear Modulus (GPa) = 31.01333 36.57560 33.79447
#
# Velocity S-wave (km/s) = 3.89945 4.23472 4.07054
# Velocity P-wave (km/s) = 6.40779 7.44489 6.94573
#
# Compressibility (1/GPa) = 0.02358830
#
# Stress axis : x y z
#
# Youngs Moduli (GPa) = 51.56381 95.15004 94.67126
#
# Poissons Ratio (x) = 0.21633 0.34551
# Poissons Ratio (y) = 0.11724 0.23817
# Poissons Ratio (z) = 0.18818 0.23937
#
# Static dielectric constant tensor:
#      x y z
#    x 3.747240 0.123330 -0.069550 
#    y 0.123330 8.371800 -1.047850 
#    z -0.069550 -1.047850 4.201260 
# 
# 
# High freq. dielectric constant tensor:
#      x y z
#    x 1.785270 0.016200 -0.006430 
#    y 0.016200 1.795060 0.006130 
#    z -0.006430 0.006130 1.813970 
# 
# From -- ./inp_files/158803.got.cif
#   From: 2010.06.25/outbox.cif.g09.slc.cpg/sg2_80_cif.got.tgz:158803.got - 2010.06.27 13:26:56.
