data_PCOD8014237
_publ_section_title
;
Structure prediction by ZEFSAII (Michael W. Deem and Ramdas Pophale) SiO2 
 PCOD8014237
Probable space group: P -1
;
_chemical_formula_sum "Si O2"
_cell_formula_units_Z 16
_cell_length_a 10.643383
_cell_length_b 15.642871
_cell_length_c 14.750697
_cell_angle_alpha 127.312808
_cell_angle_beta 129.226269
_cell_angle_gamma 23.710185
_cell_volume 762.087884
_symmetry_space_group_name_H-M "P -1"
_symmetry_group_IT_number 2
_symmetry_cell_setting 'triclinic'
loop_
_space_group_symop_operation_xyz
x,y,z
-x,-y,-z
loop_
_atom_site_type_symbol
_atom_site_label
_atom_site_fract_x
_atom_site_fract_y
_atom_site_fract_z
Si Si1 0.052446 0.068565 0.248580
Si Si2 0.234137 0.666118 0.288289
Si Si3 0.265004 0.334086 0.357955
Si Si4 0.553981 0.399900 0.096527
Si Si5 0.359743 0.418040 0.833558
Si Si6 0.827167 0.894484 0.406207
Si Si7 0.913283 0.347761 0.456173
Si Si8 0.841535 0.096799 0.354516
O O1 0.874727 0.159565 0.129083
O O2 0.113924 0.162816 0.354381
O O3 0.823484 0.158505 0.284914
O O4 0.382867 0.814610 0.235949
O O5 0.297210 0.551783 0.158634
O O6 0.553354 0.506126 0.390181
O O7 0.972911 0.758360 0.293665
O O8 0.089266 0.857913 0.305066
O O9 0.113721 0.507582 0.472180
O O10 0.493972 0.259589 0.339191
O O11 0.990469 0.431210 0.239514
O O12 0.451640 0.138196 0.377477
O O13 0.625478 0.480284 0.149705
O O14 0.418093 0.404970 0.957846
O O15 0.894141 0.775812 0.441448
O O16 0.014493 0.899897 0.507368
#
# Coordination Sequence:
#
# PCOD8014237 Si02
#       8
#     2   2   2   2   2   2   2   2
#     4  10  22  38  66  86 111 152 205 234 282 356
#     4  10  16  34  60  88 108 152 197 234 274 346
#     4  11  22  36  58  88 129 148 185 242 297 338
#     4  10  23  41  67  77 108 163 211 230 288 343
#     4  11  24  44  58  82 117 159 197 250 282 333
#     4  10  19  33  59  88 127 151 184 228 292 361
#     4  10  20  32  60  93 115 153 186 232 293 354
#     4  10  18  36  61  92 119 151 186 235 293 352
#
# _framework density 20.994952999999999
#
# number of rings (size 3 to 8) (size 9 to 14) (size 15 to 20)
#    0.000    1.750    3.750    1.500    3.500    1.500 
#    0.000   11.875    0.000    0.000    0.000    0.000 
#    0.000    0.000    0.000    0.000    0.000    0.000 
#
# Total GULP energy -198264.237355 kJ/mol
# GULP energy per Si atom -12391.514835 kJ/mol
# Density = 2.094717 g / cm^3
# Si number density = 20.994953 Si / 1000 Ang^3
#
#
#
# Elastic Constant Matrix: (Units=GPa)
#
#
# Indices 1 2 3 4 5 6 
#
# 1 26.9760 35.9405 30.2059 -8.8627 -1.6428 7.3350
# 2 35.9405 116.4609 47.4287 -8.5020 5.7934 10.5038
# 3 30.2059 47.4287 103.3371 -6.7397 -6.4643 -6.4144
# 4 -8.8627 -8.5020 -6.7397 31.6598 2.8938 -5.7245
# 5 -1.6428 5.7934 -6.4643 2.8938 24.1163 -10.9942
# 6 7.3350 10.5038 -6.4144 -5.7245 -10.9942 20.3882
#
#
#
# Elastic Compliance Matrix: (Units=1/GPa)
#
#
# Indices 1 2 3 4 5 6 
#
# 1 0.099338 -0.015047 -0.024915 0.012520 -0.016612 -0.041268
# 2 -0.015047 0.016571 -0.004705 -0.001753 -0.011112 -0.011088
# 3 -0.024915 -0.004705 0.021984 -0.000145 0.018125 0.028037
# 4 0.012520 -0.001753 -0.000145 0.035743 -0.000187 0.006288
# 5 -0.016612 -0.011112 0.018125 -0.000187 0.073981 0.057245
# 6 -0.041268 -0.011088 0.028037 0.006288 0.057245 0.111062
#
#
# Mechanical properties :
#
#
# Convention : Reuss Voigt Hill
#
# Bulk Modulus (GPa) = 20.59354 52.65823 36.62588
# Shear Modulus (GPa) = 10.77119 24.11278 17.44199
#
# Velocity S-wave (km/s) = 2.26749 3.39263 2.88544
# Velocity P-wave (km/s) = 4.08478 6.36258 5.34640
#
# Compressibility (1/GPa) = 0.04855892
#
# Stress axis : x y z
#
# Youngs Moduli (GPa) = 10.06660 60.34554 45.48777
#
# Poissons Ratio (x) = 0.90804 1.13332
# Poissons Ratio (y) = 0.15148 0.21402
# Poissons Ratio (z) = 0.25081 0.28393
#
# Static dielectric constant tensor:
#      x y z
#    x 3.502390 0.306270 -0.173430 
#    y 0.306270 4.105860 0.202960 
#    z -0.173430 0.202960 3.714770 
# 
# 
# High freq. dielectric constant tensor:
#      x y z
#    x 1.797050 0.025640 -0.021220 
#    y 0.025640 1.844980 0.010600 
#    z -0.021220 0.010600 1.801960 
# 
# From -- ./inp_files/434306.got.cif
#   From: 2010.06.25/outbox.cif.g09.slc.cpg/sg2_218_cif.got.tgz:434306.got - 2010.06.27 13:26:56.
