data_PCOD8014582
_publ_section_title
;
Structure prediction by ZEFSAII (Michael W. Deem and Ramdas Pophale) SiO2 
 PCOD8014582
Probable space group: P -1
;
_chemical_formula_sum "Si O2"
_cell_formula_units_Z 16
_cell_length_a 21.416066
_cell_length_b 11.302425
_cell_length_c 9.065429
_cell_angle_alpha 111.265427
_cell_angle_beta 138.756863
_cell_angle_gamma 37.758497
_cell_volume 725.258026
_symmetry_space_group_name_H-M "P -1"
_symmetry_group_IT_number 2
_symmetry_cell_setting 'triclinic'
loop_
_space_group_symop_operation_xyz
x,y,z
-x,-y,-z
loop_
_atom_site_type_symbol
_atom_site_label
_atom_site_fract_x
_atom_site_fract_y
_atom_site_fract_z
Si Si1 0.230791 0.021174 0.135640
Si Si2 0.494676 0.443887 0.730091
Si Si3 0.123939 0.940884 0.292633
Si Si4 0.311694 0.172538 0.167593
Si Si5 0.356867 0.076379 0.863671
Si Si6 0.572083 0.600964 0.108653
Si Si7 0.932776 0.716227 0.736411
Si Si8 0.062890 0.842079 0.412151
O O1 0.403658 0.736298 0.307940
O O2 0.254206 0.098940 0.085413
O O3 0.191546 0.132178 0.271265
O O4 0.073245 0.104012 0.864431
O O5 0.318418 0.701684 0.463515
O O6 0.471912 0.363240 0.780180
O O7 0.595381 0.444062 0.989559
O O8 0.124876 0.881313 0.428246
O O9 0.065805 0.152812 0.289806
O O10 0.000000 0.000000 0.000000
O O11 0.500000 0.000000 0.500000
O O12 0.335727 0.153198 0.025838
O O13 0.137604 0.455006 0.022424
O O14 0.165566 0.282017 0.535582
O O15 0.500000 0.000000 0.000000
O O16 0.429902 0.850735 0.892612
O O17 0.769048 0.435778 0.373213
O O18 0.000000 0.000000 0.500000
#
# Coordination Sequence:
#
# PCOD8014582 Si02
#       8
#     2   2   2   2   2   2   2   2
#     4  12  25  45  74 102 141 187 238 287 351 429
#     4  10  21  42  71 101 136 183 231 282 352 426
#     4  11  24  44  67 100 146 177 221 293 358 409
#     4  12  30  51  75  98 138 198 248 288 345 426
#     4  12  27  49  72 105 141 188 237 302 356 408
#     4  10  21  41  69 100 139 180 233 285 347 428
#     4  12  28  49  70 108 147 184 238 298 355 418
#     4  11  24  39  68 106 136 183 229 279 350 429
#
# _framework density 22.061115000000001
#
# number of rings (size 3 to 8) (size 9 to 14) (size 15 to 20)
#    0.000    0.750    5.000    1.500    7.000    1.500 
#    2.250    0.000    0.000    0.000    0.000    0.000 
#    0.000    0.000    0.000    0.000    0.000    0.000 
#
# Total GULP energy -198249.406960 kJ/mol
# GULP energy per Si atom -12390.587935 kJ/mol
# Density = 2.201090 g / cm^3
# Si number density = 22.061115 Si / 1000 Ang^3
#
#
#
# Elastic Constant Matrix: (Units=GPa)
#
#
# Indices 1 2 3 4 5 6 
#
# 1 79.5884 33.6274 22.4380 -2.5411 10.8774 -11.2948
# 2 33.6274 124.1076 48.5212 -20.8121 0.5296 -20.7491
# 3 22.4380 48.5212 146.1017 -16.4961 8.3334 -11.4963
# 4 -2.5411 -20.8121 -16.4961 43.3042 -5.1880 -7.0513
# 5 10.8774 0.5296 8.3334 -5.1880 31.5036 7.5429
# 6 -11.2948 -20.7491 -11.4963 -7.0513 7.5429 41.7005
#
#
#
# Elastic Compliance Matrix: (Units=1/GPa)
#
#
# Indices 1 2 3 4 5 6 
#
# 1 0.015516 -0.003592 -0.000752 -0.001326 -0.006054 0.003079
# 2 -0.003592 0.011693 -0.002416 0.005447 0.001420 0.004843
# 3 -0.000752 -0.002416 0.008212 0.001943 -0.001919 0.001533
# 4 -0.001326 0.005447 0.001943 0.027857 0.002740 0.007101
# 5 -0.006054 0.001420 -0.001919 0.002740 0.036591 -0.007618
# 6 0.003079 0.004843 0.001533 0.007101 -0.007618 0.030226
#
#
# Mechanical properties :
#
#
# Convention : Reuss Voigt Hill
#
# Bulk Modulus (GPa) = 45.66291 62.10786 53.88539
# Shear Modulus (GPa) = 33.13100 39.64906 36.39003
#
# Velocity S-wave (km/s) = 3.87949 4.24398 4.06582
# Velocity P-wave (km/s) = 6.38831 7.22696 6.82054
#
# Compressibility (1/GPa) = 0.02189961
#
# Stress axis : x y z
#
# Youngs Moduli (GPa) = 64.44834 85.52456 121.77220
#
# Poissons Ratio (x) = 0.30720 0.09160
# Poissons Ratio (y) = 0.23149 0.29426
# Poissons Ratio (z) = 0.04848 0.20667
#
# Static dielectric constant tensor:
#      x y z
#    x 3.845290 -0.063180 0.071110 
#    y -0.063180 3.959440 -0.329250 
#    z 0.071110 -0.329250 4.087530 
# 
# 
# High freq. dielectric constant tensor:
#      x y z
#    x 1.866920 -0.005690 0.007670 
#    y -0.005690 1.871710 -0.010670 
#    z 0.007670 -0.010670 1.881430 
# 
# From -- ./inp_files/346253.got.cif
#   From: 2010.06.25/outbox.cif.g09.slc.cpg/sg2_174_cif.got.tgz:346253.got - 2010.06.27 13:26:56.
