data_PCOD8014801
_publ_section_title
;
Structure prediction by ZEFSAII (Michael W. Deem and Ramdas Pophale) SiO2 
 PCOD8014801
Probable space group: P -1
;
_chemical_formula_sum "Si O2"
_cell_formula_units_Z 16
_cell_length_a 15.678547
_cell_length_b 9.037704
_cell_length_c 11.785978
_cell_angle_alpha 128.751839
_cell_angle_beta 116.228389
_cell_angle_gamma 105.677295
_cell_volume 728.617362
_symmetry_space_group_name_H-M "P -1"
_symmetry_group_IT_number 2
_symmetry_cell_setting 'triclinic'
loop_
_space_group_symop_operation_xyz
x,y,z
-x,-y,-z
loop_
_atom_site_type_symbol
_atom_site_label
_atom_site_fract_x
_atom_site_fract_y
_atom_site_fract_z
Si Si1 0.055276 0.805337 0.923969
Si Si2 0.135437 0.188138 0.761918
Si Si3 0.982188 0.007942 0.806777
Si Si4 0.367341 0.523329 0.684449
Si Si5 0.104892 0.705587 0.549468
Si Si6 0.594439 0.051511 0.229007
Si Si7 0.560256 0.106267 0.715190
Si Si8 0.615485 0.758717 0.604620
O O1 0.001721 0.506661 0.724754
O O2 0.010470 0.848662 0.804243
O O3 0.971910 0.760561 0.963488
O O4 0.231429 0.094838 0.188418
O O5 0.089637 0.218868 0.865978
O O6 0.159637 0.005163 0.717251
O O7 0.299500 0.535146 0.998479
O O8 0.000000 0.000000 0.500000
O O9 0.812577 0.750055 0.533067
O O10 0.421059 0.759050 0.735182
O O11 0.415991 0.386581 0.606561
O O12 0.451683 0.700225 0.936426
O O13 0.252206 0.799745 0.662187
O O14 0.000000 0.500000 0.500000
O O15 0.578054 0.046229 0.354258
O O16 0.500000 0.000000 0.500000
O O17 0.621968 0.993135 0.721479
O O18 0.500000 0.500000 0.500000
#
# Coordination Sequence:
#
# PCOD8014801 Si02
#       8
#     2   2   2   2   2   2   2   2
#     4  10  22  39  73 105 132 170 251 295 344 400
#     4  12  27  48  69 100 153 188 230 290 355 430
#     4  10  21  42  70 102 138 179 230 296 353 399
#     4  10  21  41  74 106 131 178 240 307 339 403
#     4  12  25  44  76 105 130 186 240 290 348 416
#     4  11  24  44  69 104 146 177 235 291 353 416
#     4  12  30  47  68 104 151 193 230 286 365 425
#     4  11  24  43  73 101 135 184 244 294 345 419
#
# _framework density 21.959399000000001
#
# number of rings (size 3 to 8) (size 9 to 14) (size 15 to 20)
#    0.000    1.000    3.750    1.500    7.000    1.500 
#    4.500    3.125    0.000    0.000    0.000    0.000 
#    0.000    0.000    0.000    0.000    0.000    0.000 
#
# Total GULP energy -198240.804944 kJ/mol
# GULP energy per Si atom -12390.050309 kJ/mol
# Density = 2.190942 g / cm^3
# Si number density = 21.959399 Si / 1000 Ang^3
#
#
#
# Elastic Constant Matrix: (Units=GPa)
#
#
# Indices 1 2 3 4 5 6 
#
# 1 136.6832 56.7823 40.3644 5.4997 -11.1329 16.5723
# 2 56.7823 83.1325 31.7128 0.0796 -8.0439 17.5066
# 3 40.3644 31.7128 101.7353 3.8259 -21.0257 8.0292
# 4 5.4997 0.0796 3.8259 37.4248 -4.3733 -9.3184
# 5 -11.1329 -8.0439 -21.0257 -4.3733 34.9183 4.3195
# 6 16.5723 17.5066 8.0292 -9.3184 4.3195 35.5112
#
#
#
# Elastic Compliance Matrix: (Units=1/GPa)
#
#
# Indices 1 2 3 4 5 6 
#
# 1 0.010848 -0.006106 -0.001971 -0.001820 0.000909 -0.002195
# 2 -0.006106 0.018585 -0.002585 -0.000187 0.001492 -0.005959
# 3 -0.001971 -0.002585 0.012967 -0.000677 0.006713 -0.001732
# 4 -0.001820 -0.000187 -0.000677 0.029387 0.001584 0.008614
# 5 0.000909 0.001492 0.006713 0.001584 0.034308 -0.006435
# 6 -0.002195 -0.005959 -0.001732 0.008614 -0.006435 0.035557
#
#
# Mechanical properties :
#
#
# Convention : Reuss Voigt Hill
#
# Bulk Modulus (GPa) = 47.44824 64.36334 55.90579
# Shear Modulus (GPa) = 29.41137 34.41696 31.91417
#
# Velocity S-wave (km/s) = 3.66369 3.96321 3.81639
# Velocity P-wave (km/s) = 6.28896 7.09341 6.70326
#
# Compressibility (1/GPa) = 0.02107560
#
# Stress axis : x y z
#
# Youngs Moduli (GPa) = 92.18060 53.80689 77.11879
#
# Poissons Ratio (x) = 0.32854 0.15203
# Poissons Ratio (y) = 0.56284 0.19936
# Poissons Ratio (z) = 0.18172 0.13910
#
# Static dielectric constant tensor:
#      x y z
#    x 3.985700 0.275050 -0.347870 
#    y 0.275050 3.606630 0.049620 
#    z -0.347870 0.049620 4.196730 
# 
# 
# High freq. dielectric constant tensor:
#      x y z
#    x 1.881760 0.012840 -0.013690 
#    y 0.012840 1.835980 0.001060 
#    z -0.013690 0.001060 1.881920 
# 
# From -- ./inp_files/448224.got.cif
#   From: 2010.06.25/outbox.cif.g09.slc.cpg/sg2_225_cif.got.tgz:448224.got - 2010.06.27 13:26:56.
