data_PCOD8014578
_publ_section_title
;
Structure prediction by ZEFSAII (Michael W. Deem and Ramdas Pophale) SiO2 
 PCOD8014578
Probable space group: P -1
;
_chemical_formula_sum "Si O2"
_cell_formula_units_Z 14
_cell_length_a 8.176292
_cell_length_b 12.273201
_cell_length_c 7.871158
_cell_angle_alpha 111.405946
_cell_angle_beta 97.437619
_cell_angle_gamma 53.228910
_cell_volume 584.849961
_symmetry_space_group_name_H-M "P -1"
_symmetry_group_IT_number 2
_symmetry_cell_setting 'triclinic'
loop_
_space_group_symop_operation_xyz
x,y,z
-x,-y,-z
loop_
_atom_site_type_symbol
_atom_site_label
_atom_site_fract_x
_atom_site_fract_y
_atom_site_fract_z
Si Si1 0.318545 0.536614 0.290110
Si Si2 0.195013 0.840851 0.377365
Si Si3 0.816526 0.806238 0.736189
Si Si4 0.646197 0.730355 0.365094
Si Si5 0.783369 0.083092 0.932379
Si Si6 0.344389 0.284278 0.034951
Si Si7 0.262650 0.547644 0.670833
O O1 0.173980 0.713783 0.359952
O O2 0.234311 0.459626 0.129155
O O3 0.332313 0.485876 0.455149
O O4 0.548803 0.469197 0.216681
O O5 0.412633 0.806173 0.444353
O O6 0.198513 0.835277 0.173214
O O7 0.000000 0.000000 0.500000
O O8 0.749658 0.779487 0.532521
O O9 0.745873 0.770065 0.876346
O O10 0.062415 0.712929 0.733521
O O11 0.730869 0.972639 0.808416
O O12 0.782694 0.555112 0.299005
O O13 0.659573 0.763660 0.187195
O O14 0.582581 0.205578 0.082667
O O15 0.000000 0.000000 0.000000
#
# Coordination Sequence:
#
# PCOD8014578 Si02
#       7
#     2   2   2   2   2   2   2
#     4  10  21  42  72  97 137 175 230 287 325 407
#     4  10  23  43  68 103 130 184 232 273 336 404
#     4  12  24  45  70  95 144 177 220 289 340 401
#     4  10  24  42  69 100 138 176 228 276 342 407
#     4  11  26  45  67  98 134 182 230 276 340 410
#     4  11  25  43  68 104 134 176 228 281 343 399
#     4  10  21  41  69 100 130 183 220 271 347 397
#
# _framework density 23.937764999999999
#
# number of rings (size 3 to 8) (size 9 to 14) (size 15 to 20)
#    0.000    1.429    1.429    2.571    2.000    9.143 
#    5.143    0.000    0.000    0.000    0.000    0.000 
#    0.000    0.000    0.000    0.000    0.000    0.000 
#
# Total GULP energy -173501.300809 kJ/mol
# GULP energy per Si atom -12392.950058 kJ/mol
# Density = 2.388328 g / cm^3
# Si number density = 23.937765 Si / 1000 Ang^3
#
#
#
# Elastic Constant Matrix: (Units=GPa)
#
#
# Indices 1 2 3 4 5 6 
#
# 1 55.9383 18.6873 24.2335 -9.8553 -9.4185 1.8560
# 2 18.6873 104.8789 26.8589 -4.3421 5.5312 0.0001
# 3 24.2335 26.8589 87.0792 -10.5339 -5.0745 18.3461
# 4 -9.8553 -4.3421 -10.5339 36.8961 0.1600 -4.7809
# 5 -9.4185 5.5312 -5.0745 0.1600 27.8678 7.1484
# 6 1.8560 0.0001 18.3461 -4.7809 7.1484 43.2367
#
#
#
# Elastic Compliance Matrix: (Units=1/GPa)
#
#
# Indices 1 2 3 4 5 6 
#
# 1 0.022902 -0.003148 -0.004462 0.004462 0.007484 0.000166
# 2 -0.003148 0.011177 -0.003330 -0.000163 -0.004470 0.002269
# 3 -0.004462 -0.003330 0.015654 0.001982 0.003750 -0.006852
# 4 0.004462 -0.000163 0.001982 0.029093 0.001226 0.001982
# 5 0.007484 -0.004470 0.003750 0.001226 0.042222 -0.008757
# 6 0.000166 0.002269 -0.006852 0.001982 -0.008757 0.027696
#
#
# Mechanical properties :
#
#
# Convention : Reuss Voigt Hill
#
# Bulk Modulus (GPa) = 35.90006 43.05065 39.47536
# Shear Modulus (GPa) = 27.79185 33.47457 30.63321
#
# Velocity S-wave (km/s) = 3.41105 3.74358 3.58117
# Velocity P-wave (km/s) = 5.52661 6.05882 5.79882
#
# Compressibility (1/GPa) = 0.02785511
#
# Stress axis : x y z
#
# Youngs Moduli (GPa) = 43.66394 89.46586 63.88080
#
# Poissons Ratio (x) = 0.28165 0.28501
# Poissons Ratio (y) = 0.13746 0.21270
# Poissons Ratio (z) = 0.19481 0.29789
#
# Static dielectric constant tensor:
#      x y z
#    x 4.776600 -0.508380 0.017460 
#    y -0.508380 5.292790 -0.147290 
#    z 0.017460 -0.147290 4.132890 
# 
# 
# High freq. dielectric constant tensor:
#      x y z
#    x 1.947220 0.001690 -0.009140 
#    y 0.001690 1.966200 -0.000200 
#    z -0.009140 -0.000200 1.933470 
# 
# From -- ./inp_files/181618.got.cif
#   From: 2010.06.25/outbox.cif.g09.slc.cpg/sg2_91_cif.got.tgz:181618.got - 2010.06.27 13:26:56.
