data_PCOD8014953
_publ_section_title
;
Structure prediction by ZEFSAII (Michael W. Deem and Ramdas Pophale) SiO2 
 PCOD8014953
Probable space group: P -1
;
_chemical_formula_sum "Si O2"
_cell_formula_units_Z 14
_cell_length_a 8.255271
_cell_length_b 12.161100
_cell_length_c 8.632453
_cell_angle_alpha 69.246547
_cell_angle_beta 130.417201
_cell_angle_gamma 117.161422
_cell_volume 584.865076
_symmetry_space_group_name_H-M "P -1"
_symmetry_group_IT_number 2
_symmetry_cell_setting 'triclinic'
loop_
_space_group_symop_operation_xyz
x,y,z
-x,-y,-z
loop_
_atom_site_type_symbol
_atom_site_label
_atom_site_fract_x
_atom_site_fract_y
_atom_site_fract_z
Si Si1 0.040550 0.716764 0.642834
Si Si2 0.182047 0.133903 0.966555
Si Si3 0.802033 0.506264 0.070058
Si Si4 0.023676 0.754699 0.949631
Si Si5 0.257318 0.948062 0.457161
Si Si6 0.688286 0.618202 0.236789
Si Si7 0.451007 0.955418 0.163915
O O1 0.804604 0.630603 0.469979
O O2 0.169183 0.626870 0.832656
O O3 0.997902 0.787561 0.736157
O O4 0.185570 0.807105 0.553336
O O5 0.315730 0.245030 0.881549
O O6 0.947567 0.046802 0.782785
O O7 0.139250 0.191393 0.075502
O O8 0.334354 0.047031 0.130951
O O9 0.832495 0.570171 0.225737
O O10 0.555930 0.482468 0.856390
O O11 0.971153 0.606406 0.011920
O O12 0.280608 0.816314 0.135233
O O13 0.500000 0.000000 0.500000
O O14 0.315127 0.034674 0.606006
O O15 0.500000 0.000000 0.000000
#
# Coordination Sequence:
#
# PCOD8014953 Si02
#       7
#     2   2   2   2   2   2   2
#     4  11  22  41  63  95 129 165 214 265 311 380
#     4  10  23  44  65  91 131 168 214 265 314 383
#     4  10  21  42  64  88 130 167 210 262 316 369
#     4  11  23  40  64  98 129 167 213 260 317 383
#     4  11  23  41  66  96 126 169 216 255 322 382
#     4   9  21  40  64  92 120 170 216 257 315 377
#     4  12  24  44  66  94 129 171 211 265 323 371
#
# _framework density 23.937145000000001
#
# number of rings (size 3 to 8) (size 9 to 14) (size 15 to 20)
#    0.000    1.429    2.857    2.143    0.000    1.143 
#    0.000    1.429    0.000    0.000    0.000    0.000 
#    0.000    0.000    0.000    0.000    0.000    0.000 
#
# Total GULP energy -173453.830138 kJ/mol
# GULP energy per Si atom -12389.559296 kJ/mol
# Density = 2.388266 g / cm^3
# Si number density = 23.937145 Si / 1000 Ang^3
#
#
#
# Elastic Constant Matrix: (Units=GPa)
#
#
# Indices 1 2 3 4 5 6 
#
# 1 58.2891 34.8961 36.9081 0.6200 -9.1672 11.5109
# 2 34.8961 95.6089 14.4770 15.8097 5.0276 23.7632
# 3 36.9081 14.4770 116.3598 37.8670 -10.1072 -9.6427
# 4 0.6200 15.8097 37.8670 47.6891 -0.8418 -2.0775
# 5 -9.1672 5.0276 -10.1072 -0.8418 26.9690 4.7810
# 6 11.5109 23.7632 -9.6427 -2.0775 4.7810 31.1651
#
#
#
# Elastic Compliance Matrix: (Units=1/GPa)
#
#
# Indices 1 2 3 4 5 6 
#
# 1 0.037826 -0.012104 -0.015368 0.015482 0.011655 -0.010253
# 2 -0.012104 0.018137 0.003397 -0.008996 -0.005062 -0.008131
# 3 -0.015368 0.003397 0.018651 -0.015403 -0.000756 0.007946
# 4 0.015482 -0.008996 -0.015403 0.035956 0.002577 -0.001623
# 5 0.011655 -0.005062 -0.000756 0.002577 0.043043 -0.007111
# 6 -0.010253 -0.008131 0.007946 -0.001623 -0.007111 0.045515
#
#
# Mechanical properties :
#
#
# Convention : Reuss Voigt Hill
#
# Bulk Modulus (GPa) = 37.78558 49.20226 43.49392
# Shear Modulus (GPa) = 19.52364 33.42977 26.47670
#
# Velocity S-wave (km/s) = 2.85901 3.74112 3.32941
# Velocity P-wave (km/s) = 5.16896 6.26583 5.74364
#
# Compressibility (1/GPa) = 0.02646512
#
# Stress axis : x y z
#
# Youngs Moduli (GPa) = 26.43695 55.13450 53.61518
#
# Poissons Ratio (x) = 0.66734 0.82394
# Poissons Ratio (y) = 0.31999 -0.18212
# Poissons Ratio (z) = 0.40628 -0.18728
#
# Static dielectric constant tensor:
#      x y z
#    x 4.317600 0.230520 -0.205300 
#    y 0.230520 4.524880 0.437220 
#    z -0.205300 0.437220 4.839370 
# 
# 
# High freq. dielectric constant tensor:
#      x y z
#    x 1.935480 0.022580 -0.024210 
#    y 0.022580 1.958750 0.021050 
#    z -0.024210 0.021050 1.950240 
# 
# From -- ./inp_files/186237.got.cif
#   From: 2010.06.25/outbox.cif.g09.slc.cpg/sg2_94_cif.got.tgz:186237.got - 2010.06.27 13:26:56.
