data_PCOD8014007
_publ_section_title
;
Structure prediction by ZEFSAII (Michael W. Deem and Ramdas Pophale) SiO2 
 PCOD8014007
Probable space group: P -1
;
_chemical_formula_sum "Si O2"
_cell_formula_units_Z 16
_cell_length_a 18.506040
_cell_length_b 8.605392
_cell_length_c 5.745177
_cell_angle_alpha 53.399798
_cell_angle_beta 88.518211
_cell_angle_gamma 92.740316
_cell_volume 731.991440
_symmetry_space_group_name_H-M "P -1"
_symmetry_group_IT_number 2
_symmetry_cell_setting 'triclinic'
loop_
_space_group_symop_operation_xyz
x,y,z
-x,-y,-z
loop_
_atom_site_type_symbol
_atom_site_label
_atom_site_fract_x
_atom_site_fract_y
_atom_site_fract_z
Si Si1 0.974343 0.709340 0.335354
Si Si2 0.274755 0.060131 0.917242
Si Si3 0.610886 0.648950 0.589686
Si Si4 0.163020 0.191326 0.472673
Si Si5 0.483655 0.890670 0.350913
Si Si6 0.061641 0.027709 0.283202
Si Si7 0.662282 0.307423 0.592382
Si Si8 0.715239 0.630571 0.978266
O O1 0.908813 0.712430 0.523099
O O2 0.000000 0.500000 0.500000
O O3 0.944513 0.771822 0.033603
O O4 0.047341 0.846348 0.271166
O O5 0.340762 0.164908 0.675522
O O6 0.198204 0.069183 0.782409
O O7 0.270518 0.168246 0.065827
O O8 0.288308 0.834286 0.145627
O O9 0.528124 0.698837 0.528594
O O10 0.621554 0.448025 0.639170
O O11 0.634952 0.622706 0.878502
O O12 0.139466 0.043901 0.392715
O O13 0.221906 0.364224 0.228475
O O14 0.398542 0.823510 0.427984
O O15 0.500000 0.000000 0.500000
O O16 0.500000 0.000000 0.000000
O O17 0.000000 0.000000 0.500000
O O18 0.717399 0.438646 0.306238
#
# Coordination Sequence:
#
# PCOD8014007 Si02
#       8
#     2   2   2   2   2   2   2   2
#     4  10  21  41  67  96 130 165 213 273 327 397
#     4  10  21  43  63  90 132 176 222 279 335 412
#     4  10  23  42  65  97 134 172 231 286 348 409
#     4  10  21  41  64  90 135 172 216 266 340 403
#     4  12  26  44  74 102 138 189 236 294 367 416
#     4   9  20  40  63  92 124 164 204 262 324 391
#     4  11  24  42  69  96 133 175 234 285 346 407
#     4  10  23  41  64  92 130 179 223 282 336 411
#
# _framework density 21.858179
#
# number of rings (size 3 to 8) (size 9 to 14) (size 15 to 20)
#    0.000    1.750    1.250    1.875    3.500    4.500 
#    0.000   30.000    0.000    0.000    0.000    0.000 
#    0.000    0.000    0.000    0.000    0.000    0.000 
#
# Total GULP energy -198310.039951 kJ/mol
# GULP energy per Si atom -12394.377497 kJ/mol
# Density = 2.180843 g / cm^3
# Si number density = 21.858179 Si / 1000 Ang^3
#
#
#
# Elastic Constant Matrix: (Units=GPa)
#
#
# Indices 1 2 3 4 5 6 
#
# 1 102.6998 44.6126 35.0410 -6.4072 20.8292 5.3456
# 2 44.6126 111.0929 72.3399 -6.3838 27.5536 2.8542
# 3 35.0410 72.3399 112.2362 -7.4669 15.2430 -4.5622
# 4 -6.4072 -6.3838 -7.4669 42.9221 0.4232 11.4669
# 5 20.8292 27.5536 15.2430 0.4232 40.8377 7.4969
# 6 5.3456 2.8542 -4.5622 11.4669 7.4969 32.7204
#
#
#
# Elastic Compliance Matrix: (Units=1/GPa)
#
#
# Indices 1 2 3 4 5 6 
#
# 1 0.012449 -0.003112 -0.001375 0.001657 -0.003433 -0.001748
# 2 -0.003112 0.018638 -0.010077 0.000958 -0.007007 -0.001253
# 3 -0.001375 -0.010077 0.015830 0.000241 0.001041 0.002988
# 4 0.001657 0.000958 0.000241 0.026269 -0.000110 -0.009502
# 5 -0.003433 -0.007007 0.001041 -0.000110 0.031661 -0.005899
# 6 -0.001748 -0.001253 0.002988 -0.009502 -0.005899 0.036055
#
#
# Mechanical properties :
#
#
# Convention : Reuss Voigt Hill
#
# Bulk Modulus (GPa) = 56.21620 70.00177 63.10898
# Shear Modulus (GPa) = 28.41554 34.89840 31.65697
#
# Velocity S-wave (km/s) = 3.60946 4.00006 3.80977
# Velocity P-wave (km/s) = 6.56851 7.30951 6.94890
#
# Compressibility (1/GPa) = 0.01778847
#
# Stress axis : x y z
#
# Youngs Moduli (GPa) = 80.32862 53.65420 63.17053
#
# Poissons Ratio (x) = 0.16697 0.08689
# Poissons Ratio (y) = 0.24999 0.63655
# Poissons Ratio (z) = 0.11049 0.54066
#
# Static dielectric constant tensor:
#      x y z
#    x 4.214660 0.435370 0.044820 
#    y 0.435370 4.074880 0.263610 
#    z 0.044820 0.263610 4.204000 
# 
# 
# High freq. dielectric constant tensor:
#      x y z
#    x 1.858920 0.016330 0.002570 
#    y 0.016330 1.847520 0.015920 
#    z 0.002570 0.015920 1.867970 
# 
# From -- ./inp_files/11088.got.cif
#   From: 2010.06.25/outbox.cif.g09.slc.cpg/sg2_6_cif.got.tgz:11088.got - 2010.06.27 13:26:56.
