data_PCOD8014776
_publ_section_title
;
Structure prediction by ZEFSAII (Michael W. Deem and Ramdas Pophale) SiO2 
 PCOD8014776
Probable space group: P -1
;
_chemical_formula_sum "Si O2"
_cell_formula_units_Z 16
_cell_length_a 12.966752
_cell_length_b 11.505036
_cell_length_c 13.038285
_cell_angle_alpha 114.425944
_cell_angle_beta 144.302438
_cell_angle_gamma 92.189280
_cell_volume 733.913493
_symmetry_space_group_name_H-M "P -1"
_symmetry_group_IT_number 2
_symmetry_cell_setting 'triclinic'
loop_
_space_group_symop_operation_xyz
x,y,z
-x,-y,-z
loop_
_atom_site_type_symbol
_atom_site_label
_atom_site_fract_x
_atom_site_fract_y
_atom_site_fract_z
Si Si1 0.544886 0.988862 0.335557
Si Si2 0.699780 0.740697 0.689045
Si Si3 0.642269 0.882254 0.180618
Si Si4 0.814058 0.515250 0.382378
Si Si5 0.895547 0.975968 0.737698
Si Si6 0.035703 0.148674 0.444450
Si Si7 0.793314 0.390945 0.706407
Si Si8 0.022653 0.347324 0.211431
O O1 0.526671 0.929529 0.181305
O O2 0.726113 0.993143 0.550262
O O3 0.653420 0.185800 0.502560
O O4 0.264268 0.843711 0.100067
O O5 0.406640 0.601062 0.423261
O O6 0.788627 0.648170 0.692972
O O7 0.753416 0.866660 0.686573
O O8 0.836821 0.837045 0.942860
O O9 0.830920 0.895008 0.402940
O O10 0.455827 0.682907 0.912256
O O11 0.763971 0.017484 0.230948
O O12 0.837302 0.646877 0.370373
O O13 0.882043 0.600998 0.578647
O O14 0.000000 0.500000 0.500000
O O15 0.964025 0.890954 0.689285
O O16 0.938780 0.496860 0.756600
O O17 0.000000 0.500000 0.000000
#
# Coordination Sequence:
#
# PCOD8014776 Si02
#       8
#     2   2   2   2   2   2   2   2
#     4  11  24  45  69  97 139 174 220 281 334 398
#     4  11  23  43  68  97 131 174 222 278 333 401
#     4  10  24  44  69  99 133 178 224 271 333 398
#     4  12  25  42  68 101 136 174 222 277 331 396
#     4  10  21  41  72  96 131 180 220 271 343 391
#     4  10  23  45  68  98 133 180 221 274 334 397
#     4  12  28  46  69 101 133 175 225 278 335 402
#     4  12  26  45  67 101 135 181 223 274 339 394
#
# _framework density 21.800934000000002
#
# number of rings (size 3 to 8) (size 9 to 14) (size 15 to 20)
#    0.000    1.000    2.500    3.750    3.500    2.000 
#    4.500    0.000    0.000    0.000    0.000    0.000 
#    0.000    0.000    0.000    0.000    0.000    0.000 
#
# Total GULP energy -198330.146370 kJ/mol
# GULP energy per Si atom -12395.634148 kJ/mol
# Density = 2.175131 g / cm^3
# Si number density = 21.800934 Si / 1000 Ang^3
#
#
#
# Elastic Constant Matrix: (Units=GPa)
#
#
# Indices 1 2 3 4 5 6 
#
# 1 95.3824 50.1185 59.8973 5.2910 11.5071 -10.6976
# 2 50.1185 106.1870 46.4045 30.8134 0.0291 4.7111
# 3 59.8973 46.4045 130.3221 23.1393 -7.9758 6.1755
# 4 5.2910 30.8134 23.1393 39.0785 4.3639 0.6532
# 5 11.5071 0.0291 -7.9758 4.3639 26.4492 0.9844
# 6 -10.6976 4.7111 6.1755 0.6532 0.9844 30.9262
#
#
#
# Elastic Compliance Matrix: (Units=1/GPa)
#
#
# Indices 1 2 3 4 5 6 
#
# 1 0.029215 -0.013338 -0.013570 0.016587 -0.020088 0.015136
# 2 -0.013338 0.019459 0.003077 -0.016307 0.009703 -0.008157
# 3 -0.013570 0.003077 0.016031 -0.011383 0.012930 -0.008535
# 4 0.016587 -0.016307 -0.011383 0.044828 -0.018404 0.010133
# 5 -0.020088 0.009703 0.012930 -0.018404 0.053932 -0.012337
# 6 0.015136 -0.008157 -0.008535 0.010133 -0.012337 0.040696
#
#
# Mechanical properties :
#
#
# Convention : Reuss Voigt Hill
#
# Bulk Modulus (GPa) = 58.67191 71.63690 65.15441
# Shear Modulus (GPa) = 19.41722 30.98884 25.20303
#
# Velocity S-wave (km/s) = 2.98763 3.77430 3.40377
# Velocity P-wave (km/s) = 6.23476 7.20588 6.73784
#
# Compressibility (1/GPa) = 0.01704393
#
# Stress axis : x y z
#
# Youngs Moduli (GPa) = 34.22921 51.38988 62.37820
#
# Poissons Ratio (x) = 0.68544 0.84646
# Poissons Ratio (y) = 0.45655 -0.19194
# Poissons Ratio (z) = 0.46448 -0.15813
#
# Static dielectric constant tensor:
#      x y z
#    x 4.092990 0.104490 0.108130 
#    y 0.104490 4.063150 -0.005430 
#    z 0.108130 -0.005430 3.133910 
# 
# 
# High freq. dielectric constant tensor:
#      x y z
#    x 1.864340 0.002450 0.001220 
#    y 0.002450 1.871170 -0.000030 
#    z 0.001220 -0.000030 1.859800 
# 
# From -- ./inp_files/428603.got.cif
#   From: 2010.06.25/outbox.cif.g09.slc.cpg/sg2_215_cif.got.tgz:428603.got - 2010.06.27 13:26:56.
