data_PCOD8014305
_publ_section_title
;
Structure prediction by ZEFSAII (Michael W. Deem and Ramdas Pophale) SiO2 
 PCOD8014305
Probable space group: P -1
;
_chemical_formula_sum "Si O2"
_cell_formula_units_Z 14
_cell_length_a 9.379456
_cell_length_b 11.325612
_cell_length_c 7.667587
_cell_angle_alpha 107.155420
_cell_angle_beta 50.588677
_cell_angle_gamma 111.423944
_cell_volume 583.560542
_symmetry_space_group_name_H-M "P -1"
_symmetry_group_IT_number 2
_symmetry_cell_setting 'triclinic'
loop_
_space_group_symop_operation_xyz
x,y,z
-x,-y,-z
loop_
_atom_site_type_symbol
_atom_site_label
_atom_site_fract_x
_atom_site_fract_y
_atom_site_fract_z
Si Si1 0.172741 0.771112 0.346811
Si Si2 0.924471 0.078265 0.820161
Si Si3 0.435419 0.089331 0.831552
Si Si4 0.568312 0.374436 0.355412
Si Si5 0.895694 0.276830 0.232574
Si Si6 0.348281 0.119165 0.529129
Si Si7 0.873952 0.473164 0.912441
O O1 0.086839 0.865640 0.337861
O O2 0.401835 0.806009 0.150948
O O3 0.137261 0.795690 0.589030
O O4 0.071293 0.626092 0.309313
O O5 0.128140 0.044380 0.652515
O O6 0.907462 0.178201 0.028340
O O7 0.756188 0.950752 0.920807
O O8 0.389211 0.149811 0.713657
O O9 0.513796 0.963410 0.686964
O O10 0.500000 0.500000 0.500000
O O11 0.723658 0.345522 0.359612
O O12 0.389393 0.251980 0.446945
O O13 0.659879 0.403362 0.104568
O O14 0.093254 0.387585 0.141026
O O15 0.000000 0.500000 0.000000
#
# Coordination Sequence:
#
# PCOD8014305 Si02
#       7
#     2   2   2   2   2   2   2
#     4  12  23  42  74 101 142 185 231 297 347 417
#     4  12  24  44  75 103 139 190 232 287 352 418
#     4  11  23  45  69 104 146 184 235 290 345 415
#     4  11  21  40  71  99 137 184 230 286 346 414
#     4  11  22  44  69 102 142 182 234 286 354 413
#     4  11  23  44  73 104 143 189 235 284 352 417
#     4  10  21  41  66  94 133 185 230 278 353 407
#
# _framework density 23.990656999999999
#
# number of rings (size 3 to 8) (size 9 to 14) (size 15 to 20)
#    0.000    0.857    5.714    3.000    2.000    0.571 
#    0.000    3.571    0.000    0.000    0.000    0.000 
#    0.000    0.000    0.000    0.000    0.000    0.000 
#
# Total GULP energy -173529.434415 kJ/mol
# GULP energy per Si atom -12394.959601 kJ/mol
# Density = 2.393605 g / cm^3
# Si number density = 23.990657 Si / 1000 Ang^3
#
#
#
# Elastic Constant Matrix: (Units=GPa)
#
#
# Indices 1 2 3 4 5 6 
#
# 1 85.4303 6.9279 25.6288 -7.9246 -0.5670 2.5381
# 2 6.9279 87.1671 17.3738 -33.2992 2.2140 6.4228
# 3 25.6288 17.3738 90.0743 -30.8314 -2.5335 -14.0781
# 4 -7.9246 -33.2992 -30.8314 37.5054 8.0527 -3.9738
# 5 -0.5670 2.2140 -2.5335 8.0527 39.4456 -3.8406
# 6 2.5381 6.4228 -14.0781 -3.9738 -3.8406 28.6982
#
#
#
# Elastic Compliance Matrix: (Units=1/GPa)
#
#
# Indices 1 2 3 4 5 6 
#
# 1 0.013157 -0.000655 -0.005003 -0.002317 0.000009 -0.003791
# 2 -0.000655 0.018770 0.003308 0.020285 -0.005029 -0.000385
# 3 -0.005003 0.003308 0.020936 0.020841 -0.001941 0.012598
# 4 -0.002317 0.020285 0.020841 0.065276 -0.011860 0.013340
# 5 0.000009 -0.005029 -0.001941 -0.011860 0.028154 0.002298
# 6 -0.003791 -0.000385 0.012598 0.013340 0.002298 0.043602
#
#
# Mechanical properties :
#
#
# Convention : Reuss Voigt Hill
#
# Bulk Modulus (GPa) = 20.76285 40.28142 30.52214
# Shear Modulus (GPa) = 23.73622 35.31260 29.52441
#
# Velocity S-wave (km/s) = 3.14888 3.84074 3.51189
# Velocity P-wave (km/s) = 4.67909 6.04113 5.40320
#
# Compressibility (1/GPa) = 0.04816294
#
# Stress axis : x y z
#
# Youngs Moduli (GPa) = 76.00463 53.27600 47.76541
#
# Poissons Ratio (x) = 0.03488 0.23896
# Poissons Ratio (y) = 0.04976 -0.15799
# Poissons Ratio (z) = 0.38023 -0.17621
#
# Static dielectric constant tensor:
#      x y z
#    x 4.287150 0.192210 0.017420 
#    y 0.192210 4.662680 -0.615900 
#    z 0.017420 -0.615900 4.665170 
# 
# 
# High freq. dielectric constant tensor:
#      x y z
#    x 1.931150 0.008840 0.004260 
#    y 0.008840 1.961090 -0.026340 
#    z 0.004260 -0.026340 1.951230 
# 
# From -- ./inp_files/179819.got.cif
#   From: 2010.06.25/outbox.cif.g09.slc.cpg/sg2_90_cif.got.tgz:179819.got - 2010.06.27 13:26:56.
