data_PCOD8014016
_publ_section_title
;
Structure prediction by ZEFSAII (Michael W. Deem and Ramdas Pophale) SiO2 
 PCOD8014016
Probable space group: P -1
;
_chemical_formula_sum "Si O2"
_cell_formula_units_Z 12
_cell_length_a 8.905720
_cell_length_b 11.860233
_cell_length_c 18.960825
_cell_angle_alpha 22.391502
_cell_angle_beta 56.722763
_cell_angle_gamma 55.899204
_cell_volume 628.798807
_symmetry_space_group_name_H-M "P -1"
_symmetry_group_IT_number 2
_symmetry_cell_setting 'triclinic'
loop_
_space_group_symop_operation_xyz
x,y,z
-x,-y,-z
loop_
_atom_site_type_symbol
_atom_site_label
_atom_site_fract_x
_atom_site_fract_y
_atom_site_fract_z
Si Si1 0.397324 0.173650 0.490984
Si Si2 0.052870 0.580568 0.282826
Si Si3 0.004542 0.252311 0.953991
Si Si4 0.649678 0.691643 0.331265
Si Si5 0.389158 0.301759 0.824487
Si Si6 0.351629 0.790200 0.860530
O O1 0.199822 0.331345 0.425416
O O2 0.512612 0.414654 0.352407
O O3 0.500000 0.000000 0.500000
O O4 0.370092 0.937937 0.694663
O O5 0.077196 0.569054 0.198432
O O6 0.853616 0.511340 0.396801
O O7 0.074640 0.905234 0.118188
O O8 0.182853 0.376121 0.866095
O O9 0.850422 0.294666 0.029758
O O10 0.500000 0.500000 0.500000
O O11 0.631304 0.778854 0.204720
O O12 0.614096 0.993721 0.210091
O O13 0.500000 0.000000 0.000000
O O14 0.500000 0.500000 0.000000
#
# Coordination Sequence:
#
# PCOD8014016 Si02
#       6
#     2   2   2   2   2   2
#     4  12  25  40  61  94 125 159 200 254 308 355
#     4   9  19  37  63  88 122 158 199 247 302 361
#     4   9  19  39  64  87 118 164 201 241 302 363
#     4  10  21  41  64  92 117 161 208 246 296 361
#     4  11  22  39  66  92 120 157 207 250 293 364
#     4  11  24  41  63  88 128 162 198 252 308 354
#
# _framework density 19.084005000000001
#
# number of rings (size 3 to 8) (size 9 to 14) (size 15 to 20)
#    0.000    1.667    3.333    2.000    2.333    4.000 
#    3.000    3.333    0.000    0.000    0.000    0.000 
#    0.000    0.000    0.000    0.000    0.000    0.000 
#
# Total GULP energy -148786.292907 kJ/mol
# GULP energy per Si atom -12398.857742 kJ/mol
# Density = 1.904057 g / cm^3
# Si number density = 19.084005 Si / 1000 Ang^3
#
#
#
# Elastic Constant Matrix: (Units=GPa)
#
#
# Indices 1 2 3 4 5 6 
#
# 1 147.9041 66.1509 76.9863 9.1960 8.1591 -28.0971
# 2 66.1509 126.8015 60.1928 10.7564 6.9875 -15.4666
# 3 76.9863 60.1928 123.4319 17.0835 13.7945 -26.6560
# 4 9.1960 10.7564 17.0835 28.9698 -11.6276 -3.6431
# 5 8.1591 6.9875 13.7945 -11.6276 38.6921 4.9626
# 6 -28.0971 -15.4666 -26.6560 -3.6431 4.9626 32.3213
#
#
#
# Elastic Compliance Matrix: (Units=1/GPa)
#
#
# Indices 1 2 3 4 5 6 
#
# 1 0.011512 -0.003269 -0.004541 0.000581 -0.000668 0.004866
# 2 -0.003269 0.011257 -0.003205 -0.001530 -0.000639 -0.000172
# 3 -0.004541 -0.003205 0.016517 -0.009365 -0.008237 0.008350
# 4 0.000581 -0.001530 -0.009365 0.047103 0.018348 -0.005458
# 5 -0.000668 -0.000639 -0.008237 0.018348 0.035980 -0.011136
# 6 0.004866 -0.000172 0.008350 -0.005458 -0.011136 0.043068
#
#
# Mechanical properties :
#
#
# Convention : Reuss Voigt Hill
#
# Bulk Modulus (GPa) = 57.95018 89.42193 73.68605
# Shear Modulus (GPa) = 25.87758 32.98380 29.43069
#
# Velocity S-wave (km/s) = 3.68636 4.16185 3.93130
# Velocity P-wave (km/s) = 6.96784 8.36979 7.70078
#
# Compressibility (1/GPa) = 0.01725620
#
# Stress axis : x y z
#
# Youngs Moduli (GPa) = 86.86607 88.83353 60.54526
#
# Poissons Ratio (x) = 0.29040 0.27493
# Poissons Ratio (y) = 0.28397 0.19403
# Poissons Ratio (z) = 0.39445 0.28468
#
# Static dielectric constant tensor:
#      x y z
#    x 4.025420 -0.185590 -0.352520 
#    y -0.185590 3.622290 0.389160 
#    z -0.352520 0.389160 3.774030 
# 
# 
# High freq. dielectric constant tensor:
#      x y z
#    x 1.756350 -0.013680 -0.003970 
#    y -0.013680 1.735140 0.016180 
#    z -0.003970 0.016180 1.740680 
# 
# From -- ./inp_files/144382.got.cif
#   From: 2010.06.25/outbox.cif.g09.slc.cpg/sg2_73_cif.got.tgz:144382.got - 2010.06.27 13:26:56.
