data_PCOD8014516
_publ_section_title
;
Structure prediction by ZEFSAII (Michael W. Deem and Ramdas Pophale) SiO2 
 PCOD8014516
Probable space group: P -1
;
_chemical_formula_sum "Si O2"
_cell_formula_units_Z 16
_cell_length_a 12.171964
_cell_length_b 14.230640
_cell_length_c 9.242197
_cell_angle_alpha 50.028687
_cell_angle_beta 140.548165
_cell_angle_gamma 112.079119
_cell_volume 755.483912
_symmetry_space_group_name_H-M "P -1"
_symmetry_group_IT_number 2
_symmetry_cell_setting 'triclinic'
loop_
_space_group_symop_operation_xyz
x,y,z
-x,-y,-z
loop_
_atom_site_type_symbol
_atom_site_label
_atom_site_fract_x
_atom_site_fract_y
_atom_site_fract_z
Si Si1 0.910590 0.366537 0.952540
Si Si2 0.029700 0.617043 0.324448
Si Si3 0.538136 0.014539 0.855974
Si Si4 0.649474 0.741827 0.732974
Si Si5 0.602758 0.355005 0.224545
Si Si6 0.833145 0.109526 0.183259
Si Si7 0.717014 0.604864 0.650912
Si Si8 0.448524 0.771721 0.993436
O O1 0.913152 0.428473 0.735440
O O2 0.748752 0.455410 0.792815
O O3 0.885814 0.227095 0.045456
O O4 0.097758 0.357301 0.233052
O O5 0.187617 0.670613 0.501066
O O6 0.000000 0.500000 0.500000
O O7 0.840459 0.722667 0.026827
O O8 0.387696 0.122291 0.517376
O O9 0.545504 0.878476 0.924191
O O10 0.723195 0.056440 0.999699
O O11 0.500000 0.000000 0.000000
O O12 0.490346 0.734194 0.686466
O O13 0.662112 0.630358 0.737117
O O14 0.589270 0.318088 0.081263
O O15 0.500000 0.500000 0.000000
O O16 0.733255 0.152967 0.189664
O O17 0.000000 0.000000 0.500000
O O18 0.565386 0.687131 0.317227
#
# Coordination Sequence:
#
# PCOD8014516 Si02
#       8
#     2   2   2   2   2   2   2   2
#     4  10  23  38  69 103 135 177 238 290 352 408
#     4  11  24  43  65  97 143 185 222 280 351 415
#     4  10  21  44  67  96 134 174 231 289 344 399
#     4  11  23  44  73  96 140 190 225 289 346 413
#     4  12  26  45  69 103 145 184 228 280 358 425
#     4  11  23  40  69 105 136 179 231 296 346 408
#     4  10  21  41  68 103 135 174 235 295 349 407
#     4  11  25  42  69 102 138 179 232 286 350 413
#
# _framework density 21.178478999999999
#
# number of rings (size 3 to 8) (size 9 to 14) (size 15 to 20)
#    0.000    1.250    3.750    2.250    7.000    2.000 
#    2.250    0.625    0.000    0.000    0.000    0.000 
#    0.000    0.000    0.000    0.000    0.000    0.000 
#
# Total GULP energy -198389.046976 kJ/mol
# GULP energy per Si atom -12399.315436 kJ/mol
# Density = 2.113028 g / cm^3
# Si number density = 21.178479 Si / 1000 Ang^3
#
#
#
# Elastic Constant Matrix: (Units=GPa)
#
#
# Indices 1 2 3 4 5 6 
#
# 1 83.7602 29.0234 39.9552 3.5113 2.4342 0.8369
# 2 29.0234 112.6982 56.0960 7.1495 6.6405 -0.9413
# 3 39.9552 56.0960 159.3487 4.1168 11.5423 8.6983
# 4 3.5113 7.1495 4.1168 34.5035 2.2575 -1.5184
# 5 2.4342 6.6405 11.5423 2.2575 32.0057 -0.1117
# 6 0.8369 -0.9413 8.6983 -1.5184 -0.1117 33.6655
#
#
#
# Elastic Compliance Matrix: (Units=1/GPa)
#
#
# Indices 1 2 3 4 5 6 
#
# 1 0.014041 -0.002220 -0.002769 -0.000655 0.000438 0.000276
# 2 -0.002220 0.011287 -0.003379 -0.001604 -0.000837 0.001169
# 3 -0.002769 -0.003379 0.008434 0.000018 -0.002139 -0.002211
# 4 -0.000655 -0.001604 0.000018 0.029548 -0.001704 0.001294
# 5 0.000438 -0.000837 -0.002139 -0.001704 0.032278 0.000549
# 6 0.000276 0.001169 -0.002211 0.001294 0.000549 0.030361
#
#
# Mechanical properties :
#
#
# Convention : Reuss Voigt Hill
#
# Bulk Modulus (GPa) = 58.72722 67.32848 63.02785
# Shear Modulus (GPa) = 33.70157 35.41712 34.55935
#
# Velocity S-wave (km/s) = 3.99345 4.09383 4.04395
# Velocity P-wave (km/s) = 7.00381 7.36247 7.18538
#
# Compressibility (1/GPa) = 0.01702788
#
# Stress axis : x y z
#
# Youngs Moduli (GPa) = 71.22083 88.59368 118.56074
#
# Poissons Ratio (x) = 0.19664 0.32831
# Poissons Ratio (y) = 0.15808 0.40059
# Poissons Ratio (z) = 0.19722 0.29934
#
# Static dielectric constant tensor:
#      x y z
#    x 3.976590 0.052950 0.072830 
#    y 0.052950 4.337580 0.131100 
#    z 0.072830 0.131100 3.974530 
# 
# 
# High freq. dielectric constant tensor:
#      x y z
#    x 1.817760 0.013900 0.003580 
#    y 0.013900 1.827620 0.003930 
#    z 0.003580 0.003930 1.842400 
# 
# From -- ./inp_files/271961.got.cif
#   From: 2010.06.25/outbox.cif.g09.slc.cpg/sg2_136_cif.got.tgz:271961.got - 2010.06.27 13:26:56.
