data_PCOD8014080
_publ_section_title
;
Structure prediction by ZEFSAII (Michael W. Deem and Ramdas Pophale) SiO2 
 PCOD8014080
Probable space group: P -1
;
_chemical_formula_sum "Si O2"
_cell_formula_units_Z 14
_cell_length_a 11.512936
_cell_length_b 11.212891
_cell_length_c 11.768706
_cell_angle_alpha 72.683453
_cell_angle_beta 73.448384
_cell_angle_gamma 136.616880
_cell_volume 642.397617
_symmetry_space_group_name_H-M "P -1"
_symmetry_group_IT_number 2
_symmetry_cell_setting 'triclinic'
loop_
_space_group_symop_operation_xyz
x,y,z
-x,-y,-z
loop_
_atom_site_type_symbol
_atom_site_label
_atom_site_fract_x
_atom_site_fract_y
_atom_site_fract_z
Si Si1 0.547276 0.471584 0.877767
Si Si2 0.925038 0.036755 0.313681
Si Si3 0.031455 0.876045 0.223568
Si Si4 0.405468 0.544857 0.719042
Si Si5 0.037543 0.340776 0.026792
Si Si6 0.153358 0.719530 0.300484
Si Si7 0.755671 0.268210 0.980670
O O1 0.510543 0.521667 0.763452
O O2 0.850634 0.704457 0.735636
O O3 0.500000 0.500000 0.000000
O O4 0.336425 0.166460 0.015843
O O5 0.943588 0.120823 0.162357
O O6 0.642982 0.815651 0.502701
O O7 0.957856 0.917374 0.322353
O O8 0.999944 0.711163 0.335637
O O9 0.839886 0.718164 0.215310
O O10 0.316043 0.572849 0.821212
O O11 0.828446 0.200227 0.033546
O O12 0.068039 0.464243 0.086832
O O13 0.000000 0.500000 0.500000
O O14 0.454055 0.018644 0.165635
O O15 0.164978 0.657483 0.194712
#
# Coordination Sequence:
#
# PCOD8014080 Si02
#       7
#     2   2   2   2   2   2   2
#     4  10  21  41  64  97 137 172 210 270 342 403
#     4  11  25  42  68 107 132 173 221 277 345 399
#     4  11  23  44  68  99 136 173 221 279 340 397
#     4  12  23  41  68 100 140 172 220 275 339 403
#     4  11  23  45  71  96 138 174 226 274 334 401
#     4  11  25  46  68  98 134 175 230 274 330 396
#     4  10  25  46  68  97 131 185 222 273 331 395
#
# _framework density 21.793358000000001
#
# number of rings (size 3 to 8) (size 9 to 14) (size 15 to 20)
#    0.000    1.143    4.286    2.143    4.000    1.143 
#    7.714    2.857    0.000    0.000    0.000    0.000 
#    0.000    0.000    0.000    0.000    0.000    0.000 
#
# Total GULP energy -173591.374297 kJ/mol
# GULP energy per Si atom -12399.383878 kJ/mol
# Density = 2.174375 g / cm^3
# Si number density = 21.793358 Si / 1000 Ang^3
#
#
#
# Elastic Constant Matrix: (Units=GPa)
#
#
# Indices 1 2 3 4 5 6 
#
# 1 105.9484 21.8273 43.3284 9.6351 9.9078 9.4297
# 2 21.8273 84.7695 52.2759 -6.3577 4.4950 20.5492
# 3 43.3284 52.2759 130.9487 5.8172 -6.5158 4.7314
# 4 9.6351 -6.3577 5.8172 26.2548 4.6433 -2.0593
# 5 9.9078 4.4950 -6.5158 4.6433 31.3721 5.4067
# 6 9.4297 20.5492 4.7314 -2.0593 5.4067 34.6019
#
#
#
# Elastic Compliance Matrix: (Units=1/GPa)
#
#
# Indices 1 2 3 4 5 6 
#
# 1 0.011857 -0.000210 -0.003806 -0.003082 -0.003670 -0.002196
# 2 -0.000210 0.019777 -0.007953 0.006532 -0.003726 -0.009629
# 3 -0.003806 -0.007953 0.012381 -0.003911 0.004965 0.003059
# 4 -0.003082 0.006532 -0.003911 0.043063 -0.007357 0.001208
# 5 -0.003670 -0.003726 0.004965 -0.007357 0.036305 -0.003576
# 6 -0.002196 -0.009629 0.003059 0.001208 -0.003576 0.035430
#
#
# Mechanical properties :
#
#
# Convention : Reuss Voigt Hill
#
# Bulk Modulus (GPa) = 49.80886 61.83663 55.82275
# Shear Modulus (GPa) = 26.39289 32.06143 29.22716
#
# Velocity S-wave (km/s) = 3.48379 3.83973 3.66608
# Velocity P-wave (km/s) = 6.25197 6.93496 6.60230
#
# Compressibility (1/GPa) = 0.02007675
#
# Stress axis : x y z
#
# Youngs Moduli (GPa) = 84.33650 50.56275 80.76840
#
# Poissons Ratio (x) = 0.01064 0.30738
# Poissons Ratio (y) = 0.01775 0.64238
# Poissons Ratio (z) = 0.32096 0.40214
#
# Static dielectric constant tensor:
#      x y z
#    x 4.102490 0.317730 -0.132440 
#    y 0.317730 4.063300 -0.178690 
#    z -0.132440 -0.178690 3.896810 
# 
# 
# High freq. dielectric constant tensor:
#      x y z
#    x 1.865090 0.017880 -0.001950 
#    y 0.017880 1.856160 0.000190 
#    z -0.001950 0.000190 1.844960 
# 
# From -- ./inp_files/259327.got.cif
#   From: 2010.06.25/outbox.cif.g09.slc.cpg/sg2_130_cif.got.tgz:259327.got - 2010.06.27 13:26:56.
