data_PCOD8014765
_publ_section_title
;
Structure prediction by ZEFSAII (Michael W. Deem and Ramdas Pophale) SiO2 
 PCOD8014765
Probable space group: P -1
;
_chemical_formula_sum "Si O2"
_cell_formula_units_Z 12
_cell_length_a 16.746973
_cell_length_b 8.945600
_cell_length_c 6.959202
_cell_angle_alpha 49.483271
_cell_angle_beta 134.109175
_cell_angle_gamma 143.034917
_cell_volume 439.451313
_symmetry_space_group_name_H-M "P -1"
_symmetry_group_IT_number 2
_symmetry_cell_setting 'triclinic'
loop_
_space_group_symop_operation_xyz
x,y,z
-x,-y,-z
loop_
_atom_site_type_symbol
_atom_site_label
_atom_site_fract_x
_atom_site_fract_y
_atom_site_fract_z
Si Si1 0.493212 0.718927 0.753759
Si Si2 0.170303 0.396603 0.558267
Si Si3 0.823095 0.650319 0.969767
Si Si4 0.290821 0.054895 0.388845
Si Si5 0.365000 0.897199 0.987865
Si Si6 0.057105 0.859484 0.895220
O O1 0.332873 0.627183 0.572303
O O2 0.552957 0.815199 0.555525
O O3 0.500000 0.500000 0.000000
O O4 0.595104 0.956178 0.868654
O O5 0.049395 0.368645 0.244149
O O6 0.145333 0.132615 0.708864
O O7 0.147523 0.433932 0.710602
O O8 0.728507 0.732921 0.798243
O O9 0.967401 0.863562 0.915642
O O10 0.730323 0.403717 0.881574
O O11 0.271930 0.942069 0.661222
O O12 0.170363 0.841091 0.209134
O O13 0.500000 0.000000 0.000000
#
# Coordination Sequence:
#
# PCOD8014765 Si02
#       6
#     2   2   2   2   2   2
#     4  12  24  44  75 106 137 187 237 291 350 420
#     4  10  21  41  72 102 139 181 238 281 348 412
#     4  11  24  47  71 105 142 186 233 290 350 417
#     4  11  26  46  75 107 137 192 236 282 362 411
#     4  12  28  46  70 109 144 180 238 295 350 418
#     4  10  23  43  72 104 140 191 231 287 349 422
#
# _framework density 27.306777
#
# number of rings (size 3 to 8) (size 9 to 14) (size 15 to 20)
#    0.000    1.000    5.000    2.000    4.667    5.333 
#    0.000    1.667    0.000    0.000    0.000    0.000 
#    0.000    0.000    0.000    0.000    0.000    0.000 
#
# Total GULP energy -148785.680264 kJ/mol
# GULP energy per Si atom -12398.806689 kJ/mol
# Density = 2.724463 g / cm^3
# Si number density = 27.306777 Si / 1000 Ang^3
#
#
#
# Elastic Constant Matrix: (Units=GPa)
#
#
# Indices 1 2 3 4 5 6 
#
# 1 100.9457 21.0135 13.6821 4.1068 -20.6227 16.7063
# 2 21.0135 92.0063 34.5698 33.7620 2.4305 -6.3040
# 3 13.6821 34.5698 122.4352 32.8506 -3.3122 9.2114
# 4 4.1068 33.7620 32.8506 41.8084 0.4379 -5.0633
# 5 -20.6227 2.4305 -3.3122 0.4379 33.3999 7.6932
# 6 16.7063 -6.3040 9.2114 -5.0633 7.6932 41.8622
#
#
#
# Elastic Compliance Matrix: (Units=1/GPa)
#
#
# Indices 1 2 3 4 5 6 
#
# 1 0.014513 -0.004674 0.000415 0.000868 0.011303 -0.008559
# 2 -0.004674 0.017255 -0.001727 -0.011531 -0.005175 0.004400
# 3 0.000415 -0.001727 0.011135 -0.007944 0.002583 -0.004311
# 4 0.000868 -0.011531 -0.007944 0.039965 -0.001016 0.004686
# 5 0.011303 -0.005175 0.002583 -0.001016 0.040664 -0.013454
# 6 -0.008559 0.004400 -0.004311 0.004686 -0.013454 0.031954
#
#
# Mechanical properties :
#
#
# Convention : Reuss Voigt Hill
#
# Bulk Modulus (GPa) = 32.33091 50.43533 41.38312
# Shear Modulus (GPa) = 28.12643 39.82221 33.97432
#
# Velocity S-wave (km/s) = 3.21287 3.82295 3.53111
# Velocity P-wave (km/s) = 5.06250 6.16414 5.64028
#
# Compressibility (1/GPa) = 0.03093016
#
# Stress axis : x y z
#
# Youngs Moduli (GPa) = 68.90183 57.95554 89.81022
#
# Poissons Ratio (x) = 0.27089 -0.03724
# Poissons Ratio (y) = 0.32206 0.15508
# Poissons Ratio (z) = -0.02857 0.10007
#
# Static dielectric constant tensor:
#      x y z
#    x 4.641350 0.159250 -0.124690 
#    y 0.159250 5.183760 0.302060 
#    z -0.124690 0.302060 5.584320 
# 
# 
# High freq. dielectric constant tensor:
#      x y z
#    x 2.082530 0.007410 -0.012090 
#    y 0.007410 2.107290 0.012850 
#    z -0.012090 0.012850 2.117800 
# 
# From -- ./inp_files/87301.got.cif
#   From: 2010.06.25/outbox.cif.g09.slc.cpg/sg2_44_cif.got.tgz:87301.got - 2010.06.27 13:26:56.
