data_PCOD8014844
_publ_section_title
;
Structure prediction by ZEFSAII (Michael W. Deem and Ramdas Pophale) SiO2 
 PCOD8014844
Probable space group: P -1
;
_chemical_formula_sum "Si O2"
_cell_formula_units_Z 16
_cell_length_a 7.954389
_cell_length_b 20.503474
_cell_length_c 10.628112
_cell_angle_alpha 37.195068
_cell_angle_beta 61.355067
_cell_angle_gamma 46.711159
_cell_volume 753.908932
_symmetry_space_group_name_H-M "P -1"
_symmetry_group_IT_number 2
_symmetry_cell_setting 'triclinic'
loop_
_space_group_symop_operation_xyz
x,y,z
-x,-y,-z
loop_
_atom_site_type_symbol
_atom_site_label
_atom_site_fract_x
_atom_site_fract_y
_atom_site_fract_z
Si Si1 0.102188 0.915122 0.468907
Si Si2 0.189695 0.376340 0.346831
Si Si3 0.512171 0.118636 0.772795
Si Si4 0.718738 0.505488 0.420665
Si Si5 0.157609 0.593665 0.197919
Si Si6 0.373527 0.228606 0.915729
Si Si7 0.436732 0.707710 0.845244
Si Si8 0.372572 0.937702 0.689590
O O1 0.240098 0.955385 0.271640
O O2 0.277912 0.766048 0.684898
O O3 0.000000 0.000000 0.500000
O O4 0.898698 0.939751 0.411313
O O5 0.317383 0.226944 0.580777
O O6 0.221664 0.471081 0.277682
O O7 0.294751 0.376632 0.171949
O O8 0.915160 0.430657 0.354979
O O9 0.492516 0.195083 0.788433
O O10 0.500000 0.000000 0.000000
O O11 0.500000 0.500000 0.500000
O O12 0.852913 0.445612 0.595612
O O13 0.613054 0.657089 0.209072
O O14 0.897866 0.724677 0.059845
O O15 0.357458 0.621779 0.071530
O O16 0.537224 0.102898 0.138247
O O17 0.410682 0.816429 0.782019
O O18 0.500000 0.000000 0.500000
#
# Coordination Sequence:
#
# PCOD8014844 Si02
#       8
#     2   2   2   2   2   2   2   2
#     4   9  22  41  61  89 125 167 207 247 303 365
#     4  10  21  42  61  96 121 159 211 256 307 365
#     4  11  23  37  67  93 121 164 211 253 304 370
#     4  11  22  41  65  91 127 162 202 259 311 370
#     4  11  20  41  68  88 122 161 209 257 310 369
#     4  11  23  40  64  94 122 164 209 255 312 364
#     4  10  22  39  66  90 120 168 209 252 309 364
#     4  11  24  40  59  91 132 167 205 249 313 369
#
# _framework density 21.222722999999998
#
# number of rings (size 3 to 8) (size 9 to 14) (size 15 to 20)
#    0.000    1.500    2.500    2.625    8.750    1.500 
#    2.250    6.875    0.000    0.000    0.000    0.000 
#    0.000    0.000    0.000    0.000    0.000    0.000 
#
# Total GULP energy -198258.213119 kJ/mol
# GULP energy per Si atom -12391.138320 kJ/mol
# Density = 2.117442 g / cm^3
# Si number density = 21.222723 Si / 1000 Ang^3
#
#
#
# Elastic Constant Matrix: (Units=GPa)
#
#
# Indices 1 2 3 4 5 6 
#
# 1 73.4002 22.8973 13.1483 4.7923 -11.5338 -25.2092
# 2 22.8973 112.3036 16.0938 22.1525 -13.7987 -22.8840
# 3 13.1483 16.0938 88.3991 10.1754 -11.7183 -13.8962
# 4 4.7923 22.1525 10.1754 34.9719 -2.0646 -6.5100
# 5 -11.5338 -13.7987 -11.7183 -2.0646 46.9641 5.7836
# 6 -25.2092 -22.8840 -13.8962 -6.5100 5.7836 28.4406
#
#
#
# Elastic Compliance Matrix: (Units=1/GPa)
#
#
# Indices 1 2 3 4 5 6 
#
# 1 0.019968 -0.000447 0.000047 0.000860 0.002728 0.017004
# 2 -0.000447 0.011963 0.000044 -0.006016 0.002238 0.007418
# 3 0.000047 0.000044 0.012742 -0.002629 0.002448 0.005204
# 4 0.000860 -0.006016 -0.002629 0.033457 -0.001051 0.002509
# 5 0.002728 0.002238 0.002448 -0.001051 0.023127 0.000471
# 6 0.017004 0.007418 0.005204 0.002509 0.000471 0.059223
#
#
# Mechanical properties :
#
#
# Convention : Reuss Voigt Hill
#
# Bulk Modulus (GPa) = 22.74807 42.04243 32.39525
# Shear Modulus (GPa) = 28.43407 36.87290 32.65349
#
# Velocity S-wave (km/s) = 3.66429 4.17277 3.92677
# Velocity P-wave (km/s) = 5.35207 6.56270 5.98806
#
# Compressibility (1/GPa) = 0.04395978
#
# Stress axis : x y z
#
# Youngs Moduli (GPa) = 50.08117 83.59380 78.47848
#
# Poissons Ratio (x) = 0.03740 -0.00370
# Poissons Ratio (y) = 0.02241 -0.00345
# Poissons Ratio (z) = -0.00236 -0.00367
#
# Static dielectric constant tensor:
#      x y z
#    x 3.844550 -0.181590 0.174760 
#    y -0.181590 4.127130 0.126360 
#    z 0.174760 0.126360 3.985410 
# 
# 
# High freq. dielectric constant tensor:
#      x y z
#    x 1.813950 -0.014790 -0.000120 
#    y -0.014790 1.835790 0.009070 
#    z -0.000120 0.009070 1.843590 
# 
# From -- ./inp_files/225477.got.cif
#   From: 2010.06.25/outbox.cif.g09.slc.cpg/sg2_113_cif.got.tgz:225477.got - 2010.06.27 13:26:56.
