data_PCOD8014456
_publ_section_title
;
Structure prediction by ZEFSAII (Michael W. Deem and Ramdas Pophale) SiO2 
 PCOD8014456
Probable space group: P -1
;
_chemical_formula_sum "Si O2"
_cell_formula_units_Z 16
_cell_length_a 8.908948
_cell_length_b 17.302329
_cell_length_c 6.506145
_cell_angle_alpha 76.342330
_cell_angle_beta 72.159404
_cell_angle_gamma 51.732032
_cell_volume 748.086308
_symmetry_space_group_name_H-M "P -1"
_symmetry_group_IT_number 2
_symmetry_cell_setting 'triclinic'
loop_
_space_group_symop_operation_xyz
x,y,z
-x,-y,-z
loop_
_atom_site_type_symbol
_atom_site_label
_atom_site_fract_x
_atom_site_fract_y
_atom_site_fract_z
Si Si1 0.036157 0.293909 0.350057
Si Si2 0.464942 0.197868 0.260391
Si Si3 0.020776 0.822749 0.873955
Si Si4 0.739822 0.297540 0.761673
Si Si5 0.280023 0.836728 0.453183
Si Si6 0.020968 0.506150 0.722885
Si Si7 0.660172 0.608777 0.048551
Si Si8 0.197378 0.973871 0.037718
O O1 0.260087 0.213389 0.375097
O O2 0.009915 0.252102 0.177541
O O3 0.890545 0.312361 0.583661
O O4 0.989576 0.399116 0.259154
O O5 0.534996 0.200582 0.456430
O O6 0.427609 0.284626 0.076838
O O7 0.619597 0.094433 0.146965
O O8 0.100630 0.864857 0.655460
O O9 0.825975 0.923161 0.984566
O O10 0.172129 0.766092 0.030370
O O11 0.671364 0.249816 0.663858
O O12 0.523481 0.398174 0.844663
O O13 0.226759 0.928153 0.279882
O O14 0.000000 0.500000 0.500000
O O15 0.830934 0.519051 0.892223
O O16 0.226967 0.407534 0.772268
O O17 0.000000 0.000000 0.000000
#
# Coordination Sequence:
#
# PCOD8014456 Si02
#       8
#     2   2   2   2   2   2   2   2
#     4  10  27  42  61  97 134 167 205 269 337 367
#     4  11  23  40  64  99 128 169 222 264 311 383
#     4  11  23  41  62  94 136 167 214 266 317 378
#     4  11  22  41  67  93 132 173 206 264 322 376
#     4  11  20  37  68  95 123 173 220 265 303 379
#     4  10  24  43  69  96 126 165 215 266 316 391
#     4  10  21  41  67  97 123 165 219 256 317 379
#     4  12  21  37  67  99 123 173 225 261 306 376
#
# _framework density 21.387907999999999
#
# number of rings (size 3 to 8) (size 9 to 14) (size 15 to 20)
#    0.000    1.250    5.000    0.375    3.500    5.000 
#    0.000    2.500    0.000    0.000    0.000    0.000 
#    0.000    0.000    0.000    0.000    0.000    0.000 
#
# Total GULP energy -198269.409887 kJ/mol
# GULP energy per Si atom -12391.838118 kJ/mol
# Density = 2.133923 g / cm^3
# Si number density = 21.387908 Si / 1000 Ang^3
#
#
#
# Elastic Constant Matrix: (Units=GPa)
#
#
# Indices 1 2 3 4 5 6 
#
# 1 124.8408 55.8399 72.1148 12.3522 1.3891 -34.2917
# 2 55.8399 91.1626 39.5315 0.8752 11.3688 -18.7221
# 3 72.1148 39.5315 133.5976 -6.5963 24.2964 -15.9102
# 4 12.3522 0.8752 -6.5963 24.5581 -11.7811 6.5048
# 5 1.3891 11.3688 24.2964 -11.7811 44.0121 8.1125
# 6 -34.2917 -18.7221 -15.9102 6.5048 8.1125 41.4990
#
#
#
# Elastic Compliance Matrix: (Units=1/GPa)
#
#
# Indices 1 2 3 4 5 6 
#
# 1 0.021571 -0.005987 -0.008620 -0.017841 -0.001914 0.014990
# 2 -0.005987 0.015991 -0.000343 -0.000632 -0.004496 0.003114
# 3 -0.008620 -0.000343 0.013155 0.006158 -0.004838 -0.002254
# 4 -0.017841 -0.000632 0.006158 0.068605 0.020756 -0.027478
# 5 -0.001914 -0.004496 -0.004838 0.020756 0.035039 -0.015568
# 6 0.014990 0.003114 -0.002254 -0.027478 -0.015568 0.044375
#
#
# Mechanical properties :
#
#
# Convention : Reuss Voigt Hill
#
# Bulk Modulus (GPa) = 48.03478 76.06371 62.04925
# Shear Modulus (GPa) = 21.22456 34.15483 27.68969
#
# Velocity S-wave (km/s) = 3.15360 4.00049 3.60202
# Velocity P-wave (km/s) = 5.98062 7.54848 6.80983
#
# Compressibility (1/GPa) = 0.02081825
#
# Stress axis : x y z
#
# Youngs Moduli (GPa) = 46.35748 62.53349 76.01525
#
# Poissons Ratio (x) = 0.37436 0.65527
# Poissons Ratio (y) = 0.27752 0.02608
# Poissons Ratio (z) = 0.39961 0.02146
#
# Static dielectric constant tensor:
#      x y z
#    x 3.984790 -0.395160 -0.071750 
#    y -0.395160 4.605560 0.468940 
#    z -0.071750 0.468940 4.264180 
# 
# 
# High freq. dielectric constant tensor:
#      x y z
#    x 1.827260 -0.026610 0.007860 
#    y -0.026610 1.833080 0.006780 
#    z 0.007860 0.006780 1.855570 
# 
# From -- ./inp_files/39415.got.cif
#   From: 2010.06.25/outbox.cif.g09.slc.cpg/sg2_20_cif.got.tgz:39415.got - 2010.06.27 13:26:56.
