data_PCOD8014536
_publ_section_title
;
Structure prediction by ZEFSAII (Michael W. Deem and Ramdas Pophale) SiO2 
 PCOD8014536
Probable space group: P -1
;
_chemical_formula_sum "Si O2"
_cell_formula_units_Z 12
_cell_length_a 5.471149
_cell_length_b 15.445907
_cell_length_c 9.477229
_cell_angle_alpha 127.937792
_cell_angle_beta 79.775004
_cell_angle_gamma 71.433543
_cell_volume 518.803195
_symmetry_space_group_name_H-M "P -1"
_symmetry_group_IT_number 2
_symmetry_cell_setting 'triclinic'
loop_
_space_group_symop_operation_xyz
x,y,z
-x,-y,-z
loop_
_atom_site_type_symbol
_atom_site_label
_atom_site_fract_x
_atom_site_fract_y
_atom_site_fract_z
Si Si1 0.404058 0.408106 0.474684
Si Si2 0.681677 0.217429 0.752649
Si Si3 0.871984 0.989772 0.309555
Si Si4 0.641935 0.949402 0.783715
Si Si5 0.231535 0.420783 0.206269
Si Si6 0.817233 0.317295 0.572049
O O1 0.500000 0.500000 0.500000
O O2 0.332744 0.354168 0.286576
O O3 0.647921 0.291634 0.436244
O O4 0.119952 0.502406 0.695412
O O5 0.671981 0.103785 0.558458
O O6 0.724288 0.304269 0.724284
O O7 0.377401 0.308710 0.960780
O O8 0.954520 0.150408 0.769212
O O9 0.644371 0.987179 0.224478
O O10 0.120740 0.011796 0.238825
O O11 0.829030 0.789133 0.595247
O O12 0.500000 0.000000 0.000000
O O13 0.302302 0.530917 0.281278
#
# Coordination Sequence:
#
# PCOD8014536 Si02
#       6
#     2   2   2   2   2   2
#     4   9  21  40  58  96 131 168 225 274 326 403
#     4  10  23  43  68  97 137 180 220 279 340 409
#     4  10  25  47  65 105 136 179 231 279 332 410
#     4  11  25  45  74  99 137 180 229 283 339 398
#     4  10  21  41  68  93 134 177 219 280 346 390
#     4  10  23  40  64 101 132 171 227 281 330 414
#
# _framework density 23.130155999999999
#
# number of rings (size 3 to 8) (size 9 to 14) (size 15 to 20)
#    0.000    2.000    0.000    1.000    7.000   10.667 
#   15.000    0.000    0.000    0.000    0.000    0.000 
#    0.000    0.000    0.000    0.000    0.000    0.000 
#
# Total GULP energy -148697.296564 kJ/mol
# GULP energy per Si atom -12391.441380 kJ/mol
# Density = 2.307751 g / cm^3
# Si number density = 23.130156 Si / 1000 Ang^3
#
#
#
# Elastic Constant Matrix: (Units=GPa)
#
#
# Indices 1 2 3 4 5 6 
#
# 1 94.0556 42.5208 24.1133 -15.2290 -16.7892 -27.2379
# 2 42.5208 141.8960 49.0890 -15.4410 -5.7557 -31.0073
# 3 24.1133 49.0890 169.8374 -25.4145 -19.7331 -2.8430
# 4 -15.2290 -15.4410 -25.4145 25.3723 1.6089 7.2922
# 5 -16.7892 -5.7557 -19.7331 1.6089 22.8265 -0.7840
# 6 -27.2379 -31.0073 -2.8430 7.2922 -0.7840 34.1548
#
#
#
# Elastic Compliance Matrix: (Units=1/GPa)
#
#
# Indices 1 2 3 4 5 6 
#
# 1 0.018107 -0.001856 0.000635 0.006134 0.013372 0.011805
# 2 -0.001856 0.010118 -0.002573 0.000395 -0.000812 0.007389
# 3 0.000635 -0.002573 0.008374 0.007541 0.006437 -0.002595
# 4 0.006134 0.000395 0.007541 0.051871 0.007301 -0.005029
# 5 0.013372 -0.000812 0.006437 0.007301 0.058842 0.010255
# 6 0.011805 0.007389 -0.002595 -0.005029 0.010255 0.046494
#
#
# Mechanical properties :
#
#
# Convention : Reuss Voigt Hill
#
# Bulk Modulus (GPa) = 34.46837 70.80389 52.63613
# Shear Modulus (GPa) = 23.68937 35.80843 29.74890
#
# Velocity S-wave (km/s) = 3.20375 3.93889 3.59019
# Velocity P-wave (km/s) = 5.34973 7.16687 6.32391
#
# Compressibility (1/GPa) = 0.02901211
#
# Stress axis : x y z
#
# Youngs Moduli (GPa) = 55.22659 98.83227 119.41191
#
# Poissons Ratio (x) = 0.18343 -0.07580
# Poissons Ratio (y) = 0.10250 0.30719
# Poissons Ratio (z) = -0.03505 0.25425
#
# Static dielectric constant tensor:
#      x y z
#    x 3.783920 -0.397640 -0.126000 
#    y -0.397640 4.695380 -0.241670 
#    z -0.126000 -0.241670 4.152320 
# 
# 
# High freq. dielectric constant tensor:
#      x y z
#    x 1.896770 -0.015440 -0.014680 
#    y -0.015440 1.932420 -0.011860 
#    z -0.014680 -0.011860 1.910990 
# 
# From -- ./inp_files/24995.got.cif
#   From: 2010.06.25/outbox.cif.g09.slc.cpg/sg2_13_cif.got.tgz:24995.got - 2010.06.27 13:26:56.
