data_PCOD8014108
_publ_section_title
;
Structure prediction by ZEFSAII (Michael W. Deem and Ramdas Pophale) SiO2 
 PCOD8014108
Probable space group: P -1
;
_chemical_formula_sum "Si O2"
_cell_formula_units_Z 16
_cell_length_a 11.638056
_cell_length_b 11.231784
_cell_length_c 8.997052
_cell_angle_alpha 97.287918
_cell_angle_beta 121.885104
_cell_angle_gamma 107.849957
_cell_volume 887.794476
_symmetry_space_group_name_H-M "P -1"
_symmetry_group_IT_number 2
_symmetry_cell_setting 'triclinic'
loop_
_space_group_symop_operation_xyz
x,y,z
-x,-y,-z
loop_
_atom_site_type_symbol
_atom_site_label
_atom_site_fract_x
_atom_site_fract_y
_atom_site_fract_z
Si Si1 0.947798 0.289105 0.092683
Si Si2 0.886180 0.481658 0.285225
Si Si3 0.041172 1.000000 0.359156
Si Si4 0.854066 1.000000 0.987667
Si Si5 0.341307 0.289105 0.196422
Si Si6 0.950329 0.714492 0.149045
Si Si7 0.764163 0.714492 0.565447
Si Si8 0.595478 0.481658 0.196433
O O1 0.873483 0.371664 0.137129
O O2 0.087644 0.301702 0.290885
O O3 0.831600 0.132235 0.964197
O O4 0.990518 0.338845 0.960168
O O5 0.943295 0.625622 0.271053
O O6 0.715455 0.430911 0.215455
O O7 0.000000 0.500000 0.500000
O O8 0.190275 0.131927 0.428072
O O9 0.000000 0.000000 0.500000
O O10 0.058348 0.868073 0.296145
O O11 0.892490 1.000000 0.186408
O O12 0.699365 0.867765 0.831962
O O13 0.000000 0.000000 0.000000
O O14 0.348327 0.338845 0.378677
O O15 0.498181 0.371664 0.234535
O O16 0.214058 0.301702 0.010817
O O17 0.682327 0.625622 0.354569
O O18 0.500000 0.500000 0.000000
#
# Coordination Sequence:
#
# PCOD8014108 Si02
#       8
#     2   2   2   2   2   2   2   2
#     4  10  19  36  60  84 117 149 197 238 292 343
#     4  12  24  38  55  85 123 155 193 238 290 344
#     4  10  18  28  56  89 116 136 193 248 286 321
#     4  10  16  34  59  87 112 145 190 245 285 341
#     4  10  19  36  60  84 117 149 197 238 292 343
#     4  10  19  36  57  87 114 151 191 242 289 341
#     4  10  19  36  57  87 114 151 191 242 289 341
#     4  12  24  38  55  85 123 155 193 238 290 344
#
# _framework density 18.022189000000001
#
# number of rings (size 3 to 8) (size 9 to 14) (size 15 to 20)
#    0.000    1.500    7.500    1.500    3.500    0.000 
#    0.000    0.625    0.000    0.000    0.000    3.500 
#    0.000    0.000    0.000    0.000    0.000    0.000 
#
# Total GULP energy -198248.016435 kJ/mol
# GULP energy per Si atom -12390.501027 kJ/mol
# Density = 1.798117 g / cm^3
# Si number density = 18.022189 Si / 1000 Ang^3
#
#
#
# Elastic Constant Matrix: (Units=GPa)
#
#
# Indices 1 2 3 4 5 6 
#
# 1 123.5701 56.9164 42.7275 7.2282 -15.6571 6.8096
# 2 56.9164 114.8370 30.8478 10.6493 -7.5925 10.8387
# 3 42.7275 30.8478 92.6324 -0.5995 -17.5465 -0.4157
# 4 7.2282 10.6493 -0.5995 36.2930 -0.7166 -7.7430
# 5 -15.6571 -7.5925 -17.5465 -0.7166 24.9002 -0.4112
# 6 6.8096 10.8387 -0.4157 -7.7430 -0.4112 23.9208
#
#
#
# Elastic Compliance Matrix: (Units=1/GPa)
#
#
# Indices 1 2 3 4 5 6 
#
# 1 0.011970 -0.004482 -0.003339 -0.001442 0.003736 -0.001838
# 2 -0.004482 0.012393 -0.002272 -0.004013 -0.000850 -0.005692
# 3 -0.003339 -0.002272 0.014559 0.002391 0.007588 0.003138
# 4 -0.001442 -0.004013 0.002391 0.031751 0.000676 0.012559
# 5 0.003736 -0.000850 0.007588 0.000676 0.047624 0.000491
# 6 -0.001838 -0.005692 0.003138 0.012559 0.000491 0.049035
#
#
# Mechanical properties :
#
#
# Convention : Reuss Voigt Hill
#
# Bulk Modulus (GPa) = 53.37231 65.78032 59.57632
# Shear Modulus (GPa) = 25.80462 30.39265 28.09864
#
# Velocity S-wave (km/s) = 3.78805 4.11104 3.95284
# Velocity P-wave (km/s) = 6.98652 7.68850 7.34590
#
# Compressibility (1/GPa) = 0.01873631
#
# Stress axis : x y z
#
# Youngs Moduli (GPa) = 83.53978 80.69187 68.68619
#
# Poissons Ratio (x) = 0.36164 0.22934
# Poissons Ratio (y) = 0.37440 0.15607
# Poissons Ratio (z) = 0.27893 0.18335
#
# Static dielectric constant tensor:
#      x y z
#    x 3.168950 0.123100 -0.312830 
#    y 0.123100 3.538500 0.065440 
#    z -0.312830 0.065440 3.392730 
# 
# 
# High freq. dielectric constant tensor:
#      x y z
#    x 1.665960 0.016000 -0.040320 
#    y 0.016000 1.707730 0.003990 
#    z -0.040320 0.003990 1.697760 
# 
# From -- ./inp_files/254327.got.cif
#   From: 2010.06.25/outbox.cif.g09.slc.cpg/sg2_128_cif.got.tgz:254327.got - 2010.06.27 13:26:56.
