data_PCOD8014334
_publ_section_title
;
Structure prediction by ZEFSAII (Michael W. Deem and Ramdas Pophale) SiO2 
 PCOD8014334
Probable space group: P -1
;
_chemical_formula_sum "Si O2"
_cell_formula_units_Z 16
_cell_length_a 11.339349
_cell_length_b 13.379538
_cell_length_c 12.015492
_cell_angle_alpha 101.749675
_cell_angle_beta 58.481933
_cell_angle_gamma 148.071740
_cell_volume 695.668854
_symmetry_space_group_name_H-M "P -1"
_symmetry_group_IT_number 2
_symmetry_cell_setting 'triclinic'
loop_
_space_group_symop_operation_xyz
x,y,z
-x,-y,-z
loop_
_atom_site_type_symbol
_atom_site_label
_atom_site_fract_x
_atom_site_fract_y
_atom_site_fract_z
Si Si1 0.449671 0.222391 0.881565
Si Si2 0.634817 0.942780 0.331899
Si Si3 0.151152 0.317695 0.733442
Si Si4 0.033871 0.026733 0.220346
Si Si5 0.249625 0.926128 0.340755
Si Si6 0.917422 0.293348 0.406919
Si Si7 0.671171 0.795636 0.662031
Si Si8 0.611025 0.017087 0.056058
O O1 0.289662 0.045559 0.826949
O O2 0.542257 0.197074 0.920773
O O3 0.730301 0.459442 0.736754
O O4 0.209967 0.142358 0.039428
O O5 0.271222 0.723978 0.483638
O O6 0.791434 0.959350 0.336391
O O7 0.784461 0.150669 0.330697
O O8 0.474898 0.584168 0.643260
O O9 0.168808 0.207392 0.713922
O O10 0.999410 0.244827 0.673140
O O11 0.971181 0.243306 0.912972
O O12 0.303805 0.212330 0.220406
O O13 0.095921 0.794328 0.502973
O O14 0.516508 0.018040 0.212178
O O15 0.421407 0.148061 0.305989
O O16 0.000000 0.000000 0.500000
O O17 0.500000 0.000000 0.000000
#
# Coordination Sequence:
#
# PCOD8014334 Si02
#       8
#     2   2   2   2   2   2   2   2
#     4  11  23  44  69  96 136 177 226 279 331 402
#     4  11  24  43  62  99 138 180 224 270 335 404
#     4   9  22  43  69  96 131 176 218 284 340 383
#     4  10  24  44  69  99 137 176 231 274 334 407
#     4  10  21  41  66  97 133 172 223 279 329 404
#     4  11  25  42  66 103 138 174 226 281 332 399
#     4  11  24  43  65 101 135 174 228 277 331 403
#     4   9  19  41  65  96 127 161 222 273 332 398
#
# _framework density 22.999448000000001
#
# number of rings (size 3 to 8) (size 9 to 14) (size 15 to 20)
#    0.000    1.750    1.250    2.250    0.000    9.000 
#    9.000    0.000    0.000    0.000    0.000    0.000 
#    0.000    0.000    0.000    0.000    0.000    0.000 
#
# Total GULP energy -198228.363550 kJ/mol
# GULP energy per Si atom -12389.272722 kJ/mol
# Density = 2.294710 g / cm^3
# Si number density = 22.999448 Si / 1000 Ang^3
#
#
#
# Elastic Constant Matrix: (Units=GPa)
#
#
# Indices 1 2 3 4 5 6 
#
# 1 105.7067 17.3948 26.8980 -7.6309 -7.3058 -7.6191
# 2 17.3948 88.4877 27.5014 0.0923 3.3087 4.1873
# 3 26.8980 27.5014 113.9609 5.1914 1.5011 0.1390
# 4 -7.6309 0.0923 5.1914 30.6682 -3.7621 3.6197
# 5 -7.3058 3.3087 1.5011 -3.7621 40.3067 8.5827
# 6 -7.6191 4.1873 0.1390 3.6197 8.5827 23.3685
#
#
#
# Elastic Compliance Matrix: (Units=1/GPa)
#
#
# Indices 1 2 3 4 5 6 
#
# 1 0.010863 -0.001609 -0.002342 0.003021 0.001900 0.002678
# 2 -0.001609 0.012588 -0.002657 0.000233 -0.000660 -0.002558
# 3 -0.002342 -0.002657 0.010091 -0.002433 -0.000885 0.000354
# 4 0.003021 0.000233 -0.002433 0.035175 0.005271 -0.006426
# 5 0.001900 -0.000660 -0.000885 0.005271 0.027933 -0.010333
# 6 0.002678 -0.002558 0.000354 -0.006426 -0.010333 0.048913
#
#
# Mechanical properties :
#
#
# Convention : Reuss Voigt Hill
#
# Bulk Modulus (GPa) = 49.19356 50.19376 49.69366
# Shear Modulus (GPa) = 30.20159 34.62608 32.41383
#
# Velocity S-wave (km/s) = 3.62766 3.88431 3.75818
# Velocity P-wave (km/s) = 6.24356 6.47985 6.36280
#
# Compressibility (1/GPa) = 0.02032786
#
# Stress axis : x y z
#
# Youngs Moduli (GPa) = 92.05413 79.43768 99.09897
#
# Poissons Ratio (x) = 0.12778 0.23206
# Poissons Ratio (y) = 0.14808 0.26331
# Poissons Ratio (z) = 0.21557 0.21107
#
# Static dielectric constant tensor:
#      x y z
#    x 4.202660 -0.613850 -0.637040 
#    y -0.613850 4.219290 0.382900 
#    z -0.637040 0.382900 4.599950 
# 
# 
# High freq. dielectric constant tensor:
#      x y z
#    x 1.918530 -0.005490 -0.003720 
#    y -0.005490 1.883420 0.026730 
#    z -0.003720 0.026730 1.917010 
# 
# From -- ./inp_files/434124.got.cif
#   From: 2010.06.25/outbox.cif.g09.slc.cpg/sg2_218_cif.got.tgz:434124.got - 2010.06.27 13:26:56.
