data_PCOD8014269
_publ_section_title
;
Structure prediction by ZEFSAII (Michael W. Deem and Ramdas Pophale) SiO2 
 PCOD8014269
Probable space group: P -1
;
_chemical_formula_sum "Si O2"
_cell_formula_units_Z 14
_cell_length_a 13.729422
_cell_length_b 15.630679
_cell_length_c 7.579573
_cell_angle_alpha 89.611762
_cell_angle_beta 118.023074
_cell_angle_gamma 38.191047
_cell_volume 643.453746
_symmetry_space_group_name_H-M "P -1"
_symmetry_group_IT_number 2
_symmetry_cell_setting 'triclinic'
loop_
_space_group_symop_operation_xyz
x,y,z
-x,-y,-z
loop_
_atom_site_type_symbol
_atom_site_label
_atom_site_fract_x
_atom_site_fract_y
_atom_site_fract_z
Si Si1 0.253851 0.699535 0.380109
Si Si2 0.083337 0.273682 0.353652
Si Si3 0.474784 0.914447 0.252762
Si Si4 0.003698 0.719057 0.350639
Si Si5 0.857948 0.933685 0.772721
Si Si6 0.236037 0.868759 0.602255
Si Si7 0.330346 0.366712 0.803416
O O1 0.500000 0.500000 0.500000
O O2 0.150701 0.703956 0.435089
O O3 0.323459 0.738017 0.538135
O O4 0.046930 0.857949 0.051822
O O5 0.333047 0.149012 0.513357
O O6 0.026259 0.242197 0.156357
O O7 0.120989 0.190893 0.563789
O O8 0.863801 0.495461 0.197857
O O9 0.598861 0.777749 0.195076
O O10 0.401312 0.898650 0.345291
O O11 0.222231 0.137608 0.978335
O O12 0.204049 0.502637 0.525725
O O13 0.809659 0.012469 0.545008
O O14 0.431194 0.747909 0.925705
O O15 0.000000 0.000000 0.500000
#
# Coordination Sequence:
#
# PCOD8014269 Si02
#       7
#     2   2   2   2   2   2   2
#     4  11  24  40  63  89 124 163 205 257 311 352
#     4  10  21  41  66  91 125 162 202 255 308 365
#     4  11  21  43  65  93 125 162 201 257 316 354
#     4   9  23  39  66  90 125 157 212 247 302 371
#     4  11  24  40  62  93 126 160 207 254 309 368
#     4  12  25  41  63  89 125 168 206 250 308 367
#     4  10  24  40  65  94 123 158 219 244 298 378
#
# _framework density 21.757586
#
# number of rings (size 3 to 8) (size 9 to 14) (size 15 to 20)
#    0.857    0.571    0.000    6.000    4.000    0.571 
#    0.000    0.714    0.000    0.000    0.000    0.000 
#    0.000    0.000    0.000    0.000    0.000    0.000 
#
# Total GULP energy -173499.470813 kJ/mol
# GULP energy per Si atom -12392.819344 kJ/mol
# Density = 2.170806 g / cm^3
# Si number density = 21.757586 Si / 1000 Ang^3
#
#
#
# Elastic Constant Matrix: (Units=GPa)
#
#
# Indices 1 2 3 4 5 6 
#
# 1 86.4591 21.5533 33.4926 -17.0995 6.2090 -11.3458
# 2 21.5533 101.1587 21.1689 0.5310 2.4481 -1.8069
# 3 33.4926 21.1689 90.1146 -14.0919 8.9920 10.2807
# 4 -17.0995 0.5310 -14.0919 35.3673 0.7759 4.0198
# 5 6.2090 2.4481 8.9920 0.7759 33.0710 -4.7449
# 6 -11.3458 -1.8069 10.2807 4.0198 -4.7449 30.9526
#
#
#
# Elastic Compliance Matrix: (Units=1/GPa)
#
#
# Indices 1 2 3 4 5 6 
#
# 1 0.016129 -0.002186 -0.005451 0.004888 -0.000512 0.006882
# 2 -0.002186 0.010835 -0.002224 -0.002219 0.000397 0.000919
# 3 -0.005451 -0.002224 0.015834 0.004794 -0.004477 -0.008696
# 4 0.004888 -0.002219 0.004794 0.033202 -0.003522 -0.004782
# 5 -0.000512 0.000397 -0.004477 -0.003522 0.032577 0.006774
# 6 0.006882 0.000919 -0.008696 -0.004782 0.006774 0.039431
#
#
# Mechanical properties :
#
#
# Convention : Reuss Voigt Hill
#
# Bulk Modulus (GPa) = 43.33560 47.79577 45.56568
# Shear Modulus (GPa) = 28.50258 33.31270 30.90764
#
# Velocity S-wave (km/s) = 3.62333 3.91715 3.77310
# Velocity P-wave (km/s) = 6.12090 6.51720 6.32215
#
# Compressibility (1/GPa) = 0.02307572
#
# Stress axis : x y z
#
# Youngs Moduli (GPa) = 61.99895 92.29206 63.15619
#
# Poissons Ratio (x) = 0.20178 0.34425
# Poissons Ratio (y) = 0.13555 0.14047
# Poissons Ratio (z) = 0.33794 0.20528
#
# Static dielectric constant tensor:
#      x y z
#    x 3.879330 -0.123780 0.161140 
#    y -0.123780 3.966420 0.053630 
#    z 0.161140 0.053630 3.997960 
# 
# 
# High freq. dielectric constant tensor:
#      x y z
#    x 1.846340 -0.012740 0.011010 
#    y -0.012740 1.856870 0.001350 
#    z 0.011010 0.001350 1.849500 
# 
# From -- ./inp_files/311724.got.cif
#   From: 2010.06.25/outbox.cif.g09.slc.cpg/sg2_156_cif.got.tgz:311724.got - 2010.06.27 13:26:56.
