data_PCOD8014118
_publ_section_title
;
Structure prediction by ZEFSAII (Michael W. Deem and Ramdas Pophale) SiO2 
 PCOD8014118
Probable space group: P -1
;
_chemical_formula_sum "Si O2"
_cell_formula_units_Z 16
_cell_length_a 26.318054
_cell_length_b 26.031049
_cell_length_c 8.088277
_cell_angle_alpha 138.430931
_cell_angle_beta 43.247346
_cell_angle_gamma 168.996414
_cell_volume 700.983750
_symmetry_space_group_name_H-M "P -1"
_symmetry_group_IT_number 2
_symmetry_cell_setting 'triclinic'
loop_
_space_group_symop_operation_xyz
x,y,z
-x,-y,-z
loop_
_atom_site_type_symbol
_atom_site_label
_atom_site_fract_x
_atom_site_fract_y
_atom_site_fract_z
Si Si1 0.786673 0.420978 0.447267
Si Si2 0.750260 0.141831 0.832299
Si Si3 0.239028 0.015596 0.484761
Si Si4 0.539633 0.621548 0.789512
Si Si5 0.326969 0.214337 0.469202
Si Si6 0.778633 0.581940 0.761242
Si Si7 0.853068 0.836948 0.784895
Si Si8 0.258291 0.744523 0.582282
O O1 0.532541 0.149343 0.284120
O O2 0.843234 0.570093 0.688792
O O3 0.747156 0.347680 0.549810
O O4 0.032996 0.625260 0.263900
O O5 0.834677 0.148742 0.748250
O O6 0.730998 0.190109 0.126494
O O7 0.252628 0.063811 0.385391
O O8 0.513819 0.300194 0.610469
O O9 0.014619 0.836615 0.688156
O O10 0.500000 0.500000 0.500000
O O11 0.632675 0.772458 0.785252
O O12 0.759093 0.825420 0.902554
O O13 0.272075 0.391869 0.945359
O O14 0.587595 0.517143 0.661822
O O15 0.075520 0.020055 0.585470
O O16 0.000000 0.000000 0.000000
O O17 0.000000 0.500000 0.500000
O O18 0.500000 0.000000 0.500000
#
# Coordination Sequence:
#
# PCOD8014118 Si02
#       8
#     2   2   2   2   2   2   2   2
#     4  10  21  41  66  89 119 171 214 250 303 366
#     4  10  21  41  65  89 125 167 211 252 298 374
#     4  10  22  40  64  91 117 162 213 257 305 362
#     4  10  24  42  60  89 123 159 199 256 323 374
#     4  11  23  39  61  89 121 155 200 258 318 373
#     4  10  22  41  64  87 120 160 213 258 302 378
#     4  11  23  40  62  88 118 161 208 256 307 376
#     4  12  24  38  62 100 135 163 201 257 312 365
#
# _framework density 22.825064999999999
#
# number of rings (size 3 to 8) (size 9 to 14) (size 15 to 20)
#    0.000    1.500    0.000    4.500    0.000    8.000 
#    0.000    2.500    0.000    0.000    0.000    0.000 
#    0.000    0.000    0.000    0.000    0.000    0.000 
#
# Total GULP energy -198340.459510 kJ/mol
# GULP energy per Si atom -12396.278719 kJ/mol
# Density = 2.277311 g / cm^3
# Si number density = 22.825065 Si / 1000 Ang^3
#
#
#
# Elastic Constant Matrix: (Units=GPa)
#
#
# Indices 1 2 3 4 5 6 
#
# 1 140.4457 -15.3094 20.2854 25.5903 -4.8358 -27.6407
# 2 -15.3094 81.6861 6.6536 15.9119 -12.7285 -19.0979
# 3 20.2854 6.6536 61.2588 -9.4018 -4.9453 1.7872
# 4 25.5903 15.9119 -9.4018 17.0240 9.5967 13.7676
# 5 -4.8358 -12.7285 -4.9453 9.5967 17.6616 -10.7223
# 6 -27.6407 -19.0979 1.7872 13.7676 -10.7223 33.7609
#
#
#
# Elastic Compliance Matrix: (Units=1/GPa)
#
#
# Indices 1 2 3 4 5 6 
#
# 1 0.003653 -0.003909 -0.000117 0.008526 -0.010055 -0.005885
# 2 -0.003909 0.005667 0.002228 0.012901 -0.008220 -0.007985
# 3 -0.000117 0.002228 0.016357 -0.003310 0.011093 0.005172
# 4 0.008526 0.012901 -0.003310 -0.004077 0.028129 0.025050
# 5 -0.010055 -0.008220 0.011093 0.028129 0.025550 -0.016826
# 6 -0.005885 -0.007985 0.005172 0.025050 -0.016826 0.004452
#
#
# Mechanical properties :
#
#
# Convention : Reuss Voigt Hill
#
# Bulk Modulus (GPa) = 45.28489 34.07220 39.67855
# Shear Modulus (GPa) = 79.92614 31.80669 55.86641
#
# Velocity S-wave (km/s) = 5.92392 3.73701 4.95268
# Velocity P-wave (km/s) = 8.16539 5.79485 7.08003
#
# Compressibility (1/GPa) = 0.02208242
#
# Stress axis : x y z
#
# Youngs Moduli (GPa) = 273.74833 176.45957 61.13483
#
# Poissons Ratio (x) = 0.68984 0.00713
# Poissons Ratio (y) = 1.07018 -0.13624
# Poissons Ratio (z) = 0.03191 -0.39324
#
# Static dielectric constant tensor:
#      x y z
#    x 4.771470 -0.075800 -0.168110 
#    y -0.075800 4.353770 -0.174890 
#    z -0.168110 -0.174890 4.116050 
# 
# 
# High freq. dielectric constant tensor:
#      x y z
#    x 1.913980 -0.002210 -0.006780 
#    y -0.002210 1.920520 -0.011200 
#    z -0.006780 -0.011200 1.880000 
# 
# From -- ./inp_files/358006.got.cif
#   From: 2010.06.25/outbox.cif.g09.slc.cpg/sg2_180_cif.got.tgz:358006.got - 2010.06.27 13:26:56.
