data_PCOD8014264
_publ_section_title
;
Structure prediction by ZEFSAII (Michael W. Deem and Ramdas Pophale) SiO2 
 PCOD8014264
Probable space group: P -1
;
_chemical_formula_sum "Si O2"
_cell_formula_units_Z 16
_cell_length_a 8.772828
_cell_length_b 10.893198
_cell_length_c 12.334864
_cell_angle_alpha 130.377125
_cell_angle_beta 100.409202
_cell_angle_gamma 60.740874
_cell_volume 766.852051
_symmetry_space_group_name_H-M "P -1"
_symmetry_group_IT_number 2
_symmetry_cell_setting 'triclinic'
loop_
_space_group_symop_operation_xyz
x,y,z
-x,-y,-z
loop_
_atom_site_type_symbol
_atom_site_label
_atom_site_fract_x
_atom_site_fract_y
_atom_site_fract_z
Si Si1 0.347214 0.963860 0.994218
Si Si2 0.214841 0.660856 0.077857
Si Si3 0.495525 0.248185 0.891603
Si Si4 0.029863 0.794807 0.901185
Si Si5 0.625746 0.968183 0.395957
Si Si6 0.017143 0.810675 0.351239
Si Si7 0.298238 0.682497 0.698201
Si Si8 0.333865 0.678419 0.454272
O O1 0.405542 0.826028 0.024402
O O2 0.306030 0.866284 0.833853
O O3 0.172739 0.167839 0.109233
O O4 0.500000 0.000000 0.000000
O O5 0.364166 0.723489 0.147153
O O6 0.055743 0.778340 0.209188
O O7 0.310274 0.441281 0.989692
O O8 0.129080 0.697445 0.968842
O O9 0.454560 0.095467 0.748261
O O10 0.145437 0.671422 0.743322
O O11 0.000000 0.000000 0.000000
O O12 0.833292 0.809823 0.354511
O O13 0.500000 0.000000 0.500000
O O14 0.631409 0.151754 0.468382
O O15 0.192108 0.656638 0.347932
O O16 0.000000 0.000000 0.500000
O O17 0.255505 0.693237 0.572482
O O18 0.482742 0.503927 0.648364
#
# Coordination Sequence:
#
# PCOD8014264 Si02
#       8
#     2   2   2   2   2   2   2   2
#     4  11  23  39  62  95 131 162 207 261 323 375
#     4  11  23  41  66  96 125 166 218 259 318 376
#     4  11  23  40  66  93 128 165 207 272 312 373
#     4  10  22  38  65  92 124 166 209 256 308 384
#     4  11  25  40  61  91 126 166 207 262 319 373
#     4  10  23  38  64  87 125 165 208 256 307 380
#     4  10  21  41  66  91 120 169 211 256 310 378
#     4  10  22  42  66  88 125 166 214 256 314 382
#
# _framework density 20.864519000000001
#
# number of rings (size 3 to 8) (size 9 to 14) (size 15 to 20)
#    0.000    1.500    2.500    3.000   12.250    1.500 
#    2.250    0.000    0.000    3.750    0.000    0.000 
#    0.000    0.000    0.000    0.000    0.000    0.000 
#
# Total GULP energy -198327.876711 kJ/mol
# GULP energy per Si atom -12395.492294 kJ/mol
# Density = 2.081703 g / cm^3
# Si number density = 20.864519 Si / 1000 Ang^3
#
#
#
# Elastic Constant Matrix: (Units=GPa)
#
#
# Indices 1 2 3 4 5 6 
#
# 1 144.6125 32.9286 48.7004 -6.0544 -32.5143 -14.1312
# 2 32.9286 97.4343 27.6238 -12.3622 -19.5998 -18.3179
# 3 48.7004 27.6238 90.3515 -7.2333 -36.1590 -2.6301
# 4 -6.0544 -12.3622 -7.2333 22.2406 -0.4215 2.2681
# 5 -32.5143 -19.5998 -36.1590 -0.4215 41.1736 3.8095
# 6 -14.1312 -18.3179 -2.6301 2.2681 3.8095 20.3906
#
#
#
# Elastic Compliance Matrix: (Units=1/GPa)
#
#
# Indices 1 2 3 4 5 6 
#
# 1 0.009514 -0.000469 -0.003132 0.000888 0.004094 0.004904
# 2 -0.000469 0.014645 -0.001748 0.006387 0.004102 0.011129
# 3 -0.003132 -0.001748 0.019174 0.005131 0.013997 -0.004454
# 4 0.000888 0.006387 0.005131 0.050616 0.008790 -0.000257
# 5 0.004094 0.004102 0.013997 0.008790 0.041900 -0.000478
# 6 0.004904 0.011129 -0.004454 -0.000257 -0.000478 0.061983
#
#
# Mechanical properties :
#
#
# Convention : Reuss Voigt Hill
#
# Bulk Modulus (GPa) = 30.64279 61.21152 45.92716
# Shear Modulus (GPa) = 22.78866 31.63732 27.21299
#
# Velocity S-wave (km/s) = 3.30846 3.89822 3.61539
# Velocity P-wave (km/s) = 5.41415 7.04719 6.28394
#
# Compressibility (1/GPa) = 0.03263411
#
# Stress axis : x y z
#
# Youngs Moduli (GPa) = 105.11338 68.28174 52.15515
#
# Poissons Ratio (x) = 0.03202 0.16336
# Poissons Ratio (y) = 0.04929 0.09117
# Poissons Ratio (z) = 0.32924 0.11936
#
# Static dielectric constant tensor:
#      x y z
#    x 4.466670 -0.455190 -0.315310 
#    y -0.455190 3.856420 -0.020110 
#    z -0.315310 -0.020110 3.810650 
# 
# 
# High freq. dielectric constant tensor:
#      x y z
#    x 1.821520 -0.020830 -0.020370 
#    y -0.020830 1.817410 -0.005880 
#    z -0.020370 -0.005880 1.814650 
# 
# From -- ./inp_files/298130.got.cif
#   From: 2010.06.25/outbox.cif.g09.slc.cpg/sg2_150_cif.got.tgz:298130.got - 2010.06.27 13:26:56.
