data_PCOD8014718
_publ_section_title
;
Structure prediction by ZEFSAII (Michael W. Deem and Ramdas Pophale) SiO2 
 PCOD8014718
Probable space group: P -1
;
_chemical_formula_sum "Si O2"
_cell_formula_units_Z 14
_cell_length_a 8.658461
_cell_length_b 15.960294
_cell_length_c 12.916635
_cell_angle_alpha 27.082528
_cell_angle_beta 44.977416
_cell_angle_gamma 55.811589
_cell_volume 561.469061
_symmetry_space_group_name_H-M "P -1"
_symmetry_group_IT_number 2
_symmetry_cell_setting 'triclinic'
loop_
_space_group_symop_operation_xyz
x,y,z
-x,-y,-z
loop_
_atom_site_type_symbol
_atom_site_label
_atom_site_fract_x
_atom_site_fract_y
_atom_site_fract_z
Si Si1 0.473507 0.788430 0.967672
Si Si2 0.827954 0.608686 0.913354
Si Si3 0.617693 0.963372 0.089493
Si Si4 0.318017 0.435878 0.565888
Si Si5 0.935163 0.841647 0.406388
Si Si6 0.517523 0.335602 0.249797
Si Si7 0.839910 0.222224 0.072151
O O1 0.731693 0.767234 0.847589
O O2 0.503487 0.983533 0.806556
O O3 0.337780 0.610495 0.289048
O O4 0.332780 0.796370 0.921385
O O5 0.606799 0.439558 0.198432
O O6 0.930546 0.685346 0.669390
O O7 0.000000 0.500000 0.000000
O O8 0.847174 0.122545 0.807611
O O9 0.500000 0.000000 0.000000
O O10 0.642093 0.747459 0.314751
O O11 0.500000 0.500000 0.500000
O O12 0.058086 0.394089 0.773870
O O13 0.726582 0.795175 0.476866
O O14 0.935064 0.036878 0.248498
O O15 0.699323 0.227143 0.237602
O O16 0.500000 0.500000 0.000000
#
# Coordination Sequence:
#
# PCOD8014718 Si02
#       7
#     2   2   2   2   2   2   2
#     4  12  26  45  75 109 143 186 254 291 357 439
#     4  11  27  45  71 109 144 189 245 295 363 433
#     4  11  26  47  74 105 147 192 236 297 373 419
#     4  11  26  45  74 105 151 192 235 303 370 425
#     4  10  24  47  72  99 145 189 233 304 359 429
#     4  10  21  41  70  99 142 188 231 291 365 418
#     4  11  24  46  73 106 141 193 246 291 365 430
#
# _framework density 24.934588000000002
#
# number of rings (size 3 to 8) (size 9 to 14) (size 15 to 20)
#    0.000    1.143    4.286    0.857    8.000    4.571 
#    0.000    1.429    0.000    0.000    0.000    0.000 
#    0.000    0.000    0.000    0.000    0.000    0.000 
#
# Total GULP energy -173465.612335 kJ/mol
# GULP energy per Si atom -12390.400881 kJ/mol
# Density = 2.487784 g / cm^3
# Si number density = 24.934588 Si / 1000 Ang^3
#
#
#
# Elastic Constant Matrix: (Units=GPa)
#
#
# Indices 1 2 3 4 5 6 
#
# 1 107.7266 34.1306 17.5431 2.0179 -14.6048 -12.4656
# 2 34.1306 136.9792 3.7159 -3.1043 -9.0834 -1.9173
# 3 17.5431 3.7159 63.4735 -10.9224 -10.7920 0.6691
# 4 2.0179 -3.1043 -10.9224 27.6776 -3.3919 -4.4388
# 5 -14.6048 -9.0834 -10.7920 -3.3919 39.5151 -2.6819
# 6 -12.4656 -1.9173 0.6691 -4.4388 -2.6819 36.2129
#
#
#
# Elastic Compliance Matrix: (Units=1/GPa)
#
#
# Indices 1 2 3 4 5 6 
#
# 1 0.011425 -0.002542 -0.002736 -0.001193 0.003055 0.003929
# 2 -0.002542 0.008026 0.000694 0.001477 0.001209 -0.000192
# 3 -0.002736 0.000694 0.018747 0.008309 0.004991 0.000137
# 4 -0.001193 0.001477 0.008309 0.041207 0.006045 0.005012
# 5 0.003055 0.001209 0.004991 0.006045 0.028861 0.003902
# 6 0.003929 -0.000192 0.000137 0.005012 0.003902 0.029858
#
#
# Mechanical properties :
#
#
# Convention : Reuss Voigt Hill
#
# Bulk Modulus (GPa) = 34.44659 46.55094 40.49876
# Shear Modulus (GPa) = 31.85386 37.53377 34.69381
#
# Velocity S-wave (km/s) = 3.57809 3.88401 3.73418
# Velocity P-wave (km/s) = 5.56013 6.23088 5.90504
#
# Compressibility (1/GPa) = 0.02903045
#
# Stress axis : x y z
#
# Youngs Moduli (GPa) = 87.52833 124.59767 53.34149
#
# Poissons Ratio (x) = 0.31672 0.14595
# Poissons Ratio (y) = 0.22249 -0.03704
# Poissons Ratio (z) = 0.23949 -0.08652
#
# Static dielectric constant tensor:
#      x y z
#    x 5.555520 -1.012910 -1.289320 
#    y -1.012910 5.595220 0.667590 
#    z -1.289320 0.667590 5.632240 
# 
# 
# High freq. dielectric constant tensor:
#      x y z
#    x 1.987290 -0.012120 -0.005220 
#    y -0.012120 2.004260 -0.013410 
#    z -0.005220 -0.013410 1.998310 
# 
# From -- ./inp_files/398034.got.cif
#   From: 2010.06.25/outbox.cif.g09.slc.cpg/sg2_200_cif.got.tgz:398034.got - 2010.06.27 13:26:56.
