data_PCOD8014694
_publ_section_title
;
Structure prediction by ZEFSAII (Michael W. Deem and Ramdas Pophale) SiO2 
 PCOD8014694
Probable space group: P -1
;
_chemical_formula_sum "Si O2"
_cell_formula_units_Z 16
_cell_length_a 18.162180
_cell_length_b 10.656488
_cell_length_c 18.114716
_cell_angle_alpha 23.043326
_cell_angle_beta 33.869468
_cell_angle_gamma 44.784724
_cell_volume 740.740950
_symmetry_space_group_name_H-M "P -1"
_symmetry_group_IT_number 2
_symmetry_cell_setting 'triclinic'
loop_
_space_group_symop_operation_xyz
x,y,z
-x,-y,-z
loop_
_atom_site_type_symbol
_atom_site_label
_atom_site_fract_x
_atom_site_fract_y
_atom_site_fract_z
Si Si1 0.796246 0.695717 0.291632
Si Si2 0.067133 0.848519 0.461087
Si Si3 0.415497 0.186283 0.281487
Si Si4 0.529605 0.798270 0.514071
Si Si5 0.779802 0.460341 0.674515
Si Si6 0.063359 0.675478 0.247783
Si Si7 0.699711 0.806380 0.016312
Si Si8 0.349383 0.554827 0.601456
O O1 0.865293 0.438659 0.412223
O O2 0.685367 0.771651 0.400266
O O3 0.726375 0.538988 0.360247
O O4 0.906048 0.031236 0.996383
O O5 0.951643 0.674890 0.592184
O O6 0.175226 0.149637 0.168677
O O7 0.000000 0.000000 0.500000
O O8 0.306728 0.276825 0.378262
O O9 0.513114 0.009087 0.341826
O O10 0.348183 0.936463 0.407993
O O11 0.500000 0.500000 0.000000
O O12 0.500000 0.000000 0.500000
O O13 0.432448 0.423158 0.790592
O O14 0.815250 0.285073 0.815009
O O15 0.919169 0.670797 0.408506
O O16 0.690402 0.177629 0.847338
O O17 0.731678 0.637809 0.156571
O O18 0.500000 0.500000 0.500000
#
# Coordination Sequence:
#
# PCOD8014694 Si02
#       8
#     2   2   2   2   2   2   2   2
#     4  12  24  44  68  92 135 175 213 273 330 386
#     4  11  28  44  64  96 132 178 225 267 322 392
#     4  11  23  38  68  98 128 164 221 270 319 391
#     4  11  27  42  66 100 134 174 208 262 344 401
#     4  10  21  41  70  96 126 172 222 275 319 375
#     4  10  23  43  66  92 130 176 220 265 325 383
#     4  10  22  46  67  92 137 165 219 274 324 392
#     4  11  21  43  65  99 128 167 215 271 333 384
#
# _framework density 21.599993999999999
#
# number of rings (size 3 to 8) (size 9 to 14) (size 15 to 20)
#    0.000    1.250    3.750    1.875    7.000    3.500 
#    0.000    1.250    0.000    0.000    0.000    0.000 
#    0.000    0.000    0.000    0.000    0.000    0.000 
#
# Total GULP energy -198374.421043 kJ/mol
# GULP energy per Si atom -12398.401315 kJ/mol
# Density = 2.155083 g / cm^3
# Si number density = 21.599994 Si / 1000 Ang^3
#
#
#
# Elastic Constant Matrix: (Units=GPa)
#
#
# Indices 1 2 3 4 5 6 
#
# 1 55.6608 25.8402 23.9653 4.5465 -2.6485 11.6663
# 2 25.8402 165.2664 51.0209 1.8042 -4.1877 20.1920
# 3 23.9653 51.0209 142.1271 4.8300 6.2633 8.4163
# 4 4.5465 1.8042 4.8300 28.9745 10.9167 3.9490
# 5 -2.6485 -4.1877 6.2633 10.9167 32.3651 -3.1194
# 6 11.6663 20.1920 8.4163 3.9490 -3.1194 37.4214
#
#
#
# Elastic Compliance Matrix: (Units=1/GPa)
#
#
# Indices 1 2 3 4 5 6 
#
# 1 0.021302 -0.001857 -0.002669 -0.003172 0.002658 -0.004483
# 2 -0.001857 0.007396 -0.002219 0.000264 0.000869 -0.002868
# 3 -0.002669 -0.002219 0.008379 -0.000038 -0.002117 -0.000027
# 4 -0.003172 0.000264 -0.000038 0.041119 -0.014540 -0.004696
# 5 0.002658 0.000869 -0.002117 -0.014540 0.036907 0.003790
# 6 -0.004483 -0.002868 -0.000027 -0.004696 0.003790 0.030485
#
#
# Mechanical properties :
#
#
# Convention : Reuss Voigt Hill
#
# Bulk Modulus (GPa) = 42.39778 62.74525 52.57151
# Shear Modulus (GPa) = 29.95061 37.23405 33.59233
#
# Velocity S-wave (km/s) = 3.72775 4.15637 3.94788
# Velocity P-wave (km/s) = 6.18057 7.22120 6.72105
#
# Compressibility (1/GPa) = 0.02358614
#
# Stress axis : x y z
#
# Youngs Moduli (GPa) = 46.94288 135.21042 119.34724
#
# Poissons Ratio (x) = 0.25110 0.31856
# Poissons Ratio (y) = 0.08718 0.26486
# Poissons Ratio (z) = 0.12530 0.30007
#
# Static dielectric constant tensor:
#      x y z
#    x 2.787610 1.568910 -0.615740 
#    y 1.568910 3.269340 0.121610 
#    z -0.615740 0.121610 4.122240 
# 
# 
# High freq. dielectric constant tensor:
#      x y z
#    x 1.846960 0.025900 0.000660 
#    y 0.025900 1.845280 -0.000520 
#    z 0.000660 -0.000520 1.861720 
# 
# From -- ./inp_files/175112.got.cif
#   From: 2010.06.25/outbox.cif.g09.slc.cpg/sg2_88_cif.got.tgz:175112.got - 2010.06.27 13:26:56.
