data_PCOD8014022
_publ_section_title
;
Structure prediction by ZEFSAII (Michael W. Deem and Ramdas Pophale) SiO2 
 PCOD8014022
Probable space group: P -1
;
_chemical_formula_sum "Si O2"
_cell_formula_units_Z 16
_cell_length_a 12.174565
_cell_length_b 8.799001
_cell_length_c 9.209853
_cell_angle_alpha 120.572159
_cell_angle_beta 103.923114
_cell_angle_gamma 65.460746
_cell_volume 772.180233
_symmetry_space_group_name_H-M "P -1"
_symmetry_group_IT_number 2
_symmetry_cell_setting 'triclinic'
loop_
_space_group_symop_operation_xyz
x,y,z
-x,-y,-z
loop_
_atom_site_type_symbol
_atom_site_label
_atom_site_fract_x
_atom_site_fract_y
_atom_site_fract_z
Si Si1 0.343727 0.525236 0.532413
Si Si2 0.315654 0.130762 0.766967
Si Si3 0.664913 0.137453 0.113886
Si Si4 0.068693 0.619112 0.501136
Si Si5 0.517817 0.288538 0.870071
Si Si6 0.964348 0.679842 0.179197
Si Si7 0.054383 0.975743 0.846027
Si Si8 0.414533 0.755943 0.449943
O O1 0.380739 0.660418 0.722541
O O2 0.212942 0.513116 0.513567
O O3 0.348593 0.613636 0.417520
O O4 0.445922 0.318475 0.483310
O O5 0.386952 0.268147 0.813395
O O6 0.175273 0.256057 0.788464
O O7 0.361758 0.025615 0.883134
O O8 0.339650 0.967835 0.576118
O O9 0.805842 0.077426 0.105933
O O10 0.598995 0.147480 0.946223
O O11 0.025714 0.818840 0.665792
O O12 0.000000 0.500000 0.500000
O O13 0.041377 0.638309 0.330928
O O14 0.590599 0.232850 0.718109
O O15 0.500000 0.500000 0.000000
O O16 0.997092 0.836053 0.174472
O O17 0.000000 0.500000 0.000000
O O18 0.000000 0.000000 0.000000
#
# Coordination Sequence:
#
# PCOD8014022 Si02
#       8
#     2   2   2   2   2   2   2   2
#     4   9  20  41  64  90 130 162 210 257 319 383
#     4  10  24  43  63  87 131 166 210 265 322 386
#     4   9  20  41  61  90 126 165 203 261 317 381
#     4  11  24  41  69  97 130 176 216 267 332 393
#     4  12  23  36  63  98 125 163 212 259 322 376
#     4  11  25  46  66  94 129 172 225 276 328 382
#     4  10  22  42  66  93 131 170 217 269 321 389
#     4  10  21  41  64  92 126 170 207 261 319 378
#
# _framework density 20.720551
#
# number of rings (size 3 to 8) (size 9 to 14) (size 15 to 20)
#    0.000    1.750    1.250    2.625    1.750    4.000 
#    6.750    0.000    0.000    0.000    0.000    0.000 
#    0.000    0.000    0.000    0.000    0.000    0.000 
#
# Total GULP energy -198403.902525 kJ/mol
# GULP energy per Si atom -12400.243908 kJ/mol
# Density = 2.067339 g / cm^3
# Si number density = 20.720551 Si / 1000 Ang^3
#
#
#
# Elastic Constant Matrix: (Units=GPa)
#
#
# Indices 1 2 3 4 5 6 
#
# 1 105.9797 33.5151 43.2920 8.2881 -14.0418 12.0697
# 2 33.5151 69.5734 39.9737 11.7883 -9.1709 -4.0098
# 3 43.2920 39.9737 126.7709 -1.4584 -24.6816 -2.3617
# 4 8.2881 11.7883 -1.4584 42.1573 2.1958 -5.1784
# 5 -14.0418 -9.1709 -24.6816 2.1958 34.2358 -0.1847
# 6 12.0697 -4.0098 -2.3617 -5.1784 -0.1847 36.3340
#
#
#
# Elastic Compliance Matrix: (Units=1/GPa)
#
#
# Indices 1 2 3 4 5 6 
#
# 1 0.013004 -0.004304 -0.002759 -0.002217 0.002306 -0.005278
# 2 -0.004304 0.020225 -0.004815 -0.004672 0.000495 0.002685
# 3 -0.002759 -0.004815 0.011521 0.002168 0.005754 0.001472
# 4 -0.002217 -0.004672 0.002168 0.026156 -0.002253 0.004078
# 5 0.002306 0.000495 0.005754 -0.002253 0.034577 -0.000483
# 6 -0.005278 0.002685 0.001472 0.004078 -0.000483 0.030247
#
#
# Mechanical properties :
#
#
# Convention : Reuss Voigt Hill
#
# Bulk Modulus (GPa) = 47.63075 59.54285 53.58680
# Shear Modulus (GPa) = 30.03329 34.91498 32.47413
#
# Velocity S-wave (km/s) = 3.81129 4.10938 3.96314
# Velocity P-wave (km/s) = 6.51191 7.16341 6.84542
#
# Compressibility (1/GPa) = 0.02099484
#
# Stress axis : x y z
#
# Youngs Moduli (GPa) = 76.90152 49.44484 86.79768
#
# Poissons Ratio (x) = 0.21280 0.23944
# Poissons Ratio (y) = 0.33097 0.41791
# Poissons Ratio (z) = 0.21214 0.23806
#
# Static dielectric constant tensor:
#      x y z
#    x 3.956690 0.118480 -0.328410 
#    y 0.118480 3.895500 -0.143390 
#    z -0.328410 -0.143390 4.053190 
# 
# 
# High freq. dielectric constant tensor:
#      x y z
#    x 1.818310 0.005130 -0.017030 
#    y 0.005130 1.816020 -0.003450 
#    z -0.017030 -0.003450 1.809860 
# 
# From -- ./inp_files/185325.got.cif
#   From: 2010.06.25/outbox.cif.g09.slc.cpg/sg2_93_cif.got.tgz:185325.got - 2010.06.27 13:26:56.
