data_PCOD8014216
_publ_section_title
;
Structure prediction by ZEFSAII (Michael W. Deem and Ramdas Pophale) SiO2 
 PCOD8014216
Probable space group: P -1
;
_chemical_formula_sum "Si O2"
_cell_formula_units_Z 14
_cell_length_a 10.754933
_cell_length_b 13.301648
_cell_length_c 9.178126
_cell_angle_alpha 69.189644
_cell_angle_beta 124.025872
_cell_angle_gamma 148.600461
_cell_volume 543.721737
_symmetry_space_group_name_H-M "P -1"
_symmetry_group_IT_number 2
_symmetry_cell_setting 'triclinic'
loop_
_space_group_symop_operation_xyz
x,y,z
-x,-y,-z
loop_
_atom_site_type_symbol
_atom_site_label
_atom_site_fract_x
_atom_site_fract_y
_atom_site_fract_z
Si Si1 0.123191 0.297029 0.625543
Si Si2 0.542935 0.373662 0.793492
Si Si3 0.429052 0.272464 0.256405
Si Si4 0.053595 0.240501 0.957671
Si Si5 0.097465 0.527568 0.210132
Si Si6 0.536912 0.922873 0.456518
Si Si7 0.504302 0.183272 0.086383
O O1 0.283704 0.296905 0.651756
O O2 0.293864 0.509875 0.597157
O O3 0.103152 0.270669 0.801757
O O4 0.814241 0.118396 0.441859
O O5 0.787686 0.564631 0.963579
O O6 0.676519 0.432718 0.688964
O O7 0.437956 0.193545 0.878405
O O8 0.172440 0.200945 0.123893
O O9 0.353080 0.116669 0.366892
O O10 0.502596 0.287801 0.131919
O O11 0.721793 0.042697 0.889656
O O12 0.250877 0.723685 0.285961
O O13 0.820914 0.324332 0.224638
O O14 0.000000 0.500000 0.000000
O O15 0.500000 0.000000 0.500000
#
# Coordination Sequence:
#
# PCOD8014216 Si02
#       7
#     2   2   2   2   2   2   2
#     4  11  21  40  71 102 134 170 220 281 334 390
#     4  10  21  41  65  96 139 174 220 268 331 401
#     4  11  21  39  68 105 135 162 227 285 330 387
#     4  11  20  37  71 109 127 173 223 274 335 397
#     4  10  26  45  64  92 140 187 220 267 335 408
#     4  12  27  44  67 101 135 175 228 280 335 388
#     4  11  19  36  65  96 136 174 222 270 321 395
#
# _framework density 25.748464999999999
#
# number of rings (size 3 to 8) (size 9 to 14) (size 15 to 20)
#    0.000    1.143    4.286    3.000    2.000    3.429 
#    0.000    7.143    0.000    0.000    0.000    0.000 
#    0.000    0.000    0.000    0.000    0.000    0.000 
#
# Total GULP energy -173472.397701 kJ/mol
# GULP energy per Si atom -12390.885550 kJ/mol
# Density = 2.568986 g / cm^3
# Si number density = 25.748465 Si / 1000 Ang^3
#
#
#
# Elastic Constant Matrix: (Units=GPa)
#
#
# Indices 1 2 3 4 5 6 
#
# 1 117.1069 65.9356 1.8730 21.9035 0.3433 16.0170
# 2 65.9356 121.6700 13.0608 22.0223 5.5993 12.9094
# 3 1.8730 13.0608 35.0613 17.8611 -8.7336 -5.5031
# 4 21.9035 22.0223 17.8611 44.2431 3.6372 16.8432
# 5 0.3433 5.5993 -8.7336 3.6372 21.3891 8.7600
# 6 16.0170 12.9094 -5.5031 16.8432 8.7600 45.5403
#
#
#
# Elastic Compliance Matrix: (Units=1/GPa)
#
#
# Indices 1 2 3 4 5 6 
#
# 1 0.013672 -0.007174 0.006084 -0.005734 0.005520 -0.000980
# 2 -0.007174 0.013063 -0.006214 0.000399 -0.005491 -0.001022
# 3 0.006084 -0.006214 0.051702 -0.027034 0.022512 0.011538
# 4 -0.005734 0.000399 -0.027034 0.042814 -0.012253 -0.014841
# 5 0.005520 -0.005491 0.022512 -0.012253 0.061402 -0.004944
# 6 -0.000980 -0.001022 0.011538 -0.014841 -0.004944 0.030427
#
#
# Mechanical properties :
#
#
# Convention : Reuss Voigt Hill
#
# Bulk Modulus (GPa) = 15.66706 48.39743 32.03225
# Shear Modulus (GPa) = 20.08328 35.09910 27.59119
#
# Velocity S-wave (km/s) = 2.79584 3.69610 3.27703
# Velocity P-wave (km/s) = 4.06450 6.08703 5.17552
#
# Compressibility (1/GPa) = 0.06382820
#
# Stress axis : x y z
#
# Youngs Moduli (GPa) = 73.14391 76.55317 19.34168
#
# Poissons Ratio (x) = 0.54921 -0.11768
# Poissons Ratio (y) = 0.52475 0.12019
# Poissons Ratio (z) = -0.44503 0.47571
#
# Static dielectric constant tensor:
#      x y z
#    x 5.172640 0.214510 0.206790 
#    y 0.214510 4.876450 0.320090 
#    z 0.206790 0.320090 4.366500 
# 
# 
# High freq. dielectric constant tensor:
#      x y z
#    x 2.032140 0.005950 0.020120 
#    y 0.005950 2.042640 0.006320 
#    z 0.020120 0.006320 2.009590 
# 
# From -- ./inp_files/432745.got.cif
#   From: 2010.06.25/outbox.cif.g09.slc.cpg/sg2_217_cif.got.tgz:432745.got - 2010.06.27 13:26:56.
