data_PCOD8014303
_publ_section_title
;
Structure prediction by ZEFSAII (Michael W. Deem and Ramdas Pophale) SiO2 
 PCOD8014303
Probable space group: P -1
;
_chemical_formula_sum "Si O2"
_cell_formula_units_Z 16
_cell_length_a 13.405126
_cell_length_b 8.974763
_cell_length_c 15.160663
_cell_angle_alpha 30.070195
_cell_angle_beta 118.124322
_cell_angle_gamma 106.474917
_cell_volume 773.431074
_symmetry_space_group_name_H-M "P -1"
_symmetry_group_IT_number 2
_symmetry_cell_setting 'triclinic'
loop_
_space_group_symop_operation_xyz
x,y,z
-x,-y,-z
loop_
_atom_site_type_symbol
_atom_site_label
_atom_site_fract_x
_atom_site_fract_y
_atom_site_fract_z
Si Si1 0.934325 0.895988 0.606509
Si Si2 0.947171 0.866508 0.304656
Si Si3 0.675524 0.101033 0.338695
Si Si4 0.434716 0.375038 0.665050
Si Si5 0.074789 0.795478 0.060350
Si Si6 0.496777 0.671474 0.702732
Si Si7 0.314185 0.855941 0.879066
Si Si8 0.333988 0.577525 0.343308
O O1 0.956080 0.527996 0.796020
O O2 0.796045 0.065537 0.459396
O O3 0.000000 0.000000 0.500000
O O4 0.978869 0.996962 0.664902
O O5 0.000000 0.500000 0.500000
O O6 0.813136 0.949719 0.239570
O O7 0.955829 0.028514 0.133768
O O8 0.569425 0.329132 0.231537
O O9 0.690949 0.229851 0.182120
O O10 0.640921 0.782416 0.484042
O O11 0.421766 0.542092 0.667397
O O12 0.345707 0.600201 0.442903
O O13 0.569295 0.289722 0.731221
O O14 0.405279 0.053991 0.830342
O O15 0.208194 0.766898 0.158153
O O16 0.000000 0.000000 0.000000
O O17 0.500000 0.000000 0.500000
O O18 0.631963 0.458895 0.881144
#
# Coordination Sequence:
#
# PCOD8014303 Si02
#       8
#     2   2   2   2   2   2   2   2
#     4  11  23  47  70  99 136 178 229 288 342 404
#     4  12  27  46  70 100 137 185 233 282 341 406
#     4  10  22  42  70  92 135 173 216 275 341 398
#     4  10  21  41  66  94 131 175 215 269 327 398
#     4  11  25  44  70 102 136 177 229 284 344 409
#     4  12  24  41  66 101 132 172 223 275 338 401
#     4  11  25  45  67  95 139 172 223 277 334 408
#     4   9  20  42  67  94 133 175 215 270 332 400
#
# _framework density 20.687041000000001
#
# number of rings (size 3 to 8) (size 9 to 14) (size 15 to 20)
#    0.000    1.250    2.500    2.625    7.000    0.000 
#    4.500    0.000    0.000    0.000    0.000    0.000 
#    0.000    0.000    0.000    0.000    0.000    0.000 
#
# Total GULP energy -198422.541919 kJ/mol
# GULP energy per Si atom -12401.408870 kJ/mol
# Density = 2.063996 g / cm^3
# Si number density = 20.687041 Si / 1000 Ang^3
#
#
#
# Elastic Constant Matrix: (Units=GPa)
#
#
# Indices 1 2 3 4 5 6 
#
# 1 114.3209 62.9835 58.5521 1.0409 0.3794 -1.6619
# 2 62.9835 162.8372 69.2789 19.5064 10.0876 -4.3961
# 3 58.5521 69.2789 143.4020 8.2176 1.8524 3.2147
# 4 1.0409 19.5064 8.2176 30.7570 -3.6002 -2.8648
# 5 0.3794 10.0876 1.8524 -3.6002 34.3804 2.4897
# 6 -1.6619 -4.3961 3.2147 -2.8648 2.4897 43.3898
#
#
#
# Elastic Compliance Matrix: (Units=1/GPa)
#
#
# Indices 1 2 3 4 5 6 
#
# 1 0.012643 -0.003855 -0.003511 0.003173 0.001478 0.000478
# 2 -0.003855 0.009710 -0.002773 -0.005593 -0.003305 0.000862
# 3 -0.003511 -0.002773 0.009817 -0.000820 0.000326 -0.001216
# 4 0.003173 -0.005593 -0.000820 0.036966 0.005395 0.001747
# 5 0.001478 -0.003305 0.000326 0.005395 0.030711 -0.001708
# 6 0.000478 0.000862 -0.001216 0.001747 -0.001708 0.023456
#
#
# Mechanical properties :
#
#
# Convention : Reuss Voigt Hill
#
# Bulk Modulus (GPa) = 84.09844 89.13211 86.61527
# Shear Modulus (GPa) = 33.88789 37.02180 35.45484
#
# Velocity S-wave (km/s) = 4.05176 4.23497 4.14438
# Velocity P-wave (km/s) = 7.91391 8.19102 8.05366
#
# Compressibility (1/GPa) = 0.01189083
#
# Stress axis : x y z
#
# Youngs Moduli (GPa) = 79.09700 102.98662 101.86483
#
# Poissons Ratio (x) = 0.39700 0.35769
# Poissons Ratio (y) = 0.30491 0.28248
# Poissons Ratio (z) = 0.27774 0.28560
#
# Static dielectric constant tensor:
#      x y z
#    x 3.868300 0.130890 0.022240 
#    y 0.130890 4.162720 0.213870 
#    z 0.022240 0.213870 3.761270 
# 
# 
# High freq. dielectric constant tensor:
#      x y z
#    x 1.814550 0.000650 -0.004080 
#    y 0.000650 1.826000 0.015640 
#    z -0.004080 0.015640 1.809220 
# 
# From -- ./inp_files/216002.got.cif
#   From: 2010.06.25/outbox.cif.g09.slc.cpg/sg2_109_cif.got.tgz:216002.got - 2010.06.27 13:26:56.
