data_PCOD8014253
_publ_section_title
;
Structure prediction by ZEFSAII (Michael W. Deem and Ramdas Pophale) SiO2 
 PCOD8014253
Probable space group: P -1
;
_chemical_formula_sum "Si O2"
_cell_formula_units_Z 16
_cell_length_a 6.815855
_cell_length_b 12.090019
_cell_length_c 16.447000
_cell_angle_alpha 54.631894
_cell_angle_beta 64.310669
_cell_angle_gamma 102.220330
_cell_volume 773.843524
_symmetry_space_group_name_H-M "P -1"
_symmetry_group_IT_number 2
_symmetry_cell_setting 'triclinic'
loop_
_space_group_symop_operation_xyz
x,y,z
-x,-y,-z
loop_
_atom_site_type_symbol
_atom_site_label
_atom_site_fract_x
_atom_site_fract_y
_atom_site_fract_z
Si Si1 0.806686 0.556788 0.420835
Si Si2 0.283270 0.532971 0.778478
Si Si3 0.931744 0.770120 0.160639
Si Si4 0.106594 0.187519 0.422506
Si Si5 0.795215 0.668403 0.972457
Si Si6 0.162281 0.420253 0.171645
Si Si7 0.225237 0.994923 0.864322
Si Si8 0.814939 0.253209 0.575667
O O1 0.500000 0.500000 0.500000
O O2 0.003791 0.702093 0.253611
O O3 0.778106 0.384772 0.483232
O O4 0.943085 0.640755 0.446672
O O5 0.295451 0.399375 0.780581
O O6 0.587135 0.717250 0.635097
O O7 0.044889 0.539182 0.784963
O O8 0.215924 0.469714 0.910812
O O9 0.792658 0.851921 0.183692
O O10 0.191906 0.904954 0.995857
O O11 0.122281 0.282681 0.298906
O O12 0.898499 0.174943 0.528398
O O13 0.000000 0.000000 0.500000
O O14 0.920854 0.670620 0.863061
O O15 0.990334 0.858785 0.898499
O O16 0.480320 0.602602 0.042098
O O17 0.531073 0.083623 0.737915
#
# Coordination Sequence:
#
# PCOD8014253 Si02
#       8
#     2   2   2   2   2   2   2   2
#     4  11  22  42  68  94 127 175 216 256 316 395
#     4  10  21  41  66  89 128 167 209 262 318 384
#     4  10  21  42  64  95 128 164 206 259 322 377
#     4  11  26  42  60  94 129 168 220 266 307 380
#     4   9  21  41  65  95 125 158 216 265 315 383
#     4  10  21  43  68  90 120 176 210 261 324 376
#     4  10  22  42  65  96 134 160 206 274 312 381
#     4  11  25  42  66  93 130 173 213 264 325 370
#
# _framework density 20.676013999999999
#
# number of rings (size 3 to 8) (size 9 to 14) (size 15 to 20)
#    0.000    1.750    1.250    1.875    3.500    2.000 
#   15.750    0.000    0.000    0.000    0.000    0.000 
#    0.000    0.000    0.000    0.000    0.000    0.000 
#
# Total GULP energy -198396.978440 kJ/mol
# GULP energy per Si atom -12399.811153 kJ/mol
# Density = 2.062895 g / cm^3
# Si number density = 20.676014 Si / 1000 Ang^3
#
#
#
# Elastic Constant Matrix: (Units=GPa)
#
#
# Indices 1 2 3 4 5 6 
#
# 1 104.1555 48.3293 46.0452 -5.9988 -8.5079 -10.9405
# 2 48.3293 149.9676 62.8600 -3.6105 -14.4751 -7.4285
# 3 46.0452 62.8600 124.2469 -0.8033 -3.0819 -11.3009
# 4 -5.9988 -3.6105 -0.8033 35.2455 5.7588 1.2466
# 5 -8.5079 -14.4751 -3.0819 5.7588 37.6884 2.8669
# 6 -10.9405 -7.4285 -11.3009 1.2466 2.8669 24.3675
#
#
#
# Elastic Compliance Matrix: (Units=1/GPa)
#
#
# Indices 1 2 3 4 5 6 
#
# 1 0.012642 -0.002461 -0.003103 0.001521 0.001173 0.003271
# 2 -0.002461 0.009278 -0.003744 0.000013 0.002725 -0.000335
# 3 -0.003103 -0.003744 0.011320 -0.000535 -0.001352 0.002901
# 4 0.001521 0.000013 -0.000535 0.029316 -0.004131 -0.000575
# 5 0.001173 0.002725 -0.001352 -0.004131 0.028549 -0.002417
# 6 0.003271 -0.000335 0.002901 -0.000575 -0.002417 0.044064
#
#
# Mechanical properties :
#
#
# Convention : Reuss Voigt Hill
#
# Bulk Modulus (GPa) = 68.39359 76.98209 72.68784
# Shear Modulus (GPa) = 31.51378 34.20265 32.85821
#
# Velocity S-wave (km/s) = 3.90830 4.07162 3.99080
# Velocity P-wave (km/s) = 7.31553 7.70828 7.51447
#
# Compressibility (1/GPa) = 0.01462125
#
# Stress axis : x y z
#
# Youngs Moduli (GPa) = 79.10066 107.78712 88.34026
#
# Poissons Ratio (x) = 0.26531 0.27415
# Poissons Ratio (y) = 0.19470 0.33078
# Poissons Ratio (z) = 0.24548 0.40359
#
# Static dielectric constant tensor:
#      x y z
#    x 3.670160 0.117040 0.205230 
#    y 0.117040 3.711410 0.051990 
#    z 0.205230 0.051990 3.919940 
# 
# 
# High freq. dielectric constant tensor:
#      x y z
#    x 1.800210 0.006250 0.007020 
#    y 0.006250 1.815430 0.006510 
#    z 0.007020 0.006510 1.817780 
# 
# From -- ./inp_files/549421.got.cif
#   From: 2010.06.25/outbox.cif.g09.slc.cpg/sg2_275_cif.got.tgz:549421.got - 2010.06.27 13:26:56.
