data_PCOD8014127
_publ_section_title
;
Structure prediction by ZEFSAII (Michael W. Deem and Ramdas Pophale) SiO2 
 PCOD8014127
Probable space group: P -1
;
_chemical_formula_sum "Si O2"
_cell_formula_units_Z 14
_cell_length_a 13.803827
_cell_length_b 9.757936
_cell_length_c 9.193651
_cell_angle_alpha 40.353916
_cell_angle_beta 106.060482
_cell_angle_gamma 120.982981
_cell_volume 672.355300
_symmetry_space_group_name_H-M "P -1"
_symmetry_group_IT_number 2
_symmetry_cell_setting 'triclinic'
loop_
_space_group_symop_operation_xyz
x,y,z
-x,-y,-z
loop_
_atom_site_type_symbol
_atom_site_label
_atom_site_fract_x
_atom_site_fract_y
_atom_site_fract_z
Si Si1 0.686797 0.395673 0.351064
Si Si2 0.472705 0.704575 0.377588
Si Si3 0.891772 0.832514 0.995584
Si Si4 0.115213 0.547161 0.928005
Si Si5 0.605023 0.522553 0.936461
Si Si6 0.773506 0.053316 0.585242
Si Si7 0.349928 0.762467 0.023784
O O1 0.575879 0.357747 0.427375
O O2 0.675717 0.438920 0.139772
O O3 0.704649 0.162830 0.558227
O O4 0.802995 0.647096 0.230832
O O5 0.500000 0.500000 0.500000
O O6 0.370110 0.724636 0.232275
O O7 0.593886 0.954290 0.220764
O O8 0.852289 0.015184 0.765267
O O9 0.914616 0.691044 0.987075
O O10 0.000000 0.000000 0.000000
O O11 0.151298 0.775235 0.652666
O O12 0.216613 0.611227 0.039332
O O13 0.000000 0.500000 0.000000
O O14 0.500000 0.500000 0.000000
O O15 0.571175 0.340375 0.935080
O O16 0.681216 0.795052 0.688750
#
# Coordination Sequence:
#
# PCOD8014127 Si02
#       7
#     2   2   2   2   2   2   2
#     4  10  22  40  62  97 120 169 217 256 333 391
#     4  11  26  40  63  94 137 175 206 276 339 386
#     4  10  23  43  64  96 127 167 227 273 323 395
#     4  11  25  43  66  97 130 178 226 274 330 398
#     4  11  21  37  68  94 123 164 213 264 322 392
#     4  10  21  41  65  90 127 163 216 272 318 384
#     4  11  24  43  59  98 134 163 229 261 320 413
#
# _framework density 20.822323000000001
#
# number of rings (size 3 to 8) (size 9 to 14) (size 15 to 20)
#    0.000    1.429    4.286    1.714    4.000   10.857 
#    0.000    0.000    0.000    0.000    0.000    0.000 
#    0.000    0.000    0.000    0.000    0.000    0.000 
#
# Total GULP energy -173533.355719 kJ/mol
# GULP energy per Si atom -12395.239694 kJ/mol
# Density = 2.077493 g / cm^3
# Si number density = 20.822323 Si / 1000 Ang^3
#
#
#
# Elastic Constant Matrix: (Units=GPa)
#
#
# Indices 1 2 3 4 5 6 
#
# 1 104.6812 29.8953 34.3348 -13.0859 -0.6408 -13.6646
# 2 29.8953 91.8844 30.5039 -20.9874 2.1244 6.7743
# 3 34.3348 30.5039 114.2681 -17.0151 9.8631 -11.0481
# 4 -13.0859 -20.9874 -17.0151 30.6168 -6.1629 -1.2937
# 5 -0.6408 2.1244 9.8631 -6.1629 34.1404 -0.8222
# 6 -13.6646 6.7743 -11.0481 -1.2937 -0.8222 37.7843
#
#
#
# Elastic Compliance Matrix: (Units=1/GPa)
#
#
# Indices 1 2 3 4 5 6 
#
# 1 0.011994 -0.003001 -0.002165 0.002366 0.001569 0.004358
# 2 -0.003001 0.014632 -0.002378 0.007445 0.000965 -0.004128
# 3 -0.002165 -0.002378 0.011004 0.003195 -0.002425 0.002918
# 4 0.002366 0.007445 0.003195 0.041901 0.006271 0.002026
# 5 0.001569 0.000965 -0.002425 0.006271 0.031106 0.000577
# 6 0.004358 -0.004128 0.002918 0.002026 0.000577 0.029717
#
#
# Mechanical properties :
#
#
# Convention : Reuss Voigt Hill
#
# Bulk Modulus (GPa) = 44.36032 55.58908 49.97470
# Shear Modulus (GPa) = 30.68338 34.91495 32.79917
#
# Velocity S-wave (km/s) = 3.84289 4.09932 3.97318
# Velocity P-wave (km/s) = 6.40631 7.01147 6.71571
#
# Compressibility (1/GPa) = 0.02254267
#
# Stress axis : x y z
#
# Youngs Moduli (GPa) = 83.37473 68.34490 90.87840
#
# Poissons Ratio (x) = 0.20509 0.19671
# Poissons Ratio (y) = 0.25019 0.21611
# Poissons Ratio (z) = 0.18047 0.16252
#
# Static dielectric constant tensor:
#      x y z
#    x 3.886480 0.228320 0.182630 
#    y 0.228320 3.949800 -0.008850 
#    z 0.182630 -0.008850 3.916050 
# 
# 
# High freq. dielectric constant tensor:
#      x y z
#    x 1.811340 0.000380 0.012330 
#    y 0.000380 1.814610 -0.006580 
#    z 0.012330 -0.006580 1.827580 
# 
# From -- ./inp_files/37171.got.cif
#   From: 2010.06.25/outbox.cif.g09.slc.cpg/sg2_19_cif.got.tgz:37171.got - 2010.06.27 13:26:56.
