data_PCOD8014229
_publ_section_title
;
Structure prediction by ZEFSAII (Michael W. Deem and Ramdas Pophale) SiO2 
 PCOD8014229
Probable space group: P -1
;
_chemical_formula_sum "Si O2"
_cell_formula_units_Z 16
_cell_length_a 8.715448
_cell_length_b 9.115129
_cell_length_c 15.011817
_cell_angle_alpha 39.836434
_cell_angle_beta 65.786042
_cell_angle_gamma 70.380247
_cell_volume 696.305098
_symmetry_space_group_name_H-M "P -1"
_symmetry_group_IT_number 2
_symmetry_cell_setting 'triclinic'
loop_
_space_group_symop_operation_xyz
x,y,z
-x,-y,-z
loop_
_atom_site_type_symbol
_atom_site_label
_atom_site_fract_x
_atom_site_fract_y
_atom_site_fract_z
Si Si1 0.173844 0.990035 0.014664
Si Si2 0.450811 0.088458 0.331725
Si Si3 0.052083 0.247481 0.510078
Si Si4 0.740867 0.175726 0.354192
Si Si5 0.056728 0.415536 0.929539
Si Si6 0.814994 0.507529 0.788905
Si Si7 0.420272 0.205845 0.718803
Si Si8 0.729543 0.489908 0.536159
O O1 0.138115 0.154812 0.032625
O O2 0.323064 0.087219 0.875568
O O3 0.224507 0.725394 0.149306
O O4 0.000000 0.000000 0.000000
O O5 0.626042 0.134220 0.315480
O O6 0.350692 0.331212 0.234533
O O7 0.351724 0.894131 0.500093
O O8 0.483106 0.988075 0.272941
O O9 0.045306 0.353665 0.363060
O O10 0.218795 0.350188 0.468876
O O11 0.878877 0.298971 0.577572
O O12 0.084845 0.975416 0.626594
O O13 0.797308 0.435779 0.218984
O O14 0.888595 0.432480 0.901764
O O15 0.000000 0.500000 0.000000
O O16 0.556530 0.368736 0.655594
O O17 0.290032 0.355414 0.619718
#
# Coordination Sequence:
#
# PCOD8014229 Si02
#       8
#     2   2   2   2   2   2   2   2
#     4  10  24  45  67  92 132 177 222 274 334 398
#     4  10  23  41  67  99 137 174 213 287 335 393
#     4  10  21  41  65  99 136 177 216 279 331 397
#     4  10  23  41  65  95 136 173 223 273 341 389
#     4  11  26  44  71  96 129 177 226 275 329 406
#     4  10  24  44  67  95 134 178 226 269 334 396
#     4  11  23  39  68  99 137 177 226 275 334 399
#     4  10  22  36  65 102 135 170 222 275 336 397
#
# _framework density 22.978432999999999
#
# number of rings (size 3 to 8) (size 9 to 14) (size 15 to 20)
#    0.000    1.750    1.250    1.500   10.500    3.500 
#    0.000    1.250    0.000    0.000    0.000    0.000 
#    0.000    0.000    0.000    0.000    0.000    0.000 
#
# Total GULP energy -198385.774098 kJ/mol
# GULP energy per Si atom -12399.110881 kJ/mol
# Density = 2.292613 g / cm^3
# Si number density = 22.978433 Si / 1000 Ang^3
#
#
#
# Elastic Constant Matrix: (Units=GPa)
#
#
# Indices 1 2 3 4 5 6 
#
# 1 64.7862 20.8931 21.8828 -7.1525 1.8925 -10.4333
# 2 20.8931 131.0360 26.9679 -12.4957 3.8956 -12.4262
# 3 21.8828 26.9679 68.4922 -16.7707 -1.9907 -9.8261
# 4 -7.1525 -12.4957 -16.7707 40.1390 -2.6860 6.4639
# 5 1.8925 3.8956 -1.9907 -2.6860 25.3905 1.8084
# 6 -10.4333 -12.4262 -9.8261 6.4639 1.8084 27.4249
#
#
#
# Elastic Compliance Matrix: (Units=1/GPa)
#
#
# Indices 1 2 3 4 5 6 
#
# 1 0.018293 -0.001456 -0.004648 -0.000026 -0.001846 0.004762
# 2 -0.001456 0.008728 -0.002437 0.000953 -0.001492 0.002401
# 3 -0.004648 -0.002437 0.018957 0.006144 0.002693 0.002294
# 4 -0.000026 0.000953 0.006144 0.028727 0.003689 -0.004391
# 5 -0.001846 -0.001492 0.002693 0.003689 0.040635 -0.003962
# 6 0.004762 0.002401 0.002294 -0.004391 -0.003962 0.041481
#
#
# Mechanical properties :
#
#
# Convention : Reuss Voigt Hill
#
# Bulk Modulus (GPa) = 34.60745 44.86689 39.73717
# Shear Modulus (GPa) = 27.24292 31.56223 29.40258
#
# Velocity S-wave (km/s) = 3.44697 3.71018 3.58099
# Velocity P-wave (km/s) = 5.56198 6.15808 5.86761
#
# Compressibility (1/GPa) = 0.02889551
#
# Stress axis : x y z
#
# Youngs Moduli (GPa) = 54.66603 114.57183 52.75230
#
# Poissons Ratio (x) = 0.16683 0.24519
# Poissons Ratio (y) = 0.07960 0.12855
# Poissons Ratio (z) = 0.25409 0.27920
#
# Static dielectric constant tensor:
#      x y z
#    x 4.061910 -0.022510 0.024860 
#    y -0.022510 4.379810 -0.388450 
#    z 0.024860 -0.388450 4.046450 
# 
# 
# High freq. dielectric constant tensor:
#      x y z
#    x 1.901750 -0.008300 -0.002410 
#    y -0.008300 1.920940 -0.016420 
#    z -0.002410 -0.016420 1.891380 
# 
# From -- ./inp_files/494213.got.cif
#   From: 2010.06.25/outbox.cif.g09.slc.cpg/sg2_248_cif.got.tgz:494213.got - 2010.06.27 13:26:56.
