data_PCOD8014929
_publ_section_title
;
Structure prediction by ZEFSAII (Michael W. Deem and Ramdas Pophale) SiO2 
 PCOD8014929
Probable space group: P -1
;
_chemical_formula_sum "Si O2"
_cell_formula_units_Z 14
_cell_length_a 19.078900
_cell_length_b 9.205749
_cell_length_c 12.490720
_cell_angle_alpha 134.214021
_cell_angle_beta 153.930810
_cell_angle_gamma 38.311416
_cell_volume 597.445079
_symmetry_space_group_name_H-M "P -1"
_symmetry_group_IT_number 2
_symmetry_cell_setting 'triclinic'
loop_
_space_group_symop_operation_xyz
x,y,z
-x,-y,-z
loop_
_atom_site_type_symbol
_atom_site_label
_atom_site_fract_x
_atom_site_fract_y
_atom_site_fract_z
Si Si1 0.186540 0.423133 0.586352
Si Si2 0.309353 0.352789 0.324800
Si Si3 0.463311 0.445196 0.302327
Si Si4 0.946921 0.785407 0.028931
Si Si5 0.900017 0.276090 0.172629
Si Si6 0.544690 0.958179 0.832209
Si Si7 0.047738 0.191490 0.697496
O O1 0.171038 0.608031 0.749364
O O2 0.087422 0.275662 0.405080
O O3 0.099853 0.559168 0.427600
O O4 0.403052 0.235138 0.775495
O O5 0.422031 0.482007 0.586045
O O6 0.443563 0.147082 0.323706
O O7 0.129171 0.555034 0.116701
O O8 0.235588 0.241046 0.257396
O O9 0.500000 0.500000 0.500000
O O10 0.523925 0.169562 0.241673
O O11 0.248327 0.584343 0.050564
O O12 0.964886 0.783784 0.180493
O O13 0.933175 0.014382 0.077116
O O14 0.747198 0.902672 0.115825
O O15 0.000000 0.000000 0.500000
#
# Coordination Sequence:
#
# PCOD8014929 Si02
#       7
#     2   2   2   2   2   2   2
#     4  11  24  43  69  99 130 177 217 270 329 394
#     4   9  21  42  61  90 131 169 215 264 329 374
#     4  10  21  42  63  95 132 169 221 274 318 390
#     4  10  21  42  65  93 134 170 213 276 324 387
#     4  11  23  42  68  98 130 171 227 266 331 392
#     4  10  22  43  65  97 132 169 224 266 328 390
#     4  11  22  43  66  96 139 170 214 270 333 391
#
# _framework density 23.433115999999998
#
# number of rings (size 3 to 8) (size 9 to 14) (size 15 to 20)
#    0.000    1.714    2.857    0.857    0.000    2.857 
#   20.571    4.286    0.000    0.000    0.000    0.000 
#    0.000    0.000    0.000    0.000    0.000    0.000 
#
# Total GULP energy -173479.404114 kJ/mol
# GULP energy per Si atom -12391.386008 kJ/mol
# Density = 2.337978 g / cm^3
# Si number density = 23.433116 Si / 1000 Ang^3
#
#
#
# Elastic Constant Matrix: (Units=GPa)
#
#
# Indices 1 2 3 4 5 6 
#
# 1 42.7993 13.9870 9.6678 -3.6792 4.5918 6.7063
# 2 13.9870 113.4461 17.6330 -20.7292 17.9912 16.0152
# 3 9.6678 17.6330 94.1679 -0.6616 9.3762 10.5367
# 4 -3.6792 -20.7292 -0.6616 35.5610 14.3842 7.8795
# 5 4.5918 17.9912 9.3762 14.3842 38.2830 2.4843
# 6 6.7063 16.0152 10.5367 7.8795 2.4843 34.0482
#
#
#
# Elastic Compliance Matrix: (Units=1/GPa)
#
#
# Indices 1 2 3 4 5 6 
#
# 1 0.025569 -0.000677 -0.001503 0.004933 -0.003902 -0.005109
# 2 -0.000677 0.015174 -0.000352 0.015890 -0.012306 -0.009674
# 3 -0.001503 -0.000352 0.011512 0.001766 -0.002923 -0.003296
# 4 0.004933 0.015890 0.001766 0.053224 -0.027236 -0.019322
# 5 -0.003902 -0.012306 -0.002923 -0.027236 0.042630 0.010654
# 6 -0.005109 -0.009674 -0.003296 -0.019322 0.010654 0.039641
#
#
# Mechanical properties :
#
#
# Convention : Reuss Voigt Hill
#
# Bulk Modulus (GPa) = 21.19141 36.99876 29.09509
# Shear Modulus (GPa) = 23.97552 35.52014 29.74783
#
# Velocity S-wave (km/s) = 3.20214 3.89756 3.56684
# Velocity P-wave (km/s) = 4.76808 6.00650 5.42276
#
# Compressibility (1/GPa) = 0.04718892
#
# Stress axis : x y z
#
# Youngs Moduli (GPa) = 39.10964 65.90363 86.86643
#
# Poissons Ratio (x) = 0.04463 0.13059
# Poissons Ratio (y) = 0.02649 0.03061
# Poissons Ratio (z) = 0.05879 0.02322
#
# Static dielectric constant tensor:
#      x y z
#    x 4.276160 0.074490 0.227710 
#    y 0.074490 4.886590 1.012530 
#    z 0.227710 1.012530 5.346670 
# 
# 
# High freq. dielectric constant tensor:
#      x y z
#    x 1.903370 0.013750 0.024380 
#    y 0.013750 1.937020 0.011750 
#    z 0.024380 0.011750 1.929260 
# 
# From -- ./inp_files/307319.got.cif
#   From: 2010.06.25/outbox.cif.g09.slc.cpg/sg2_154_cif.got.tgz:307319.got - 2010.06.27 13:26:56.
