data_PCOD8014311
_publ_section_title
;
Structure prediction by ZEFSAII (Michael W. Deem and Ramdas Pophale) SiO2 
 PCOD8014311
Probable space group: P -1
;
_chemical_formula_sum "Si O2"
_cell_formula_units_Z 16
_cell_length_a 11.949268
_cell_length_b 9.028287
_cell_length_c 28.278084
_cell_angle_alpha 29.958527
_cell_angle_beta 29.093814
_cell_angle_gamma 41.421803
_cell_volume 740.426086
_symmetry_space_group_name_H-M "P -1"
_symmetry_group_IT_number 2
_symmetry_cell_setting 'triclinic'
loop_
_space_group_symop_operation_xyz
x,y,z
-x,-y,-z
loop_
_atom_site_type_symbol
_atom_site_label
_atom_site_fract_x
_atom_site_fract_y
_atom_site_fract_z
Si Si1 0.302989 0.206977 0.722418
Si Si2 0.578394 0.797643 0.916250
Si Si3 0.798700 0.138486 0.566426
Si Si4 0.853164 0.817470 0.003957
Si Si5 0.224706 0.246095 0.636800
Si Si6 0.622379 0.168074 0.450387
Si Si7 0.896539 0.710456 0.910178
Si Si8 0.916242 0.155225 0.623447
O O1 0.539772 0.026460 0.677987
O O2 0.240670 0.358269 0.653581
O O3 0.344696 0.476099 0.669803
O O4 0.096565 0.990803 0.873259
O O5 0.695247 0.674094 0.955480
O O6 0.744044 0.030939 0.762150
O O7 0.500000 0.500000 0.000000
O O8 0.351979 0.983003 0.958554
O O9 0.827841 0.489630 0.452144
O O10 0.803434 0.073954 0.637773
O O11 0.000000 0.000000 0.500000
O O12 0.796663 0.714920 0.999395
O O13 0.900641 0.532591 0.098630
O O14 0.467643 0.107372 0.570888
O O15 0.013675 0.022790 0.768254
O O16 0.500000 0.000000 0.500000
O O17 0.868338 0.045662 0.399714
O O18 0.000000 0.500000 0.500000
#
# Coordination Sequence:
#
# PCOD8014311 Si02
#       8
#     2   2   2   2   2   2   2   2
#     4  10  21  42  66  95 128 170 229 271 339 399
#     4  12  27  46  68 103 146 184 228 288 359 419
#     4  11  22  40  67  99 132 172 222 281 332 407
#     4  10  24  46  74  97 133 186 239 289 332 420
#     4  10  21  41  66  95 128 172 218 282 339 395
#     4  11  21  38  63  88 132 173 207 268 336 411
#     4  10  23  47  70 102 131 181 243 283 345 404
#     4  12  26  42  61 102 133 173 225 275 347 407
#
# _framework density 21.609179000000001
#
# number of rings (size 3 to 8) (size 9 to 14) (size 15 to 20)
#    0.000    1.250    0.000    7.125    3.500    1.500 
#   13.500    0.000    0.000    0.000    0.000    0.000 
#    0.000    0.000    0.000    0.000    0.000    0.000 
#
# Total GULP energy -198262.920077 kJ/mol
# GULP energy per Si atom -12391.432505 kJ/mol
# Density = 2.156000 g / cm^3
# Si number density = 21.609179 Si / 1000 Ang^3
#
#
#
# Elastic Constant Matrix: (Units=GPa)
#
#
# Indices 1 2 3 4 5 6 
#
# 1 132.9537 56.3483 43.6426 -11.1118 -6.7530 -7.7919
# 2 56.3483 153.8022 41.8377 17.4363 -5.2077 -16.1888
# 3 43.6426 41.8377 86.8020 -3.7043 4.9869 -2.5509
# 4 -11.1118 17.4363 -3.7043 23.4966 2.7789 -9.2378
# 5 -6.7530 -5.2077 4.9869 2.7789 28.7151 -3.7026
# 6 -7.7919 -16.1888 -2.5509 -9.2378 -3.7026 40.4590
#
#
#
# Elastic Compliance Matrix: (Units=1/GPa)
#
#
# Indices 1 2 3 4 5 6 
#
# 1 0.011213 -0.003752 -0.003522 0.008274 0.002092 0.002517
# 2 -0.003752 0.010154 -0.003543 -0.009736 0.002663 0.001138
# 3 -0.003522 -0.003543 0.015398 0.003654 -0.004590 -0.000711
# 4 0.008274 -0.009736 0.003654 0.059161 -0.004761 0.011001
# 5 0.002092 0.002663 -0.004590 -0.004761 0.037512 0.003525
# 6 0.002517 0.001138 -0.000711 0.011001 0.003525 0.028446
#
#
# Mechanical properties :
#
#
# Convention : Reuss Voigt Hill
#
# Bulk Modulus (GPa) = 66.09214 73.02389 69.55801
# Shear Modulus (GPa) = 26.51658 33.98276 30.24967
#
# Velocity S-wave (km/s) = 3.50680 3.96991 3.74552
# Velocity P-wave (km/s) = 6.85919 7.40810 7.13892
#
# Compressibility (1/GPa) = 0.01513039
#
# Stress axis : x y z
#
# Youngs Moduli (GPa) = 89.18068 98.48494 64.94485
#
# Poissons Ratio (x) = 0.36954 0.22876
# Poissons Ratio (y) = 0.33463 0.23007
# Poissons Ratio (z) = 0.31413 0.34888
#
# Static dielectric constant tensor:
#      x y z
#    x 3.880450 0.013320 -1.023010 
#    y 0.013320 4.308820 0.785090 
#    z -1.023010 0.785090 0.933890 
# 
# 
# High freq. dielectric constant tensor:
#      x y z
#    x 1.859760 -0.004130 -0.008430 
#    y -0.004130 1.854020 0.000770 
#    z -0.008430 0.000770 1.850580 
# 
# From -- ./inp_files/618199.got.cif
#   From: 2010.06.25/outbox.cif.g09.slc.cpg/sg2_310_cif.got.tgz:618199.got - 2010.06.27 13:26:56.
