data_PCOD8014321
_publ_section_title
;
Structure prediction by ZEFSAII (Michael W. Deem and Ramdas Pophale) SiO2 
 PCOD8014321
Probable space group: P -1
;
_chemical_formula_sum "Si O2"
_cell_formula_units_Z 12
_cell_length_a 12.095374
_cell_length_b 7.973092
_cell_length_c 14.492864
_cell_angle_alpha 90.023634
_cell_angle_beta 149.514407
_cell_angle_gamma 70.202139
_cell_volume 528.336782
_symmetry_space_group_name_H-M "P -1"
_symmetry_group_IT_number 2
_symmetry_cell_setting 'triclinic'
loop_
_space_group_symop_operation_xyz
x,y,z
-x,-y,-z
loop_
_atom_site_type_symbol
_atom_site_label
_atom_site_fract_x
_atom_site_fract_y
_atom_site_fract_z
Si Si1 0.653316 0.032782 0.480712
Si Si2 0.803443 0.834065 0.163624
Si Si3 0.774884 0.199290 0.405313
Si Si4 0.954793 0.099791 0.823003
Si Si5 0.162296 0.532774 0.910721
Si Si6 0.023748 0.230005 0.048537
O O1 0.953054 0.775156 0.711901
O O2 0.647563 0.111060 0.374562
O O3 0.661544 0.184105 0.560256
O O4 0.376648 0.055905 0.298269
O O5 0.874694 0.619418 0.170682
O O6 0.070325 0.734585 0.424946
O O7 0.807557 0.966797 0.083296
O O8 0.500000 0.000000 0.000000
O O9 0.503283 0.414554 0.151722
O O10 0.000000 0.000000 0.500000
O O11 0.089051 0.878244 0.978923
O O12 0.890624 0.286360 0.849014
O O13 0.089140 0.555534 0.970015
#
# Coordination Sequence:
#
# PCOD8014321 Si02
#       6
#     2   2   2   2   2   2
#     4  10  23  42  66  94 131 163 207 267 313 382
#     4  11  23  41  62  91 131 168 215 262 308 374
#     4  11  24  43  63  89 130 170 212 261 310 372
#     4   9  20  38  63  91 130 162 203 264 313 368
#     4  11  23  41  67  96 125 169 211 256 326 371
#     4  10  21  41  66  96 130 161 211 260 320 383
#
# _framework density 22.712786000000001
#
# number of rings (size 3 to 8) (size 9 to 14) (size 15 to 20)
#    0.000    1.667    1.667    3.000    0.000    8.667 
#    3.000    6.667    0.000    0.000    0.000    0.000 
#    0.000    0.000    0.000    0.000    0.000    0.000 
#
# Total GULP energy -148676.386729 kJ/mol
# GULP energy per Si atom -12389.698894 kJ/mol
# Density = 2.266109 g / cm^3
# Si number density = 22.712786 Si / 1000 Ang^3
#
#
#
# Elastic Constant Matrix: (Units=GPa)
#
#
# Indices 1 2 3 4 5 6 
#
# 1 96.8863 40.3759 22.3983 10.0508 8.3780 -10.2559
# 2 40.3759 136.1132 57.3518 22.0596 1.2716 -26.9630
# 3 22.3983 57.3518 122.0332 3.0750 8.9192 3.2370
# 4 10.0508 22.0596 3.0750 41.3720 -6.6847 -0.9728
# 5 8.3780 1.2716 8.9192 -6.6847 25.9938 7.9699
# 6 -10.2559 -26.9630 3.2370 -0.9728 7.9699 33.7613
#
#
#
# Elastic Compliance Matrix: (Units=1/GPa)
#
#
# Indices 1 2 3 4 5 6 
#
# 1 0.012526 -0.002223 -0.000890 -0.002569 -0.005293 0.003291
# 2 -0.002223 0.013986 -0.006072 -0.006705 -0.003175 0.011633
# 3 -0.000890 -0.006072 0.011376 0.002323 -0.000904 -0.005930
# 4 -0.002569 -0.006705 0.002323 0.029697 0.010439 -0.007967
# 5 -0.005293 -0.003175 -0.000904 0.010439 0.047949 -0.015075
# 6 0.003291 0.011633 -0.005930 -0.007967 -0.015075 0.043807
#
#
# Mechanical properties :
#
#
# Convention : Reuss Voigt Hill
#
# Bulk Modulus (GPa) = 51.23609 66.14276 58.68942
# Shear Modulus (GPa) = 27.14182 35.88587 31.51385
#
# Velocity S-wave (km/s) = 3.46063 3.97922 3.72895
# Velocity P-wave (km/s) = 6.21089 7.09202 6.66603
#
# Compressibility (1/GPa) = 0.01951749
#
# Stress axis : x y z
#
# Youngs Moduli (GPa) = 79.83353 71.50261 87.90055
#
# Poissons Ratio (x) = 0.15895 0.07824
# Poissons Ratio (y) = 0.17747 0.53376
# Poissons Ratio (z) = 0.07106 0.43418
#
# Static dielectric constant tensor:
#      x y z
#    x 4.343480 -0.369290 -0.066750 
#    y -0.369290 4.389450 0.540990 
#    z -0.066750 0.540990 4.217290 
# 
# 
# High freq. dielectric constant tensor:
#      x y z
#    x 1.896500 -0.018280 -0.002520 
#    y -0.018280 1.895360 0.030990 
#    z -0.002520 0.030990 1.891940 
# 
# From -- ./inp_files/171848.got.cif
#   From: 2010.06.25/outbox.cif.g09.slc.cpg/sg2_86_cif.got.tgz:171848.got - 2010.06.27 13:26:56.
