data_PCOD8014309
_publ_section_title
;
Structure prediction by ZEFSAII (Michael W. Deem and Ramdas Pophale) SiO2 
 PCOD8014309
Probable space group: P -1
;
_chemical_formula_sum "Si O2"
_cell_formula_units_Z 14
_cell_length_a 9.287475
_cell_length_b 21.560115
_cell_length_c 20.135641
_cell_angle_alpha 19.601139
_cell_angle_beta 150.546155
_cell_angle_gamma 152.145016
_cell_volume 613.274410
_symmetry_space_group_name_H-M "P -1"
_symmetry_group_IT_number 2
_symmetry_cell_setting 'triclinic'
loop_
_space_group_symop_operation_xyz
x,y,z
-x,-y,-z
loop_
_atom_site_type_symbol
_atom_site_label
_atom_site_fract_x
_atom_site_fract_y
_atom_site_fract_z
Si Si1 0.866097 0.623461 0.109379
Si Si2 0.732628 0.432899 0.554911
Si Si3 0.873320 0.520301 0.759860
Si Si4 0.686494 0.220840 0.099822
Si Si5 0.282246 0.786404 0.364018
Si Si6 0.361503 0.225343 0.358690
Si Si7 0.576692 0.175444 0.248142
O O1 0.543279 0.427463 0.187211
O O2 0.130579 0.641277 0.252205
O O3 0.007514 0.617242 0.100008
O O4 0.760540 0.812526 0.879742
O O5 0.378280 0.416498 0.445501
O O6 0.718355 0.284345 0.639413
O O7 0.946102 0.663175 0.388861
O O8 0.165367 0.719635 0.697666
O O9 0.690841 0.396572 0.875888
O O10 0.689820 0.292013 0.105518
O O11 0.986677 0.161745 0.265446
O O12 0.363156 0.024721 0.155516
O O13 0.549381 0.746083 0.556184
O O14 0.469642 0.054998 0.543702
#
# Coordination Sequence:
#
# PCOD8014309 Si02
#       7
#     2   2   2   2   2   2   2
#     4  11  25  44  60  93 131 164 210 251 305 379
#     4  10  22  41  65  85 129 167 206 254 314 360
#     4  12  24  40  64  92 129 169 201 254 315 369
#     4  11  22  38  67  98 125 152 217 262 306 368
#     4   9  20  39  64  92 118 160 211 257 306 361
#     4  10  21  41  66  95 127 158 207 264 306 367
#     4  11  23  41  69  92 123 165 208 259 312 358
#
# _framework density 22.828281
#
# number of rings (size 3 to 8) (size 9 to 14) (size 15 to 20)
#    0.000    1.429    1.429    4.714    6.000    1.143 
#    7.714    0.714    0.000    0.000    0.000    0.000 
#    0.000    0.000    0.000    0.000    0.000    0.000 
#
# Total GULP energy -173644.265049 kJ/mol
# GULP energy per Si atom -12403.161789 kJ/mol
# Density = 2.277632 g / cm^3
# Si number density = 22.828281 Si / 1000 Ang^3
#
#
#
# Elastic Constant Matrix: (Units=GPa)
#
#
# Indices 1 2 3 4 5 6 
#
# 1 66.2205 24.7417 8.1454 6.7008 20.8658 -13.3812
# 2 24.7417 113.3627 30.0494 19.3762 10.0158 -18.2670
# 3 8.1454 30.0494 60.5013 16.3688 20.5867 -6.0554
# 4 6.7008 19.3762 16.3688 27.2383 7.3019 5.7542
# 5 20.8658 10.0158 20.5867 7.3019 32.6067 -2.2480
# 6 -13.3812 -18.2670 -6.0554 5.7542 -2.2480 24.6036
#
#
#
# Elastic Compliance Matrix: (Units=1/GPa)
#
#
# Indices 1 2 3 4 5 6 
#
# 1 0.023417 -0.002265 0.006427 -0.006386 -0.016044 0.012664
# 2 -0.002265 0.013337 -0.003509 -0.009648 0.002438 0.010286
# 3 0.006427 -0.003509 0.027625 -0.013098 -0.016908 0.009207
# 4 -0.006386 -0.009648 -0.013098 0.058777 0.000256 -0.027583
# 5 -0.016044 0.002438 -0.016908 0.000256 0.050354 -0.006536
# 6 0.012664 0.010286 0.009207 -0.027583 -0.006536 0.063288
#
#
# Mechanical properties :
#
#
# Convention : Reuss Voigt Hill
#
# Bulk Modulus (GPa) = 15.22429 40.66196 27.94312
# Shear Modulus (GPa) = 19.42605 28.69959 24.06282
#
# Velocity S-wave (km/s) = 2.92029 3.54954 3.25018
# Velocity P-wave (km/s) = 4.24904 5.88640 5.13342
#
# Compressibility (1/GPa) = 0.06568452
#
# Stress axis : x y z
#
# Youngs Moduli (GPa) = 42.70357 74.98124 36.19950
#
# Poissons Ratio (x) = 0.16982 -0.23264
# Poissons Ratio (y) = 0.09671 0.12702
# Poissons Ratio (z) = -0.27444 0.26310
#
# Static dielectric constant tensor:
#      x y z
#    x 4.012210 -0.107210 0.018830 
#    y -0.107210 4.261400 0.144850 
#    z 0.018830 0.144850 3.828610 
# 
# 
# High freq. dielectric constant tensor:
#      x y z
#    x 1.890940 -0.012730 0.005330 
#    y -0.012730 1.906660 0.009620 
#    z 0.005330 0.009620 1.889450 
# 
# From -- ./inp_files/185724.got.cif
#   From: 2010.06.25/outbox.cif.g09.slc.cpg/sg2_93_cif.got.tgz:185724.got - 2010.06.27 13:26:56.
