data_PCOD8014892
_publ_section_title
;
Structure prediction by ZEFSAII (Michael W. Deem and Ramdas Pophale) SiO2 
 PCOD8014892
Probable space group: P -1
;
_chemical_formula_sum "Si O2"
_cell_formula_units_Z 16
_cell_length_a 22.060532
_cell_length_b 9.220841
_cell_length_c 11.306637
_cell_angle_alpha 110.591726
_cell_angle_beta 41.110767
_cell_angle_gamma 143.474732
_cell_volume 685.199855
_symmetry_space_group_name_H-M "P -1"
_symmetry_group_IT_number 2
_symmetry_cell_setting 'triclinic'
loop_
_space_group_symop_operation_xyz
x,y,z
-x,-y,-z
loop_
_atom_site_type_symbol
_atom_site_label
_atom_site_fract_x
_atom_site_fract_y
_atom_site_fract_z
Si Si1 0.439107 0.492648 0.417261
Si Si2 0.237529 0.436223 0.117558
Si Si3 0.670565 0.639246 0.824345
Si Si4 0.156096 0.799786 0.027528
Si Si5 0.835401 0.756291 0.408424
Si Si6 0.850007 0.451893 0.211321
Si Si7 0.011478 0.368492 0.528889
Si Si8 0.521503 0.780124 0.611052
O O1 0.251978 0.231552 0.535946
O O2 0.423676 0.590052 0.576534
O O3 0.428613 0.301828 0.416873
O O4 0.635431 0.818073 0.147558
O O5 0.325727 0.430800 0.071104
O O6 0.202675 0.547983 0.271479
O O7 0.385468 0.685478 0.866085
O O8 0.051942 0.094552 0.227840
O O9 0.698298 0.537292 0.662707
O O10 0.850210 0.008879 0.635430
O O11 0.500000 0.500000 0.000000
O O12 0.171003 0.640328 0.920066
O O13 0.014545 0.612773 0.292754
O O14 0.064818 0.747127 0.030534
O O15 0.803889 0.564107 0.314128
O O16 0.710892 0.155422 0.418656
O O17 0.000000 0.500000 0.500000
#
# Coordination Sequence:
#
# PCOD8014892 Si02
#       8
#     2   2   2   2   2   2   2   2
#     4  10  22  40  64  87 125 166 205 257 306 373
#     4  11  24  42  64  90 131 168 203 255 310 378
#     4  11  23  42  66  88 122 172 210 249 311 377
#     4  10  21  42  63  86 122 164 206 248 312 368
#     4  11  22  39  61  92 122 164 210 247 314 373
#     4  10  22  38  66  90 117 160 205 260 304 361
#     4  11  24  40  62  92 125 163 206 256 304 364
#     4  10  22  40  60  93 125 162 210 255 308 359
#
# _framework density 23.350850000000001
#
# number of rings (size 3 to 8) (size 9 to 14) (size 15 to 20)
#    0.000    1.500    0.000    6.000    0.000    9.500 
#    0.000    1.875    0.000    0.000    0.000    0.000 
#    0.000    0.000    0.000    0.000    0.000    0.000 
#
# Total GULP energy -198255.906602 kJ/mol
# GULP energy per Si atom -12390.994163 kJ/mol
# Density = 2.329770 g / cm^3
# Si number density = 23.350850 Si / 1000 Ang^3
#
#
#
# Elastic Constant Matrix: (Units=GPa)
#
#
# Indices 1 2 3 4 5 6 
#
# 1 102.5425 19.7975 31.4145 -1.3439 -8.0707 12.9140
# 2 19.7975 75.2339 34.8924 26.7815 0.0218 -2.0232
# 3 31.4145 34.8924 142.2613 33.4784 9.1363 6.2475
# 4 -1.3439 26.7815 33.4784 37.0267 11.1788 -1.2335
# 5 -8.0707 0.0218 9.1363 11.1788 36.5602 -3.3759
# 6 12.9140 -2.0232 6.2475 -1.2335 -3.3759 30.0356
#
#
#
# Elastic Compliance Matrix: (Units=1/GPa)
#
#
# Indices 1 2 3 4 5 6 
#
# 1 0.012114 -0.003852 -0.002854 0.005242 0.001371 -0.004505
# 2 -0.003852 0.020197 -0.000969 -0.015058 0.004268 0.003079
# 3 -0.002854 -0.000969 0.009934 -0.008210 -0.000724 -0.001323
# 4 0.005242 -0.015058 -0.008210 0.049066 -0.011866 -0.000879
# 5 0.001371 0.004268 -0.000724 -0.011866 0.031732 0.002928
# 6 -0.004505 0.003079 -0.001323 -0.000879 0.002928 0.036006
#
#
# Mechanical properties :
#
#
# Convention : Reuss Voigt Hill
#
# Bulk Modulus (GPa) = 37.18135 54.69405 45.93770
# Shear Modulus (GPa) = 27.26824 36.32006 31.79415
#
# Velocity S-wave (km/s) = 3.42096 3.94814 3.69397
# Velocity P-wave (km/s) = 5.61796 6.65262 6.15706
#
# Compressibility (1/GPa) = 0.02689520
#
# Stress axis : x y z
#
# Youngs Moduli (GPa) = 82.54878 49.51286 100.66494
#
# Poissons Ratio (x) = 0.19071 0.28732
# Poissons Ratio (y) = 0.31796 0.09752
# Poissons Ratio (z) = 0.23561 0.04797
#
# Static dielectric constant tensor:
#      x y z
#    x 3.907130 -0.211380 -0.689340 
#    y -0.211380 1.579710 -4.905920 
#    z -0.689340 -4.905920 -6.043670 
# 
# 
# High freq. dielectric constant tensor:
#      x y z
#    x 1.908690 0.012190 -0.001840 
#    y 0.012190 1.918620 0.027690 
#    z -0.001840 0.027690 1.939290 
# 
# From -- ./inp_files/470049.got.cif
#   From: 2010.06.25/outbox.cif.g09.slc.cpg/sg2_236_cif.got.tgz:470049.got - 2010.06.27 13:26:56.
