data_PCOD8014717
_publ_section_title
;
Structure prediction by ZEFSAII (Michael W. Deem and Ramdas Pophale) SiO2 
 PCOD8014717
Probable space group: P -1
;
_chemical_formula_sum "Si O2"
_cell_formula_units_Z 10
_cell_length_a 12.115587
_cell_length_b 19.484439
_cell_length_c 12.906445
_cell_angle_alpha 19.789849
_cell_angle_beta 33.067339
_cell_angle_gamma 23.319862
_cell_volume 400.568061
_symmetry_space_group_name_H-M "P -1"
_symmetry_group_IT_number 2
_symmetry_cell_setting 'triclinic'
loop_
_space_group_symop_operation_xyz
x,y,z
-x,-y,-z
loop_
_atom_site_type_symbol
_atom_site_label
_atom_site_fract_x
_atom_site_fract_y
_atom_site_fract_z
Si Si1 0.206586 0.237917 0.634842
Si Si2 0.258608 0.665162 0.665819
Si Si3 0.193355 0.803585 0.223486
Si Si4 0.345381 0.770251 0.667033
Si Si5 0.824487 0.708192 0.653364
O O1 0.523548 0.101192 0.596227
O O2 0.091536 0.364630 0.429865
O O3 0.000000 0.500000 0.500000
O O4 0.218742 0.990379 0.005827
O O5 0.489693 0.493325 0.636137
O O6 0.404377 0.663507 0.653763
O O7 0.133772 0.532122 0.980479
O O8 0.989444 0.990657 0.381789
O O9 0.028788 0.735150 0.508573
O O10 0.000000 0.000000 0.000000
O O11 0.500000 0.500000 0.000000
O O12 0.500000 0.000000 0.500000
#
# Coordination Sequence:
#
# PCOD8014717 Si02
#       5
#     2   2   2   2   2
#     4  11  23  40  68 102 141 178 229 290 340 405
#     4  11  23  45  70 101 138 188 228 281 352 413
#     4  10  21  41  70  99 141 178 229 281 349 409
#     4  11  24  43  68 102 139 180 234 291 343 405
#     4  11  21  42  73  97 139 191 223 281 352 411
#
# _framework density 24.964547
#
# number of rings (size 3 to 8) (size 9 to 14) (size 15 to 20)
#    0.000    1.200    6.000    2.400    0.000    0.800 
#    3.600    4.000    0.000    0.000    0.000    0.000 
#    0.000    0.000    0.000    0.000    0.000    0.000 
#
# Total GULP energy -124020.553019 kJ/mol
# GULP energy per Si atom -12402.055302 kJ/mol
# Density = 2.490773 g / cm^3
# Si number density = 24.964547 Si / 1000 Ang^3
#
#
#
# Elastic Constant Matrix: (Units=GPa)
#
#
# Indices 1 2 3 4 5 6 
#
# 1 74.5655 45.8740 50.6009 0.6257 -30.2416 -7.3560
# 2 45.8740 164.1249 65.8214 -8.5772 -19.7080 1.6176
# 3 50.6009 65.8214 139.3492 8.3244 -28.8682 -16.3736
# 4 0.6257 -8.5772 8.3244 61.2983 -12.7859 -12.0112
# 5 -30.2416 -19.7080 -28.8682 -12.7859 49.6630 2.8149
# 6 -7.3560 1.6176 -16.3736 -12.0112 2.8149 48.3432
#
#
#
# Elastic Compliance Matrix: (Units=1/GPa)
#
#
# Indices 1 2 3 4 5 6 
#
# 1 0.022942 -0.003212 -0.004525 0.002551 0.010604 0.002082
# 2 -0.003212 0.008273 -0.002989 0.001314 0.000011 -0.001452
# 3 -0.004525 -0.002989 0.011048 -0.000885 0.002094 0.002812
# 4 0.002551 0.001314 -0.000885 0.018721 0.006134 0.004339
# 5 0.010604 0.000011 0.002094 0.006134 0.029272 0.002142
# 6 0.002082 -0.001452 0.002812 0.004339 0.002142 0.022956
#
#
# Mechanical properties :
#
#
# Convention : Reuss Voigt Hill
#
# Bulk Modulus (GPa) = 48.04547 78.07024 63.05786
# Shear Modulus (GPa) = 35.31037 46.24379 40.77708
#
# Velocity S-wave (km/s) = 3.76496 4.30860 4.04592
# Velocity P-wave (km/s) = 6.17957 7.48948 6.86584
#
# Compressibility (1/GPa) = 0.02081362
#
# Stress axis : x y z
#
# Youngs Moduli (GPa) = 43.58761 120.86854 90.51599
#
# Poissons Ratio (x) = 0.38820 0.40955
# Poissons Ratio (y) = 0.13999 0.27051
# Poissons Ratio (z) = 0.19722 0.36122
#
# Static dielectric constant tensor:
#      x y z
#    x 5.243130 -0.539680 -0.401260 
#    y -0.539680 4.964970 0.431290 
#    z -0.401260 0.431290 5.158450 
# 
# 
# High freq. dielectric constant tensor:
#      x y z
#    x 1.996920 -0.009010 -0.019750 
#    y -0.009010 2.001640 0.000670 
#    z -0.019750 0.000670 1.995640 
# 
# From -- ./inp_files/375738.got.cif
#   From: 2010.06.25/outbox.cif.g09.slc.cpg/sg2_188_cif.got.tgz:375738.got - 2010.06.27 13:26:56.
