data_PCOD8014461
_publ_section_title
;
Structure prediction by ZEFSAII (Michael W. Deem and Ramdas Pophale) SiO2 
 PCOD8014461
Probable space group: P -1
;
_chemical_formula_sum "Si O2"
_cell_formula_units_Z 14
_cell_length_a 22.018555
_cell_length_b 15.377166
_cell_length_c 12.469796
_cell_angle_alpha 148.692398
_cell_angle_beta 29.892505
_cell_angle_gamma 161.155733
_cell_volume 664.400287
_symmetry_space_group_name_H-M "P -1"
_symmetry_group_IT_number 2
_symmetry_cell_setting 'triclinic'
loop_
_space_group_symop_operation_xyz
x,y,z
-x,-y,-z
loop_
_atom_site_type_symbol
_atom_site_label
_atom_site_fract_x
_atom_site_fract_y
_atom_site_fract_z
Si Si1 0.104007 0.039064 0.153495
Si Si2 0.087040 0.921433 0.818203
Si Si3 0.464004 0.170391 0.417243
Si Si4 0.642825 0.975382 0.178029
Si Si5 0.647313 0.507734 0.286647
Si Si6 0.329978 0.622748 0.464903
Si Si7 0.676576 0.341353 0.851527
O O1 0.188307 0.320705 0.319926
O O2 0.207863 0.021412 0.059691
O O3 0.870980 0.804480 0.291090
O O4 0.145424 0.993934 0.929717
O O5 0.908629 0.593618 0.723780
O O6 0.282469 0.103410 0.638630
O O7 0.000000 0.000000 0.000000
O O8 0.566179 0.292043 0.273273
O O9 0.631643 0.378996 0.471620
O O10 0.364923 0.884038 0.277112
O O11 0.541192 0.855190 0.323999
O O12 0.469680 0.767105 0.135103
O O13 0.757979 0.281719 0.311565
O O14 0.500000 0.500000 0.500000
O O15 0.644941 0.433388 0.093546
#
# Coordination Sequence:
#
# PCOD8014461 Si02
#       7
#     2   2   2   2   2   2   2
#     4  11  23  42  66  93 129 169 209 264 317 379
#     4  11  22  38  65  98 124 165 214 259 319 374
#     4  11  22  42  64  92 129 166 213 263 314 378
#     4  10  21  41  67  97 129 159 216 261 320 379
#     4  11  26  45  61  91 127 172 214 256 322 380
#     4  10  22  38  67 101 124 166 207 268 320 373
#     4  10  23  42  65  93 125 167 210 266 314 375
#
# _framework density 21.071635000000001
#
# number of rings (size 3 to 8) (size 9 to 14) (size 15 to 20)
#    0.000    1.429    1.429    3.857    4.000    0.571 
#   12.857    1.429    0.000    0.000    0.000    0.000 
#    0.000    0.000    0.000    0.000    0.000    0.000 
#
# Total GULP energy -173560.498929 kJ/mol
# GULP energy per Si atom -12397.178495 kJ/mol
# Density = 2.102367 g / cm^3
# Si number density = 21.071635 Si / 1000 Ang^3
#
#
#
# Elastic Constant Matrix: (Units=GPa)
#
#
# Indices 1 2 3 4 5 6 
#
# 1 85.9486 25.9882 19.3028 5.7524 -13.3386 -1.0140
# 2 25.9882 108.7307 39.8015 14.1797 -13.3212 3.7970
# 3 19.3028 39.8015 71.9072 5.0594 -17.8729 7.4517
# 4 5.7524 14.1797 5.0594 37.3892 -3.7449 5.4029
# 5 -13.3386 -13.3212 -17.8729 -3.7449 33.8740 -0.7724
# 6 -1.0140 3.7970 7.4517 5.4029 -0.7724 26.1578
#
#
#
# Elastic Compliance Matrix: (Units=1/GPa)
#
#
# Indices 1 2 3 4 5 6 
#
# 1 0.013250 -0.002076 -0.001644 -0.000908 0.003469 0.001574
# 2 -0.002076 0.012396 -0.005983 -0.003605 0.000515 0.000584
# 3 -0.001644 -0.005983 0.019959 0.001290 0.007561 -0.004924
# 4 -0.000908 -0.003605 0.001290 0.029121 0.001992 -0.005836
# 5 0.003469 0.000515 0.007561 0.001992 0.035266 -0.001464
# 6 0.001574 0.000584 -0.004924 -0.005836 -0.001464 0.040771
#
#
# Mechanical properties :
#
#
# Convention : Reuss Voigt Hill
#
# Bulk Modulus (GPa) = 38.17224 48.53017 43.35121
# Shear Modulus (GPa) = 27.94834 31.58381 29.76608
#
# Velocity S-wave (km/s) = 3.64586 3.87573 3.76255
# Velocity P-wave (km/s) = 5.98981 6.56578 6.28440
#
# Compressibility (1/GPa) = 0.02619704
#
# Stress axis : x y z
#
# Youngs Moduli (GPa) = 75.47347 80.66944 50.10367
#
# Poissons Ratio (x) = 0.16750 0.08239
# Poissons Ratio (y) = 0.15672 0.29977
# Poissons Ratio (z) = 0.12411 0.48264
#
# Static dielectric constant tensor:
#      x y z
#    x 4.347880 -0.355880 0.310620 
#    y -0.355880 3.558640 0.042240 
#    z 0.310620 0.042240 4.054670 
# 
# 
# High freq. dielectric constant tensor:
#      x y z
#    x 1.840040 -0.000890 -0.009300 
#    y -0.000890 1.820620 0.013620 
#    z -0.009300 0.013620 1.820600 
# 
# From -- ./inp_files/153791.got.cif
#   From: 2010.06.25/outbox.cif.g09.slc.cpg/sg2_77_cif.got.tgz:153791.got - 2010.06.27 13:26:56.
