data_PCOD8014864
_publ_section_title
;
Structure prediction by ZEFSAII (Michael W. Deem and Ramdas Pophale) SiO2 
 PCOD8014864
Probable space group: P -1
;
_chemical_formula_sum "Si O2"
_cell_formula_units_Z 16
_cell_length_a 12.982850
_cell_length_b 6.852504
_cell_length_c 13.844486
_cell_angle_alpha 77.883259
_cell_angle_beta 114.714413
_cell_angle_gamma 137.278124
_cell_volume 749.567392
_symmetry_space_group_name_H-M "P -1"
_symmetry_group_IT_number 2
_symmetry_cell_setting 'triclinic'
loop_
_space_group_symop_operation_xyz
x,y,z
-x,-y,-z
loop_
_atom_site_type_symbol
_atom_site_label
_atom_site_fract_x
_atom_site_fract_y
_atom_site_fract_z
Si Si1 0.246677 0.876412 0.486815
Si Si2 0.772798 0.849195 0.721329
Si Si3 0.176442 0.802267 0.923780
Si Si4 0.200542 0.801930 0.150461
Si Si5 0.540406 0.184357 0.702935
Si Si6 0.113782 0.109948 0.758678
Si Si7 0.946840 0.243099 0.398858
Si Si8 0.270071 0.719903 0.789077
O O1 0.154178 0.900883 0.525899
O O2 0.140282 0.537943 0.462555
O O3 0.272480 0.038830 0.384900
O O4 0.422142 0.024278 0.579840
O O5 0.620692 0.504363 0.705582
O O6 0.793742 0.975039 0.821284
O O7 0.940925 0.949227 0.754528
O O8 0.269325 0.751381 0.901516
O O9 0.981326 0.519533 0.881169
O O10 0.204292 0.054566 0.861371
O O11 0.256784 0.897199 0.051392
O O12 0.321399 0.807725 0.254374
O O13 0.438230 0.019104 0.778427
O O14 0.243305 0.457602 0.773982
O O15 0.079545 0.994362 0.646940
O O16 0.887148 0.357415 0.302390
#
# Coordination Sequence:
#
# PCOD8014864 Si02
#       8
#     2   2   2   2   2   2   2   2
#     4  10  21  42  62  91 132 165 205 259 306 368
#     4  12  23  41  62  95 128 165 211 253 306 380
#     4  10  22  42  70  92 122 164 210 259 310 376
#     4  11  24  42  64  97 126 160 211 260 313 372
#     4  11  26  42  60  93 133 165 200 266 316 355
#     4  11  20  39  71  93 119 166 214 254 306 371
#     4   9  20  39  64  96 124 161 216 255 296 374
#     4  10  21  43  65  95 126 162 209 259 307 372
#
# _framework density 21.345647
#
# number of rings (size 3 to 8) (size 9 to 14) (size 15 to 20)
#    0.000    1.500    3.750    1.125    0.000    6.000 
#    2.250    1.250    0.000    0.000    0.000    0.000 
#    0.000    0.000    0.000    0.000    0.000    0.000 
#
# Total GULP energy -198454.028930 kJ/mol
# GULP energy per Si atom -12403.376808 kJ/mol
# Density = 2.129706 g / cm^3
# Si number density = 21.345647 Si / 1000 Ang^3
#
#
#
# Elastic Constant Matrix: (Units=GPa)
#
#
# Indices 1 2 3 4 5 6 
#
# 1 74.8508 38.0015 37.5852 8.9692 -17.5667 -14.6308
# 2 38.0015 114.0427 43.9995 6.1576 -13.4741 0.4220
# 3 37.5852 43.9995 91.3570 5.8172 -20.2336 -9.8418
# 4 8.9692 6.1576 5.8172 19.1012 1.7881 -6.4273
# 5 -17.5667 -13.4741 -20.2336 1.7881 46.6659 5.0679
# 6 -14.6308 0.4220 -9.8418 -6.4273 5.0679 30.7822
#
#
#
# Elastic Compliance Matrix: (Units=1/GPa)
#
#
# Indices 1 2 3 4 5 6 
#
# 1 0.020736 -0.004476 -0.004426 -0.005043 0.004051 0.006782
# 2 -0.004476 0.012049 -0.004168 -0.001945 0.000508 -0.004115
# 3 -0.004426 -0.004168 0.015928 -0.001049 0.003838 0.002195
# 4 -0.005043 -0.001945 -0.001049 0.059919 -0.006390 0.010857
# 5 0.004051 0.000508 0.003838 -0.006390 0.025265 -0.002348
# 6 0.006782 -0.004115 0.002195 0.010857 -0.002348 0.039122
#
#
# Mechanical properties :
#
#
# Convention : Reuss Voigt Hill
#
# Bulk Modulus (GPa) = 44.30457 57.71366 51.00911
# Shear Modulus (GPa) = 24.19175 30.02081 27.10628
#
# Velocity S-wave (km/s) = 3.37016 3.75429 3.56740
# Velocity P-wave (km/s) = 5.99540 6.77416 6.39664
#
# Compressibility (1/GPa) = 0.02257104
#
# Stress axis : x y z
#
# Youngs Moduli (GPa) = 48.22640 82.99681 62.78269
#
# Poissons Ratio (x) = 0.37150 0.27789
# Poissons Ratio (y) = 0.21586 0.26170
# Poissons Ratio (z) = 0.21346 0.34596
#
# Static dielectric constant tensor:
#      x y z
#    x 3.790690 -0.026800 -0.208500 
#    y -0.026800 3.771200 0.004480 
#    z -0.208500 0.004480 4.058190 
# 
# 
# High freq. dielectric constant tensor:
#      x y z
#    x 1.831640 0.000580 -0.012010 
#    y 0.000580 1.835380 0.000240 
#    z -0.012010 0.000240 1.838330 
# 
# From -- ./inp_files/78037.got.cif
#   From: 2010.06.25/outbox.cif.g09.slc.cpg/sg2_40_cif.got.tgz:78037.got - 2010.06.27 13:26:56.
