data_PCOD8014070
_publ_section_title
;
Structure prediction by ZEFSAII (Michael W. Deem and Ramdas Pophale) SiO2 
 PCOD8014070
Probable space group: P -1
;
_chemical_formula_sum "Si O2"
_cell_formula_units_Z 14
_cell_length_a 19.475827
_cell_length_b 10.138753
_cell_length_c 17.398888
_cell_angle_alpha 149.090703
_cell_angle_beta 20.529679
_cell_angle_gamma 140.418818
_cell_volume 608.575731
_symmetry_space_group_name_H-M "P -1"
_symmetry_group_IT_number 2
_symmetry_cell_setting 'triclinic'
loop_
_space_group_symop_operation_xyz
x,y,z
-x,-y,-z
loop_
_atom_site_type_symbol
_atom_site_label
_atom_site_fract_x
_atom_site_fract_y
_atom_site_fract_z
Si Si1 0.517740 0.028847 0.741610
Si Si2 0.397283 0.742194 0.389098
Si Si3 0.860440 0.658050 0.491176
Si Si4 0.505093 0.538911 0.414516
Si Si5 0.824765 0.040564 0.852997
Si Si6 0.784392 0.798005 0.472483
Si Si7 0.729494 0.737497 0.147424
O O1 0.539798 0.717785 0.540391
O O2 0.641511 0.032880 0.693486
O O3 0.600335 0.201122 0.676808
O O4 0.280034 0.122241 0.054768
O O5 0.311313 0.479955 0.361803
O O6 0.629679 0.717186 0.158391
O O7 0.248229 0.968557 0.705297
O O8 0.777758 0.823957 0.585300
O O9 0.916284 0.857575 0.595309
O O10 0.061389 0.454729 0.158112
O O11 0.277967 0.482951 0.621243
O O12 0.550091 0.691560 0.368228
O O13 0.648844 0.261448 0.117645
O O14 0.995918 0.183081 0.779329
#
# Coordination Sequence:
#
# PCOD8014070 Si02
#       7
#     2   2   2   2   2   2   2
#     4  10  25  43  64  95 127 167 207 256 319 372
#     4  10  23  45  64  89 128 169 207 258 309 374
#     4  12  24  40  67  97 123 165 214 258 309 371
#     4  10  21  41  64  96 125 163 208 259 313 369
#     4  11  24  40  62  95 132 162 210 256 311 373
#     4  11  22  39  64  97 125 162 205 260 315 361
#     4  10  21  41  67  92 125 162 214 258 308 369
#
# _framework density 23.004532999999999
#
# number of rings (size 3 to 8) (size 9 to 14) (size 15 to 20)
#    0.000    1.429    2.857    2.571    0.000    8.571 
#    0.000    1.429    0.000    0.000    0.000    0.000 
#    0.000    0.000    0.000    0.000    0.000    0.000 
#
# Total GULP energy -173466.098706 kJ/mol
# GULP energy per Si atom -12390.435622 kJ/mol
# Density = 2.295217 g / cm^3
# Si number density = 23.004533 Si / 1000 Ang^3
#
#
#
# Elastic Constant Matrix: (Units=GPa)
#
#
# Indices 1 2 3 4 5 6 
#
# 1 109.1854 47.0342 37.1701 -21.7250 -3.1240 -12.1991
# 2 47.0342 95.5596 29.3121 -29.8440 -1.2586 -0.2046
# 3 37.1701 29.3121 74.2090 -18.5159 5.4596 1.8254
# 4 -21.7250 -29.8440 -18.5159 33.0243 3.3928 3.1488
# 5 -3.1240 -1.2586 5.4596 3.3928 21.4260 -3.3086
# 6 -12.1991 -0.2046 1.8254 3.1488 -3.3086 26.5737
#
#
#
# Elastic Compliance Matrix: (Units=1/GPa)
#
#
# Indices 1 2 3 4 5 6 
#
# 1 0.014277 -0.005092 -0.005487 0.000580 0.004224 0.007349
# 2 -0.005092 0.016980 -0.000905 0.012059 -0.002014 -0.003824
# 3 -0.005487 -0.000905 0.019223 0.007704 -0.007857 -0.005738
# 4 0.000580 0.012059 0.007704 0.047555 -0.009785 -0.007023
# 5 0.004224 -0.002014 -0.007857 -0.009785 0.052286 0.010133
# 6 0.007349 -0.003824 -0.005738 -0.007023 0.010133 0.043464
#
#
# Mechanical properties :
#
#
# Convention : Reuss Voigt Hill
#
# Bulk Modulus (GPa) = 36.34780 56.22076 46.28428
# Shear Modulus (GPa) = 22.13137 27.23398 24.68268
#
# Velocity S-wave (km/s) = 3.10505 3.44445 3.27914
# Velocity P-wave (km/s) = 5.35627 6.34910 5.87370
#
# Compressibility (1/GPa) = 0.02751198
#
# Stress axis : x y z
#
# Youngs Moduli (GPa) = 70.04080 58.89277 52.02112
#
# Poissons Ratio (x) = 0.29987 0.28544
# Poissons Ratio (y) = 0.35663 0.04710
# Poissons Ratio (z) = 0.38431 0.05333
#
# Static dielectric constant tensor:
#      x y z
#    x 4.132400 -0.110670 0.149510 
#    y -0.110670 4.431600 -0.363940 
#    z 0.149510 -0.363940 3.909220 
# 
# 
# High freq. dielectric constant tensor:
#      x y z
#    x 1.908480 -0.003510 0.009360 
#    y -0.003510 1.922580 -0.020260 
#    z 0.009360 -0.020260 1.878370 
# 
# From -- ./inp_files/578008.got.cif
#   From: 2010.06.25/outbox.cif.g09.slc.cpg/sg2_290_cif.got.tgz:578008.got - 2010.06.27 13:26:56.
