data_PCOD8014601
_publ_section_title
;
Structure prediction by ZEFSAII (Michael W. Deem and Ramdas Pophale) SiO2 
 PCOD8014601
Probable space group: P -1
;
_chemical_formula_sum "Si O2"
_cell_formula_units_Z 16
_cell_length_a 18.999360
_cell_length_b 9.825294
_cell_length_c 8.743739
_cell_angle_alpha 106.406123
_cell_angle_beta 37.233227
_cell_angle_gamma 126.202398
_cell_volume 735.610409
_symmetry_space_group_name_H-M "P -1"
_symmetry_group_IT_number 2
_symmetry_cell_setting 'triclinic'
loop_
_space_group_symop_operation_xyz
x,y,z
-x,-y,-z
loop_
_atom_site_type_symbol
_atom_site_label
_atom_site_fract_x
_atom_site_fract_y
_atom_site_fract_z
Si Si1 0.978154 0.386347 0.359428
Si Si2 0.566616 0.995872 0.539242
Si Si3 0.131228 0.739319 0.038681
Si Si4 0.303128 0.945889 0.119633
Si Si5 0.619526 0.688909 0.776396
Si Si6 0.071090 0.190608 0.741893
Si Si7 0.410185 0.306092 0.514561
Si Si8 0.909954 0.809350 0.946404
O O1 0.803809 0.196435 0.601184
O O2 0.000000 0.500000 0.500000
O O3 0.038191 0.520067 0.150080
O O4 0.094674 0.346631 0.175794
O O5 0.500000 0.000000 0.500000
O O6 0.554253 0.815903 0.505943
O O7 0.743376 0.178249 0.288208
O O8 0.463890 0.985659 0.848720
O O9 0.213335 0.855509 0.087700
O O10 0.004002 0.753095 0.219170
O O11 0.339294 0.139089 0.144188
O O12 0.751070 0.673435 0.533640
O O13 0.555804 0.685114 0.720363
O O14 0.500000 0.500000 0.000000
O O15 0.021568 0.174046 0.998886
O O16 0.023998 0.994729 0.712747
O O17 0.500000 0.500000 0.500000
O O18 0.239286 0.215529 0.802146
#
# Coordination Sequence:
#
# PCOD8014601 Si02
#       8
#     2   2   2   2   2   2   2   2
#     4  10  22  40  63  98 132 173 213 273 337 397
#     4  10  23  41  67  99 136 177 225 279 335 405
#     4  10  22  40  70 101 127 179 229 266 336 404
#     4  10  23  43  66  95 146 171 216 287 343 402
#     4  11  26  44  66 102 141 176 225 289 350 398
#     4  10  21  42  65  96 126 173 223 274 322 401
#     4  11  26  43  71  99 131 184 236 275 342 414
#     4  10  21  41  69  88 131 168 223 276 329 393
#
# _framework density 21.750641999999999
#
# number of rings (size 3 to 8) (size 9 to 14) (size 15 to 20)
#    0.000    1.750    2.500    0.000    8.750    3.500 
#    2.250    0.000    0.000    0.000    0.000    0.000 
#    0.000    0.000    0.000    0.000    0.000    0.000 
#
# Total GULP energy -198228.781718 kJ/mol
# GULP energy per Si atom -12389.298857 kJ/mol
# Density = 2.170114 g / cm^3
# Si number density = 21.750642 Si / 1000 Ang^3
#
#
#
# Elastic Constant Matrix: (Units=GPa)
#
#
# Indices 1 2 3 4 5 6 
#
# 1 91.0001 37.5065 33.9920 -2.2990 -14.7310 -25.5974
# 2 37.5065 125.6212 60.2406 -15.4799 -12.3055 -30.1525
# 3 33.9920 60.2406 131.6738 -20.9379 -5.5788 -24.4769
# 4 -2.2990 -15.4799 -20.9379 46.2787 -6.4375 -0.8077
# 5 -14.7310 -12.3055 -5.5788 -6.4375 17.9255 3.5554
# 6 -25.5974 -30.1525 -24.4769 -0.8077 3.5554 39.9235
#
#
#
# Elastic Compliance Matrix: (Units=1/GPa)
#
#
# Indices 1 2 3 4 5 6 
#
# 1 0.015901 -0.000920 -0.001585 0.001421 0.010949 0.007583
# 2 -0.000920 0.012496 -0.003464 0.003624 0.006818 0.006191
# 3 -0.001585 -0.003464 0.010759 0.003741 0.000416 0.003003
# 4 0.001421 0.003624 0.003741 0.026525 0.013295 0.005294
# 5 0.010949 0.006818 0.000416 0.013295 0.073143 0.006180
# 6 0.007583 0.006191 0.003003 0.005294 0.006180 0.035983
#
#
# Mechanical properties :
#
#
# Convention : Reuss Voigt Hill
#
# Bulk Modulus (GPa) = 36.73824 67.97481 52.35652
# Shear Modulus (GPa) = 25.53392 35.26260 30.39826
#
# Velocity S-wave (km/s) = 3.43000 4.03081 3.74248
# Velocity P-wave (km/s) = 5.71085 7.27894 6.54205
#
# Compressibility (1/GPa) = 0.02721960
#
# Stress axis : x y z
#
# Youngs Moduli (GPa) = 62.88763 80.02256 92.94626
#
# Poissons Ratio (x) = 0.07363 0.14730
# Poissons Ratio (y) = 0.05786 0.32194
# Poissons Ratio (z) = 0.09966 0.27718
#
# Static dielectric constant tensor:
#      x y z
#    x 3.832970 -0.372300 0.060580 
#    y -0.372300 4.318810 -0.348460 
#    z 0.060580 -0.348460 4.824760 
# 
# 
# High freq. dielectric constant tensor:
#      x y z
#    x 1.832580 -0.016820 -0.006920 
#    y -0.016820 1.862330 -0.005600 
#    z -0.006920 -0.005600 1.872090 
# 
# From -- ./inp_files/329116.got.cif
#   From: 2010.06.25/outbox.cif.g09.slc.cpg/sg2_165_cif.got.tgz:329116.got - 2010.06.27 13:26:56.
