data_PCOD8014329
_publ_section_title
;
Structure prediction by ZEFSAII (Michael W. Deem and Ramdas Pophale) SiO2 
 PCOD8014329
Probable space group: P -1
;
_chemical_formula_sum "Si O2"
_cell_formula_units_Z 16
_cell_length_a 14.206039
_cell_length_b 9.317504
_cell_length_c 11.379398
_cell_angle_alpha 81.713456
_cell_angle_beta 148.387621
_cell_angle_gamma 87.939353
_cell_volume 743.814605
_symmetry_space_group_name_H-M "P -1"
_symmetry_group_IT_number 2
_symmetry_cell_setting 'triclinic'
loop_
_space_group_symop_operation_xyz
x,y,z
-x,-y,-z
loop_
_atom_site_type_symbol
_atom_site_label
_atom_site_fract_x
_atom_site_fract_y
_atom_site_fract_z
Si Si1 0.501239 0.165457 0.154258
Si Si2 0.980324 0.397071 0.821491
Si Si3 0.522087 0.154864 0.791839
Si Si4 0.870263 0.131637 0.000342
Si Si5 0.843521 0.532804 0.231723
Si Si6 0.596478 0.345579 0.048141
Si Si7 0.843838 0.704365 0.752096
Si Si8 0.791841 0.160189 0.647306
O O1 0.644976 0.201432 0.206651
O O2 0.594167 0.158952 0.382087
O O3 0.460552 0.005724 0.105799
O O4 0.310115 0.305404 0.923394
O O5 0.072492 0.459670 0.806698
O O6 0.853507 0.534373 0.749015
O O7 0.833456 0.313313 0.630742
O O8 0.140567 0.284326 0.090106
O O9 0.717805 0.141654 0.937424
O O10 0.353632 0.182827 0.515369
O O11 0.479008 0.294094 0.824272
O O12 0.767886 0.152119 0.762664
O O13 0.976189 0.258257 0.118148
O O14 0.032785 0.972591 0.199954
O O15 0.773270 0.382768 0.172770
O O16 0.000000 0.500000 0.500000
O O17 0.500000 0.500000 0.000000
#
# Coordination Sequence:
#
# PCOD8014329 Si02
#       8
#     2   2   2   2   2   2   2   2
#     4  11  24  42  67  98 131 180 222 275 340 388
#     4  10  22  41  63  95 135 177 223 267 338 391
#     4  12  24  42  71  99 135 175 225 278 337 403
#     4  10  22  42  64 102 139 175 213 269 335 396
#     4  11  24  42  68  95 129 177 229 273 325 406
#     4  10  25  45  64  92 129 172 228 278 335 389
#     4  10  23  41  64  98 139 173 213 284 331 394
#     4  10  21  41  66  96 142 173 214 272 325 404
#
# _framework density 21.510736999999999
#
# number of rings (size 3 to 8) (size 9 to 14) (size 15 to 20)
#    0.000    1.500    1.250    2.625    8.750    0.500 
#    0.000    3.750    0.000    0.000    0.000    0.000 
#    0.000    0.000    0.000    0.000    0.000    0.000 
#
# Total GULP energy -198302.857674 kJ/mol
# GULP energy per Si atom -12393.928605 kJ/mol
# Density = 2.146178 g / cm^3
# Si number density = 21.510737 Si / 1000 Ang^3
#
#
#
# Elastic Constant Matrix: (Units=GPa)
#
#
# Indices 1 2 3 4 5 6 
#
# 1 110.1289 48.1169 28.6807 4.6342 -7.2404 21.7297
# 2 48.1169 130.0932 50.6057 11.2748 -4.0380 12.4272
# 3 28.6807 50.6057 116.3521 7.0871 -7.8481 7.8408
# 4 4.6342 11.2748 7.0871 30.8796 -1.9388 -0.9396
# 5 -7.2404 -4.0380 -7.8481 -1.9388 21.4979 0.4182
# 6 21.7297 12.4272 7.8408 -0.9396 0.4182 37.2420
#
#
#
# Elastic Compliance Matrix: (Units=1/GPa)
#
#
# Indices 1 2 3 4 5 6 
#
# 1 0.012205 -0.003496 -0.000858 -0.000333 0.003224 -0.005819
# 2 -0.003496 0.010667 -0.003612 -0.002611 -0.000712 -0.000817
# 3 -0.000858 -0.003612 0.010661 -0.000838 0.002860 -0.000592
# 4 -0.000333 -0.002611 -0.000838 0.033774 0.002097 0.002070
# 5 0.003224 -0.000712 0.002860 0.002097 0.048755 -0.002740
# 6 -0.005819 -0.000817 -0.000592 0.002070 -0.002740 0.030727
#
#
# Mechanical properties :
#
#
# Convention : Reuss Voigt Hill
#
# Bulk Modulus (GPa) = 56.81270 67.93121 62.37195
# Shear Modulus (GPa) = 29.65829 33.20197 31.43013
#
# Velocity S-wave (km/s) = 3.71720 3.93301 3.82663
# Velocity P-wave (km/s) = 6.70016 7.23004 6.97014
#
# Compressibility (1/GPa) = 0.01760170
#
# Stress axis : x y z
#
# Youngs Moduli (GPa) = 81.93251 93.74826 93.80110
#
# Poissons Ratio (x) = 0.32771 0.08051
# Poissons Ratio (y) = 0.28640 0.33878
# Poissons Ratio (z) = 0.07033 0.33859
#
# Static dielectric constant tensor:
#      x y z
#    x 3.929100 0.368160 -0.227800 
#    y 0.368160 4.133980 0.153290 
#    z -0.227800 0.153290 3.746530 
# 
# 
# High freq. dielectric constant tensor:
#      x y z
#    x 1.835950 0.017890 -0.017110 
#    y 0.017890 1.864650 0.009800 
#    z -0.017110 0.009800 1.832390 
# 
# From -- ./inp_files/447399.got.cif
#   From: 2010.06.25/outbox.cif.g09.slc.cpg/sg2_224_cif.got.tgz:447399.got - 2010.06.27 13:26:56.
