data_PCOD8014037
_publ_section_title
;
Structure prediction by ZEFSAII (Michael W. Deem and Ramdas Pophale) SiO2 
 PCOD8014037
Probable space group: P -1
;
_chemical_formula_sum "Si O2"
_cell_formula_units_Z 16
_cell_length_a 11.800227
_cell_length_b 12.377609
_cell_length_c 6.760038
_cell_angle_alpha 51.466540
_cell_angle_beta 100.246478
_cell_angle_gamma 97.893255
_cell_volume 759.589443
_symmetry_space_group_name_H-M "P -1"
_symmetry_group_IT_number 2
_symmetry_cell_setting 'triclinic'
loop_
_space_group_symop_operation_xyz
x,y,z
-x,-y,-z
loop_
_atom_site_type_symbol
_atom_site_label
_atom_site_fract_x
_atom_site_fract_y
_atom_site_fract_z
Si Si1 0.274583 0.687378 0.881286
Si Si2 0.311719 0.198148 0.350532
Si Si3 0.099199 0.770915 0.432948
Si Si4 0.551089 0.117171 0.518619
Si Si5 0.627466 0.523572 0.090731
Si Si6 0.237326 0.581916 0.406295
Si Si7 0.757693 0.967112 0.842413
Si Si8 0.829656 0.722944 0.411269
O O1 0.155828 0.746117 0.694361
O O2 0.385493 0.769001 0.731474
O O3 0.285503 0.530854 0.987364
O O4 0.274286 0.684672 0.121965
O O5 0.436259 0.174272 0.523694
O O6 0.257616 0.068158 0.357692
O O7 0.221365 0.249359 0.421505
O O8 0.337909 0.315723 0.058343
O O9 0.141915 0.659325 0.414936
O O10 0.963974 0.757962 0.424369
O O11 0.133303 0.929034 0.202396
O O12 0.500000 0.000000 0.500000
O O13 0.643502 0.052319 0.773121
O O14 0.649093 0.442942 0.396352
O O15 0.500000 0.500000 0.000000
O O16 0.186524 0.435190 0.481233
O O17 0.769064 0.827228 0.125566
#
# Coordination Sequence:
#
# PCOD8014037 Si02
#       8
#     2   2   2   2   2   2   2   2
#     4  10  21  41  64  94 125 171 215 255 328 378
#     4  11  22  40  65  95 131 167 213 267 324 381
#     4  10  25  43  65  94 133 173 216 274 316 378
#     4   9  20  40  62  89 129 166 203 267 315 379
#     4  11  21  40  62  94 135 162 207 269 319 381
#     4  11  24  42  67  97 131 170 216 269 327 383
#     4  10  23  44  64  91 132 171 219 267 320 385
#     4  12  24  41  68  99 126 173 224 263 325 384
#
# _framework density 21.064011000000001
#
# number of rings (size 3 to 8) (size 9 to 14) (size 15 to 20)
#    0.000    1.500    3.750    0.750    0.000    6.000 
#    4.500    0.000    0.000    0.000    0.000    0.000 
#    0.000    0.000    0.000    0.000    0.000    0.000 
#
# Total GULP energy -198260.087808 kJ/mol
# GULP energy per Si atom -12391.255488 kJ/mol
# Density = 2.101607 g / cm^3
# Si number density = 21.064011 Si / 1000 Ang^3
#
#
#
# Elastic Constant Matrix: (Units=GPa)
#
#
# Indices 1 2 3 4 5 6 
#
# 1 82.7331 25.1294 25.7963 -3.4987 2.4993 -4.2521
# 2 25.1294 93.6251 23.3466 -9.0891 -8.0806 -3.0437
# 3 25.7963 23.3466 89.8377 6.2043 5.4815 -7.3952
# 4 -3.4987 -9.0891 6.2043 30.9591 -1.2788 -1.0138
# 5 2.4993 -8.0806 5.4815 -1.2788 19.6475 -0.6257
# 6 -4.2521 -3.0437 -7.3952 -1.0138 -0.6257 29.2602
#
#
#
# Elastic Compliance Matrix: (Units=1/GPa)
#
#
# Indices 1 2 3 4 5 6 
#
# 1 0.014160 -0.003033 -0.003164 0.001290 -0.002052 0.000943
# 2 -0.003033 0.013397 -0.003327 0.004566 0.007134 0.000423
# 3 -0.003164 -0.003327 0.013697 -0.004206 -0.004984 0.002404
# 4 0.001290 0.004566 -0.004206 0.034874 0.005186 0.000919
# 5 -0.002052 0.007134 -0.004984 0.005186 0.055838 0.000558
# 6 0.000943 0.000423 0.002404 0.000919 0.000558 0.035008
#
#
# Mechanical properties :
#
#
# Convention : Reuss Voigt Hill
#
# Bulk Modulus (GPa) = 45.03090 46.08227 45.55658
# Shear Modulus (GPa) = 25.85005 28.76827 27.30916
#
# Velocity S-wave (km/s) = 3.50696 3.69962 3.60458
# Velocity P-wave (km/s) = 6.15003 6.33832 6.24489
#
# Compressibility (1/GPa) = 0.02220698
#
# Stress axis : x y z
#
# Youngs Moduli (GPa) = 70.62253 74.64268 73.01054
#
# Poissons Ratio (x) = 0.22637 0.23101
# Poissons Ratio (y) = 0.21418 0.24288
# Poissons Ratio (z) = 0.22345 0.24830
#
# Static dielectric constant tensor:
#      x y z
#    x 3.940130 0.017400 0.303880 
#    y 0.017400 3.937090 -0.267800 
#    z 0.303880 -0.267800 3.779670 
# 
# 
# High freq. dielectric constant tensor:
#      x y z
#    x 1.818520 0.000810 0.018680 
#    y 0.000810 1.841990 -0.020690 
#    z 0.018680 -0.020690 1.813280 
# 
# From -- ./inp_files/68661.got.cif
#   From: 2010.06.25/outbox.cif.g09.slc.cpg/sg2_35_cif.got.tgz:68661.got - 2010.06.27 13:26:56.
