data_PCOD8014691
_publ_section_title
;
Structure prediction by ZEFSAII (Michael W. Deem and Ramdas Pophale) SiO2 
 PCOD8014691
Probable space group: P -1
;
_chemical_formula_sum "Si O2"
_cell_formula_units_Z 16
_cell_length_a 17.728046
_cell_length_b 11.846324
_cell_length_c 9.680405
_cell_angle_alpha 124.348562
_cell_angle_beta 134.631041
_cell_angle_gamma 32.453794
_cell_volume 774.189382
_symmetry_space_group_name_H-M "P -1"
_symmetry_group_IT_number 2
_symmetry_cell_setting 'triclinic'
loop_
_space_group_symop_operation_xyz
x,y,z
-x,-y,-z
loop_
_atom_site_type_symbol
_atom_site_label
_atom_site_fract_x
_atom_site_fract_y
_atom_site_fract_z
Si Si1 0.108895 0.608548 0.885535
Si Si2 0.475379 0.111088 0.408546
Si Si3 0.904735 0.229725 0.503325
Si Si4 0.880977 0.887191 0.546626
Si Si5 0.108642 0.521178 0.130489
Si Si6 0.575670 0.542288 0.428158
Si Si7 0.345208 0.138610 0.797875
Si Si8 0.710253 0.328774 0.732814
O O1 0.246884 0.375216 0.841164
O O2 0.950064 0.756239 0.686676
O O3 0.063372 0.606154 0.976588
O O4 0.167111 0.710180 0.036821
O O5 0.292802 0.291660 0.238037
O O6 0.523498 0.222402 0.573773
O O7 0.500000 0.000000 0.500000
O O8 0.598821 0.925542 0.331285
O O9 0.947336 0.301717 0.720360
O O10 0.709779 0.385315 0.370626
O O11 0.963300 0.228505 0.429411
O O12 0.000000 0.000000 0.500000
O O13 0.764830 0.887551 0.324789
O O14 0.778217 0.123336 0.612006
O O15 0.000000 0.500000 0.000000
O O16 0.667261 0.471173 0.646379
O O17 0.448330 0.543913 0.286536
O O18 0.500000 0.000000 0.000000
#
# Coordination Sequence:
#
# PCOD8014691 Si02
#       8
#     2   2   2   2   2   2   2   2
#     4  12  25  43  67 104 137 174 231 284 337 410
#     4  11  24  43  68  97 133 178 228 279 335 406
#     4  11  22  41  64  98 130 175 221 277 335 399
#     4  12  26  42  71 101 136 180 225 285 340 404
#     4  11  24  43  64  93 136 179 220 276 342 399
#     4  10  21  41  70  95 131 177 228 268 344 393
#     4  12  25  45  67 100 134 179 233 274 337 403
#     4  11  21  44  71  96 134 183 224 276 341 413
#
# _framework density 20.666777
#
# number of rings (size 3 to 8) (size 9 to 14) (size 15 to 20)
#    0.000    0.750    6.250    1.500    7.000    0.000 
#    0.000    0.625    0.000    0.000    0.000    0.000 
#    0.000    0.000    0.000    0.000    0.000    0.000 
#
# Total GULP energy -198365.795573 kJ/mol
# GULP energy per Si atom -12397.862223 kJ/mol
# Density = 2.061974 g / cm^3
# Si number density = 20.666777 Si / 1000 Ang^3
#
#
#
# Elastic Constant Matrix: (Units=GPa)
#
#
# Indices 1 2 3 4 5 6 
#
# 1 141.1674 42.3576 47.8721 0.5416 -4.3817 -8.7791
# 2 42.3576 109.3745 34.6354 15.1462 -5.4262 4.9908
# 3 47.8721 34.6354 77.6133 -5.9429 7.2548 1.4210
# 4 0.5416 15.1462 -5.9429 33.0538 5.1214 -8.5534
# 5 -4.3817 -5.4262 7.2548 5.1214 40.0040 -1.4637
# 6 -8.7791 4.9908 1.4210 -8.5534 -1.4637 39.1771
#
#
#
# Elastic Compliance Matrix: (Units=1/GPa)
#
#
# Indices 1 2 3 4 5 6 
#
# 1 0.009742 -0.002215 -0.005209 0.000370 0.001766 0.002801
# 2 -0.002215 0.013253 -0.005460 -0.008522 0.003500 -0.003717
# 3 -0.005209 -0.005460 0.019609 0.007042 -0.005764 0.000139
# 4 0.000370 -0.008522 0.007042 0.038873 -0.007035 0.009137
# 5 0.001766 0.003500 -0.005764 -0.007035 0.027599 -0.000346
# 6 0.002801 -0.003717 0.000139 0.009137 -0.000346 0.028603
#
#
# Mechanical properties :
#
#
# Convention : Reuss Voigt Hill
#
# Bulk Modulus (GPa) = 59.39121 64.20948 61.80035
# Shear Modulus (GPa) = 29.57541 35.99965 32.78753
#
# Velocity S-wave (km/s) = 3.78704 4.17815 3.98739
# Velocity P-wave (km/s) = 6.92258 7.37647 7.15313
#
# Compressibility (1/GPa) = 0.01683751
#
# Stress axis : x y z
#
# Youngs Moduli (GPa) = 102.64461 75.45462 50.99687
#
# Poissons Ratio (x) = 0.16712 0.26563
# Poissons Ratio (y) = 0.22734 0.27843
# Poissons Ratio (z) = 0.53465 0.41197
#
# Static dielectric constant tensor:
#      x y z
#    x 4.289870 0.091340 0.020200 
#    y 0.091340 4.030880 0.104660 
#    z 0.020200 0.104660 3.905820 
# 
# 
# High freq. dielectric constant tensor:
#      x y z
#    x 1.826930 -0.000530 0.007790 
#    y -0.000530 1.819450 0.008150 
#    z 0.007790 0.008150 1.789050 
# 
# From -- ./inp_files/333643.got.cif
#   From: 2010.06.25/outbox.cif.g09.slc.cpg/sg2_167_cif.got.tgz:333643.got - 2010.06.27 13:26:56.
