data_PCOD8014168
_publ_section_title
;
Structure prediction by ZEFSAII (Michael W. Deem and Ramdas Pophale) SiO2 
 PCOD8014168
Probable space group: P -1
;
_chemical_formula_sum "Si O2"
_cell_formula_units_Z 16
_cell_length_a 17.703903
_cell_length_b 21.321558
_cell_length_c 8.668741
_cell_angle_alpha 131.655485
_cell_angle_beta 57.932351
_cell_angle_gamma 160.610034
_cell_volume 748.389619
_symmetry_space_group_name_H-M "P -1"
_symmetry_group_IT_number 2
_symmetry_cell_setting 'triclinic'
loop_
_space_group_symop_operation_xyz
x,y,z
-x,-y,-z
loop_
_atom_site_type_symbol
_atom_site_label
_atom_site_fract_x
_atom_site_fract_y
_atom_site_fract_z
Si Si1 0.859195 0.505176 0.923492
Si Si2 0.611463 0.464689 0.448729
Si Si3 0.338916 0.493480 0.889259
Si Si4 0.753907 0.231360 0.515118
Si Si5 0.957328 0.039284 0.723271
Si Si6 0.687413 0.679873 0.953884
Si Si7 0.196179 0.543778 0.742371
Si Si8 0.365866 0.954706 0.980587
O O1 0.807262 0.377073 0.667478
O O2 0.132104 0.780449 0.047300
O O3 0.667476 0.410926 0.934394
O O4 0.842730 0.463506 0.050775
O O5 0.679719 0.550553 0.340831
O O6 0.327718 0.186736 0.321489
O O7 0.671257 0.595524 0.703537
O O8 0.784658 0.539509 0.434284
O O9 0.605857 0.697393 0.997101
O O10 0.114187 0.255716 0.842254
O O11 0.734930 0.167192 0.270937
O O12 0.970990 0.379516 0.618569
O O13 0.500000 0.000000 0.500000
O O14 0.000000 0.000000 0.500000
O O15 0.042346 0.084318 0.877009
O O16 0.500000 0.500000 0.000000
O O17 0.453357 0.808480 0.842092
O O18 0.500000 0.000000 0.000000
#
# Coordination Sequence:
#
# PCOD8014168 Si02
#       8
#     2   2   2   2   2   2   2   2
#     4  11  23  44  66  97 133 171 219 273 323 389
#     4  11  23  43  67  93 131 171 212 270 323 379
#     4  10  23  42  65  96 130 167 220 265 318 395
#     4  12  24  44  71  94 135 174 216 270 328 387
#     4  11  22  42  67  92 129 174 209 267 330 372
#     4  10  21  41  65  93 129 165 212 263 318 387
#     4  11  25  44  67  97 134 171 218 273 325 388
#     4  12  24  43  69  95 128 178 218 267 331 383
#
# _framework density 21.379235999999999
#
# number of rings (size 3 to 8) (size 9 to 14) (size 15 to 20)
#    0.000    1.000    5.000    2.625    0.000    3.500 
#    0.000    1.250    0.000    0.000    0.000    0.000 
#    0.000    0.000    0.000    0.000    0.000    0.000 
#
# Total GULP energy -198412.019419 kJ/mol
# GULP energy per Si atom -12400.751214 kJ/mol
# Density = 2.133058 g / cm^3
# Si number density = 21.379236 Si / 1000 Ang^3
#
#
#
# Elastic Constant Matrix: (Units=GPa)
#
#
# Indices 1 2 3 4 5 6 
#
# 1 155.1710 24.7663 65.8950 -3.3612 5.1328 10.1126
# 2 24.7663 96.8401 2.2039 11.5665 3.9352 3.9092
# 3 65.8950 2.2039 37.7682 15.2496 13.3758 21.3067
# 4 -3.3612 11.5665 15.2496 25.5015 4.6760 -3.8761
# 5 5.1328 3.9352 13.3758 4.6760 20.9031 -4.6049
# 6 10.1126 3.9092 21.3067 -3.8761 -4.6049 29.8033
#
#
#
# Elastic Compliance Matrix: (Units=1/GPa)
#
#
# Indices 1 2 3 4 5 6 
#
# 1 0.000411 0.001888 0.016202 -0.010636 -0.011788 -0.015175
# 2 0.001888 0.009475 -0.009132 0.001428 0.004494 0.005525
# 3 0.016202 -0.009132 -0.039858 0.030656 0.023393 0.031797
# 4 -0.010636 0.001428 0.030656 0.020628 -0.026266 -0.019870
# 5 -0.011788 0.004494 0.023393 -0.026266 0.038417 -0.010794
# 6 -0.015175 0.005525 0.031797 -0.019870 -0.010794 0.010993
#
#
# Mechanical properties :
#
#
# Convention : Reuss Voigt Hill
#
# Bulk Modulus (GPa) = -82.94148 52.83440 -15.05354
# Shear Modulus (GPa) = 275.76153 28.36919 152.06536
#
# Velocity S-wave (km/s) = 11.36951 3.64668 8.44287
# Velocity P-wave (km/s) = 11.55312 6.51902 9.38010
#
# Compressibility (1/GPa) = -0.01205669
#
# Stress axis : x y z
#
# Youngs Moduli (GPa) = 2430.91897 105.54022 -25.08880
#
# Poissons Ratio (x) = -0.19926 0.40648
# Poissons Ratio (y) = -4.58951 -0.22912
# Poissons Ratio (z) = -39.38538 0.96381
#
# Static dielectric constant tensor:
#      x y z
#    x 4.593480 0.123720 0.523880 
#    y 0.123720 4.185580 0.138740 
#    z 0.523880 0.138740 3.897330 
# 
# 
# High freq. dielectric constant tensor:
#      x y z
#    x 1.854450 0.001910 0.004040 
#    y 0.001910 1.851210 -0.010430 
#    z 0.004040 -0.010430 1.827800 
# 
# From -- ./inp_files/337800.got.cif
#   From: 2010.06.25/outbox.cif.g09.slc.cpg/sg2_169_cif.got.tgz:337800.got - 2010.06.27 13:26:56.
