data_PCOD8014494
_publ_section_title
;
Structure prediction by ZEFSAII (Michael W. Deem and Ramdas Pophale) SiO2 
 PCOD8014494
Probable space group: P -1
;
_chemical_formula_sum "Si O2"
_cell_formula_units_Z 14
_cell_length_a 8.908395
_cell_length_b 11.854879
_cell_length_c 8.532210
_cell_angle_alpha 129.380924
_cell_angle_beta 108.421202
_cell_angle_gamma 64.784463
_cell_volume 628.763657
_symmetry_space_group_name_H-M "P -1"
_symmetry_group_IT_number 2
_symmetry_cell_setting 'triclinic'
loop_
_space_group_symop_operation_xyz
x,y,z
-x,-y,-z
loop_
_atom_site_type_symbol
_atom_site_label
_atom_site_fract_x
_atom_site_fract_y
_atom_site_fract_z
Si Si1 0.390916 0.075298 0.673536
Si Si2 0.502885 0.312369 0.107118
Si Si3 0.775009 0.412392 0.115830
Si Si4 0.934864 0.860783 0.889683
Si Si5 0.358508 0.937412 0.841204
Si Si6 0.843825 0.453626 0.838283
Si Si7 0.883086 0.710683 0.424918
O O1 0.214726 0.186075 0.657674
O O2 0.500000 0.000000 0.500000
O O3 0.357799 0.942603 0.655838
O O4 0.499596 0.168744 0.875360
O O5 0.601105 0.411688 0.135083
O O6 0.606736 0.236522 0.232937
O O7 0.312132 0.413014 0.169036
O O8 0.805047 0.573320 0.307304
O O9 0.924157 0.281726 0.123514
O O10 0.771354 0.383722 0.901063
O O11 0.861672 0.808365 0.662368
O O12 0.801520 0.927341 0.037575
O O13 0.000000 0.000000 0.000000
O O14 0.500000 0.000000 0.000000
O O15 0.923701 0.343712 0.620141
O O16 0.000000 0.500000 0.000000
#
# Coordination Sequence:
#
# PCOD8014494 Si02
#       7
#     2   2   2   2   2   2   2
#     4  11  23  43  71 101 135 176 239 277 348 412
#     4  11  21  43  68 103 136 184 222 283 352 405
#     4  11  23  42  70 100 144 177 228 287 341 411
#     4  12  25  47  68 101 141 181 233 286 345 404
#     4  10  23  42  71  95 138 183 226 280 346 405
#     4  10  21  41  67  99 140 180 224 279 343 408
#     4  11  24  44  69 102 134 187 231 280 344 411
#
# _framework density 22.265917000000002
#
# number of rings (size 3 to 8) (size 9 to 14) (size 15 to 20)
#    0.000    1.143    4.286    3.429    6.000    0.000 
#    5.143    3.571    0.000    0.000    0.000    0.000 
#    0.000    0.000    0.000    0.000    0.000    0.000 
#
# Total GULP energy -173481.570522 kJ/mol
# GULP energy per Si atom -12391.540752 kJ/mol
# Density = 2.221524 g / cm^3
# Si number density = 22.265917 Si / 1000 Ang^3
#
#
#
# Elastic Constant Matrix: (Units=GPa)
#
#
# Indices 1 2 3 4 5 6 
#
# 1 134.2471 56.7138 39.6862 4.5775 -28.3505 0.0678
# 2 56.7138 172.4698 42.0069 -10.6996 -12.3545 4.5414
# 3 39.6862 42.0069 83.6194 -5.9964 -20.0522 15.3777
# 4 4.5775 -10.6996 -5.9964 20.5775 2.9907 -4.0783
# 5 -28.3505 -12.3545 -20.0522 2.9907 33.7876 -2.3547
# 6 0.0678 4.5414 15.3777 -4.0783 -2.3547 42.6592
#
#
#
# Elastic Compliance Matrix: (Units=1/GPa)
#
#
# Indices 1 2 3 4 5 6 
#
# 1 0.011205 -0.002874 -0.002735 -0.005620 0.007305 0.001140
# 2 -0.002874 0.007499 -0.002553 0.004101 -0.001517 0.000435
# 3 -0.002735 -0.002553 0.017230 0.002307 0.006419 -0.005360
# 4 -0.005620 0.004101 0.002307 0.054291 -0.006403 0.003578
# 5 0.007305 -0.001517 0.006419 -0.006403 0.039506 -0.000596
# 6 0.001140 0.000435 -0.005360 0.003578 -0.000596 0.025635
#
#
# Mechanical properties :
#
#
# Convention : Reuss Voigt Hill
#
# Bulk Modulus (GPa) = 50.99357 74.12782 62.56069
# Shear Modulus (GPa) = 28.05386 36.20015 32.12701
#
# Velocity S-wave (km/s) = 3.55342 4.03651 3.80264
# Velocity P-wave (km/s) = 6.30774 7.42219 6.88754
#
# Compressibility (1/GPa) = 0.01961031
#
# Stress axis : x y z
#
# Youngs Moduli (GPa) = 89.24300 133.34631 58.03749
#
# Poissons Ratio (x) = 0.38322 0.15875
# Poissons Ratio (y) = 0.25647 0.14817
# Poissons Ratio (z) = 0.24411 0.34044
#
# Static dielectric constant tensor:
#      x y z
#    x 4.347960 0.335260 -0.398230 
#    y 0.335260 5.254790 -0.571910 
#    z -0.398230 -0.571910 4.067430 
# 
# 
# High freq. dielectric constant tensor:
#      x y z
#    x 1.888020 -0.005530 -0.018450 
#    y -0.005530 1.898880 -0.008190 
#    z -0.018450 -0.008190 1.848700 
# 
# From -- ./inp_files/185201.got.cif
#   From: 2010.06.25/outbox.cif.g09.slc.cpg/sg2_93_cif.got.tgz:185201.got - 2010.06.27 13:26:56.
