data_PCOD8014732
_publ_section_title
;
Structure prediction by ZEFSAII (Michael W. Deem and Ramdas Pophale) SiO2 
 PCOD8014732
Probable space group: P -1
;
_chemical_formula_sum "Si O2"
_cell_formula_units_Z 16
_cell_length_a 12.579298
_cell_length_b 8.893452
_cell_length_c 8.648633
_cell_angle_alpha 96.840173
_cell_angle_beta 91.974600
_cell_angle_gamma 130.740507
_cell_volume 719.731074
_symmetry_space_group_name_H-M "P -1"
_symmetry_group_IT_number 2
_symmetry_cell_setting 'triclinic'
loop_
_space_group_symop_operation_xyz
x,y,z
-x,-y,-z
loop_
_atom_site_type_symbol
_atom_site_label
_atom_site_fract_x
_atom_site_fract_y
_atom_site_fract_z
Si Si1 0.019784 0.158185 0.901645
Si Si2 0.267500 0.325294 0.696044
Si Si3 0.620311 0.870188 0.389832
Si Si4 0.441530 0.273711 0.183154
Si Si5 0.330405 0.451604 0.378708
Si Si6 0.219930 0.895879 0.285457
Si Si7 0.190669 0.533904 0.157838
Si Si8 0.506904 0.149612 0.909804
O O1 0.130824 0.232026 0.779207
O O2 0.877054 0.064106 0.789849
O O3 0.062164 0.342909 0.029844
O O4 0.000000 0.000000 0.000000
O O5 0.315121 0.200537 0.723394
O O6 0.390264 0.563256 0.759999
O O7 0.248150 0.307801 0.505427
O O8 0.484974 0.672448 0.455611
O O9 0.563580 0.943345 0.274757
O O10 0.747369 0.056190 0.524063
O O11 0.359446 0.348620 0.238928
O O12 0.375621 0.063917 0.239503
O O13 0.428222 0.220793 0.993680
O O14 0.219235 0.466092 0.306406
O O15 0.152049 0.668765 0.220708
O O16 0.329425 0.653947 0.075241
O O17 0.500000 0.000000 0.000000
#
# Coordination Sequence:
#
# PCOD8014732 Si02
#       8
#     2   2   2   2   2   2   2   2
#     4  12  29  47  70  98 135 187 231 281 335 404
#     4  11  22  43  72 101 137 173 238 278 334 404
#     4  10  23  39  69 108 135 178 220 286 342 395
#     4  11  20  41  71 102 138 174 222 287 333 400
#     4  10  21  41  71 105 136 174 228 283 338 401
#     4  12  24  46  67  98 148 174 224 282 338 408
#     4  11  25  44  68  99 138 186 223 277 345 401
#     4  11  23  38  70 110 139 172 225 281 345 407
#
# _framework density 22.230525
#
# number of rings (size 3 to 8) (size 9 to 14) (size 15 to 20)
#    0.000    1.000    5.000    1.875    3.500    5.000 
#    0.000    0.625    0.000    0.000    0.000    0.000 
#    0.000    0.000    0.000    0.000    0.000    0.000 
#
# Total GULP energy -198250.547302 kJ/mol
# GULP energy per Si atom -12390.659206 kJ/mol
# Density = 2.217993 g / cm^3
# Si number density = 22.230525 Si / 1000 Ang^3
#
#
#
# Elastic Constant Matrix: (Units=GPa)
#
#
# Indices 1 2 3 4 5 6 
#
# 1 87.0452 38.5707 55.2129 -7.5186 7.0599 -3.7416
# 2 38.5707 99.8703 62.9639 -1.4237 5.9500 -5.3124
# 3 55.2129 62.9639 127.0985 1.9648 6.7808 -0.4103
# 4 -7.5186 -1.4237 1.9648 42.7806 2.7433 3.3373
# 5 7.0599 5.9500 6.7808 2.7433 36.7347 -2.9587
# 6 -3.7416 -5.3124 -0.4103 3.3373 -2.9587 29.9427
#
#
#
# Elastic Compliance Matrix: (Units=1/GPa)
#
#
# Indices 1 2 3 4 5 6 
#
# 1 0.016910 -0.002502 -0.006052 0.003206 -0.001883 0.001043
# 2 -0.002502 0.015165 -0.006388 0.000227 -0.000636 0.002202
# 3 -0.006052 -0.006388 0.013701 -0.001765 -0.000323 -0.001537
# 4 0.003206 0.000227 -0.001765 0.024375 -0.002352 -0.002532
# 5 -0.001883 -0.000636 -0.000323 -0.002352 0.028139 0.002690
# 6 0.001043 0.002202 -0.001537 -0.002532 0.002690 0.034445
#
#
# Mechanical properties :
#
#
# Convention : Reuss Voigt Hill
#
# Bulk Modulus (GPa) = 62.92559 69.72323 66.32441
# Shear Modulus (GPa) = 29.77627 32.37604 31.07615
#
# Velocity S-wave (km/s) = 3.66379 3.82039 3.74291
# Velocity P-wave (km/s) = 6.80186 7.13389 6.96985
#
# Compressibility (1/GPa) = 0.01589179
#
# Stress axis : x y z
#
# Youngs Moduli (GPa) = 59.13520 65.94104 72.98479
#
# Poissons Ratio (x) = 0.16497 0.44174
# Poissons Ratio (y) = 0.14794 0.46625
# Poissons Ratio (z) = 0.35791 0.42126
#
# Static dielectric constant tensor:
#      x y z
#    x 3.853040 -0.272780 -0.000330 
#    y -0.272780 4.342210 -0.086440 
#    z -0.000330 -0.086440 4.159720 
# 
# 
# High freq. dielectric constant tensor:
#      x y z
#    x 1.854950 -0.011800 0.000700 
#    y -0.011800 1.866390 0.001430 
#    z 0.000700 0.001430 1.888640 
# 
# From -- ./inp_files/244582.got.cif
#   From: 2010.06.25/outbox.cif.g09.slc.cpg/sg2_123_cif.got.tgz:244582.got - 2010.06.27 13:26:56.
