data_PCOD8014325
_publ_section_title
;
Structure prediction by ZEFSAII (Michael W. Deem and Ramdas Pophale) SiO2 
 PCOD8014325
Probable space group: P -1
;
_chemical_formula_sum "Si O2"
_cell_formula_units_Z 14
_cell_length_a 11.259964
_cell_length_b 9.054153
_cell_length_c 8.774211
_cell_angle_alpha 115.950871
_cell_angle_beta 125.829204
_cell_angle_gamma 73.546286
_cell_volume 651.673308
_symmetry_space_group_name_H-M "P -1"
_symmetry_group_IT_number 2
_symmetry_cell_setting 'triclinic'
loop_
_space_group_symop_operation_xyz
x,y,z
-x,-y,-z
loop_
_atom_site_type_symbol
_atom_site_label
_atom_site_fract_x
_atom_site_fract_y
_atom_site_fract_z
Si Si1 0.578517 0.153627 0.700896
Si Si2 0.591480 0.642720 0.560892
Si Si3 0.497649 0.045370 0.193269
Si Si4 0.977204 0.741517 0.479163
Si Si5 0.824540 0.054965 0.462517
Si Si6 0.079575 0.866360 0.107673
Si Si7 0.075280 0.393527 0.291722
O O1 0.496606 0.313808 0.641662
O O2 0.750780 0.154613 0.813102
O O3 0.500000 0.000000 0.500000
O O4 0.549566 0.127047 0.846669
O O5 0.500000 0.500000 0.500000
O O6 0.604512 0.797680 0.758227
O O7 0.754394 0.581174 0.606748
O O8 0.657074 0.099931 0.394656
O O9 0.500000 0.000000 0.000000
O O10 0.947678 0.718152 0.625870
O O11 0.125582 0.840572 0.599707
O O12 0.989306 0.567310 0.325789
O O13 0.844740 0.857213 0.360931
O O14 0.931276 0.091166 0.702524
O O15 0.001607 0.694417 0.946622
O O16 0.000000 0.000000 0.000000
#
# Coordination Sequence:
#
# PCOD8014325 Si02
#       7
#     2   2   2   2   2   2   2
#     4  10  21  41  66  96 132 176 219 269 333 399
#     4  11  23  46  70  94 134 179 220 277 339 399
#     4  11  24  42  70  97 130 175 228 277 330 397
#     4  10  24  41  64  95 136 170 210 283 328 386
#     4  11  22  43  66  97 132 172 227 272 332 392
#     4  12  22  39  70 100 128 177 228 269 328 402
#     4  11  24  42  67  96 134 173 222 270 341 386
#
# _framework density 21.483155
#
# number of rings (size 3 to 8) (size 9 to 14) (size 15 to 20)
#    0.000    1.143    4.286    3.429    2.000    2.857 
#    2.571    0.714    0.000    0.000    0.000    0.000 
#    0.000    0.000    0.000    0.000    0.000    0.000 
#
# Total GULP energy -173485.899074 kJ/mol
# GULP energy per Si atom -12391.849934 kJ/mol
# Density = 2.143426 g / cm^3
# Si number density = 21.483155 Si / 1000 Ang^3
#
#
#
# Elastic Constant Matrix: (Units=GPa)
#
#
# Indices 1 2 3 4 5 6 
#
# 1 132.1441 34.6713 37.2388 -2.1047 6.6666 16.4167
# 2 34.6713 102.7075 38.8321 9.6697 -6.0980 21.7232
# 3 37.2388 38.8321 94.5757 -4.1619 -0.2102 -2.5307
# 4 -2.1047 9.6697 -4.1619 22.7211 -0.7156 -3.2713
# 5 6.6666 -6.0980 -0.2102 -0.7156 42.9788 -2.5479
# 6 16.4167 21.7232 -2.5307 -3.2713 -2.5479 43.7186
#
#
#
# Elastic Compliance Matrix: (Units=1/GPa)
#
#
# Indices 1 2 3 4 5 6 
#
# 1 0.009310 -0.001469 -0.003129 0.000422 -0.001840 -0.003023
# 2 -0.001469 0.015215 -0.006266 -0.008847 0.001739 -0.007932
# 3 -0.003129 -0.006266 0.014788 0.005894 0.000098 0.005591
# 4 0.000422 -0.008847 0.005894 0.050096 0.000036 0.008329
# 5 -0.001840 0.001739 0.000098 0.000036 0.023873 0.001227
# 6 -0.003023 -0.007932 0.005591 0.008329 0.001227 0.028968
#
#
# Mechanical properties :
#
#
# Convention : Reuss Voigt Hill
#
# Bulk Modulus (GPa) = 56.87135 61.21241 59.04188
# Shear Modulus (GPa) = 29.43936 36.46273 32.95104
#
# Velocity S-wave (km/s) = 3.70583 4.12426 3.92064
# Velocity P-wave (km/s) = 6.69634 7.15783 6.93092
#
# Compressibility (1/GPa) = 0.01758355
#
# Stress axis : x y z
#
# Youngs Moduli (GPa) = 107.41385 65.72268 67.62408
#
# Poissons Ratio (x) = 0.09658 0.21158
# Poissons Ratio (y) = 0.15784 0.42376
# Poissons Ratio (z) = 0.33607 0.41185
#
# Static dielectric constant tensor:
#      x y z
#    x 4.220920 0.242470 -0.142810 
#    y 0.242470 4.158910 -0.194450 
#    z -0.142810 -0.194450 3.884000 
# 
# 
# High freq. dielectric constant tensor:
#      x y z
#    x 1.868170 0.007420 -0.005240 
#    y 0.007420 1.847320 -0.005870 
#    z -0.005240 -0.005870 1.815350 
# 
# From -- ./inp_files/185659.got.cif
#   From: 2010.06.25/outbox.cif.g09.slc.cpg/sg2_93_cif.got.tgz:185659.got - 2010.06.27 13:26:56.
