data_PCOD8014297
_publ_section_title
;
Structure prediction by ZEFSAII (Michael W. Deem and Ramdas Pophale) SiO2 
 PCOD8014297
Probable space group: P -1
;
_chemical_formula_sum "Si O2"
_cell_formula_units_Z 16
_cell_length_a 12.639354
_cell_length_b 8.678351
_cell_length_c 8.917250
_cell_angle_alpha 99.518638
_cell_angle_beta 115.165895
_cell_angle_gamma 59.403419
_cell_volume 760.384389
_symmetry_space_group_name_H-M "P -1"
_symmetry_group_IT_number 2
_symmetry_cell_setting 'triclinic'
loop_
_space_group_symop_operation_xyz
x,y,z
-x,-y,-z
loop_
_atom_site_type_symbol
_atom_site_label
_atom_site_fract_x
_atom_site_fract_y
_atom_site_fract_z
Si Si1 0.195897 0.725444 0.066795
Si Si2 0.646123 0.841423 0.610916
Si Si3 0.453839 0.736285 0.900803
Si Si4 0.252235 0.025061 0.033950
Si Si5 0.570805 0.578999 0.658092
Si Si6 0.866656 0.553414 0.526010
Si Si7 0.697549 0.482608 0.176766
Si Si8 0.007873 0.648059 0.129619
O O1 0.335093 0.584530 0.203990
O O2 0.074451 0.750460 0.100342
O O3 0.195393 0.910954 0.068384
O O4 0.184486 0.644370 0.887486
O O5 0.681234 0.910893 0.791654
O O6 0.644686 0.656127 0.611272
O O7 0.771481 0.765665 0.553133
O O8 0.500000 0.000000 0.500000
O O9 0.473936 0.746637 0.735432
O O10 0.392943 0.604260 0.849750
O O11 0.594245 0.669009 0.063675
O O12 0.354329 0.924775 0.944987
O O13 0.141230 0.195075 0.904327
O O14 0.500000 0.500000 0.500000
O O15 0.767680 0.506719 0.367511
O O16 0.916510 0.431305 0.683728
O O17 0.000000 0.500000 0.500000
O O18 0.000000 0.500000 0.000000
#
# Coordination Sequence:
#
# PCOD8014297 Si02
#       8
#     2   2   2   2   2   2   2   2
#     4  10  21  41  66  94 125 179 216 272 329 403
#     4  12  25  42  65  98 134 176 227 285 333 401
#     4   9  20  38  66  97 129 170 219 283 335 391
#     4  11  23  41  65  96 135 170 224 272 338 403
#     4  11  21  39  69  97 131 173 224 274 336 399
#     4  12  25  42  67  97 137 181 226 278 339 410
#     4   9  19  39  65  95 131 169 221 274 337 396
#     4  12  23  43  64  93 130 180 227 264 339 407
#
# _framework density 21.041989000000001
#
# number of rings (size 3 to 8) (size 9 to 14) (size 15 to 20)
#    0.000    1.250    2.500    4.125    0.000    2.500 
#    0.000    2.500    0.000    0.000    0.000    0.000 
#    0.000    0.000    0.000    0.000    0.000    0.000 
#
# Total GULP energy -198273.180396 kJ/mol
# GULP energy per Si atom -12392.073775 kJ/mol
# Density = 2.099410 g / cm^3
# Si number density = 21.041989 Si / 1000 Ang^3
#
#
#
# Elastic Constant Matrix: (Units=GPa)
#
#
# Indices 1 2 3 4 5 6 
#
# 1 88.7514 37.6735 38.2995 7.3869 -3.4496 -22.9684
# 2 37.6735 120.4064 56.3361 0.6274 8.6986 -20.8992
# 3 38.2995 56.3361 171.4034 8.6934 12.9881 -14.3587
# 4 7.3869 0.6274 8.6934 36.4044 0.6708 0.1255
# 5 -3.4496 8.6986 12.9881 0.6708 26.9962 -0.3149
# 6 -22.9684 -20.8992 -14.3587 0.1255 -0.3149 37.6612
#
#
#
# Elastic Compliance Matrix: (Units=1/GPa)
#
#
# Indices 1 2 3 4 5 6 
#
# 1 0.015671 -0.002961 -0.002103 -0.002727 0.004119 0.007156
# 2 -0.002961 0.011227 -0.002589 0.001064 -0.002737 0.003411
# 3 -0.002103 -0.002589 0.007454 -0.001254 -0.002988 0.000102
# 4 -0.002727 0.001064 -0.001254 0.028324 -0.000811 -0.001652
# 5 0.004119 -0.002737 -0.002988 -0.000811 0.039910 0.000191
# 6 0.007156 0.003411 0.000102 -0.001652 0.000191 0.032855
#
#
# Mechanical properties :
#
#
# Convention : Reuss Voigt Hill
#
# Bulk Modulus (GPa) = 52.50479 71.68662 62.09571
# Shear Modulus (GPa) = 31.82768 36.76251 34.29509
#
# Velocity S-wave (km/s) = 3.89341 4.18437 4.04151
# Velocity P-wave (km/s) = 6.72444 7.58206 7.16609
#
# Compressibility (1/GPa) = 0.01904588
#
# Stress axis : x y z
#
# Youngs Moduli (GPa) = 63.81387 89.06835 134.16196
#
# Poissons Ratio (x) = 0.26369 0.28212
# Poissons Ratio (y) = 0.18892 0.34741
# Poissons Ratio (z) = 0.13419 0.23064
#
# Static dielectric constant tensor:
#      x y z
#    x 5.355530 0.036830 -1.310770 
#    y 0.036830 3.844200 -0.276630 
#    z -1.310770 -0.276630 4.949180 
# 
# 
# High freq. dielectric constant tensor:
#      x y z
#    x 1.831830 -0.016770 -0.001960 
#    y -0.016770 1.817110 0.005630 
#    z -0.001960 0.005630 1.833670 
# 
# From -- ./inp_files/245210.got.cif
#   From: 2010.06.25/outbox.cif.g09.slc.cpg/sg2_123_cif.got.tgz:245210.got - 2010.06.27 13:26:56.
