data_PCOD8014915
_publ_section_title
;
Structure prediction by ZEFSAII (Michael W. Deem and Ramdas Pophale) SiO2 
 PCOD8014915
Probable space group: P -1
;
_chemical_formula_sum "Si O2"
_cell_formula_units_Z 16
_cell_length_a 12.482580
_cell_length_b 12.744120
_cell_length_c 21.805786
_cell_angle_alpha 26.957756
_cell_angle_beta 30.156074
_cell_angle_gamma 36.390100
_cell_volume 780.974618
_symmetry_space_group_name_H-M "P -1"
_symmetry_group_IT_number 2
_symmetry_cell_setting 'triclinic'
loop_
_space_group_symop_operation_xyz
x,y,z
-x,-y,-z
loop_
_atom_site_type_symbol
_atom_site_label
_atom_site_fract_x
_atom_site_fract_y
_atom_site_fract_z
Si Si1 0.238657 0.004388 0.362348
Si Si2 0.540446 0.182659 0.529322
Si Si3 0.440554 0.415520 0.007707
Si Si4 0.402651 0.712691 0.321404
Si Si5 0.795677 0.131828 0.177120
Si Si6 0.735940 0.063712 0.961181
Si Si7 0.217966 0.613328 0.341687
Si Si8 0.618532 0.210280 0.347510
O O1 0.377983 0.973326 0.371728
O O2 0.297017 0.799458 0.392060
O O3 0.259494 0.249914 0.192415
O O4 0.000000 0.000000 0.500000
O O5 0.504082 0.451876 0.425715
O O6 0.706389 0.169981 0.395184
O O7 0.321965 0.094750 0.658897
O O8 0.344626 0.639760 0.900235
O O9 0.646320 0.264342 0.950418
O O10 0.500000 0.500000 0.000000
O O11 0.224321 0.714038 0.355238
O O12 0.578850 0.872044 0.129820
O O13 0.808831 0.198470 0.208787
O O14 0.032383 0.075783 0.059030
O O15 0.783243 0.175315 0.814898
O O16 0.442371 0.443090 0.308611
O O17 0.000000 0.500000 0.500000
O O18 0.500000 0.000000 0.500000
#
# Coordination Sequence:
#
# PCOD8014915 Si02
#       8
#     2   2   2   2   2   2   2   2
#     4  11  25  41  64  90 132 178 211 269 332 383
#     4  10  21  42  63  93 128 171 221 265 320 388
#     4  11  24  45  64  97 133 169 224 274 310 392
#     4  10  24  42  61  94 135 164 218 270 321 399
#     4  11  22  42  69  96 131 168 222 272 323 381
#     4  11  24  41  67  97 133 174 209 273 333 377
#     4  11  21  40  68  96 129 171 217 267 329 383
#     4   9  19  36  63  95 127 156 212 278 309 375
#
# _framework density 20.487220000000001
#
# number of rings (size 3 to 8) (size 9 to 14) (size 15 to 20)
#    0.000    1.500    2.500    3.000    1.750    5.500 
#    0.000    2.500    0.000    0.000    0.000    0.000 
#    0.000    0.000    0.000    0.000    0.000    0.000 
#
# Total GULP energy -198280.769140 kJ/mol
# GULP energy per Si atom -12392.548071 kJ/mol
# Density = 2.044059 g / cm^3
# Si number density = 20.487220 Si / 1000 Ang^3
#
#
#
# Elastic Constant Matrix: (Units=GPa)
#
#
# Indices 1 2 3 4 5 6 
#
# 1 102.4623 42.1348 32.3171 12.4757 1.4554 23.7673
# 2 42.1348 119.0919 49.3143 5.9374 -0.6018 12.9093
# 3 32.3171 49.3143 106.5711 4.7941 3.7339 3.1616
# 4 12.4757 5.9374 4.7941 40.2770 -1.3525 -0.3134
# 5 1.4554 -0.6018 3.7339 -1.3525 31.7035 1.6467
# 6 23.7673 12.9093 3.1616 -0.3134 1.6467 27.3001
#
#
#
# Elastic Compliance Matrix: (Units=1/GPa)
#
#
# Indices 1 2 3 4 5 6 
#
# 1 0.014856 -0.002686 -0.002746 -0.003967 0.000013 -0.011391
# 2 -0.002686 0.011497 -0.004447 -0.000321 0.000989 -0.002646
# 3 -0.002746 -0.004447 0.012234 0.000022 -0.001563 0.003171
# 4 -0.003967 -0.000321 0.000022 0.026168 0.001090 0.003837
# 5 0.000013 0.000989 -0.001563 0.001090 0.031906 -0.002210
# 6 -0.011391 -0.002646 0.003171 0.003837 -0.002210 0.047608
#
#
# Mechanical properties :
#
#
# Convention : Reuss Voigt Hill
#
# Bulk Modulus (GPa) = 53.11422 63.96199 58.53811
# Shear Modulus (GPa) = 29.35964 33.48006 31.41985
#
# Velocity S-wave (km/s) = 3.78970 4.04690 3.92041
# Velocity P-wave (km/s) = 6.71795 7.28867 7.00912
#
# Compressibility (1/GPa) = 0.01882735
#
# Stress axis : x y z
#
# Youngs Moduli (GPa) = 67.31492 86.98282 81.74233
#
# Poissons Ratio (x) = 0.23366 0.22446
# Poissons Ratio (y) = 0.18082 0.36351
# Poissons Ratio (z) = 0.18484 0.38681
#
# Static dielectric constant tensor:
#      x y z
#    x 4.214990 0.488570 0.494480 
#    y 0.488570 4.032410 0.038380 
#    z 0.494480 0.038380 3.980770 
# 
# 
# High freq. dielectric constant tensor:
#      x y z
#    x 1.799090 0.016660 0.018930 
#    y 0.016660 1.808220 -0.012300 
#    z 0.018930 -0.012300 1.805970 
# 
# From -- ./inp_files/257498.got.cif
#   From: 2010.06.25/outbox.cif.g09.slc.cpg/sg2_129_cif.got.tgz:257498.got - 2010.06.27 13:26:56.
