data_PCOD8014200
_publ_section_title
;
Structure prediction by ZEFSAII (Michael W. Deem and Ramdas Pophale) SiO2 
 PCOD8014200
Probable space group: P -1
;
_chemical_formula_sum "Si O2"
_cell_formula_units_Z 16
_cell_length_a 24.526971
_cell_length_b 11.974692
_cell_length_c 11.937254
_cell_angle_alpha 142.121053
_cell_angle_beta 143.606700
_cell_angle_gamma 21.698676
_cell_volume 755.291809
_symmetry_space_group_name_H-M "P -1"
_symmetry_group_IT_number 2
_symmetry_cell_setting 'triclinic'
loop_
_space_group_symop_operation_xyz
x,y,z
-x,-y,-z
loop_
_atom_site_type_symbol
_atom_site_label
_atom_site_fract_x
_atom_site_fract_y
_atom_site_fract_z
Si Si1 0.357176 0.673114 0.476214
Si Si2 0.695057 0.492538 0.933042
Si Si3 0.880566 0.002559 0.040885
Si Si4 0.224154 0.345421 0.115766
Si Si5 0.592966 0.626129 0.463925
Si Si6 0.753648 0.819593 0.740767
Si Si7 0.168654 0.703548 0.590122
Si Si8 0.666915 0.932388 0.159306
O O1 0.500000 0.500000 0.500000
O O2 0.270929 0.653078 0.248175
O O3 0.412885 0.521308 0.570217
O O4 0.258565 0.015297 0.608166
O O5 0.520518 0.747256 0.893011
O O6 0.821965 0.200909 0.991917
O O7 0.727359 0.654706 0.099970
O O8 0.804831 0.230503 0.199460
O O9 0.067410 0.710412 0.121911
O O10 0.825691 0.880550 0.848692
O O11 0.365799 0.252709 0.308316
O O12 0.195095 0.259610 0.106211
O O13 0.275797 0.147765 0.937339
O O14 0.717488 0.389541 0.386203
O O15 0.430813 0.891334 0.342840
O O16 0.810188 0.546665 0.555322
O O17 0.000000 0.000000 0.500000
#
# Coordination Sequence:
#
# PCOD8014200 Si02
#       8
#     2   2   2   2   2   2   2   2
#     4  10  21  41  65  95 130 164 222 277 322 376
#     4  10  23  41  65  94 129 167 224 270 322 384
#     4  12  26  43  67  99 136 177 214 269 331 400
#     4  11  23  43  65  97 138 171 213 275 334 389
#     4  11  23  43  69  98 134 174 219 277 321 394
#     4  11  25  42  66  98 134 171 223 268 317 397
#     4  11  24  42  65  97 138 177 207 266 340 383
#     4  10  22  40  67  93 125 176 218 273 322 384
#
# _framework density 21.183865000000001
#
# number of rings (size 3 to 8) (size 9 to 14) (size 15 to 20)
#    0.000    1.250    3.750    3.375    5.250    2.000 
#    0.000    0.625    0.000    0.000    0.000    0.000 
#    0.000    0.000    0.000    0.000    0.000    0.000 
#
# Total GULP energy -198365.561591 kJ/mol
# GULP energy per Si atom -12397.847599 kJ/mol
# Density = 2.113565 g / cm^3
# Si number density = 21.183865 Si / 1000 Ang^3
#
#
#
# Elastic Constant Matrix: (Units=GPa)
#
#
# Indices 1 2 3 4 5 6 
#
# 1 74.2599 41.5540 43.1543 15.3647 -9.4158 19.9731
# 2 41.5540 112.4742 47.4330 -0.8431 -11.0349 20.2737
# 3 43.1543 47.4330 108.5643 34.2325 -13.6519 5.9795
# 4 15.3647 -0.8431 34.2325 38.0708 -1.1927 -3.6471
# 5 -9.4158 -11.0349 -13.6519 -1.1927 39.5802 4.7056
# 6 19.9731 20.2737 5.9795 -3.6471 4.7056 39.2140
#
#
#
# Elastic Compliance Matrix: (Units=1/GPa)
#
#
# Indices 1 2 3 4 5 6 
#
# 1 0.022818 -0.004719 -0.003937 -0.006581 0.003702 -0.009638
# 2 -0.004719 0.014098 -0.006354 0.007648 0.001246 -0.003355
# 3 -0.003937 -0.006354 0.018723 -0.015225 0.003216 0.000634
# 4 -0.006581 0.007648 -0.015225 0.043251 -0.004123 0.006237
# 5 0.003702 0.001246 0.003216 -0.004123 0.028286 -0.006798
# 6 -0.009638 -0.003355 0.000634 0.006237 -0.006798 0.033444
#
#
# Mechanical properties :
#
#
# Convention : Reuss Voigt Hill
#
# Bulk Modulus (GPa) = 39.03324 62.17565 50.60444
# Shear Modulus (GPa) = 25.10314 34.25015 29.67665
#
# Velocity S-wave (km/s) = 3.44614 4.02531 3.74693
# Velocity P-wave (km/s) = 5.85665 7.14271 6.53142
#
# Compressibility (1/GPa) = 0.02561919
#
# Stress axis : x y z
#
# Youngs Moduli (GPa) = 43.82524 70.93158 53.41144
#
# Poissons Ratio (x) = 0.33469 0.21029
# Poissons Ratio (y) = 0.20679 0.33938
# Poissons Ratio (z) = 0.17255 0.45070
#
# Static dielectric constant tensor:
#      x y z
#    x 3.936440 0.057430 0.021040 
#    y 0.057430 3.703650 -0.080050 
#    z 0.021040 -0.080050 4.122500 
# 
# 
# High freq. dielectric constant tensor:
#      x y z
#    x 1.836760 0.006740 -0.003030 
#    y 0.006740 1.819620 0.013100 
#    z -0.003030 0.013100 1.835790 
# 
# From -- ./inp_files/429088.got.cif
#   From: 2010.06.25/outbox.cif.g09.slc.cpg/sg2_215_cif.got.tgz:429088.got - 2010.06.27 13:26:56.
