data_PCOD8014693
_publ_section_title
;
Structure prediction by ZEFSAII (Michael W. Deem and Ramdas Pophale) SiO2 
 PCOD8014693
Probable space group: P -1
;
_chemical_formula_sum "Si O2"
_cell_formula_units_Z 16
_cell_length_a 15.803190
_cell_length_b 15.590365
_cell_length_c 15.445009
_cell_angle_alpha 18.433910
_cell_angle_beta 35.974238
_cell_angle_gamma 34.748930
_cell_volume 676.416303
_symmetry_space_group_name_H-M "P -1"
_symmetry_group_IT_number 2
_symmetry_cell_setting 'triclinic'
loop_
_space_group_symop_operation_xyz
x,y,z
-x,-y,-z
loop_
_atom_site_type_symbol
_atom_site_label
_atom_site_fract_x
_atom_site_fract_y
_atom_site_fract_z
Si Si1 0.494099 0.616920 0.599094
Si Si2 0.706090 0.846889 0.307232
Si Si3 0.462576 0.243249 0.230096
Si Si4 0.153873 0.418665 0.375565
Si Si5 0.001648 0.021460 0.111746
Si Si6 0.443456 0.077835 0.067385
Si Si7 0.120985 0.361004 0.104563
Si Si8 0.166420 0.888052 0.655227
O O1 0.644996 0.618672 0.524732
O O2 0.349053 0.806702 0.594058
O O3 0.499963 0.775078 0.354249
O O4 0.500085 0.299747 0.867566
O O5 0.772108 0.682755 0.497068
O O6 0.828587 0.957118 0.046917
O O7 0.566556 0.135680 0.162808
O O8 0.281725 0.320654 0.287440
O O9 0.500000 0.000000 0.500000
O O10 0.500000 0.500000 0.000000
O O11 0.089853 0.759150 0.096416
O O12 0.013185 0.289972 0.600814
O O13 0.922799 0.100328 0.193454
O O14 0.264420 0.172422 0.115273
O O15 0.500000 0.000000 0.000000
O O16 0.085173 0.165743 0.398432
O O17 0.157756 0.619287 0.869243
O O18 0.000000 0.500000 0.000000
#
# Coordination Sequence:
#
# PCOD8014693 Si02
#       8
#     2   2   2   2   2   2   2   2
#     4  10  23  41  67  96 133 174 214 271 327 392
#     4  11  25  43  66  99 129 170 234 282 325 386
#     4  10  22  40  63  89 121 168 222 272 323 390
#     4  11  24  43  64  90 130 180 223 273 335 390
#     4  12  25  42  65  94 134 176 217 282 335 379
#     4  10  22  42  67  98 132 168 210 264 331 394
#     4  10  21  41  70  96 125 167 211 259 317 396
#     4  10  22  42  63  96 133 169 213 259 327 393
#
# _framework density 23.654073
#
# number of rings (size 3 to 8) (size 9 to 14) (size 15 to 20)
#    0.000    1.500    0.000    4.500    0.000   10.000 
#    0.000    2.500    0.000    0.000    0.000    0.000 
#    0.000    0.000    0.000    0.000    0.000    0.000 
#
# Total GULP energy -198237.984854 kJ/mol
# GULP energy per Si atom -12389.874053 kJ/mol
# Density = 2.360024 g / cm^3
# Si number density = 23.654073 Si / 1000 Ang^3
#
#
#
# Elastic Constant Matrix: (Units=GPa)
#
#
# Indices 1 2 3 4 5 6 
#
# 1 74.6775 38.0570 2.6524 24.4865 -6.8456 -9.5222
# 2 38.0570 94.0677 42.1055 30.8532 -6.2468 0.0052
# 3 2.6524 42.1055 112.4556 10.3425 -1.0446 -6.0950
# 4 24.4865 30.8532 10.3425 46.7669 -2.7724 -0.7845
# 5 -6.8456 -6.2468 -1.0446 -2.7724 26.5258 5.7089
# 6 -9.5222 0.0052 -6.0950 -0.7845 5.7089 30.2160
#
#
#
# Elastic Compliance Matrix: (Units=1/GPa)
#
#
# Indices 1 2 3 4 5 6 
#
# 1 0.020050 -0.007471 0.003253 -0.006090 0.001500 0.006534
# 2 -0.007471 0.019089 -0.006524 -0.007164 0.002494 -0.004331
# 3 0.003253 -0.006524 0.011433 0.000072 -0.000997 0.003523
# 4 -0.006090 -0.007164 0.000072 0.029265 0.000051 -0.001153
# 5 0.001500 0.002494 -0.000997 0.000051 0.040216 -0.007326
# 6 0.006534 -0.004331 0.003523 -0.001153 -0.007326 0.037220
#
#
# Mechanical properties :
#
#
# Convention : Reuss Voigt Hill
#
# Bulk Modulus (GPa) = 34.37809 49.64783 42.01296
# Shear Modulus (GPa) = 26.53176 33.92749 30.22962
#
# Velocity S-wave (km/s) = 3.35275 3.79135 3.57877
# Velocity P-wave (km/s) = 5.43628 6.34038 5.90566
#
# Compressibility (1/GPa) = 0.02908830
#
# Stress axis : x y z
#
# Youngs Moduli (GPa) = 49.87437 52.38732 87.46408
#
# Poissons Ratio (x) = 0.39138 -0.28448
# Poissons Ratio (y) = 0.37260 0.57058
# Poissons Ratio (z) = -0.16222 0.34176
#
# Static dielectric constant tensor:
#      x y z
#    x 3.377840 0.395360 0.082170 
#    y 0.395360 4.958140 -0.211050 
#    z 0.082170 -0.211050 4.580750 
# 
# 
# High freq. dielectric constant tensor:
#      x y z
#    x 1.919900 -0.003030 -0.001090 
#    y -0.003030 1.946620 0.001030 
#    z -0.001090 0.001030 1.961350 
# 
# From -- ./inp_files/534002.got.cif
#   From: 2010.06.25/outbox.cif.g09.slc.cpg/sg2_268_cif.got.tgz:534002.got - 2010.06.27 13:26:56.
