data_PCOD8014458
_publ_section_title
;
Structure prediction by ZEFSAII (Michael W. Deem and Ramdas Pophale) SiO2 
 PCOD8014458
Probable space group: P -1
;
_chemical_formula_sum "Si O2"
_cell_formula_units_Z 12
_cell_length_a 15.383783
_cell_length_b 9.188735
_cell_length_c 9.330770
_cell_angle_alpha 95.962139
_cell_angle_beta 49.945137
_cell_angle_gamma 54.225134
_cell_volume 519.580394
_symmetry_space_group_name_H-M "P -1"
_symmetry_group_IT_number 2
_symmetry_cell_setting 'triclinic'
loop_
_space_group_symop_operation_xyz
x,y,z
-x,-y,-z
loop_
_atom_site_type_symbol
_atom_site_label
_atom_site_fract_x
_atom_site_fract_y
_atom_site_fract_z
Si Si1 0.745608 0.308511 0.267910
Si Si2 0.365061 0.796271 0.176888
Si Si3 0.745360 0.983361 0.267758
Si Si4 0.554694 0.832980 0.175248
Si Si5 0.940209 0.289214 0.855191
Si Si6 0.580357 0.130017 0.166583
O O1 0.631614 0.272822 0.398081
O O2 0.633645 0.544021 0.521634
O O3 0.763011 0.358591 0.093532
O O4 0.000000 0.000000 0.000000
O O5 0.504890 0.771098 0.098302
O O6 0.147523 0.999446 0.518644
O O7 0.500000 0.500000 0.000000
O O8 0.306168 0.913565 0.091465
O O9 0.584943 0.047970 0.522745
O O10 0.764334 0.909814 0.075300
O O11 0.973891 0.733822 0.087531
O O12 0.501348 0.054372 0.198349
O O13 0.812246 0.544251 0.916510
#
# Coordination Sequence:
#
# PCOD8014458 Si02
#       6
#     2   2   2   2   2   2
#     4  10  21  41  67  97 126 173 222 264 315 387
#     4  11  26  47  66  93 134 175 219 275 324 387
#     4  10  22  41  69  96 134 166 219 274 312 388
#     4  11  24  44  66  97 138 172 213 271 330 395
#     4  10  23  43  66  98 132 169 222 262 332 386
#     4  12  23  42  70  97 134 174 216 273 329 377
#
# _framework density 23.095559000000002
#
# number of rings (size 3 to 8) (size 9 to 14) (size 15 to 20)
#    0.000    1.333    1.667    4.500    2.333    2.000 
#   15.000    0.000    0.000    0.000    0.000    0.000 
#    0.000    0.000    0.000    0.000    0.000    0.000 
#
# Total GULP energy -148728.227670 kJ/mol
# GULP energy per Si atom -12394.018973 kJ/mol
# Density = 2.304299 g / cm^3
# Si number density = 23.095559 Si / 1000 Ang^3
#
#
#
# Elastic Constant Matrix: (Units=GPa)
#
#
# Indices 1 2 3 4 5 6 
#
# 1 104.1532 35.6970 46.0215 -1.2488 16.9493 6.6098
# 2 35.6970 93.1586 34.9298 -14.0721 6.6914 16.8288
# 3 46.0215 34.9298 93.5508 -18.8816 -0.7863 -0.3141
# 4 -1.2488 -14.0721 -18.8816 42.9250 -4.5971 4.5103
# 5 16.9493 6.6914 -0.7863 -4.5971 30.2453 -4.3249
# 6 6.6098 16.8288 -0.3141 4.5103 -4.3249 53.2677
#
#
#
# Elastic Compliance Matrix: (Units=1/GPa)
#
#
# Indices 1 2 3 4 5 6 
#
# 1 0.015434 -0.002884 -0.007534 -0.004639 -0.009112 -0.001396
# 2 -0.002884 0.014619 -0.003359 0.003531 -0.001845 -0.004729
# 3 -0.007534 -0.003359 0.017063 0.006687 0.006722 0.002076
# 4 -0.004639 0.003531 0.006687 0.028147 0.005927 -0.002402
# 5 -0.009112 -0.001845 0.006722 0.005927 0.040300 0.004523
# 6 -0.001396 -0.004729 0.002076 -0.002402 0.004523 0.021023
#
#
# Mechanical properties :
#
#
# Convention : Reuss Voigt Hill
#
# Bulk Modulus (GPa) = 51.11465 58.23993 54.67729
# Shear Modulus (GPa) = 29.29813 36.90188 33.10001
#
# Velocity S-wave (km/s) = 3.56555 4.00157 3.78984
# Velocity P-wave (km/s) = 6.25546 6.82802 6.54800
#
# Compressibility (1/GPa) = 0.01956386
#
# Stress axis : x y z
#
# Youngs Moduli (GPa) = 64.79137 68.40499 58.60760
#
# Poissons Ratio (x) = 0.19725 0.44153
# Poissons Ratio (y) = 0.18683 0.19684
# Poissons Ratio (z) = 0.48812 0.22974
#
# Static dielectric constant tensor:
#      x y z
#    x 4.284140 0.078500 -0.195790 
#    y 0.078500 4.627350 -0.244030 
#    z -0.195790 -0.244030 4.130770 
# 
# 
# High freq. dielectric constant tensor:
#      x y z
#    x 1.905350 -0.001820 -0.009960 
#    y -0.001820 1.934930 -0.008140 
#    z -0.009960 -0.008140 1.898270 
# 
# From -- ./inp_files/290708.got.cif
#   From: 2010.06.25/outbox.cif.g09.slc.cpg/sg2_146_cif.got.tgz:290708.got - 2010.06.27 13:26:56.
