data_PCOD8014937
_publ_section_title
;
Structure prediction by ZEFSAII (Michael W. Deem and Ramdas Pophale) SiO2 
 PCOD8014937
Probable space group: P -1
;
_chemical_formula_sum "Si O2"
_cell_formula_units_Z 14
_cell_length_a 10.594721
_cell_length_b 6.948228
_cell_length_c 19.585441
_cell_angle_alpha 52.370465
_cell_angle_beta 33.025927
_cell_angle_gamma 66.775220
_cell_volume 598.800944
_symmetry_space_group_name_H-M "P -1"
_symmetry_group_IT_number 2
_symmetry_cell_setting 'triclinic'
loop_
_space_group_symop_operation_xyz
x,y,z
-x,-y,-z
loop_
_atom_site_type_symbol
_atom_site_label
_atom_site_fract_x
_atom_site_fract_y
_atom_site_fract_z
Si Si1 0.669494 0.271182 0.844992
Si Si2 0.878899 0.777375 0.698506
Si Si3 0.898424 0.941461 0.331416
Si Si4 0.927238 0.431582 0.150152
Si Si5 0.616136 0.430688 0.164837
Si Si6 0.684867 0.082870 0.624066
Si Si7 0.460601 0.503554 0.598433
O O1 0.709700 0.485648 0.840790
O O2 0.544192 0.374297 0.816319
O O3 0.928042 0.238444 0.715287
O O4 0.500000 0.000000 0.000000
O O5 0.061240 0.771656 0.555303
O O6 0.724241 0.973317 0.705079
O O7 0.021116 0.865818 0.683855
O O8 0.628712 0.761706 0.499021
O O9 0.907837 0.130530 0.222335
O O10 0.773191 0.513907 0.142692
O O11 0.816152 0.505548 0.255764
O O12 0.207871 0.573179 0.979610
O O13 0.441351 0.153329 0.315616
O O14 0.517351 0.270323 0.662287
O O15 0.500000 0.500000 0.500000
#
# Coordination Sequence:
#
# PCOD8014937 Si02
#       7
#     2   2   2   2   2   2   2
#     4  11  23  45  71 100 135 174 230 286 339 407
#     4  10  23  42  68 100 135 172 226 289 339 395
#     4  12  24  43  71 100 132 182 227 286 337 396
#     4  11  24  42  67  96 139 183 221 278 343 405
#     4  10  23  45  65  99 138 179 224 280 342 406
#     4  10  21  42  63  97 138 173 224 283 331 409
#     4  12  25  42  69 101 137 184 231 275 339 409
#
# _framework density 23.380058999999999
#
# number of rings (size 3 to 8) (size 9 to 14) (size 15 to 20)
#    0.000    1.143    2.857    3.000    2.000    1.714 
#    0.000    0.000    0.000    0.000    0.000    0.000 
#    0.000    0.000    0.000    0.000    0.000    0.000 
#
# Total GULP energy -173531.149643 kJ/mol
# GULP energy per Si atom -12395.082117 kJ/mol
# Density = 2.332684 g / cm^3
# Si number density = 23.380059 Si / 1000 Ang^3
#
#
#
# Elastic Constant Matrix: (Units=GPa)
#
#
# Indices 1 2 3 4 5 6 
#
# 1 98.4129 51.9850 14.6994 -3.1336 -2.5246 -12.4655
# 2 51.9850 118.9051 36.7638 -15.4012 5.2628 -21.1772
# 3 14.6994 36.7638 78.4760 -3.2408 1.3785 -3.9844
# 4 -3.1336 -15.4012 -3.2408 55.7840 -1.0114 -6.4098
# 5 -2.5246 5.2628 1.3785 -1.0114 25.0380 -0.8022
# 6 -12.4655 -21.1772 -3.9844 -6.4098 -0.8022 49.5414
#
#
#
# Elastic Compliance Matrix: (Units=1/GPa)
#
#
# Indices 1 2 3 4 5 6 
#
# 1 0.013452 -0.006043 0.000273 -0.000761 0.002605 0.000767
# 2 -0.006043 0.014010 -0.004998 0.003701 -0.002985 0.004497
# 3 0.000273 -0.004998 0.014957 -0.000600 0.000200 -0.000939
# 4 -0.000761 0.003701 -0.000600 0.019313 0.000082 0.003842
# 5 0.002605 -0.002985 0.000200 0.000082 0.040824 0.000067
# 6 0.000767 0.004497 -0.000939 0.003842 0.000067 0.022723
#
#
# Mechanical properties :
#
#
# Convention : Reuss Voigt Hill
#
# Bulk Modulus (GPa) = 47.88466 55.85448 51.86957
# Shear Modulus (GPa) = 32.51492 38.89575 35.70533
#
# Velocity S-wave (km/s) = 3.73327 4.08319 3.91214
# Velocity P-wave (km/s) = 6.25368 6.79496 6.52993
#
# Compressibility (1/GPa) = 0.02088351
#
# Stress axis : x y z
#
# Youngs Moduli (GPa) = 74.33607 71.37994 66.85889
#
# Poissons Ratio (x) = 0.43135 -0.01825
# Poissons Ratio (y) = 0.44922 0.33413
# Poissons Ratio (z) = -0.02029 0.35673
#
# Static dielectric constant tensor:
#      x y z
#    x 4.273810 -0.413110 -0.166290 
#    y -0.413110 4.148180 -0.067230 
#    z -0.166290 -0.067230 4.274140 
# 
# 
# High freq. dielectric constant tensor:
#      x y z
#    x 1.927840 -0.033420 -0.014190 
#    y -0.033420 1.918580 -0.012880 
#    z -0.014190 -0.012880 1.920570 
# 
# From -- ./inp_files/411179.got.cif
#   From: 2010.06.25/outbox.cif.g09.slc.cpg/sg2_206_cif.got.tgz:411179.got - 2010.06.27 13:26:56.
