data_PCOD8014354
_publ_section_title
;
Structure prediction by ZEFSAII (Michael W. Deem and Ramdas Pophale) SiO2 
 PCOD8014354
Probable space group: P -1
;
_chemical_formula_sum "Si O2"
_cell_formula_units_Z 16
_cell_length_a 8.610589
_cell_length_b 13.783969
_cell_length_c 11.828152
_cell_angle_alpha 114.256202
_cell_angle_beta 143.273830
_cell_angle_gamma 81.465175
_cell_volume 722.042485
_symmetry_space_group_name_H-M "P -1"
_symmetry_group_IT_number 2
_symmetry_cell_setting 'triclinic'
loop_
_space_group_symop_operation_xyz
x,y,z
-x,-y,-z
loop_
_atom_site_type_symbol
_atom_site_label
_atom_site_fract_x
_atom_site_fract_y
_atom_site_fract_z
Si Si1 0.524549 0.307493 0.530337
Si Si2 0.798604 0.080197 0.173969
Si Si3 0.674033 0.115160 0.878633
Si Si4 0.899887 0.686039 0.898126
Si Si5 0.128479 0.324829 0.865881
Si Si6 0.775438 0.784247 0.344223
Si Si7 0.293630 0.051722 0.342013
Si Si8 0.348594 0.577876 0.114317
O O1 0.357669 0.339847 0.347741
O O2 0.381832 0.187068 0.451245
O O3 0.566313 0.402896 0.695390
O O4 0.813759 0.310901 0.651477
O O5 0.936804 0.168538 0.397100
O O6 0.000298 0.011437 0.217809
O O7 0.756917 0.149372 0.072622
O O8 0.500000 0.000000 0.000000
O O9 0.370143 0.120741 0.681012
O O10 0.705984 0.994000 0.808736
O O11 0.876719 0.196553 0.947379
O O12 0.810188 0.698601 0.980193
O O13 0.048128 0.591583 0.928750
O O14 0.183556 0.231911 0.772480
O O15 0.321542 0.450832 0.004998
O O16 0.585780 0.662608 0.218575
O O17 0.500000 0.000000 0.500000
#
# Coordination Sequence:
#
# PCOD8014354 Si02
#       8
#     2   2   2   2   2   2   2   2
#     4  11  22  40  67  95 137 169 227 285 326 400
#     4  12  27  44  68  99 135 177 227 279 336 402
#     4  11  24  43  69  94 132 182 227 271 334 406
#     4  10  21  41  66  99 132 171 227 279 330 404
#     4  11  25  38  69 101 132 176 227 278 337 401
#     4  11  24  47  63  97 142 178 218 285 339 399
#     4  12  22  44  71  97 131 187 222 273 339 397
#     4  10  21  44  67  97 131 179 226 274 341 399
#
# _framework density 22.159361000000001
#
# number of rings (size 3 to 8) (size 9 to 14) (size 15 to 20)
#    0.000    1.000    3.750    3.750    1.750    5.500 
#    0.000    0.000    0.000    6.000    0.000    0.000 
#    0.000    0.000    0.000    0.000    0.000    0.000 
#
# Total GULP energy -198344.858226 kJ/mol
# GULP energy per Si atom -12396.553639 kJ/mol
# Density = 2.210893 g / cm^3
# Si number density = 22.159361 Si / 1000 Ang^3
#
#
#
# Elastic Constant Matrix: (Units=GPa)
#
#
# Indices 1 2 3 4 5 6 
#
# 1 122.4000 35.1169 55.1030 2.4239 1.7453 0.5558
# 2 35.1169 72.8255 55.5340 -7.4112 -6.2349 7.2986
# 3 55.1030 55.5340 128.2378 -27.2448 -0.6614 -6.7430
# 4 2.4239 -7.4112 -27.2448 43.3785 2.3967 -11.6357
# 5 1.7453 -6.2349 -0.6614 2.3967 32.9009 -3.3324
# 6 0.5558 7.2986 -6.7430 -11.6357 -3.3324 23.8783
#
#
#
# Elastic Compliance Matrix: (Units=1/GPa)
#
#
# Indices 1 2 3 4 5 6 
#
# 1 0.011236 -0.001326 -0.005651 -0.005493 -0.000993 -0.004268
# 2 -0.001326 0.024945 -0.012588 -0.007622 0.003646 -0.014354
# 3 -0.005651 -0.012588 0.019773 0.015149 -0.001091 0.016793
# 4 -0.005493 -0.007622 0.015149 0.038420 -0.001084 0.025306
# 5 -0.000993 0.003646 -0.001091 -0.001084 0.031444 0.002461
# 6 -0.004268 -0.014354 0.016793 0.025306 0.002461 0.063783
#
#
# Mechanical properties :
#
#
# Convention : Reuss Voigt Hill
#
# Bulk Modulus (GPa) = 59.43342 68.33014 63.88178
# Shear Modulus (GPa) = 21.33648 31.87881 26.60765
#
# Velocity S-wave (km/s) = 3.10637 3.79702 3.46893
# Velocity P-wave (km/s) = 6.30438 7.07997 6.70340
#
# Compressibility (1/GPa) = 0.01682555
#
# Stress axis : x y z
#
# Youngs Moduli (GPa) = 88.99573 40.08804 50.57293
#
# Poissons Ratio (x) = 0.05314 0.28578
# Poissons Ratio (y) = 0.11797 0.63663
# Poissons Ratio (z) = 0.50290 0.50464
#
# Static dielectric constant tensor:
#      x y z
#    x 4.167730 -0.111710 -0.065650 
#    y -0.111710 3.943390 -0.080220 
#    z -0.065650 -0.080220 4.196780 
# 
# 
# High freq. dielectric constant tensor:
#      x y z
#    x 1.875490 0.005250 -0.005170 
#    y 0.005250 1.854830 -0.007060 
#    z -0.005170 -0.007060 1.884590 
# 
# From -- ./inp_files/399488.got.cif
#   From: 2010.06.25/outbox.cif.g09.slc.cpg/sg2_200_cif.got.tgz:399488.got - 2010.06.27 13:26:56.
