data_PCOD8014018
_publ_section_title
;
Structure prediction by ZEFSAII (Michael W. Deem and Ramdas Pophale) SiO2 
 PCOD8014018
Probable space group: P -1
;
_chemical_formula_sum "Si O2"
_cell_formula_units_Z 16
_cell_length_a 11.420918
_cell_length_b 9.181550
_cell_length_c 11.159731
_cell_angle_alpha 89.490928
_cell_angle_beta 114.807137
_cell_angle_gamma 47.554413
_cell_volume 705.424033
_symmetry_space_group_name_H-M "P -1"
_symmetry_group_IT_number 2
_symmetry_cell_setting 'triclinic'
loop_
_space_group_symop_operation_xyz
x,y,z
-x,-y,-z
loop_
_atom_site_type_symbol
_atom_site_label
_atom_site_fract_x
_atom_site_fract_y
_atom_site_fract_z
Si Si1 0.472333 0.649472 0.638046
Si Si2 0.744783 0.402936 0.212489
Si Si3 0.687970 0.235477 0.992899
Si Si4 0.949404 0.075671 0.628217
Si Si5 0.778481 0.135469 0.783524
Si Si6 0.792116 0.646770 0.354658
Si Si7 0.714460 0.022581 0.235449
Si Si8 0.507503 0.834528 0.446204
O O1 0.268964 0.752954 0.506892
O O2 0.615859 0.396427 0.713194
O O3 0.567293 0.675179 0.579507
O O4 0.436307 0.770285 0.742667
O O5 0.524727 0.567388 0.163731
O O6 0.809858 0.514507 0.255764
O O7 0.744450 0.343944 0.075549
O O8 0.898837 0.174416 0.358181
O O9 0.835510 0.067745 0.948880
O O10 0.670032 0.118373 0.081950
O O11 0.956237 0.042264 0.777247
O O12 0.055588 0.136958 0.639438
O O13 0.699867 0.048048 0.695416
O O14 0.692632 0.869375 0.246250
O O15 0.660255 0.699039 0.405220
O O16 0.000000 0.500000 0.500000
O O17 0.500000 0.000000 0.500000
#
# Coordination Sequence:
#
# PCOD8014018 Si02
#       8
#     2   2   2   2   2   2   2   2
#     4  11  22  40  65  95 125 168 214 268 319 372
#     4  10  21  41  64  92 123 169 213 263 306 376
#     4  10  22  44  67  88 125 171 230 255 302 376
#     4  10  22  38  64  94 128 159 218 270 315 366
#     4  11  23  41  69  93 126 174 210 270 313 371
#     4  12  26  40  66  96 135 167 200 264 337 378
#     4  11  24  39  63  95 127 169 211 260 316 381
#     4  11  23  42  60  95 129 167 207 258 325 383
#
# _framework density 22.681394000000001
#
# number of rings (size 3 to 8) (size 9 to 14) (size 15 to 20)
#    0.000    1.250    2.500    4.875    5.250    2.500 
#    0.000    0.000    0.000    1.500    0.000    0.000 
#    0.000    0.000    0.000    0.000    0.000    0.000 
#
# Total GULP energy -198217.669210 kJ/mol
# GULP energy per Si atom -12388.604326 kJ/mol
# Density = 2.262977 g / cm^3
# Si number density = 22.681394 Si / 1000 Ang^3
#
#
#
# Elastic Constant Matrix: (Units=GPa)
#
#
# Indices 1 2 3 4 5 6 
#
# 1 125.3071 33.6470 23.3845 16.9499 -19.1317 -0.3733
# 2 33.6470 80.1644 14.1501 11.6617 7.3235 20.3539
# 3 23.3845 14.1501 45.1847 25.2774 -7.0540 9.1211
# 4 16.9499 11.6617 25.2774 46.4381 -2.6627 5.5283
# 5 -19.1317 7.3235 -7.0540 -2.6627 43.9209 11.7681
# 6 -0.3733 20.3539 9.1211 5.5283 11.7681 38.4139
#
#
#
# Elastic Compliance Matrix: (Units=1/GPa)
#
#
# Indices 1 2 3 4 5 6 
#
# 1 0.010636 -0.004695 -0.003300 -0.000927 0.004237 0.002210
# 2 -0.004695 0.017060 -0.001177 -0.001192 -0.003091 -0.007687
# 3 -0.003300 -0.001177 0.035965 -0.016911 0.005433 -0.007179
# 4 -0.000927 -0.001192 -0.016911 0.031251 -0.001159 0.000496
# 5 0.004237 -0.003091 0.005433 -0.001159 0.028088 -0.008049
# 6 0.002210 -0.007687 -0.007179 0.000496 -0.008049 0.034226
#
#
# Mechanical properties :
#
#
# Convention : Reuss Voigt Hill
#
# Bulk Modulus (GPa) = 22.06643 43.66882 32.86763
# Shear Modulus (GPa) = 26.22235 37.71956 31.97096
#
# Velocity S-wave (km/s) = 3.40386 4.08244 3.75849
# Velocity P-wave (km/s) = 5.01980 6.44334 5.77560
#
# Compressibility (1/GPa) = 0.04531770
#
# Stress axis : x y z
#
# Youngs Moduli (GPa) = 94.02151 58.61559 27.80444
#
# Poissons Ratio (x) = 0.27520 0.09176
# Poissons Ratio (y) = 0.44143 0.03272
# Poissons Ratio (z) = 0.31029 0.06898
#
# Static dielectric constant tensor:
#      x y z
#    x 4.553250 -0.307600 -0.283100 
#    y -0.307600 4.237140 0.264810 
#    z -0.283100 0.264810 4.393760 
# 
# 
# High freq. dielectric constant tensor:
#      x y z
#    x 1.900330 -0.018060 -0.011420 
#    y -0.018060 1.891120 0.007140 
#    z -0.011420 0.007140 1.900280 
# 
# From -- ./inp_files/417626.got.cif
#   From: 2010.06.25/outbox.cif.g09.slc.cpg/sg2_209_cif.got.tgz:417626.got - 2010.06.27 13:26:56.
