data_PCOD8014316
_publ_section_title
;
Structure prediction by ZEFSAII (Michael W. Deem and Ramdas Pophale) SiO2 
 PCOD8014316
Probable space group: P -1
;
_chemical_formula_sum "Si O2"
_cell_formula_units_Z 14
_cell_length_a 11.492938
_cell_length_b 11.248265
_cell_length_c 11.604492
_cell_angle_alpha 31.957222
_cell_angle_beta 61.539646
_cell_angle_gamma 84.093429
_cell_volume 531.810613
_symmetry_space_group_name_H-M "P -1"
_symmetry_group_IT_number 2
_symmetry_cell_setting 'triclinic'
loop_
_space_group_symop_operation_xyz
x,y,z
-x,-y,-z
loop_
_atom_site_type_symbol
_atom_site_label
_atom_site_fract_x
_atom_site_fract_y
_atom_site_fract_z
Si Si1 0.632778 0.863002 0.084009
Si Si2 0.249015 0.529018 0.545993
Si Si3 0.158173 0.562663 0.807500
Si Si4 0.373613 0.427682 0.891479
Si Si5 0.068769 0.801323 0.164763
Si Si6 0.675059 0.056375 0.254472
Si Si7 0.426610 0.164242 0.273504
O O1 0.676733 0.175881 0.803704
O O2 0.784568 0.917399 0.051967
O O3 0.428790 0.591508 0.444074
O O4 0.656564 0.807922 0.987663
O O5 0.135312 0.460703 0.769459
O O6 0.107704 0.252521 0.749708
O O7 0.202634 0.393962 0.004856
O O8 0.316431 0.911456 0.436887
O O9 0.000000 0.500000 0.000000
O O10 0.529084 0.754507 0.502121
O O11 0.434157 0.422131 0.999358
O O12 0.000000 0.500000 0.500000
O O13 0.147100 0.787296 0.021744
O O14 0.692753 0.983437 0.435445
O O15 0.615381 0.253449 0.125175
#
# Coordination Sequence:
#
# PCOD8014316 Si02
#       7
#     2   2   2   2   2   2   2
#     4  10  21  41  69  98 135 178 232 280 341 414
#     4  10  21  41  68  96 137 182 223 285 347 402
#     4  11  23  40  64  95 136 182 228 283 351 411
#     4  11  23  40  70 101 131 184 232 283 348 412
#     4  10  22  39  68 100 135 182 226 278 352 408
#     4  10  22  40  66  99 134 178 230 283 342 414
#     4  10  21  41  66  95 135 182 229 282 345 405
#
# _framework density 26.325161999999999
#
# number of rings (size 3 to 8) (size 9 to 14) (size 15 to 20)
#    0.000    1.714    1.429    3.000    4.000    2.857 
#    0.000    4.286    0.000    0.000    0.000    0.000 
#    0.000    0.000    0.000    0.000    0.000    0.000 
#
# Total GULP energy -173472.675277 kJ/mol
# GULP energy per Si atom -12390.905377 kJ/mol
# Density = 2.626524 g / cm^3
# Si number density = 26.325162 Si / 1000 Ang^3
#
#
#
# Elastic Constant Matrix: (Units=GPa)
#
#
# Indices 1 2 3 4 5 6 
#
# 1 185.4360 55.9927 71.9951 9.6450 -24.3507 25.2630
# 2 55.9927 94.7296 42.3504 14.9782 -19.4700 15.4513
# 3 71.9951 42.3504 106.9170 7.4264 -20.5464 11.8609
# 4 9.6450 14.9782 7.4264 52.8616 2.9675 -6.9636
# 5 -24.3507 -19.4700 -20.5464 2.9675 30.9650 -0.7081
# 6 25.2630 15.4513 11.8609 -6.9636 -0.7081 37.2104
#
#
#
# Elastic Compliance Matrix: (Units=1/GPa)
#
#
# Indices 1 2 3 4 5 6 
#
# 1 0.008422 -0.001830 -0.003874 -0.001149 0.002923 -0.003882
# 2 -0.001830 0.015989 -0.002811 -0.004896 0.007098 -0.005282
# 3 -0.003874 -0.002811 0.014104 -0.000838 0.004607 -0.000767
# 4 -0.001149 -0.004896 -0.000838 0.021926 -0.006478 0.007060
# 5 0.002923 0.007098 0.004607 -0.006478 0.042578 -0.006802
# 6 -0.003882 -0.005282 -0.000767 0.007060 -0.006802 0.033140
#
#
# Mechanical properties :
#
#
# Convention : Reuss Voigt Hill
#
# Bulk Modulus (GPa) = 46.54484 80.86212 63.70348
# Shear Modulus (GPa) = 31.18163 38.65705 34.91934
#
# Velocity S-wave (km/s) = 3.44536 3.83619 3.64601
# Velocity P-wave (km/s) = 5.79193 7.09966 6.47887
#
# Compressibility (1/GPa) = 0.02148466
#
# Stress axis : x y z
#
# Youngs Moduli (GPa) = 118.73757 62.54142 70.90307
#
# Poissons Ratio (x) = 0.11448 0.27467
# Poissons Ratio (y) = 0.21734 0.19931
# Poissons Ratio (z) = 0.45997 0.17580
#
# Static dielectric constant tensor:
#      x y z
#    x 5.835320 0.050220 -0.341740 
#    y 0.050220 4.803290 -0.440670 
#    z -0.341740 -0.440670 4.690200 
# 
# 
# High freq. dielectric constant tensor:
#      x y z
#    x 2.087230 0.012740 0.011390 
#    y 0.012740 2.064920 -0.027160 
#    z 0.011390 -0.027160 2.048330 
# 
# From -- ./inp_files/307052.got.cif
#   From: 2010.06.25/outbox.cif.g09.slc.cpg/sg2_154_cif.got.tgz:307052.got - 2010.06.27 13:26:56.
