data_PCOD8014670
_publ_section_title
;
Structure prediction by ZEFSAII (Michael W. Deem and Ramdas Pophale) SiO2 
 PCOD8014670
Probable space group: P -1
;
_chemical_formula_sum "Si O2"
_cell_formula_units_Z 14
_cell_length_a 24.393477
_cell_length_b 5.116830
_cell_length_c 18.784902
_cell_angle_alpha 72.128445
_cell_angle_beta 159.474945
_cell_angle_gamma 118.186779
_cell_volume 651.256855
_symmetry_space_group_name_H-M "P -1"
_symmetry_group_IT_number 2
_symmetry_cell_setting 'triclinic'
loop_
_space_group_symop_operation_xyz
x,y,z
-x,-y,-z
loop_
_atom_site_type_symbol
_atom_site_label
_atom_site_fract_x
_atom_site_fract_y
_atom_site_fract_z
Si Si1 0.625892 0.253666 0.525057
Si Si2 0.960002 0.994063 0.868982
Si Si3 0.650494 0.816712 0.701148
Si Si4 0.164849 0.989180 0.613776
Si Si5 0.243788 0.466747 0.792114
Si Si6 0.634313 0.690199 0.310018
Si Si7 0.701416 0.149719 0.482834
O O1 0.791012 0.625188 0.673193
O O2 0.435992 0.215104 0.323630
O O3 0.568219 0.032265 0.401483
O O4 0.698433 0.137547 0.688077
O O5 0.900041 0.242783 0.751146
O O6 0.000000 0.000000 0.000000
O O7 0.152483 0.137503 0.048396
O O8 0.500000 0.500000 0.500000
O O9 0.264795 0.815232 0.782100
O O10 0.939508 0.764146 0.363303
O O11 0.231698 0.320856 0.711074
O O12 0.224918 0.055261 0.599239
O O13 0.419468 0.493661 0.040594
O O14 0.707181 0.452839 0.429212
O O15 0.636877 0.865388 0.370780
#
# Coordination Sequence:
#
# PCOD8014670 Si02
#       7
#     2   2   2   2   2   2   2
#     4  11  23  43  65  98 127 171 226 289 335 410
#     4  12  23  44  70  91 129 178 230 292 333 395
#     4  11  23  40  70  98 117 165 236 292 340 393
#     4  10  21  41  70 104 126 171 225 260 314 392
#     4  10  21  41  72  98 132 171 219 270 310 381
#     4  12  24  43  64 100 139 178 208 269 335 404
#     4  12  26  43  66  94 142 178 220 268 352 398
#
# _framework density 21.496894999999999
#
# number of rings (size 3 to 8) (size 9 to 14) (size 15 to 20)
#    0.000    0.857    4.286    3.000    0.000    0.000 
#    2.571    2.857    0.000    0.000    0.000    0.000 
#    0.000    0.000    0.000    0.000    0.000    0.000 
#
# Total GULP energy -173531.418802 kJ/mol
# GULP energy per Si atom -12395.101343 kJ/mol
# Density = 2.144797 g / cm^3
# Si number density = 21.496895 Si / 1000 Ang^3
#
#
#
# Elastic Constant Matrix: (Units=GPa)
#
#
# Indices 1 2 3 4 5 6 
#
# 1 140.6770 26.7337 74.6527 1.3291 19.0043 -9.0126
# 2 26.7337 101.7591 62.3499 -19.3045 10.8637 -10.6163
# 3 74.6527 62.3499 127.6145 -24.1744 23.2056 12.5722
# 4 1.3291 -19.3045 -24.1744 31.5839 -2.4267 1.2934
# 5 19.0043 10.8637 23.2056 -2.4267 36.5997 -1.8158
# 6 -9.0126 -10.6163 12.5722 1.2934 -1.8158 29.5945
#
#
#
# Elastic Compliance Matrix: (Units=1/GPa)
#
#
# Indices 1 2 3 4 5 6 
#
# 1 0.013949 0.003659 -0.012602 -0.008484 -0.000342 0.011264
# 2 0.003659 0.017587 -0.011995 0.000991 0.001173 0.012548
# 3 -0.012602 -0.011995 0.027113 0.014249 -0.007170 -0.020722
# 4 -0.008484 0.000991 0.014249 0.043759 -0.002535 -0.010349
# 5 -0.000342 0.001173 -0.007170 -0.002535 0.031799 0.005424
# 6 0.011264 0.012548 -0.020722 -0.010349 0.005424 0.051310
#
#
# Mechanical properties :
#
#
# Convention : Reuss Voigt Hill
#
# Bulk Modulus (GPa) = 59.61964 77.50257 68.56110
# Shear Modulus (GPa) = 21.46059 33.30991 27.38525
#
# Velocity S-wave (km/s) = 3.16303 3.94067 3.57307
# Velocity P-wave (km/s) = 6.41358 7.53899 6.99894
#
# Compressibility (1/GPa) = 0.01677300
#
# Stress axis : x y z
#
# Youngs Moduli (GPa) = 71.69132 56.85901 36.88213
#
# Poissons Ratio (x) = -0.20807 0.46480
# Poissons Ratio (y) = -0.26235 0.44242
# Poissons Ratio (z) = 0.90347 0.68205
#
# Static dielectric constant tensor:
#      x y z
#    x 3.581990 -0.628820 -1.002060 
#    y -0.628820 3.734950 -1.159120 
#    z -1.002060 -1.159120 1.498730 
# 
# 
# High freq. dielectric constant tensor:
#      x y z
#    x 1.858780 -0.014740 0.015510 
#    y -0.014740 1.846240 -0.014900 
#    z 0.015510 -0.014900 1.829940 
# 
# From -- ./inp_files/111452.got.cif
#   From: 2010.06.25/outbox.cif.g09.slc.cpg/sg2_56_cif.got.tgz:111452.got - 2010.06.27 13:26:56.
