data_PCOD8014201
_publ_section_title
;
Structure prediction by ZEFSAII (Michael W. Deem and Ramdas Pophale) SiO2 
 PCOD8014201
Probable space group: P -1
;
_chemical_formula_sum "Si O2"
_cell_formula_units_Z 16
_cell_length_a 20.236550
_cell_length_b 9.329388
_cell_length_c 20.202706
_cell_angle_alpha 48.293435
_cell_angle_beta 160.033222
_cell_angle_gamma 140.911308
_cell_volume 783.862243
_symmetry_space_group_name_H-M "P -1"
_symmetry_group_IT_number 2
_symmetry_cell_setting 'triclinic'
loop_
_space_group_symop_operation_xyz
x,y,z
-x,-y,-z
loop_
_atom_site_type_symbol
_atom_site_label
_atom_site_fract_x
_atom_site_fract_y
_atom_site_fract_z
Si Si1 0.139187 0.364232 0.923152
Si Si2 0.055307 0.385006 0.411586
Si Si3 0.436061 0.535409 0.270352
Si Si4 0.362882 0.903547 0.110144
Si Si5 0.700480 0.964234 0.716090
Si Si6 0.886213 0.246663 0.438666
Si Si7 0.398709 0.184595 0.183429
Si Si8 0.018960 0.113656 0.336954
O O1 0.032910 0.481376 0.751148
O O2 0.382875 0.544835 0.139204
O O3 0.215214 0.252384 0.973312
O O4 0.955320 0.180817 0.862231
O O5 0.331511 0.578126 0.630947
O O6 0.007272 0.177354 0.382315
O O7 0.896008 0.264048 0.363504
O O8 0.315232 0.648669 0.158792
O O9 0.343877 0.271155 0.286703
O O10 0.716969 0.694353 0.501282
O O11 0.609787 0.069693 0.251994
O O12 0.377356 0.011875 0.161127
O O13 0.159062 0.877007 0.881161
O O14 0.698555 0.954859 0.796262
O O15 0.500000 0.000000 0.500000
O O16 0.000000 0.500000 0.500000
O O17 0.034435 0.146192 0.633754
#
# Coordination Sequence:
#
# PCOD8014201 Si02
#       8
#     2   2   2   2   2   2   2   2
#     4  11  22  40  71  95 125 171 222 260 319 385
#     4  12  22  43  68  94 128 174 221 265 319 383
#     4  10  21  41  65  95 131 167 214 268 312 388
#     4  11  25  43  65  95 137 174 206 271 331 376
#     4  11  21  42  71  98 128 169 216 268 318 387
#     4  11  26  42  64  98 135 166 222 272 316 391
#     4  11  23  40  67  95 130 169 214 262 325 381
#     4  11  23  43  66  93 132 174 216 266 325 380
#
# _framework density 20.411750000000001
#
# number of rings (size 3 to 8) (size 9 to 14) (size 15 to 20)
#    0.000    1.000    6.250    1.875    1.750    2.000 
#    0.000    3.125    0.000    0.000    0.000    0.000 
#    0.000    0.000    0.000    0.000    0.000    0.000 
#
# Total GULP energy -198316.964143 kJ/mol
# GULP energy per Si atom -12394.810259 kJ/mol
# Density = 2.036529 g / cm^3
# Si number density = 20.411750 Si / 1000 Ang^3
#
#
#
# Elastic Constant Matrix: (Units=GPa)
#
#
# Indices 1 2 3 4 5 6 
#
# 1 296.6051 108.8689 -177.3412 245.5518 52.9122 -39.0410
# 2 108.8689 157.6378 -11.5648 59.5561 15.0401 -33.2692
# 3 -177.3412 -11.5648 337.1548 -271.0127 -41.9012 0.1364
# 4 245.5518 59.5561 -271.0127 326.7119 48.6637 -12.0997
# 5 52.9122 15.0401 -41.9012 48.6637 33.6177 -2.9285
# 6 -39.0410 -33.2692 0.1364 -12.0997 -2.9285 41.6408
#
#
#
# Elastic Compliance Matrix: (Units=1/GPa)
#
#
# Indices 1 2 3 4 5 6 
#
# 1 0.014708 -0.004235 -0.001522 -0.010109 -0.007915 0.006917
# 2 -0.004235 0.010016 -0.002023 -0.000223 0.000334 0.003997
# 3 -0.001522 -0.002023 0.009950 0.009463 0.001987 -0.000186
# 4 -0.010109 -0.000223 0.009463 0.018236 0.001033 -0.004316
# 5 -0.007915 0.000334 0.001987 0.001033 0.042699 -0.003857
# 6 0.006917 0.003997 -0.000186 -0.004316 -0.003857 0.032169
#
#
# Mechanical properties :
#
#
# Convention : Reuss Voigt Hill
#
# Bulk Modulus (GPa) = 52.31745 70.14706 61.23225
# Shear Modulus (GPa) = 33.39827 138.48972 85.94400
#
# Velocity S-wave (km/s) = 4.04942 8.24593 6.49589
# Velocity P-wave (km/s) = 6.89568 11.18486 9.29116
#
# Compressibility (1/GPa) = 0.01911408
#
# Stress axis : x y z
#
# Youngs Moduli (GPa) = 67.99194 99.84049 100.50102
#
# Poissons Ratio (x) = 0.42282 0.15291
# Poissons Ratio (y) = 0.28794 0.20335
# Poissons Ratio (z) = 0.10345 0.20201
#
# Static dielectric constant tensor:
#      x y z
#    x 3.729260 -0.253540 0.213860 
#    y -0.253540 3.996970 -0.146130 
#    z 0.213860 -0.146130 3.828430 
# 
# 
# High freq. dielectric constant tensor:
#      x y z
#    x 1.784240 -0.016460 0.015010 
#    y -0.016460 1.811290 -0.013840 
#    z 0.015010 -0.013840 1.810460 
# 
# From -- ./inp_files/272561.got.cif
#   From: 2010.06.25/outbox.cif.g09.slc.cpg/sg2_137_cif.got.tgz:272561.got - 2010.06.27 13:26:56.
