data_PCOD8014540
_publ_section_title
;
Structure prediction by ZEFSAII (Michael W. Deem and Ramdas Pophale) SiO2 
 PCOD8014540
Probable space group: P -1
;
_chemical_formula_sum "Si O2"
_cell_formula_units_Z 16
_cell_length_a 15.369471
_cell_length_b 11.328158
_cell_length_c 8.870616
_cell_angle_alpha 27.950618
_cell_angle_beta 84.342349
_cell_angle_gamma 73.385327
_cell_volume 651.625732
_symmetry_space_group_name_H-M "P -1"
_symmetry_group_IT_number 2
_symmetry_cell_setting 'triclinic'
loop_
_space_group_symop_operation_xyz
x,y,z
-x,-y,-z
loop_
_atom_site_type_symbol
_atom_site_label
_atom_site_fract_x
_atom_site_fract_y
_atom_site_fract_z
Si Si1 0.951579 0.831439 0.113951
Si Si2 0.654564 0.823358 0.278684
Si Si3 0.825343 0.840884 0.360597
Si Si4 0.608430 0.426329 0.515108
Si Si5 0.642649 0.338334 0.277354
Si Si6 0.985000 0.317377 0.041760
Si Si7 0.480640 0.176655 0.451084
Si Si8 0.157807 0.946591 0.583315
O O1 0.843292 0.953067 0.068577
O O2 0.000000 0.500000 0.500000
O O3 0.955437 0.893608 0.866456
O O4 0.000000 0.000000 0.000000
O O5 0.750188 0.701253 0.507728
O O6 0.654347 0.588219 0.430181
O O7 0.560104 0.932320 0.278612
O O8 0.662230 0.091150 0.900440
O O9 0.791914 0.067646 0.245721
O O10 0.931965 0.626480 0.638965
O O11 0.500000 0.500000 0.500000
O O12 0.622297 0.508991 0.247154
O O13 0.582950 0.154277 0.516734
O O14 0.756255 0.153082 0.441924
O O15 0.598956 0.520126 0.928770
O O16 0.073835 0.264283 0.203942
O O17 0.900541 0.241982 0.206679
O O18 0.500000 0.000000 0.500000
#
# Coordination Sequence:
#
# PCOD8014540 Si02
#       8
#     2   2   2   2   2   2   2   2
#     4  10  21  41  68  94 133 182 237 289 347 416
#     4  12  28  45  79 106 148 196 243 302 367 441
#     4  11  24  43  71 102 143 187 249 290 360 438
#     4  12  27  51  72 108 150 195 243 304 374 437
#     4  11  26  43  73 106 145 186 248 300 363 443
#     4  10  23  43  66 101 139 193 234 300 362 420
#     4  11  24  45  73 105 140 194 235 304 371 435
#     4  11  23  43  69 101 145 184 241 301 365 424
#
# _framework density 24.553972000000002
#
# number of rings (size 3 to 8) (size 9 to 14) (size 15 to 20)
#    0.000    1.000    2.500    3.000    8.750    0.000 
#    0.000    0.000    0.000    0.000    0.000    0.000 
#    0.000    0.000    0.000    0.000    0.000    0.000 
#
# Total GULP energy -198216.129196 kJ/mol
# GULP energy per Si atom -12388.508075 kJ/mol
# Density = 2.449809 g / cm^3
# Si number density = 24.553972 Si / 1000 Ang^3
#
#
#
# Elastic Constant Matrix: (Units=GPa)
#
#
# Indices 1 2 3 4 5 6 
#
# 1 177.8400 73.5865 19.0364 2.4387 -7.0976 0.2530
# 2 73.5865 143.1699 2.9232 17.6574 -10.4980 3.4660
# 3 19.0364 2.9232 54.1559 -3.7544 -8.5190 0.8359
# 4 2.4387 17.6574 -3.7544 36.9749 -0.3072 -9.0561
# 5 -7.0976 -10.4980 -8.5190 -0.3072 35.7249 -2.4533
# 6 0.2530 3.4660 0.8359 -9.0561 -2.4533 57.5370
#
#
#
# Elastic Compliance Matrix: (Units=1/GPa)
#
#
# Indices 1 2 3 4 5 6 
#
# 1 0.007502 -0.003990 -0.002372 0.001274 -0.000207 0.000434
# 2 -0.003990 0.009772 0.000918 -0.004589 0.002175 -0.001214
# 3 -0.002372 0.000918 0.020101 0.001834 0.004618 0.000149
# 4 0.001274 -0.004589 0.001834 0.030577 -0.000048 0.005055
# 5 -0.000207 0.002175 0.004618 -0.000048 0.029763 0.001064
# 6 0.000434 -0.001214 0.000149 0.005055 0.001064 0.018290
#
#
# Mechanical properties :
#
#
# Convention : Reuss Voigt Hill
#
# Bulk Modulus (GPa) = 37.75782 62.91757 50.33770
# Shear Modulus (GPa) = 36.83992 44.68868 40.76430
#
# Velocity S-wave (km/s) = 3.87766 4.27080 4.07897
# Velocity P-wave (km/s) = 5.95476 7.07103 6.53676
#
# Compressibility (1/GPa) = 0.02648458
#
# Stress axis : x y z
#
# Youngs Moduli (GPa) = 133.30401 102.33655 49.74919
#
# Poissons Ratio (x) = 0.40833 0.11803
# Poissons Ratio (y) = 0.53190 -0.04566
# Poissons Ratio (z) = 0.31626 -0.09392
#
# Static dielectric constant tensor:
#      x y z
#    x 4.548530 -0.143880 0.281590 
#    y -0.143880 4.576320 0.267940 
#    z 0.281590 0.267940 5.035930 
# 
# 
# High freq. dielectric constant tensor:
#      x y z
#    x 1.980710 -0.001640 0.000440 
#    y -0.001640 1.995450 0.013710 
#    z 0.000440 0.013710 1.960560 
# 
# From -- ./inp_files/107297.got.cif
#   From: 2010.06.25/outbox.cif.g09.slc.cpg/sg2_54_cif.got.tgz:107297.got - 2010.06.27 13:26:56.
