data_PCOD8014811
_publ_section_title
;
Structure prediction by ZEFSAII (Michael W. Deem and Ramdas Pophale) SiO2 
 PCOD8014811
Probable space group: P -1
;
_chemical_formula_sum "Si O2"
_cell_formula_units_Z 16
_cell_length_a 6.420291
_cell_length_b 18.551253
_cell_length_c 11.375787
_cell_angle_alpha 59.777154
_cell_angle_beta 106.663847
_cell_angle_gamma 65.185696
_cell_volume 820.932253
_symmetry_space_group_name_H-M "P -1"
_symmetry_group_IT_number 2
_symmetry_cell_setting 'triclinic'
loop_
_space_group_symop_operation_xyz
x,y,z
-x,-y,-z
loop_
_atom_site_type_symbol
_atom_site_label
_atom_site_fract_x
_atom_site_fract_y
_atom_site_fract_z
Si Si1 0.017876 0.758407 0.236807
Si Si2 0.813550 0.848620 0.609984
Si Si3 0.142552 0.373983 0.755397
Si Si4 0.307174 0.375375 0.524631
Si Si5 0.863227 0.965505 0.923353
Si Si6 0.245721 0.211287 0.580935
Si Si7 0.661735 0.066683 0.365218
Si Si8 0.737352 0.184475 0.110680
O O1 0.367625 0.677681 0.350871
O O2 0.934880 0.703744 0.181916
O O3 0.941670 0.762167 0.356902
O O4 0.840250 0.885735 0.058131
O O5 0.938233 0.764963 0.586634
O O6 0.574344 0.851864 0.635767
O O7 0.077302 0.808425 0.772544
O O8 0.639075 0.973171 0.421638
O O9 0.147173 0.390261 0.605197
O O10 0.889063 0.499335 0.669624
O O11 0.460575 0.311822 0.916483
O O12 0.318440 0.290415 0.514984
O O13 0.065047 0.897835 0.897642
O O14 0.545815 0.079439 0.736674
O O15 0.000000 0.000000 0.000000
O O16 0.584237 0.142130 0.177505
O O17 0.000000 0.000000 0.500000
#
# Coordination Sequence:
#
# PCOD8014811 Si02
#       8
#     2   2   2   2   2   2   2   2
#     4  11  22  38  61  90 117 161 193 245 315 353
#     4  10  22  38  56  85 120 165 198 239 291 358
#     4  10  22  39  64  86 118 156 207 251 290 357
#     4  10  21  42  59  89 120 155 201 251 301 351
#     4  12  22  37  58  94 129 149 190 250 308 362
#     4  11  23  37  60  87 126 159 191 242 303 366
#     4   9  19  35  55  81 115 158 201 235 285 343
#     4  11  23  38  59  90 119 161 201 244 292 350
#
# _framework density 19.490037999999998
#
# number of rings (size 3 to 8) (size 9 to 14) (size 15 to 20)
#    0.000    1.500    2.500    3.750    5.250    2.000 
#    0.000    0.625    0.000    1.500    0.000    0.000 
#    0.000    0.000    0.000    0.000    0.000    0.000 
#
# Total GULP energy -198305.757920 kJ/mol
# GULP energy per Si atom -12394.109870 kJ/mol
# Density = 1.944568 g / cm^3
# Si number density = 19.490038 Si / 1000 Ang^3
#
#
#
# Elastic Constant Matrix: (Units=GPa)
#
#
# Indices 1 2 3 4 5 6 
#
# 1 92.8189 43.6056 21.0875 2.0964 -4.3257 10.4488
# 2 43.6056 109.8762 67.0977 0.4528 5.6904 14.4073
# 3 21.0875 67.0977 80.4381 -5.7773 8.2521 19.0848
# 4 2.0964 0.4528 -5.7773 37.8825 -3.0244 -0.5301
# 5 -4.3257 5.6904 8.2521 -3.0244 28.7023 3.2371
# 6 10.4488 14.4073 19.0848 -0.5301 3.2371 24.4434
#
#
#
# Elastic Compliance Matrix: (Units=1/GPa)
#
#
# Indices 1 2 3 4 5 6 
#
# 1 0.014009 -0.006810 0.002755 -0.000084 0.003173 -0.004548
# 2 -0.006810 0.022174 -0.017676 -0.002615 -0.001036 0.003723
# 3 0.002755 -0.017676 0.030371 0.004272 -0.002782 -0.014011
# 4 -0.000084 -0.002615 0.004272 0.027249 0.002315 -0.001474
# 5 0.003173 -0.001036 -0.002782 0.002315 0.036953 -0.003418
# 6 -0.004548 0.003723 -0.014011 -0.001474 -0.003418 0.052020
#
#
# Mechanical properties :
#
#
# Convention : Reuss Voigt Hill
#
# Bulk Modulus (GPa) = 43.30458 60.74607 52.02533
# Shear Modulus (GPa) = 21.37347 28.29514 24.83431
#
# Velocity S-wave (km/s) = 3.31514 3.81435 3.57347
# Velocity P-wave (km/s) = 6.07623 7.11579 6.61646
#
# Compressibility (1/GPa) = 0.02309224
#
# Stress axis : x y z
#
# Youngs Moduli (GPa) = 71.38491 45.09740 32.92646
#
# Poissons Ratio (x) = 0.30710 -0.09072
# Poissons Ratio (y) = 0.48611 0.58202
# Poissons Ratio (z) = -0.19669 0.79715
#
# Static dielectric constant tensor:
#      x y z
#    x 3.867820 0.120410 -0.281740 
#    y 0.120410 3.634720 -0.125490 
#    z -0.281740 -0.125490 3.695880 
# 
# 
# High freq. dielectric constant tensor:
#      x y z
#    x 1.769270 0.005610 0.000610 
#    y 0.005610 1.745150 0.001420 
#    z 0.000610 0.001420 1.749200 
# 
# From -- ./inp_files/69018.got.cif
#   From: 2010.06.25/outbox.cif.g09.slc.cpg/sg2_35_cif.got.tgz:69018.got - 2010.06.27 13:26:56.
