data_PCOD8014989
_publ_section_title
;
Structure prediction by ZEFSAII (Michael W. Deem and Ramdas Pophale) SiO2 
 PCOD8014989
Probable space group: P -1
;
_chemical_formula_sum "Si O2"
_cell_formula_units_Z 16
_cell_length_a 14.337694
_cell_length_b 11.134259
_cell_length_c 6.234523
_cell_angle_alpha 99.820353
_cell_angle_beta 78.997702
_cell_angle_gamma 49.822188
_cell_volume 686.849987
_symmetry_space_group_name_H-M "P -1"
_symmetry_group_IT_number 2
_symmetry_cell_setting 'triclinic'
loop_
_space_group_symop_operation_xyz
x,y,z
-x,-y,-z
loop_
_atom_site_type_symbol
_atom_site_label
_atom_site_fract_x
_atom_site_fract_y
_atom_site_fract_z
Si Si1 0.391394 0.097396 0.369689
Si Si2 0.805116 0.401056 0.202551
Si Si3 0.737071 0.695958 0.111876
Si Si4 0.128619 0.311030 0.325464
Si Si5 0.412083 0.499820 0.375771
Si Si6 0.972163 0.861910 0.665939
Si Si7 0.804601 0.239415 0.763407
Si Si8 0.478061 0.207127 0.046315
O O1 0.382480 0.127001 0.643478
O O2 0.240889 0.262262 0.417242
O O3 0.491329 0.103899 0.213159
O O4 0.419643 0.933192 0.224936
O O5 0.824004 0.525912 0.168108
O O6 0.687215 0.502301 0.458641
O O7 0.944763 0.222060 0.174118
O O8 0.752776 0.366102 0.020620
O O9 0.830955 0.707924 0.950371
O O10 0.668562 0.671759 0.956058
O O11 0.105236 0.192369 0.355997
O O12 0.000000 0.500000 0.500000
O O13 0.500000 0.500000 0.500000
O O14 0.320860 0.668534 0.315078
O O15 0.504650 0.324052 0.140373
O O16 0.073511 0.797971 0.409683
O O17 0.856888 0.066286 0.786638
#
# Coordination Sequence:
#
# PCOD8014989 Si02
#       8
#     2   2   2   2   2   2   2   2
#     4  10  22  40  64  95 132 179 221 273 346 397
#     4  11  21  39  68  94 131 175 225 268 341 406
#     4  11  21  39  68  99 132 183 219 271 347 403
#     4  11  24  39  62 100 140 170 226 281 328 404
#     4  11  24  42  67 101 130 171 229 284 336 401
#     4  10  23  41  64  94 134 176 223 276 329 405
#     4  10  22  44  66  92 131 181 221 278 340 393
#     4  10  21  42  64  94 136 172 226 282 330 410
#
# _framework density 23.294751999999999
#
# number of rings (size 3 to 8) (size 9 to 14) (size 15 to 20)
#    0.000    1.500    2.500    2.250    3.500    4.500 
#    2.250    0.000    0.000    0.000    0.000    0.000 
#    0.000    0.000    0.000    0.000    0.000    0.000 
#
# Total GULP energy -198351.355255 kJ/mol
# GULP energy per Si atom -12396.959703 kJ/mol
# Density = 2.324173 g / cm^3
# Si number density = 23.294752 Si / 1000 Ang^3
#
#
#
# Elastic Constant Matrix: (Units=GPa)
#
#
# Indices 1 2 3 4 5 6 
#
# 1 79.7531 33.3897 28.2836 -0.2617 19.5305 10.7242
# 2 33.3897 132.4256 44.4269 1.8456 10.7650 16.8467
# 3 28.2836 44.4269 119.3672 12.9769 18.2917 10.7405
# 4 -0.2617 1.8456 12.9769 42.1268 2.2351 5.6782
# 5 19.5305 10.7650 18.2917 2.2351 35.8118 -2.9708
# 6 10.7242 16.8467 10.7405 5.6782 -2.9708 36.7341
#
#
#
# Elastic Compliance Matrix: (Units=1/GPa)
#
#
# Indices 1 2 3 4 5 6 
#
# 1 0.016676 -0.002514 -0.001605 0.001690 -0.007969 -0.004152
# 2 -0.002514 0.009491 -0.002695 0.000823 -0.000405 -0.002991
# 3 -0.001605 -0.002695 0.010760 -0.002832 -0.003742 -0.001306
# 4 0.001690 0.000823 -0.002832 0.025220 -0.001635 -0.004074
# 5 -0.007969 -0.000405 -0.003742 -0.001635 0.034960 0.006686
# 6 -0.004152 -0.002991 -0.001306 -0.004074 0.006686 0.031359
#
#
# Mechanical properties :
#
#
# Convention : Reuss Voigt Hill
#
# Bulk Modulus (GPa) = 42.91985 60.41626 51.66806
# Shear Modulus (GPa) = 33.36459 37.96424 35.66441
#
# Velocity S-wave (km/s) = 3.78865 4.04138 3.91705
# Velocity P-wave (km/s) = 6.13214 6.91150 6.53345
#
# Compressibility (1/GPa) = 0.02329924
#
# Stress axis : x y z
#
# Youngs Moduli (GPa) = 59.96802 105.35840 92.93948
#
# Poissons Ratio (x) = 0.26485 0.14914
# Poissons Ratio (y) = 0.15075 0.25050
# Poissons Ratio (z) = 0.09623 0.28397
#
# Static dielectric constant tensor:
#      x y z
#    x 4.131860 0.091930 0.357660 
#    y 0.091930 4.509530 0.077560 
#    z 0.357660 0.077560 4.698340 
# 
# 
# High freq. dielectric constant tensor:
#      x y z
#    x 1.890760 -0.008200 0.008060 
#    y -0.008200 1.940690 -0.001890 
#    z 0.008060 -0.001890 1.926980 
# 
# From -- ./inp_files/95147.got.cif
#   From: 2010.06.25/outbox.cif.g09.slc.cpg/sg2_48_cif.got.tgz:95147.got - 2010.06.27 13:26:56.
