data_PCOD8014841
_publ_section_title
;
Structure prediction by ZEFSAII (Michael W. Deem and Ramdas Pophale) SiO2 
 PCOD8014841
Probable space group: P -1
;
_chemical_formula_sum "Si O2"
_cell_formula_units_Z 14
_cell_length_a 21.277791
_cell_length_b 8.299087
_cell_length_c 7.329353
_cell_angle_alpha 93.375705
_cell_angle_beta 46.393642
_cell_angle_gamma 126.896217
_cell_volume 591.931974
_symmetry_space_group_name_H-M "P -1"
_symmetry_group_IT_number 2
_symmetry_cell_setting 'triclinic'
loop_
_space_group_symop_operation_xyz
x,y,z
-x,-y,-z
loop_
_atom_site_type_symbol
_atom_site_label
_atom_site_fract_x
_atom_site_fract_y
_atom_site_fract_z
Si Si1 0.681027 0.819994 0.891232
Si Si2 0.637675 0.284205 0.177838
Si Si3 0.100028 0.462782 0.784211
Si Si4 0.202057 0.928894 0.683689
Si Si5 0.142699 0.655602 0.310162
Si Si6 0.698805 0.512115 0.702388
Si Si7 0.378456 0.448189 0.507262
O O1 0.749358 0.741197 0.730420
O O2 0.683427 0.908797 0.693516
O O3 0.764414 0.050991 0.879258
O O4 0.525915 0.580635 0.258212
O O5 0.660023 0.483814 0.251437
O O6 0.500000 0.000000 0.500000
O O7 0.773135 0.370985 0.952674
O O8 0.620907 0.287047 0.991530
O O9 0.170272 0.697649 0.798606
O O10 0.111772 0.565977 0.573028
O O11 0.174132 0.398270 0.637972
O O12 0.939646 0.202040 0.126716
O O13 0.263224 0.139663 0.727184
O O14 0.000000 0.500000 0.500000
O O15 0.608688 0.442224 0.707075
#
# Coordination Sequence:
#
# PCOD8014841 Si02
#       7
#     2   2   2   2   2   2   2
#     4  10  21  42  61  93 133 163 221 268 315 391
#     4  11  24  45  63  97 133 165 223 268 311 398
#     4   9  20  39  61  95 127 167 221 262 313 397
#     4   9  19  37  62  88 126 163 212 260 316 379
#     4  10  22  42  63  89 134 172 210 272 325 373
#     4  10  23  41  66  94 127 171 209 271 326 371
#     4  11  23  42  65  95 130 174 210 268 326 380
#
# _framework density 23.651363
#
# number of rings (size 3 to 8) (size 9 to 14) (size 15 to 20)
#    0.000    2.000    1.429    1.714    0.000    9.143 
#    7.714    2.857    0.000    0.000    0.000    0.000 
#    0.000    0.000    0.000    0.000    0.000    0.000 
#
# Total GULP energy -173455.218751 kJ/mol
# GULP energy per Si atom -12389.658482 kJ/mol
# Density = 2.359753 g / cm^3
# Si number density = 23.651363 Si / 1000 Ang^3
#
#
#
# Elastic Constant Matrix: (Units=GPa)
#
#
# Indices 1 2 3 4 5 6 
#
# 1 62.2520 13.0938 21.3960 1.4863 -7.3335 -6.9306
# 2 13.0938 175.4352 55.7973 9.7673 -38.8605 -13.7628
# 3 21.3960 55.7973 114.5098 6.7655 -28.5308 -7.4381
# 4 1.4863 9.7673 6.7655 43.7871 -4.4302 -10.8588
# 5 -7.3335 -38.8605 -28.5308 -4.4302 45.0170 11.4504
# 6 -6.9306 -13.7628 -7.4381 -10.8588 11.4504 27.6443
#
#
#
# Elastic Compliance Matrix: (Units=1/GPa)
#
#
# Indices 1 2 3 4 5 6 
#
# 1 0.017535 -0.000097 -0.003042 0.000855 -0.000061 0.003890
# 2 -0.000097 0.007636 -0.002424 -0.000618 0.004745 0.000917
# 3 -0.003042 -0.002424 0.011720 -0.000976 0.005075 -0.001302
# 4 0.000855 -0.000618 -0.000976 0.025494 -0.001074 0.010103
# 5 -0.000061 0.004745 0.005075 -0.001074 0.031939 -0.009938
# 6 0.003890 0.000917 -0.001302 0.010103 -0.009938 0.045340
#
#
# Mechanical properties :
#
#
# Convention : Reuss Voigt Hill
#
# Bulk Modulus (GPa) = 38.81310 59.19680 49.00495
# Shear Modulus (GPa) = 31.37169 40.75034 36.06102
#
# Velocity S-wave (km/s) = 3.64596 4.15536 3.90897
# Velocity P-wave (km/s) = 5.84552 6.93584 6.41389
#
# Compressibility (1/GPa) = 0.02576450
#
# Stress axis : x y z
#
# Youngs Moduli (GPa) = 57.02788 130.96154 85.32400
#
# Poissons Ratio (x) = 0.01271 0.25956
# Poissons Ratio (y) = 0.00554 0.20684
# Poissons Ratio (z) = 0.17348 0.31747
#
# Static dielectric constant tensor:
#      x y z
#    x 4.016260 -0.132380 0.043250 
#    y -0.132380 4.719540 0.207360 
#    z 0.043250 0.207360 4.372780 
# 
# 
# High freq. dielectric constant tensor:
#      x y z
#    x 1.910520 -0.013610 0.005230 
#    y -0.013610 1.945650 0.014660 
#    z 0.005230 0.014660 1.943850 
# 
# From -- ./inp_files/328795.got.cif
#   From: 2010.06.25/outbox.cif.g09.slc.cpg/sg2_165_cif.got.tgz:328795.got - 2010.06.27 13:26:56.
