data_PCOD8014047
_publ_section_title
;
Structure prediction by ZEFSAII (Michael W. Deem and Ramdas Pophale) SiO2 
 PCOD8014047
Probable space group: P -1
;
_chemical_formula_sum "Si O2"
_cell_formula_units_Z 14
_cell_length_a 8.078731
_cell_length_b 11.817501
_cell_length_c 15.488576
_cell_angle_alpha 26.875684
_cell_angle_beta 66.230931
_cell_angle_gamma 70.822653
_cell_volume 610.033122
_symmetry_space_group_name_H-M "P -1"
_symmetry_group_IT_number 2
_symmetry_cell_setting 'triclinic'
loop_
_space_group_symop_operation_xyz
x,y,z
-x,-y,-z
loop_
_atom_site_type_symbol
_atom_site_label
_atom_site_fract_x
_atom_site_fract_y
_atom_site_fract_z
Si Si1 0.806625 0.272049 0.382794
Si Si2 0.356926 0.741641 0.022438
Si Si3 0.935020 0.991613 0.378151
Si Si4 0.975056 0.221603 0.036457
Si Si5 0.224357 0.920274 0.095724
Si Si6 0.445243 0.233688 0.406782
Si Si7 0.493325 0.767850 0.273666
O O1 0.866108 0.135407 0.376968
O O2 0.584822 0.256915 0.443401
O O3 0.882067 0.555765 0.169944
O O4 0.890994 0.154577 0.530503
O O5 0.233109 0.723454 0.975085
O O6 0.471622 0.495869 0.168952
O O7 0.219717 0.738092 0.137222
O O8 0.487283 0.999932 0.819030
O O9 0.768824 0.809949 0.496036
O O10 0.002059 0.179110 0.161010
O O11 0.026052 0.989250 0.122383
O O12 0.303573 0.774810 0.259395
O O13 0.349159 0.177215 0.869548
O O14 0.500000 0.000000 0.500000
O O15 0.500000 0.500000 0.500000
#
# Coordination Sequence:
#
# PCOD8014047 Si02
#       7
#     2   2   2   2   2   2   2
#     4  10  22  43  68  89 136 171 221 279 338 379
#     4  10  21  41  64  94 137 171 217 281 323 394
#     4  10  23  43  64  99 127 175 225 275 327 406
#     4  12  22  41  64  98 135 174 221 276 333 398
#     4   9  22  40  61  92 136 171 217 268 332 390
#     4  10  21  44  69  93 130 178 219 275 339 383
#     4   9  20  41  63  91 133 174 228 266 324 397
#
# _framework density 22.949573000000001
#
# number of rings (size 3 to 8) (size 9 to 14) (size 15 to 20)
#    0.857    1.143    1.429    1.714    0.000    2.286 
#    5.143    2.857    0.000    0.000    0.000    0.000 
#    0.000    0.000    0.000    0.000    0.000    0.000 
#
# Total GULP energy -173444.684720 kJ/mol
# GULP energy per Si atom -12388.906051 kJ/mol
# Density = 2.289734 g / cm^3
# Si number density = 22.949573 Si / 1000 Ang^3
#
#
#
# Elastic Constant Matrix: (Units=GPa)
#
#
# Indices 1 2 3 4 5 6 
#
# 1 136.7355 28.9364 36.4771 -7.6680 45.3644 12.7883
# 2 28.9364 30.3433 46.1524 -4.3713 6.3841 6.5228
# 3 36.4771 46.1524 126.4428 -24.7883 43.5709 7.2953
# 4 -7.6680 -4.3713 -24.7883 31.3530 9.0468 3.9312
# 5 45.3644 6.3841 43.5709 9.0468 32.8374 -4.1318
# 6 12.7883 6.5228 7.2953 3.9312 -4.1318 26.9999
#
#
#
# Elastic Compliance Matrix: (Units=1/GPa)
#
#
# Indices 1 2 3 4 5 6 
#
# 1 0.002459 0.010663 -0.012236 -0.012245 0.014590 0.003581
# 2 0.010663 0.026766 0.010110 0.030517 -0.044976 -0.025575
# 3 -0.012236 0.010110 -0.006284 -0.016512 0.029329 0.011943
# 4 -0.012245 0.030517 -0.016512 0.010459 0.030776 0.006076
# 5 0.014590 -0.044976 0.029329 0.030776 -0.029994 -0.013041
# 6 0.003581 -0.025575 0.011943 0.006076 -0.013041 0.035412
#
#
# Mechanical properties :
#
#
# Convention : Reuss Voigt Hill
#
# Bulk Modulus (GPa) = 24.99048 57.40594 41.19821
# Shear Modulus (GPa) = 142.52577 30.36844 86.44711
#
# Velocity S-wave (km/s) = 7.88915 3.64162 6.14411
# Velocity P-wave (km/s) = 9.69009 6.53836 8.26583
#
# Compressibility (1/GPa) = 0.04001524
#
# Stress axis : x y z
#
# Youngs Moduli (GPa) = 406.69003 37.36063 -159.13393
#
# Poissons Ratio (x) = -0.39838 -1.94723
# Poissons Ratio (y) = -4.33660 1.60891
# Poissons Ratio (z) = 4.97644 -0.37773
#
# Static dielectric constant tensor:
#      x y z
#    x 4.515610 0.089210 0.207890 
#    y 0.089210 3.766910 -0.203550 
#    z 0.207890 -0.203550 3.906770 
# 
# 
# High freq. dielectric constant tensor:
#      x y z
#    x 1.913490 0.009640 0.021170 
#    y 0.009640 1.879980 -0.018050 
#    z 0.021170 -0.018050 1.893230 
# 
# From -- ./inp_files/499646.got.cif
#   From: 2010.06.25/outbox.cif.g09.slc.cpg/sg2_250_cif.got.tgz:499646.got - 2010.06.27 13:26:56.
