data_PCOD8014549
_publ_section_title
;
Structure prediction by ZEFSAII (Michael W. Deem and Ramdas Pophale) SiO2 
 PCOD8014549
Probable space group: P -1
;
_chemical_formula_sum "Si O2"
_cell_formula_units_Z 16
_cell_length_a 8.644927
_cell_length_b 21.320570
_cell_length_c 11.636634
_cell_angle_alpha 20.710558
_cell_angle_beta 99.734282
_cell_angle_gamma 96.817931
_cell_volume 742.782358
_symmetry_space_group_name_H-M "P -1"
_symmetry_group_IT_number 2
_symmetry_cell_setting 'triclinic'
loop_
_space_group_symop_operation_xyz
x,y,z
-x,-y,-z
loop_
_atom_site_type_symbol
_atom_site_label
_atom_site_fract_x
_atom_site_fract_y
_atom_site_fract_z
Si Si1 0.873700 0.640791 0.805912
Si Si2 0.631861 0.005850 0.841592
Si Si3 0.427200 0.090187 0.448663
Si Si4 0.554911 0.724824 0.478428
Si Si5 0.078979 0.960320 0.324653
Si Si6 0.690793 0.521850 0.200034
Si Si7 0.096792 0.660631 0.268624
Si Si8 0.834634 0.111087 0.300914
O O1 0.712265 0.674084 0.657951
O O2 0.945913 0.828643 0.509126
O O3 0.825469 0.557977 0.062678
O O4 0.000000 0.500000 0.000000
O O5 0.529895 0.053588 0.635765
O O6 0.575723 0.139803 0.706494
O O7 0.814526 0.024427 0.801878
O O8 0.608970 0.807358 0.223457
O O9 0.500000 0.000000 0.500000
O O10 0.269767 0.000180 0.602123
O O11 0.382781 0.296617 0.061425
O O12 0.463354 0.553489 0.741997
O O13 0.196749 0.875173 0.588793
O O14 0.006899 0.160614 0.005343
O O15 0.769989 0.391946 0.530136
O O16 0.000000 0.500000 0.500000
O O17 0.173041 0.697504 0.090560
O O18 0.000000 0.000000 0.500000
#
# Coordination Sequence:
#
# PCOD8014549 Si02
#       8
#     2   2   2   2   2   2   2   2
#     4  12  27  44  72 102 136 184 239 290 349 410
#     4  11  25  46  71  97 140 184 236 277 354 415
#     4  12  24  44  71 100 135 185 229 282 352 417
#     4  11  27  46  71  99 141 185 232 289 346 415
#     4  11  24  44  70  98 139 182 231 289 343 411
#     4  12  25  46  70 103 143 180 234 291 351 415
#     4  11  24  42  69 104 140 179 229 283 348 415
#     4  10  21  41  68  95 132 180 224 272 349 408
#
# _framework density 21.54063
#
# number of rings (size 3 to 8) (size 9 to 14) (size 15 to 20)
#    0.000    0.750    2.500    5.625    7.000    0.500 
#    2.250    1.250    0.000    0.000    0.000    0.000 
#    0.000    0.000    0.000    0.000    0.000    0.000 
#
# Total GULP energy -198316.275010 kJ/mol
# GULP energy per Si atom -12394.767188 kJ/mol
# Density = 2.149160 g / cm^3
# Si number density = 21.540630 Si / 1000 Ang^3
#
#
#
# Elastic Constant Matrix: (Units=GPa)
#
#
# Indices 1 2 3 4 5 6 
#
# 1 109.5699 52.2916 60.5515 -6.2257 -19.8676 2.4398
# 2 52.2916 81.5744 66.5629 3.4065 -8.6199 -5.7306
# 3 60.5515 66.5629 148.9148 -3.1309 -15.0062 -1.1330
# 4 -6.2257 3.4065 -3.1309 52.2068 6.3856 -4.8487
# 5 -19.8676 -8.6199 -15.0062 6.3856 44.2306 -4.8474
# 6 2.4398 -5.7306 -1.1330 -4.8487 -4.8474 47.7238
#
#
#
# Elastic Compliance Matrix: (Units=1/GPa)
#
#
# Indices 1 2 3 4 5 6 
#
# 1 0.014714 -0.007262 -0.002303 0.001488 0.004075 -0.001114
# 2 -0.007262 0.023311 -0.007563 -0.002516 -0.000629 0.002671
# 3 -0.002303 -0.007563 0.011159 0.000718 0.001137 -0.000337
# 4 0.001488 -0.002516 0.000718 0.019954 -0.002302 0.001432
# 5 0.004075 -0.000629 0.001137 -0.002302 0.025262 0.002075
# 6 -0.001114 0.002671 -0.000337 0.001432 0.002075 0.021680
#
#
# Mechanical properties :
#
#
# Convention : Reuss Voigt Hill
#
# Bulk Modulus (GPa) = 66.98910 77.65235 72.32073
# Shear Modulus (GPa) = 32.19303 39.54247 35.86775
#
# Velocity S-wave (km/s) = 3.87010 4.28917 4.08502
# Velocity P-wave (km/s) = 7.15100 7.78825 7.47642
#
# Compressibility (1/GPa) = 0.01492780
#
# Stress axis : x y z
#
# Youngs Moduli (GPa) = 67.96437 42.89735 89.61061
#
# Poissons Ratio (x) = 0.31153 0.20639
# Poissons Ratio (y) = 0.49357 0.67772
# Poissons Ratio (z) = 0.15654 0.32443
#
# Static dielectric constant tensor:
#      x y z
#    x 4.121740 -0.066740 -0.280020 
#    y -0.066740 4.076710 0.415110 
#    z -0.280020 0.415110 4.272700 
# 
# 
# High freq. dielectric constant tensor:
#      x y z
#    x 1.856870 0.005270 -0.014170 
#    y 0.005270 1.853640 0.006610 
#    z -0.014170 0.006610 1.855260 
# 
# From -- ./inp_files/405210.got.cif
#   From: 2010.06.25/outbox.cif.g09.slc.cpg/sg2_203_cif.got.tgz:405210.got - 2010.06.27 13:26:56.
