data_PCOD8014530
_publ_section_title
;
Structure prediction by ZEFSAII (Michael W. Deem and Ramdas Pophale) SiO2 
 PCOD8014530
Probable space group: P -1
;
_chemical_formula_sum "Si O2"
_cell_formula_units_Z 12
_cell_length_a 11.745788
_cell_length_b 8.986758
_cell_length_c 9.109659
_cell_angle_alpha 58.650338
_cell_angle_beta 142.848714
_cell_angle_gamma 108.814411
_cell_volume 487.958014
_symmetry_space_group_name_H-M "P -1"
_symmetry_group_IT_number 2
_symmetry_cell_setting 'triclinic'
loop_
_space_group_symop_operation_xyz
x,y,z
-x,-y,-z
loop_
_atom_site_type_symbol
_atom_site_label
_atom_site_fract_x
_atom_site_fract_y
_atom_site_fract_z
Si Si1 0.366421 0.359391 0.603098
Si Si2 0.788396 0.394880 0.940945
Si Si3 0.317126 0.347526 0.899612
Si Si4 0.059830 0.291364 0.904900
Si Si5 0.865847 0.891807 0.637778
Si Si6 0.737994 0.267722 0.389113
O O1 0.593278 0.359092 0.832647
O O2 0.252257 0.524843 0.306628
O O3 0.291995 0.359429 0.692889
O O4 0.319584 0.178292 0.579285
O O5 0.896114 0.526639 0.075382
O O6 0.935174 0.209322 0.174668
O O7 0.162671 0.252064 0.871154
O O8 0.280092 0.551376 0.817215
O O9 0.522199 0.242906 0.217855
O O10 0.838501 0.293462 0.635389
O O11 0.132543 0.131801 0.171951
O O12 0.840702 0.103052 0.479172
#
# Coordination Sequence:
#
# PCOD8014530 Si02
#       6
#     2   2   2   2   2   2
#     4  10  22  42  66  92 125 167 209 252 310 373
#     4  10  21  41  68  92 122 167 213 254 302 371
#     4  11  24  43  63  90 129 169 206 250 314 378
#     4  11  23  42  68  92 122 166 210 256 309 369
#     4  11  24  41  66  96 124 161 211 263 306 360
#     4  11  24  40  63  95 128 163 206 257 313 368
#
# _framework density 24.592279000000001
#
# number of rings (size 3 to 8) (size 9 to 14) (size 15 to 20)
#    0.000    1.333    0.000    7.000    0.000    6.667 
#    0.000    5.833    0.000    0.000    0.000    0.000 
#    0.000    0.000    0.000    0.000    0.000    0.000 
#
# Total GULP energy -148743.486534 kJ/mol
# GULP energy per Si atom -12395.290545 kJ/mol
# Density = 2.453631 g / cm^3
# Si number density = 24.592279 Si / 1000 Ang^3
#
#
#
# Elastic Constant Matrix: (Units=GPa)
#
#
# Indices 1 2 3 4 5 6 
#
# 1 87.8747 -0.3839 25.5355 -2.2223 -18.7398 -15.2496
# 2 -0.3839 94.9453 61.3148 4.1435 21.2955 -14.0632
# 3 25.5355 61.3148 116.2011 11.9015 18.3310 -15.1304
# 4 -2.2223 4.1435 11.9015 41.7800 -11.8395 3.7390
# 5 -18.7398 21.2955 18.3310 -11.8395 29.3150 3.2162
# 6 -15.2496 -14.0632 -15.1304 3.7390 3.2162 17.1046
#
#
#
# Elastic Compliance Matrix: (Units=1/GPa)
#
#
# Indices 1 2 3 4 5 6 
#
# 1 0.018792 0.001634 -0.007861 0.007689 0.018184 0.006044
# 2 0.001634 0.020358 -0.006154 -0.005631 -0.013994 0.016613
# 3 -0.007861 -0.006154 0.018986 -0.011312 -0.018160 0.010614
# 4 0.007689 -0.005631 -0.011312 0.040047 0.034785 -0.023076
# 5 0.018184 -0.013994 -0.018160 0.034785 0.085143 -0.034971
# 6 0.006044 0.016613 0.010614 -0.023076 -0.034971 0.098521
#
#
# Mechanical properties :
#
#
# Convention : Reuss Voigt Hill
#
# Bulk Modulus (GPa) = 29.96296 52.43931 41.20114
# Shear Modulus (GPa) = 15.73645 31.81023 23.77334
#
# Velocity S-wave (km/s) = 2.53236 3.60043 3.11255
# Velocity P-wave (km/s) = 4.55640 6.21723 5.45045
#
# Compressibility (1/GPa) = 0.03337454
#
# Stress axis : x y z
#
# Youngs Moduli (GPa) = 53.21294 49.12038 52.67157
#
# Poissons Ratio (x) = -0.08024 0.41404
# Poissons Ratio (y) = -0.08692 0.32412
# Poissons Ratio (z) = 0.41829 0.30227
#
# Static dielectric constant tensor:
#      x y z
#    x 4.381490 0.035100 0.075390 
#    y 0.035100 4.290450 0.219340 
#    z 0.075390 0.219340 4.487990 
# 
# 
# High freq. dielectric constant tensor:
#      x y z
#    x 1.970260 -0.006630 0.004600 
#    y -0.006630 1.969510 0.023830 
#    z 0.004600 0.023830 1.988080 
# 
# From -- ./inp_files/242794.got.cif
#   From: 2010.06.25/outbox.cif.g09.slc.cpg/sg2_122_cif.got.tgz:242794.got - 2010.06.27 13:26:56.
