data_PCOD8014270
_publ_section_title
;
Structure prediction by ZEFSAII (Michael W. Deem and Ramdas Pophale) SiO2 
 PCOD8014270
Probable space group: P -1
;
_chemical_formula_sum "Si O2"
_cell_formula_units_Z 12
_cell_length_a 9.599568
_cell_length_b 8.520879
_cell_length_c 12.058192
_cell_angle_alpha 40.290725
_cell_angle_beta 116.158644
_cell_angle_gamma 112.938706
_cell_volume 570.058475
_symmetry_space_group_name_H-M "P -1"
_symmetry_group_IT_number 2
_symmetry_cell_setting 'triclinic'
loop_
_space_group_symop_operation_xyz
x,y,z
-x,-y,-z
loop_
_atom_site_type_symbol
_atom_site_label
_atom_site_fract_x
_atom_site_fract_y
_atom_site_fract_z
Si Si1 0.354270 0.467796 0.658353
Si Si2 0.339521 0.232451 0.405491
Si Si3 0.743949 0.017529 0.701130
Si Si4 0.424685 0.290179 0.007492
Si Si5 0.023605 0.244366 0.197495
Si Si6 0.693641 0.995117 0.256766
O O1 0.539952 0.527786 0.672250
O O2 0.258989 0.691190 0.464100
O O3 0.292027 0.242710 0.682533
O O4 0.325681 0.400730 0.814192
O O5 0.371057 0.061894 0.611930
O O6 0.158600 0.294322 0.312037
O O7 0.373284 0.097144 0.374441
O O8 0.691236 0.907013 0.861190
O O9 0.917644 0.940633 0.775686
O O10 0.567837 0.161823 0.070575
O O11 0.500000 0.500000 0.000000
O O12 0.863170 0.137156 0.252733
O O13 0.000000 0.500000 0.000000
#
# Coordination Sequence:
#
# PCOD8014270 Si02
#       6
#     2   2   2   2   2   2
#     4  12  23  41  66 100 129 160 214 273 312 367
#     4  10  21  41  66  91 125 170 212 253 311 384
#     4  10  23  41  67  89 127 167 220 248 316 376
#     4  12  22  40  68  93 125 171 219 254 307 385
#     4  10  23  43  63  93 127 169 216 256 312 390
#     4  12  24  40  66  98 129 165 209 268 326 361
#
# _framework density 21.050471999999999
#
# number of rings (size 3 to 8) (size 9 to 14) (size 15 to 20)
#    1.000    0.000    3.333    5.000    0.000    0.667 
#    0.000    0.833    0.000    0.000    0.000    0.000 
#    0.000    0.000    0.000    0.000    0.000    0.000 
#
# Total GULP energy -148747.443411 kJ/mol
# GULP energy per Si atom -12395.620284 kJ/mol
# Density = 2.100256 g / cm^3
# Si number density = 21.050472 Si / 1000 Ang^3
#
#
#
# Elastic Constant Matrix: (Units=GPa)
#
#
# Indices 1 2 3 4 5 6 
#
# 1 77.9962 4.2512 35.7230 -3.4867 -7.7458 -3.4000
# 2 4.2512 67.3185 24.4462 -13.4344 -6.3205 -8.6265
# 3 35.7230 24.4462 128.4374 -24.4976 -15.8470 -11.5222
# 4 -3.4867 -13.4344 -24.4976 20.0165 -9.9197 5.9456
# 5 -7.7458 -6.3205 -15.8470 -9.9197 40.8343 -6.1143
# 6 -3.4000 -8.6265 -11.5222 5.9456 -6.1143 25.4554
#
#
#
# Elastic Compliance Matrix: (Units=1/GPa)
#
#
# Indices 1 2 3 4 5 6 
#
# 1 0.014869 0.000325 -0.004592 -0.002785 0.000532 0.000796
# 2 0.000325 0.019240 0.000869 0.016579 0.008160 0.005045
# 3 -0.004592 0.000869 0.014850 0.022273 0.011013 0.003846
# 4 -0.002785 0.016579 0.022273 0.106086 0.036345 -0.000721
# 5 0.000532 0.008160 0.011013 0.036345 0.040306 0.009013
# 6 0.000796 0.005045 0.003846 -0.000721 0.009013 0.045174
#
#
# Mechanical properties :
#
#
# Convention : Reuss Voigt Hill
#
# Bulk Modulus (GPa) = 23.71752 44.73255 34.22504
# Shear Modulus (GPa) = 19.12965 31.21666 25.17316
#
# Velocity S-wave (km/s) = 3.01782 3.85508 3.46185
# Velocity P-wave (km/s) = 4.84091 6.41185 5.68094
#
# Compressibility (1/GPa) = 0.04216292
#
# Stress axis : x y z
#
# Youngs Moduli (GPa) = 67.25191 51.97596 67.34180
#
# Poissons Ratio (x) = -0.01687 0.30921
# Poissons Ratio (y) = -0.02183 -0.05853
# Poissons Ratio (z) = 0.30880 -0.04517
#
# Static dielectric constant tensor:
#      x y z
#    x 3.849940 0.099780 -0.023740 
#    y 0.099780 3.486580 -0.053020 
#    z -0.023740 -0.053020 4.002230 
# 
# 
# High freq. dielectric constant tensor:
#      x y z
#    x 1.818310 -0.000070 -0.001710 
#    y -0.000070 1.796920 -0.010700 
#    z -0.001710 -0.010700 1.841840 
# 
# From -- ./inp_files/191605.got.cif
#   From: 2010.06.25/outbox.cif.g09.slc.cpg/sg2_96_cif.got.tgz:191605.got - 2010.06.27 13:26:56.
