data_PCOD8014078
_publ_section_title
;
Structure prediction by ZEFSAII (Michael W. Deem and Ramdas Pophale) SiO2 
 PCOD8014078
Probable space group: P -1
;
_chemical_formula_sum "Si O2"
_cell_formula_units_Z 16
_cell_length_a 8.641236
_cell_length_b 12.735495
_cell_length_c 8.917800
_cell_angle_alpha 102.081462
_cell_angle_beta 120.785895
_cell_angle_gamma 63.111949
_cell_volume 751.651121
_symmetry_space_group_name_H-M "P -1"
_symmetry_group_IT_number 2
_symmetry_cell_setting 'triclinic'
loop_
_space_group_symop_operation_xyz
x,y,z
-x,-y,-z
loop_
_atom_site_type_symbol
_atom_site_label
_atom_site_fract_x
_atom_site_fract_y
_atom_site_fract_z
Si Si1 0.265382 0.974527 0.978793
Si Si2 0.943990 0.556397 0.324907
Si Si3 0.644189 0.812730 0.304770
Si Si4 0.286994 0.562912 0.993819
Si Si5 0.350494 0.814076 0.391555
Si Si6 0.080765 0.841983 0.005755
Si Si7 0.787472 0.999424 0.383236
Si Si8 0.694985 0.422687 0.654769
O O1 0.475672 0.894852 0.131745
O O2 0.119081 0.907390 0.899903
O O3 0.294949 0.991540 0.823581
O O4 0.152864 0.103146 0.046509
O O5 0.766647 0.684257 0.261623
O O6 0.877189 0.470724 0.171695
O O7 0.000000 0.500000 0.500000
O O8 0.128014 0.569202 0.346094
O O9 0.562221 0.783764 0.410777
O O10 0.786224 0.880850 0.422358
O O11 0.500000 0.500000 0.000000
O O12 0.189314 0.704426 0.983573
O O13 0.313834 0.524535 0.168195
O O14 0.183353 0.881920 0.206736
O O15 0.356178 0.888776 0.560956
O O16 0.298887 0.706668 0.383172
O O17 0.000000 0.000000 0.500000
O O18 0.500000 0.500000 0.500000
#
# Coordination Sequence:
#
# PCOD8014078 Si02
#       8
#     2   2   2   2   2   2   2   2
#     4  10  21  41  64  97 133 180 213 274 326 404
#     4  12  26  47  68 102 136 178 234 288 347 412
#     4  11  25  44  66  94 138 175 223 280 340 408
#     4  11  23  43  72 100 135 184 227 282 344 405
#     4  10  21  42  64  94 133 174 220 279 332 399
#     4   9  20  40  66  93 136 170 221 263 334 396
#     4  12  23  39  65 100 133 175 225 272 341 400
#     4  11  24  45  70  98 137 179 230 290 343 409
#
# _framework density 21.286473000000001
#
# number of rings (size 3 to 8) (size 9 to 14) (size 15 to 20)
#    0.000    1.250    1.250    5.625    1.750    4.000 
#    4.500    0.000    0.000    0.000    0.000    0.000 
#    0.000    0.000    0.000    0.000    0.000    0.000 
#
# Total GULP energy -198280.268114 kJ/mol
# GULP energy per Si atom -12392.516757 kJ/mol
# Density = 2.123802 g / cm^3
# Si number density = 21.286473 Si / 1000 Ang^3
#
#
#
# Elastic Constant Matrix: (Units=GPa)
#
#
# Indices 1 2 3 4 5 6 
#
# 1 160.7333 65.8185 43.6410 1.8831 -13.9946 4.2023
# 2 65.8185 130.7580 57.4384 7.2452 -2.9246 -14.6694
# 3 43.6410 57.4384 80.7819 8.7218 -11.3426 1.9818
# 4 1.8831 7.2452 8.7218 33.4398 -3.7011 2.9469
# 5 -13.9946 -2.9246 -11.3426 -3.7011 34.9863 1.3269
# 6 4.2023 -14.6694 1.9818 2.9469 1.3269 47.6584
#
#
#
# Elastic Compliance Matrix: (Units=1/GPa)
#
#
# Indices 1 2 3 4 5 6 
#
# 1 0.008490 -0.003818 -0.001567 0.001242 0.002777 -0.002013
# 2 -0.003818 0.013716 -0.008130 -0.001456 -0.003363 0.005080
# 3 -0.001567 -0.008130 0.020068 -0.002545 0.005051 -0.003182
# 4 0.001242 -0.001456 -0.002545 0.031360 0.002961 -0.002474
# 5 0.002777 -0.003363 0.005051 0.002961 0.031460 -0.002549
# 6 -0.002013 0.005080 -0.003182 -0.002474 -0.002549 0.023080
#
#
# Mechanical properties :
#
#
# Convention : Reuss Voigt Hill
#
# Bulk Modulus (GPa) = 65.59349 78.45212 72.02281
# Shear Modulus (GPa) = 31.19468 36.90859 34.05164
#
# Velocity S-wave (km/s) = 3.83230 4.16853 4.00394
# Velocity P-wave (km/s) = 7.10377 7.75269 7.43531
#
# Compressibility (1/GPa) = 0.01524541
#
# Stress axis : x y z
#
# Youngs Moduli (GPa) = 117.78423 72.90787 49.83073
#
# Poissons Ratio (x) = 0.27835 0.07808
# Poissons Ratio (y) = 0.44968 0.40510
# Poissons Ratio (z) = 0.18456 0.59271
#
# Static dielectric constant tensor:
#      x y z
#    x 4.133880 -0.015890 -0.126310 
#    y -0.015890 3.998840 0.028750 
#    z -0.126310 0.028750 3.919720 
# 
# 
# High freq. dielectric constant tensor:
#      x y z
#    x 1.856590 0.000670 -0.006240 
#    y 0.000670 1.842610 -0.003440 
#    z -0.006240 -0.003440 1.824750 
# 
# From -- ./inp_files/189550.got.cif
#   From: 2010.06.25/outbox.cif.g09.slc.cpg/sg2_95_cif.got.tgz:189550.got - 2010.06.27 13:26:56.
