data_PCOD8014437
_publ_section_title
;
Structure prediction by ZEFSAII (Michael W. Deem and Ramdas Pophale) SiO2 
 PCOD8014437
Probable space group: P -1
;
_chemical_formula_sum "Si O2"
_cell_formula_units_Z 16
_cell_length_a 17.766587
_cell_length_b 11.493627
_cell_length_c 9.421318
_cell_angle_alpha 55.080301
_cell_angle_beta 93.431119
_cell_angle_gamma 138.157321
_cell_volume 780.988363
_symmetry_space_group_name_H-M "P -1"
_symmetry_group_IT_number 2
_symmetry_cell_setting 'triclinic'
loop_
_space_group_symop_operation_xyz
x,y,z
-x,-y,-z
loop_
_atom_site_type_symbol
_atom_site_label
_atom_site_fract_x
_atom_site_fract_y
_atom_site_fract_z
Si Si1 0.438374 0.304704 0.329065
Si Si2 0.593791 0.194628 0.011428
Si Si3 0.937403 0.762686 0.578725
Si Si4 0.100299 0.742838 0.720596
Si Si5 0.445426 0.803814 0.506151
Si Si6 0.100766 0.272482 0.734013
Si Si7 0.430133 0.202508 0.078256
Si Si8 0.886866 0.398371 0.464278
O O1 0.540266 0.338560 0.361896
O O2 0.415641 0.247034 0.200095
O O3 0.276758 0.056966 0.568262
O O4 0.533711 0.606343 0.156576
O O5 0.768213 0.461621 0.816559
O O6 0.558200 0.292606 0.003252
O O7 0.500000 0.000000 0.000000
O O8 0.561693 0.021576 0.242057
O O9 0.935580 0.799349 0.386734
O O10 0.031111 0.776028 0.627448
O O11 0.000000 0.000000 0.500000
O O12 0.121237 0.667537 0.649424
O O13 0.000000 0.500000 0.000000
O O14 0.275895 0.550270 0.607510
O O15 0.500000 0.000000 0.500000
O O16 0.045674 0.335828 0.729980
O O17 0.000000 0.000000 0.000000
O O18 0.269017 0.860409 0.279562
O O19 0.000000 0.500000 0.500000
#
# Coordination Sequence:
#
# PCOD8014437 Si02
#       8
#     2   2   2   2   2   2   2   2
#     4  10  22  40  69 102 127 170 232 283 326 405
#     4  12  23  44  68  95 141 178 226 277 340 413
#     4  12  27  45  69 102 143 185 223 288 351 407
#     4  11  24  44  69 101 137 179 230 278 352 411
#     4  12  23  44  71 101 135 181 233 280 339 405
#     4  12  28  45  68 108 140 181 237 283 347 420
#     4  10  21  41  67  95 129 173 226 273 334 395
#     4  11  22  44  69  92 134 180 222 281 342 402
#
# _framework density 20.48686
#
# number of rings (size 3 to 8) (size 9 to 14) (size 15 to 20)
#    0.000    0.750    5.000    2.250    5.250    1.000 
#    0.000    0.625    0.000    0.000    0.000    0.000 
#    0.000    0.000    0.000    0.000    0.000    0.000 
#
# Total GULP energy -198232.200937 kJ/mol
# GULP energy per Si atom -12389.512559 kJ/mol
# Density = 2.044023 g / cm^3
# Si number density = 20.486860 Si / 1000 Ang^3
#
#
#
# Elastic Constant Matrix: (Units=GPa)
#
#
# Indices 1 2 3 4 5 6 
#
# 1 123.3446 28.6005 55.0232 -7.8757 17.0809 5.8637
# 2 28.6005 93.7614 46.0802 -1.0405 4.8567 3.1125
# 3 55.0232 46.0802 158.0302 3.7032 17.8206 -6.6287
# 4 -7.8757 -1.0405 3.7032 26.9707 -3.0934 7.4935
# 5 17.0809 4.8567 17.8206 -3.0934 43.1833 1.4454
# 6 5.8637 3.1125 -6.6287 7.4935 1.4454 32.3441
#
#
#
# Elastic Compliance Matrix: (Units=1/GPa)
#
#
# Indices 1 2 3 4 5 6 
#
# 1 0.010628 -0.001352 -0.003286 0.004166 -0.002286 -0.003333
# 2 -0.001352 0.012822 -0.003456 0.001209 0.000673 -0.002007
# 3 -0.003286 -0.003456 0.008993 -0.003638 -0.002408 0.003722
# 4 0.004166 0.001209 -0.003638 0.042419 0.003144 -0.011586
# 5 -0.002286 0.000673 -0.002408 0.003144 0.025271 -0.002001
# 6 -0.003333 -0.002007 0.003722 -0.011586 -0.002001 0.035251
#
#
# Mechanical properties :
#
#
# Convention : Reuss Voigt Hill
#
# Bulk Modulus (GPa) = 61.52354 70.50487 66.01421
# Shear Modulus (GPa) = 31.84916 36.86179 34.35547
#
# Velocity S-wave (km/s) = 3.94714 4.24640 4.09950
# Velocity P-wave (km/s) = 7.13226 7.65062 7.39598
#
# Compressibility (1/GPa) = 0.01625394
#
# Stress axis : x y z
#
# Youngs Moduli (GPa) = 94.09469 77.99344 111.20067
#
# Poissons Ratio (x) = 0.10542 0.36540
# Poissons Ratio (y) = 0.12718 0.38436
# Poissons Ratio (z) = 0.30919 0.26958
#
# Static dielectric constant tensor:
#      x y z
#    x 3.935040 0.115780 0.164190 
#    y 0.115780 3.914160 0.056650 
#    z 0.164190 0.056650 4.443890 
# 
# 
# High freq. dielectric constant tensor:
#      x y z
#    x 1.817450 0.001640 0.005580 
#    y 0.001640 1.793070 -0.008880 
#    z 0.005580 -0.008880 1.818220 
# 
# From -- ./inp_files/261713.got.cif
#   From: 2010.06.25/outbox.cif.g09.slc.cpg/sg2_131_cif.got.tgz:261713.got - 2010.06.27 13:26:56.
