data_PCOD8014025
_publ_section_title
;
Structure prediction by ZEFSAII (Michael W. Deem and Ramdas Pophale) SiO2 
 PCOD8014025
Probable space group: P -1
;
_chemical_formula_sum "Si O2"
_cell_formula_units_Z 12
_cell_length_a 9.248722
_cell_length_b 14.728478
_cell_length_c 8.696124
_cell_angle_alpha 145.410548
_cell_angle_beta 135.454409
_cell_angle_gamma 53.645743
_cell_volume 471.673153
_symmetry_space_group_name_H-M "P -1"
_symmetry_group_IT_number 2
_symmetry_cell_setting 'triclinic'
loop_
_space_group_symop_operation_xyz
x,y,z
-x,-y,-z
loop_
_atom_site_type_symbol
_atom_site_label
_atom_site_fract_x
_atom_site_fract_y
_atom_site_fract_z
Si Si1 0.247902 0.494357 0.466694
Si Si2 0.641400 0.311655 0.461427
Si Si3 0.022670 0.810318 0.219499
Si Si4 0.641723 0.921814 0.265895
Si Si5 0.705458 0.897227 0.616635
Si Si6 0.096949 0.795800 0.919229
O O1 0.479666 0.432068 0.590290
O O2 0.226388 0.587535 0.418472
O O3 0.192032 0.617708 0.732807
O O4 0.088605 0.351891 0.137507
O O5 0.791159 0.223985 0.571633
O O6 0.510500 0.179204 0.092055
O O7 0.852896 0.937733 0.343004
O O8 0.114011 0.869864 0.207175
O O9 0.690592 0.829999 0.336456
O O10 0.520247 0.089102 0.453247
O O11 0.855682 0.783547 0.670405
O O12 0.790571 0.079915 0.934639
#
# Coordination Sequence:
#
# PCOD8014025 Si02
#       6
#     2   2   2   2   2   2
#     4  10  21  41  64  93 126 167 207 252 314 375
#     4  10  21  41  67  93 126 162 210 258 311 374
#     4  11  24  40  66  99 125 160 206 270 311 360
#     4  10  22  44  64  92 121 167 217 247 311 368
#     4  10  23  44  66  88 125 176 208 250 307 383
#     4  11  23  42  66  93 130 164 208 258 314 367
#
# _framework density 25.441344000000001
#
# number of rings (size 3 to 8) (size 9 to 14) (size 15 to 20)
#    0.000    1.667    1.667    2.000    2.333    4.667 
#   12.000    0.000    0.000    0.000    0.000    0.000 
#    0.000    0.000    0.000    0.000    0.000    0.000 
#
# Total GULP energy -148814.678380 kJ/mol
# GULP energy per Si atom -12401.223198 kJ/mol
# Density = 2.538344 g / cm^3
# Si number density = 25.441344 Si / 1000 Ang^3
#
#
#
# Elastic Constant Matrix: (Units=GPa)
#
#
# Indices 1 2 3 4 5 6 
#
# 1 166.3550 60.8138 48.1484 4.5015 -18.7466 -28.6761
# 2 60.8138 140.9577 32.8208 -23.2863 -25.8261 -24.1086
# 3 48.1484 32.8208 101.3121 0.7099 -28.4975 -19.6028
# 4 4.5015 -23.2863 0.7099 47.2812 -1.8887 -1.0745
# 5 -18.7466 -25.8261 -28.4975 -1.8887 47.2827 8.0191
# 6 -28.6761 -24.1086 -19.6028 -1.0745 8.0191 31.2121
#
#
#
# Elastic Compliance Matrix: (Units=1/GPa)
#
#
# Indices 1 2 3 4 5 6 
#
# 1 0.008453 -0.002797 -0.002415 -0.002069 -0.000414 0.004124
# 2 -0.002797 0.010914 -0.000121 0.005922 0.004183 0.004914
# 3 -0.002415 -0.000121 0.013793 0.000330 0.006507 0.004690
# 4 -0.002069 0.005922 0.000330 0.024449 0.003093 0.002928
# 5 -0.000414 0.004183 0.006507 0.003093 0.027311 0.000027
# 6 0.004124 0.004914 0.004690 0.002928 0.000027 0.042663
#
#
# Mechanical properties :
#
#
# Convention : Reuss Voigt Hill
#
# Bulk Modulus (GPa) = 44.45419 76.91006 60.68212
# Shear Modulus (GPa) = 34.30611 42.94464 38.62537
#
# Velocity S-wave (km/s) = 3.67609 4.11297 3.90065
# Velocity P-wave (km/s) = 5.96065 7.26989 6.64758
#
# Compressibility (1/GPa) = 0.02249507
#
# Stress axis : x y z
#
# Youngs Moduli (GPa) = 118.30249 91.62305 72.50081
#
# Poissons Ratio (x) = 0.25625 0.17510
# Poissons Ratio (y) = 0.33086 0.00875
# Poissons Ratio (z) = 0.28572 0.01105
#
# Static dielectric constant tensor:
#      x y z
#    x 5.091050 -0.309880 0.030990 
#    y -0.309880 4.517450 -0.026940 
#    z 0.030990 -0.026940 4.612300 
# 
# 
# High freq. dielectric constant tensor:
#      x y z
#    x 2.038510 -0.022000 0.003010 
#    y -0.022000 1.995590 -0.001790 
#    z 0.003010 -0.001790 2.037970 
# 
# From -- ./inp_files/204873.got.cif
#   From: 2010.06.25/outbox.cif.g09.slc.cpg/sg2_103_cif.got.tgz:204873.got - 2010.06.27 13:26:56.
