data_PCOD8014510
_publ_section_title
;
Structure prediction by ZEFSAII (Michael W. Deem and Ramdas Pophale) SiO2 
 PCOD8014510
Probable space group: P -1
;
_chemical_formula_sum "Si O2"
_cell_formula_units_Z 16
_cell_length_a 10.580457
_cell_length_b 6.720552
_cell_length_c 11.318427
_cell_angle_alpha 82.581248
_cell_angle_beta 115.710854
_cell_angle_gamma 85.837271
_cell_volume 711.574764
_symmetry_space_group_name_H-M "P -1"
_symmetry_group_IT_number 2
_symmetry_cell_setting 'triclinic'
loop_
_space_group_symop_operation_xyz
x,y,z
-x,-y,-z
loop_
_atom_site_type_symbol
_atom_site_label
_atom_site_fract_x
_atom_site_fract_y
_atom_site_fract_z
Si Si1 0.140926 0.232898 0.294542
Si Si2 0.148554 0.796055 0.711136
Si Si3 0.667480 0.982742 0.063023
Si Si4 0.454197 0.640426 0.641102
Si Si5 0.716482 0.965685 0.423961
Si Si6 0.272687 0.598460 0.340059
Si Si7 0.837451 0.012521 0.893495
Si Si8 0.288648 0.383412 0.732470
O O1 0.262030 0.090036 0.426555
O O2 0.141266 0.470113 0.306597
O O3 0.168049 0.189145 0.170581
O O4 0.994661 0.156306 0.277771
O O5 0.277042 0.851042 0.841951
O O6 0.160766 0.563604 0.690441
O O7 0.152495 0.932057 0.584433
O O8 0.713356 0.752414 0.141752
O O9 0.500000 0.000000 0.000000
O O10 0.727911 0.010109 0.955752
O O11 0.334173 0.646031 0.488596
O O12 0.610328 0.563140 0.666645
O O13 0.424627 0.497205 0.750681
O O14 0.431132 0.875727 0.658995
O O15 0.717184 0.753377 0.374840
O O16 0.217189 0.794079 0.225286
O O17 0.000000 0.000000 0.000000
#
# Coordination Sequence:
#
# PCOD8014510 Si02
#       8
#     2   2   2   2   2   2   2   2
#     4  12  24  42  68 101 136 188 225 282 359 413
#     4  10  24  41  67  99 138 174 233 296 330 421
#     4  11  25  46  71  98 133 189 238 283 344 411
#     4  10  21  43  65 105 139 165 233 291 345 415
#     4  10  21  41  68 102 137 177 225 289 356 411
#     4  11  25  39  69 100 137 183 220 286 354 410
#     4  12  27  47  69 100 147 185 233 286 344 425
#     4  10  22  42  71  97 133 175 228 292 344 402
#
# _framework density 22.485339
#
# number of rings (size 3 to 8) (size 9 to 14) (size 15 to 20)
#    0.000    1.250    3.750    1.125    1.750    7.000 
#    0.000    0.000    0.000    0.000    0.000    0.000 
#    0.000    0.000    0.000    0.000    0.000    0.000 
#
# Total GULP energy -198221.522184 kJ/mol
# GULP energy per Si atom -12388.845137 kJ/mol
# Density = 2.243416 g / cm^3
# Si number density = 22.485339 Si / 1000 Ang^3
#
#
#
# Elastic Constant Matrix: (Units=GPa)
#
#
# Indices 1 2 3 4 5 6 
#
# 1 78.6793 5.6187 8.4459 -5.4516 -8.1541 -0.1587
# 2 5.6187 117.6323 25.4127 -1.1579 0.8890 -6.3092
# 3 8.4459 25.4127 79.3885 -5.9993 -11.5832 7.6395
# 4 -5.4516 -1.1579 -5.9993 26.3531 0.9903 -8.9907
# 5 -8.1541 0.8890 -11.5832 0.9903 37.9171 0.0477
# 6 -0.1587 -6.3092 7.6395 -8.9907 0.0477 34.4257
#
#
#
# Elastic Compliance Matrix: (Units=1/GPa)
#
#
# Indices 1 2 3 4 5 6 
#
# 1 0.013281 -0.000410 -0.000785 0.002753 0.002553 0.000876
# 2 -0.000410 0.009405 -0.003378 0.000499 -0.001357 0.002603
# 3 -0.000785 -0.003378 0.014870 0.001722 0.004412 -0.003479
# 4 0.002753 0.000499 0.001722 0.042634 -0.000021 0.010857
# 5 0.002553 -0.001357 0.004412 -0.000021 0.028304 -0.001261
# 6 0.000876 0.002603 -0.003479 0.010857 -0.001261 0.033138
#
#
# Mechanical properties :
#
#
# Convention : Reuss Voigt Hill
#
# Bulk Modulus (GPa) = 35.20001 39.40608 37.30305
# Shear Modulus (GPa) = 31.20162 35.48738 33.34450
#
# Velocity S-wave (km/s) = 3.72915 3.97702 3.85508
# Velocity P-wave (km/s) = 5.85070 6.21709 6.03668
#
# Compressibility (1/GPa) = 0.02840908
#
# Stress axis : x y z
#
# Youngs Moduli (GPa) = 75.29832 106.32433 67.25057
#
# Poissons Ratio (x) = 0.04358 0.05282
# Poissons Ratio (y) = 0.03086 0.22716
# Poissons Ratio (z) = 0.05914 0.35915
#
# Static dielectric constant tensor:
#      x y z
#    x 4.049280 0.043840 -0.224490 
#    y 0.043840 4.666180 -0.740880 
#    z -0.224490 -0.740880 5.053840 
# 
# 
# High freq. dielectric constant tensor:
#      x y z
#    x 1.887630 -0.000020 -0.022660 
#    y -0.000020 1.902110 -0.003360 
#    z -0.022660 -0.003360 1.873240 
# 
# From -- ./inp_files/363895.got.cif
#   From: 2010.06.25/outbox.cif.g09.slc.cpg/sg2_182_cif.got.tgz:363895.got - 2010.06.27 13:26:56.
