data_PCOD8014829
_publ_section_title
;
Structure prediction by ZEFSAII (Michael W. Deem and Ramdas Pophale) SiO2 
 PCOD8014829
Probable space group: P -1
;
_chemical_formula_sum "Si O2"
_cell_formula_units_Z 16
_cell_length_a 8.484546
_cell_length_b 17.685699
_cell_length_c 8.686208
_cell_angle_alpha 122.101431
_cell_angle_beta 131.219677
_cell_angle_gamma 50.935492
_cell_volume 746.019590
_symmetry_space_group_name_H-M "P -1"
_symmetry_group_IT_number 2
_symmetry_cell_setting 'triclinic'
loop_
_space_group_symop_operation_xyz
x,y,z
-x,-y,-z
loop_
_atom_site_type_symbol
_atom_site_label
_atom_site_fract_x
_atom_site_fract_y
_atom_site_fract_z
Si Si1 0.013969 0.926511 0.067405
Si Si2 0.538622 0.077980 0.507023
Si Si3 0.757511 0.043158 0.301553
Si Si4 0.804860 0.431719 0.488274
Si Si5 0.938192 0.571102 0.891379
Si Si6 0.112101 0.241008 0.296105
Si Si7 0.538271 0.735228 0.675354
Si Si8 0.672158 0.399339 0.696983
O O1 0.250711 0.899778 0.282025
O O2 0.794822 0.976863 0.100418
O O3 0.024355 0.824191 0.903195
O O4 0.000000 0.000000 0.000000
O O5 0.572518 0.041839 0.309071
O O6 0.306245 0.180535 0.483688
O O7 0.500000 0.000000 0.500000
O O8 0.663699 0.155927 0.296678
O O9 0.000000 0.000000 0.500000
O O10 0.934509 0.504056 0.669889
O O11 0.796608 0.382319 0.592367
O O12 0.545475 0.492594 0.319733
O O13 0.935785 0.346476 0.359304
O O14 0.672250 0.662784 0.828645
O O15 0.000000 0.500000 0.000000
O O16 0.141284 0.609125 0.057683
O O17 0.238954 0.260143 0.253345
O O18 0.414192 0.686248 0.430356
#
# Coordination Sequence:
#
# PCOD8014829 Si02
#       8
#     2   2   2   2   2   2   2   2
#     4  11  23  42  62  91 129 171 216 262 323 386
#     4  10  21  42  61  88 124 165 213 266 317 375
#     4   9  22  41  64  90 130 169 212 265 319 373
#     4   9  20  38  60  87 121 159 199 261 312 373
#     4   9  19  39  60  92 124 154 210 258 312 384
#     4  11  24  40  58  91 128 159 215 262 320 378
#     4  10  22  38  62  91 123 162 208 259 319 371
#     4   9  19  38  62  86 119 157 207 253 315 379
#
# _framework density 21.447158999999999
#
# number of rings (size 3 to 8) (size 9 to 14) (size 15 to 20)
#    0.000    2.250    1.250    0.750    1.750    8.000 
#    4.500    2.500    0.000    0.000    0.000    0.000 
#    0.000    0.000    0.000    0.000    0.000    0.000 
#
# Total GULP energy -198209.034259 kJ/mol
# GULP energy per Si atom -12388.064641 kJ/mol
# Density = 2.139834 g / cm^3
# Si number density = 21.447159 Si / 1000 Ang^3
#
#
#
# Elastic Constant Matrix: (Units=GPa)
#
#
# Indices 1 2 3 4 5 6 
#
# 1 56.5410 17.7588 28.6693 7.8472 6.8879 -1.6295
# 2 17.7588 124.2842 50.4626 -5.6966 4.5837 -14.7711
# 3 28.6693 50.4626 127.3178 6.0898 27.9814 -9.6022
# 4 7.8472 -5.6966 6.0898 35.2665 3.1186 1.1329
# 5 6.8879 4.5837 27.9814 3.1186 35.8645 4.6324
# 6 -1.6295 -14.7711 -9.6022 1.1329 4.6324 36.1862
#
#
#
# Elastic Compliance Matrix: (Units=1/GPa)
#
#
# Indices 1 2 3 4 5 6 
#
# 1 0.020732 -0.001681 -0.003757 -0.004182 -0.000398 -0.000568
# 2 -0.001681 0.010274 -0.003930 0.002490 0.001497 0.002806
# 3 -0.003757 -0.003930 0.012436 -0.001262 -0.008715 0.002682
# 4 -0.004182 0.002490 -0.001262 0.030013 -0.001101 -0.000306
# 5 -0.000398 0.001497 -0.008715 -0.001101 0.035467 -0.006225
# 6 -0.000568 0.002806 0.002682 -0.000306 -0.006225 0.030273
#
#
# Mechanical properties :
#
#
# Convention : Reuss Voigt Hill
#
# Bulk Modulus (GPa) = 40.47736 55.76937 48.12336
# Shear Modulus (GPa) = 30.08985 35.54695 32.81840
#
# Velocity S-wave (km/s) = 3.74970 4.07556 3.91602
# Velocity P-wave (km/s) = 6.13686 6.94309 6.55239
#
# Compressibility (1/GPa) = 0.02470517
#
# Stress axis : x y z
#
# Youngs Moduli (GPa) = 48.23433 97.32870 80.41034
#
# Poissons Ratio (x) = 0.16364 0.30212
# Poissons Ratio (y) = 0.08110 0.31603
# Poissons Ratio (z) = 0.18123 0.38252
#
# Static dielectric constant tensor:
#      x y z
#    x 3.935560 -0.015320 0.258520 
#    y -0.015320 4.150480 -0.109210 
#    z 0.258520 -0.109210 4.180850 
# 
# 
# High freq. dielectric constant tensor:
#      x y z
#    x 1.823510 0.004660 0.021870 
#    y 0.004660 1.852070 -0.012490 
#    z 0.021870 -0.012490 1.838830 
# 
# From -- ./inp_files/218400.got.cif
#   From: 2010.06.25/outbox.cif.g09.slc.cpg/sg2_110_cif.got.tgz:218400.got - 2010.06.27 13:26:56.
