data_PCOD8014231
_publ_section_title
;
Structure prediction by ZEFSAII (Michael W. Deem and Ramdas Pophale) SiO2 
 PCOD8014231
Probable space group: P -1
;
_chemical_formula_sum "Si O2"
_cell_formula_units_Z 12
_cell_length_a 7.542639
_cell_length_b 11.614878
_cell_length_c 7.832054
_cell_angle_alpha 69.783450
_cell_angle_beta 108.837125
_cell_angle_gamma 129.719723
_cell_volume 490.277269
_symmetry_space_group_name_H-M "P -1"
_symmetry_group_IT_number 2
_symmetry_cell_setting 'triclinic'
loop_
_space_group_symop_operation_xyz
x,y,z
-x,-y,-z
loop_
_atom_site_type_symbol
_atom_site_label
_atom_site_fract_x
_atom_site_fract_y
_atom_site_fract_z
Si Si1 0.876420 0.089468 0.880730
Si Si2 0.727240 0.872605 0.270282
Si Si3 0.227249 0.674892 0.301130
Si Si4 0.722886 0.798074 0.838789
Si Si5 0.204128 0.639622 0.705469
Si Si6 0.020676 0.838645 0.598553
O O1 0.761621 0.174658 0.780525
O O2 0.808754 0.974967 0.758400
O O3 0.157506 0.209276 0.943699
O O4 0.779690 0.979397 0.071960
O O5 0.462647 0.722607 0.258457
O O6 0.890316 0.813950 0.387436
O O7 0.781179 0.980943 0.396828
O O8 0.231636 0.631868 0.517306
O O9 0.006202 0.530232 0.208577
O O10 0.445363 0.685659 0.838245
O O11 0.819454 0.762277 0.723047
O O12 0.146330 0.756293 0.678056
#
# Coordination Sequence:
#
# PCOD8014231 Si02
#       6
#     2   2   2   2   2   2
#     4  10  23  40  69  96 128 164 212 272 320 364
#     4  10  21  41  66 100 123 163 219 267 315 367
#     4  11  24  42  64  97 133 170 212 258 322 385
#     4  10  22  45  65 100 125 166 217 262 322 371
#     4  11  25  42  65  95 132 175 208 257 320 388
#     4  10  22  40  70  97 122 168 221 262 312 375
#
# _framework density 24.475946
#
# number of rings (size 3 to 8) (size 9 to 14) (size 15 to 20)
#    0.000    1.667    1.667    1.500    9.333    4.000 
#    0.000   10.000    0.000    0.000    0.000    0.000 
#    0.000    0.000    0.000    0.000    0.000    0.000 
#
# Total GULP energy -148683.080298 kJ/mol
# GULP energy per Si atom -12390.256692 kJ/mol
# Density = 2.442024 g / cm^3
# Si number density = 24.475946 Si / 1000 Ang^3
#
#
#
# Elastic Constant Matrix: (Units=GPa)
#
#
# Indices 1 2 3 4 5 6 
#
# 1 116.1730 37.6554 3.1617 9.9485 13.8318 41.3262
# 2 37.6554 71.9564 6.0119 12.7476 -5.2010 35.3523
# 3 3.1617 6.0119 56.7373 9.8815 0.7919 18.9495
# 4 9.9485 12.7476 9.8815 27.3397 4.3975 9.6695
# 5 13.8318 -5.2010 0.7919 4.3975 16.3620 4.9367
# 6 41.3262 35.3523 18.9495 9.6695 4.9367 49.9611
#
#
#
# Elastic Compliance Matrix: (Units=1/GPa)
#
#
# Indices 1 2 3 4 5 6 
#
# 1 0.014353 -0.004322 0.002639 0.000768 -0.011168 -0.008860
# 2 -0.004322 0.027880 0.004778 -0.010061 0.020431 -0.018037
# 3 0.002639 0.004778 0.022577 -0.007377 0.004132 -0.013108
# 4 0.000768 -0.010061 -0.007377 0.045550 -0.016361 0.002082
# 5 -0.011168 0.020431 0.004132 -0.016361 0.084872 -0.012006
# 6 -0.008860 -0.018037 -0.013108 0.002082 -0.012006 0.045862
#
#
# Mechanical properties :
#
#
# Convention : Reuss Voigt Hill
#
# Bulk Modulus (GPa) = 14.08430 37.61386 25.84908
# Shear Modulus (GPa) = 19.33713 31.93505 25.63609
#
# Velocity S-wave (km/s) = 2.81383 3.61605 3.23987
# Velocity P-wave (km/s) = 4.04025 5.73023 4.95778
#
# Compressibility (1/GPa) = 0.07100105
#
# Stress axis : x y z
#
# Youngs Moduli (GPa) = 69.67417 35.86744 44.29353
#
# Poissons Ratio (x) = 0.15500 -0.11691
# Poissons Ratio (y) = 0.30110 -0.21163
# Poissons Ratio (z) = -0.18390 -0.17137
#
# Static dielectric constant tensor:
#      x y z
#    x 4.550030 0.170310 -0.020690 
#    y 0.170310 4.562170 0.422400 
#    z -0.020690 0.422400 4.592350 
# 
# 
# High freq. dielectric constant tensor:
#      x y z
#    x 1.984210 0.010090 -0.002480 
#    y 0.010090 1.944030 0.016570 
#    z -0.002480 0.016570 1.977820 
# 
# From -- ./inp_files/161793.got.cif
#   From: 2010.06.25/outbox.cif.g09.slc.cpg/sg2_81_cif.got.tgz:161793.got - 2010.06.27 13:26:56.
