data_PCOD8014382
_publ_section_title
;
Structure prediction by ZEFSAII (Michael W. Deem and Ramdas Pophale) SiO2 
 PCOD8014382
Probable space group: P -1
;
_chemical_formula_sum "Si O2"
_cell_formula_units_Z 12
_cell_length_a 8.499219
_cell_length_b 15.391270
_cell_length_c 10.683139
_cell_angle_alpha 134.900443
_cell_angle_beta 108.179898
_cell_angle_gamma 42.249073
_cell_volume 597.016182
_symmetry_space_group_name_H-M "P -1"
_symmetry_group_IT_number 2
_symmetry_cell_setting 'triclinic'
loop_
_space_group_symop_operation_xyz
x,y,z
-x,-y,-z
loop_
_atom_site_type_symbol
_atom_site_label
_atom_site_fract_x
_atom_site_fract_y
_atom_site_fract_z
Si Si1 0.973673 0.443486 0.062469
Si Si2 0.857953 0.881118 0.944122
Si Si3 0.051463 0.126070 0.761556
Si Si4 0.356935 0.509568 0.583064
Si Si5 0.678484 0.714277 0.795291
Si Si6 0.573519 0.290138 0.667959
O O1 0.683626 0.594984 0.200103
O O2 0.149729 0.419663 0.178738
O O3 0.000000 0.500000 0.000000
O O4 0.104368 0.237548 0.858635
O O5 0.776798 0.785589 0.836099
O O6 0.104102 0.740137 0.770754
O O7 0.943202 0.894524 0.109194
O O8 0.625092 0.096040 0.047666
O O9 0.767713 0.253201 0.768321
O O10 0.287211 0.915759 0.545398
O O11 0.500000 0.500000 0.500000
O O12 0.286187 0.411926 0.426538
O O13 0.510353 0.409967 0.652175
#
# Coordination Sequence:
#
# PCOD8014382 Si02
#       6
#     2   2   2   2   2   2
#     4  11  25  41  67  92 122 164 205 254 306 364
#     4  10  21  41  67  87 120 167 204 254 303 366
#     4  10  22  42  67  88 124 166 206 248 311 356
#     4  12  25  38  63  96 124 163 203 254 308 362
#     4  10  22  41  63  90 125 156 209 251 311 357
#     4  11  23  43  64  89 128 163 204 254 302 367
#
# _framework density 20.099959999999999
#
# number of rings (size 3 to 8) (size 9 to 14) (size 15 to 20)
#    0.000    1.333    5.000    1.000    2.333    1.333 
#    6.000    0.000    0.000    0.000    0.000    0.000 
#    0.000    0.000    0.000    0.000    0.000    0.000 
#
# Total GULP energy -148769.735015 kJ/mol
# GULP energy per Si atom -12397.477918 kJ/mol
# Density = 2.005421 g / cm^3
# Si number density = 20.099960 Si / 1000 Ang^3
#
#
#
# Elastic Constant Matrix: (Units=GPa)
#
#
# Indices 1 2 3 4 5 6 
#
# 1 70.8318 45.3908 35.5391 -15.8664 -22.5587 -2.4115
# 2 45.3908 108.0617 27.1715 -4.1522 -21.3784 -20.0368
# 3 35.5391 27.1715 88.0449 2.5590 -8.0553 -14.2552
# 4 -15.8664 -4.1522 2.5590 32.6267 -7.2689 -1.2885
# 5 -22.5587 -21.3784 -8.0553 -7.2689 40.4758 -8.0658
# 6 -2.4115 -20.0368 -14.2552 -1.2885 -8.0658 29.4900
#
#
#
# Elastic Compliance Matrix: (Units=1/GPa)
#
#
# Indices 1 2 3 4 5 6 
#
# 1 0.034133 -0.008389 -0.010858 0.019680 0.015348 -0.003100
# 2 -0.008389 0.016127 0.001043 -0.000160 0.006523 0.012553
# 3 -0.010858 0.001043 0.016560 -0.006616 -0.002001 0.006989
# 4 0.019680 -0.000160 -0.006616 0.045108 0.018744 0.005400
# 5 0.015348 0.006523 -0.002001 0.018744 0.043128 0.017335
# 6 -0.003100 0.012553 0.006989 0.005400 0.017335 0.050541
#
#
# Mechanical properties :
#
#
# Convention : Reuss Voigt Hill
#
# Bulk Modulus (GPa) = 32.88282 53.68234 43.28258
# Shear Modulus (GPa) = 19.83000 31.10764 25.46882
#
# Velocity S-wave (km/s) = 3.14438 3.93828 3.56351
# Velocity P-wave (km/s) = 5.43856 6.88809 6.20579
#
# Compressibility (1/GPa) = 0.03041102
#
# Stress axis : x y z
#
# Youngs Moduli (GPa) = 29.29714 62.00608 60.38721
#
# Poissons Ratio (x) = 0.52019 0.65571
# Poissons Ratio (y) = 0.24578 -0.06299
# Poissons Ratio (z) = 0.31812 -0.06468
#
# Static dielectric constant tensor:
#      x y z
#    x 3.392320 -0.298610 0.150060 
#    y -0.298610 4.004820 0.090550 
#    z 0.150060 0.090550 3.935640 
# 
# 
# High freq. dielectric constant tensor:
#      x y z
#    x 1.761080 -0.019590 0.008860 
#    y -0.019590 1.796840 0.005870 
#    z 0.008860 0.005870 1.804740 
# 
# From -- ./inp_files/180989.got.cif
#   From: 2010.06.25/outbox.cif.g09.slc.cpg/sg2_91_cif.got.tgz:180989.got - 2010.06.27 13:26:56.
