data_PCOD8014605
_publ_section_title
;
Structure prediction by ZEFSAII (Michael W. Deem and Ramdas Pophale) SiO2 
 PCOD8014605
Probable space group: P -1
;
_chemical_formula_sum "Si O2"
_cell_formula_units_Z 12
_cell_length_a 10.526686
_cell_length_b 11.634354
_cell_length_c 5.044425
_cell_angle_alpha 98.305760
_cell_angle_beta 92.568963
_cell_angle_gamma 114.845244
_cell_volume 550.893465
_symmetry_space_group_name_H-M "P -1"
_symmetry_group_IT_number 2
_symmetry_cell_setting 'triclinic'
loop_
_space_group_symop_operation_xyz
x,y,z
-x,-y,-z
loop_
_atom_site_type_symbol
_atom_site_label
_atom_site_fract_x
_atom_site_fract_y
_atom_site_fract_z
Si Si1 0.901684 0.793412 0.828193
Si Si2 0.628382 0.121959 0.676599
Si Si3 0.500352 0.315065 0.845931
Si Si4 0.215607 0.888462 0.791082
Si Si5 0.377813 0.419490 0.267252
Si Si6 0.208385 0.139312 0.637860
O O1 0.784784 0.652022 0.675999
O O2 0.886498 0.895456 0.651415
O O3 0.054967 0.797177 0.821346
O O4 0.876329 0.821262 0.136126
O O5 0.584216 0.228723 0.823001
O O6 0.736996 0.182108 0.460745
O O7 0.500000 0.000000 0.500000
O O8 0.692229 0.079812 0.921711
O O9 0.363570 0.255633 0.613346
O O10 0.418050 0.309167 0.111128
O O11 0.612931 0.464388 0.885951
O O12 0.236203 0.022168 0.706551
O O13 0.500000 0.500000 0.500000
#
# Coordination Sequence:
#
# PCOD8014605 Si02
#       6
#     2   2   2   2   2   2
#     4  11  23  40  64  96 130 166 215 269 320 375
#     4  12  26  43  66  93 137 172 213 257 318 406
#     4  10  23  39  65  98 120 169 221 267 316 368
#     4  12  25  41  62  97 133 174 207 260 331 383
#     4  10  21  41  69  92 124 164 224 275 309 367
#     4  11  21  38  67  92 129 163 216 271 316 375
#
# _framework density 21.782796000000001
#
# number of rings (size 3 to 8) (size 9 to 14) (size 15 to 20)
#    0.000    1.000    3.333    3.500    2.333    0.000 
#    0.000    1.667    0.000    0.000    0.000    0.000 
#    0.000    0.000    0.000    0.000    0.000    0.000 
#
# Total GULP energy -148670.329476 kJ/mol
# GULP energy per Si atom -12389.194123 kJ/mol
# Density = 2.173322 g / cm^3
# Si number density = 21.782796 Si / 1000 Ang^3
#
#
#
# Elastic Constant Matrix: (Units=GPa)
#
#
# Indices 1 2 3 4 5 6 
#
# 1 153.0296 59.0128 46.9458 3.8144 -6.8123 6.6660
# 2 59.0128 78.8157 30.6019 13.2367 -6.8481 1.2326
# 3 46.9458 30.6019 87.5540 -10.1781 3.0448 -5.1677
# 4 3.8144 13.2367 -10.1781 35.2495 -4.5539 0.2277
# 5 -6.8123 -6.8481 3.0448 -4.5539 39.4650 -4.3268
# 6 6.6660 1.2326 -5.1677 0.2277 -4.3268 31.2792
#
#
#
# Elastic Compliance Matrix: (Units=1/GPa)
#
#
# Indices 1 2 3 4 5 6 
#
# 1 0.010085 -0.006214 -0.003356 0.000380 0.000706 -0.002364
# 2 -0.006214 0.020852 -0.004994 -0.008346 0.001969 0.000011
# 3 -0.003356 -0.004994 0.015986 0.006633 -0.001553 0.003290
# 4 0.000380 -0.008346 0.006633 0.033645 0.002141 0.001395
# 5 0.000706 0.001969 -0.001553 0.002141 0.026517 0.003168
# 6 -0.002364 0.000011 0.003290 0.001395 0.003168 0.033445
#
#
# Mechanical properties :
#
#
# Convention : Reuss Voigt Hill
#
# Bulk Modulus (GPa) = 56.19530 65.83558 61.01544
# Shear Modulus (GPa) = 28.47551 33.38801 30.93176
#
# Velocity S-wave (km/s) = 3.61951 3.91931 3.77239
# Velocity P-wave (km/s) = 6.58193 7.12535 6.85902
#
# Compressibility (1/GPa) = 0.01779508
#
# Stress axis : x y z
#
# Youngs Moduli (GPa) = 99.15387 47.95673 62.55562
#
# Poissons Ratio (x) = 0.29799 0.20992
# Poissons Ratio (y) = 0.61612 0.31243
# Poissons Ratio (z) = 0.33274 0.23952
#
# Static dielectric constant tensor:
#      x y z
#    x 3.888120 -0.431860 -0.163360 
#    y -0.431860 2.608010 -0.126750 
#    z -0.163360 -0.126750 4.150340 
# 
# 
# High freq. dielectric constant tensor:
#      x y z
#    x 1.861440 0.017270 -0.001040 
#    y 0.017270 1.834550 -0.010800 
#    z -0.001040 -0.010800 1.868960 
# 
# From -- ./inp_files/20506.got.cif
#   From: 2010.06.25/outbox.cif.g09.slc.cpg/sg2_11_cif.got.tgz:20506.got - 2010.06.27 13:26:56.
