data_PCOD8014500
_publ_section_title
;
Structure prediction by ZEFSAII (Michael W. Deem and Ramdas Pophale) SiO2 
 PCOD8014500
Probable space group: P -1
;
_chemical_formula_sum "Si O2"
_cell_formula_units_Z 16
_cell_length_a 11.337837
_cell_length_b 8.218621
_cell_length_c 13.561128
_cell_angle_alpha 147.570185
_cell_angle_beta 80.055837
_cell_angle_gamma 98.586038
_cell_volume 667.454165
_symmetry_space_group_name_H-M "P -1"
_symmetry_group_IT_number 2
_symmetry_cell_setting 'triclinic'
loop_
_space_group_symop_operation_xyz
x,y,z
-x,-y,-z
loop_
_atom_site_type_symbol
_atom_site_label
_atom_site_fract_x
_atom_site_fract_y
_atom_site_fract_z
Si Si1 0.956467 0.562895 0.875324
Si Si2 0.885588 0.680038 0.448977
Si Si3 0.501056 0.555516 0.865102
Si Si4 0.734915 0.251902 0.688572
Si Si5 0.325673 0.629018 0.596545
Si Si6 0.295739 0.081964 0.672041
Si Si7 0.541542 0.790060 0.767469
Si Si8 0.971082 0.904195 0.227929
O O1 0.826844 0.539169 0.829475
O O2 0.055601 0.449217 0.725630
O O3 0.943543 0.338318 0.855827
O O4 0.983415 0.884786 0.094289
O O5 0.811157 0.399350 0.361409
O O6 0.792633 0.949995 0.574115
O O7 0.985090 0.776219 0.566192
O O8 0.606491 0.366280 0.809351
O O9 0.383512 0.349585 0.760243
O O10 0.559195 0.702041 0.833222
O O11 0.458973 0.855215 0.081514
O O12 0.706093 0.181859 0.543583
O O13 0.416572 0.627538 0.673348
O O14 0.348257 0.338815 0.376143
O O15 0.345256 0.939868 0.693136
O O16 0.161865 0.191446 0.767668
#
# Coordination Sequence:
#
# PCOD8014500 Si02
#       8
#     2   2   2   2   2   2   2   2
#     4  10  21  41  68 100 136 176 229 281 337 400
#     4  11  22  45  69  97 140 184 218 283 343 396
#     4  11  25  43  70  99 133 180 226 281 338 405
#     4  11  21  41  70  98 131 182 229 273 337 405
#     4  11  26  43  66  98 139 181 221 280 344 403
#     4  12  23  42  70 101 138 178 228 280 335 408
#     4  10  25  47  62  99 140 173 226 279 345 404
#     4  10  22  41  67 105 132 175 233 279 330 409
#
# _framework density 23.971684
#
# number of rings (size 3 to 8) (size 9 to 14) (size 15 to 20)
#    0.000    1.250    3.750    1.875    5.250    4.000 
#    2.250    0.625    0.000    0.000    0.000    0.000 
#    0.000    0.000    0.000    0.000    0.000    0.000 
#
# Total GULP energy -198228.350193 kJ/mol
# GULP energy per Si atom -12389.271887 kJ/mol
# Density = 2.391712 g / cm^3
# Si number density = 23.971684 Si / 1000 Ang^3
#
#
#
# Elastic Constant Matrix: (Units=GPa)
#
#
# Indices 1 2 3 4 5 6 
#
# 1 111.4534 29.0079 29.7945 3.8891 1.0704 18.2357
# 2 29.0079 68.7881 39.9137 -2.6524 10.9783 9.7359
# 3 29.7945 39.9137 108.3717 -11.8191 7.8777 8.7238
# 4 3.8891 -2.6524 -11.8191 15.3570 -7.6185 -1.7672
# 5 1.0704 10.9783 7.8777 -7.6185 32.9633 4.4622
# 6 18.2357 9.7359 8.7238 -1.7672 4.4622 25.0462
#
#
#
# Elastic Compliance Matrix: (Units=1/GPa)
#
#
# Indices 1 2 3 4 5 6 
#
# 1 0.011693 -0.002986 -0.002211 -0.005594 0.000814 -0.007123
# 2 -0.002986 0.020815 -0.006625 -0.003943 -0.005776 -0.002859
# 3 -0.002211 -0.006625 0.013299 0.010398 0.001501 0.000020
# 4 -0.005594 -0.003943 0.010398 0.083120 0.017582 0.004717
# 5 0.000814 -0.005776 0.001501 0.017582 0.036498 -0.004132
# 6 -0.007123 -0.002859 0.000020 0.004717 -0.004132 0.047286
#
#
# Mechanical properties :
#
#
# Convention : Reuss Voigt Hill
#
# Bulk Modulus (GPa) = 45.12016 54.00505 49.56261
# Shear Modulus (GPa) = 20.51332 27.33311 23.92321
#
# Velocity S-wave (km/s) = 2.92846 3.38038 3.16251
# Velocity P-wave (km/s) = 5.50433 6.14928 5.83572
#
# Compressibility (1/GPa) = 0.02216304
#
# Stress axis : x y z
#
# Youngs Moduli (GPa) = 85.51879 48.04162 75.19412
#
# Poissons Ratio (x) = 0.14343 0.16627
# Poissons Ratio (y) = 0.25533 0.49820
# Poissons Ratio (z) = 0.18910 0.31830
#
# Static dielectric constant tensor:
#      x y z
#    x 4.386850 -0.138160 0.128160 
#    y -0.138160 3.873040 -0.224680 
#    z 0.128160 -0.224680 4.625090 
# 
# 
# High freq. dielectric constant tensor:
#      x y z
#    x 1.956960 -0.007660 0.002190 
#    y -0.007660 1.921520 -0.014280 
#    z 0.002190 -0.014280 1.959070 
# 
# From -- ./inp_files/516457.got.cif
#   From: 2010.06.25/outbox.cif.g09.slc.cpg/sg2_259_cif.got.tgz:516457.got - 2010.06.27 13:26:56.
