data_PCOD8014093
_publ_section_title
;
Structure prediction by ZEFSAII (Michael W. Deem and Ramdas Pophale) SiO2 
 PCOD8014093
Probable space group: P -1
;
_chemical_formula_sum "Si O2"
_cell_formula_units_Z 14
_cell_length_a 11.170452
_cell_length_b 8.605336
_cell_length_c 9.378149
_cell_angle_alpha 50.209391
_cell_angle_beta 110.190282
_cell_angle_gamma 116.997902
_cell_volume 615.232686
_symmetry_space_group_name_H-M "P -1"
_symmetry_group_IT_number 2
_symmetry_cell_setting 'triclinic'
loop_
_space_group_symop_operation_xyz
x,y,z
-x,-y,-z
loop_
_atom_site_type_symbol
_atom_site_label
_atom_site_fract_x
_atom_site_fract_y
_atom_site_fract_z
Si Si1 0.286461 0.348344 0.246778
Si Si2 0.007887 0.105838 0.158808
Si Si3 0.801371 0.320876 0.424015
Si Si4 0.599079 0.150988 0.061607
Si Si5 0.049306 0.723262 0.234846
Si Si6 0.809384 0.993937 0.384766
Si Si7 0.478955 0.692209 0.792528
O O1 0.345019 0.605481 0.116979
O O2 0.397592 0.235876 0.309412
O O3 0.159165 0.272820 0.131885
O O4 0.243664 0.257599 0.443311
O O5 0.953284 0.056899 0.326801
O O6 0.919891 0.208591 0.958216
O O7 0.998555 0.886632 0.208718
O O8 0.819291 0.296402 0.616843
O O9 0.811784 0.114527 0.464705
O O10 0.662620 0.370306 0.313400
O O11 0.926658 0.506664 0.306108
O O12 0.718269 0.054104 0.192872
O O13 0.519825 0.131865 0.191065
O O14 0.500000 0.000000 0.000000
O O15 0.500000 0.500000 0.000000
#
# Coordination Sequence:
#
# PCOD8014093 Si02
#       7
#     2   2   2   2   2   2   2
#     4  11  23  43  68  92 132 179 215 268 330 392
#     4  11  23  42  64  97 133 178 213 264 336 386
#     4  10  21  41  65 101 125 170 224 269 323 394
#     4  10  24  43  64 100 129 166 221 275 330 387
#     4  10  22  39  65  98 133 166 220 276 319 385
#     4  11  24  44  66  95 135 176 220 265 330 399
#     4   9  20  41  69  90 127 171 215 266 327 390
#
# _framework density 22.755617000000001
#
# number of rings (size 3 to 8) (size 9 to 14) (size 15 to 20)
#    0.000    1.714    1.429    3.000    0.000    9.714 
#    5.143    0.000    0.000    0.000    0.000    0.000 
#    0.000    0.000    0.000    0.000    0.000    0.000 
#
# Total GULP energy -173497.018552 kJ/mol
# GULP energy per Si atom -12392.644182 kJ/mol
# Density = 2.270382 g / cm^3
# Si number density = 22.755617 Si / 1000 Ang^3
#
#
#
# Elastic Constant Matrix: (Units=GPa)
#
#
# Indices 1 2 3 4 5 6 
#
# 1 78.4463 20.5582 46.1828 16.8397 -0.0986 18.7773
# 2 20.5582 108.6733 45.1624 2.3960 0.9050 22.3156
# 3 46.1828 45.1624 161.8114 12.4503 -1.2254 15.3759
# 4 16.8397 2.3960 12.4503 37.9748 5.4077 6.2838
# 5 -0.0986 0.9050 -1.2254 5.4077 33.4527 1.0119
# 6 18.7773 22.3156 15.3759 6.2838 1.0119 20.4734
#
#
#
# Elastic Compliance Matrix: (Units=1/GPa)
#
#
# Indices 1 2 3 4 5 6 
#
# 1 0.019410 0.001082 -0.004070 -0.005119 0.001142 -0.014409
# 2 0.001082 0.012886 -0.002769 0.001902 -0.000345 -0.013525
# 3 -0.004070 -0.002769 0.008100 -0.000896 0.000477 0.000919
# 4 -0.005119 0.001902 -0.000896 0.030427 -0.004842 -0.005805
# 5 0.001142 -0.000345 0.000477 -0.004842 0.030738 -0.001062
# 6 -0.014409 -0.013525 0.000919 -0.005805 -0.001062 0.077946
#
#
# Mechanical properties :
#
#
# Convention : Reuss Voigt Hill
#
# Bulk Modulus (GPa) = 34.62468 63.63753 49.13111
# Shear Modulus (GPa) = 24.91929 34.18202 29.55065
#
# Velocity S-wave (km/s) = 3.31279 3.87994 3.60753
# Velocity P-wave (km/s) = 5.46642 6.93529 6.24420
#
# Compressibility (1/GPa) = 0.02888113
#
# Stress axis : x y z
#
# Youngs Moduli (GPa) = 51.52112 77.60159 123.46147
#
# Poissons Ratio (x) = -0.08395 0.50247
# Poissons Ratio (y) = -0.05574 0.34189
# Poissons Ratio (z) = 0.20968 0.21489
#
# Static dielectric constant tensor:
#      x y z
#    x 4.566180 0.011900 0.088840 
#    y 0.011900 3.919230 0.067940 
#    z 0.088840 0.067940 4.549610 
# 
# 
# High freq. dielectric constant tensor:
#      x y z
#    x 1.887810 0.007940 0.011550 
#    y 0.007940 1.882840 0.001460 
#    z 0.011550 0.001460 1.924390 
# 
# From -- ./inp_files/204497.got.cif
#   From: 2010.06.25/outbox.cif.g09.slc.cpg/sg2_103_cif.got.tgz:204497.got - 2010.06.27 13:26:56.
