data_PCOD8014239
_publ_section_title
;
Structure prediction by ZEFSAII (Michael W. Deem and Ramdas Pophale) SiO2 
 PCOD8014239
Probable space group: P -1
;
_chemical_formula_sum "Si O2"
_cell_formula_units_Z 16
_cell_length_a 18.905236
_cell_length_b 5.346745
_cell_length_c 8.835486
_cell_angle_alpha 100.924446
_cell_angle_beta 45.447172
_cell_angle_gamma 102.869725
_cell_volume 619.730536
_symmetry_space_group_name_H-M "P -1"
_symmetry_group_IT_number 2
_symmetry_cell_setting 'triclinic'
loop_
_space_group_symop_operation_xyz
x,y,z
-x,-y,-z
loop_
_atom_site_type_symbol
_atom_site_label
_atom_site_fract_x
_atom_site_fract_y
_atom_site_fract_z
Si Si1 0.060376 0.997427 0.060358
Si Si2 0.251912 0.372143 0.803082
Si Si3 0.442433 0.246019 0.631665
Si Si4 0.599595 0.595875 0.951080
Si Si5 0.179964 0.642009 0.684448
Si Si6 0.053632 0.311508 0.589273
Si Si7 0.280222 0.889081 0.288474
Si Si8 0.845808 0.409256 0.780040
O O1 0.123411 0.756672 0.922217
O O2 0.139149 0.244063 0.991606
O O3 0.983798 0.971771 0.316970
O O4 0.000000 0.000000 0.000000
O O5 0.337963 0.194144 0.688861
O O6 0.259614 0.480420 0.631961
O O7 0.250961 0.583466 0.963425
O O8 0.500000 0.500000 0.500000
O O9 0.426386 0.288062 0.836667
O O10 0.500000 0.000000 0.500000
O O11 0.500000 0.500000 0.000000
O O12 0.657331 0.350151 0.858044
O O13 0.661665 0.827524 0.789251
O O14 0.100493 0.469373 0.681791
O O15 0.240009 0.871355 0.520484
O O16 0.135515 0.341104 0.335432
O O17 0.950628 0.406458 0.704419
O O18 0.186839 0.843205 0.305390
#
# Coordination Sequence:
#
# PCOD8014239 Si02
#       8
#     2   2   2   2   2   2   2   2
#     4  12  24  38  71 109 155 204 259 317 382 466
#     4  12  26  45  76 106 150 207 255 324 397 465
#     4  12  31  54  84 118 155 197 267 337 409 474
#     4  12  28  53  81 112 152 197 255 331 407 476
#     4  11  25  44  69 106 157 201 264 307 384 461
#     4  10  21  41  66 104 155 201 254 310 371 456
#     4  11  27  48  78 109 152 202 260 314 386 473
#     4  10  22  43  70 105 151 206 250 317 374 462
#
# _framework density 25.817674
#
# number of rings (size 3 to 8) (size 9 to 14) (size 15 to 20)
#    0.000    0.750    3.750    2.250    7.000    0.500 
#    0.000    0.000    0.000    0.000    0.000    0.000 
#    0.000    0.000    0.000    0.000    0.000    0.000 
#
# Total GULP energy -198223.397682 kJ/mol
# GULP energy per Si atom -12388.962355 kJ/mol
# Density = 2.575891 g / cm^3
# Si number density = 25.817674 Si / 1000 Ang^3
#
#
#
# Elastic Constant Matrix: (Units=GPa)
#
#
# Indices 1 2 3 4 5 6 
#
# 1 174.3275 42.7153 42.7052 -10.2724 0.8942 -8.6525
# 2 42.7153 96.3432 26.1053 -23.0947 -1.9937 -10.5843
# 3 42.7052 26.1053 101.4411 -29.4964 8.0546 -5.9518
# 4 -10.2724 -23.0947 -29.4964 56.4481 -8.9887 -7.5844
# 5 0.8942 -1.9937 8.0546 -8.9887 36.1053 -2.2704
# 6 -8.6525 -10.5843 -5.9518 -7.5844 -2.2704 35.5012
#
#
#
# Elastic Compliance Matrix: (Units=1/GPa)
#
#
# Indices 1 2 3 4 5 6 
#
# 1 0.006955 -0.002631 -0.002561 -0.001118 -0.000009 0.000242
# 2 -0.002631 0.013708 -0.000652 0.005863 0.002727 0.004763
# 3 -0.002561 -0.000652 0.013196 0.006335 -0.001171 0.002672
# 4 -0.001118 0.005863 0.006335 0.025251 0.005747 0.008300
# 5 -0.000009 0.002727 -0.001171 0.005747 0.029775 0.003746
# 6 0.000242 0.004763 0.002672 0.008300 0.003746 0.032108
#
#
# Mechanical properties :
#
#
# Convention : Reuss Voigt Hill
#
# Bulk Modulus (GPa) = 45.10654 66.12926 55.61790
# Shear Modulus (GPa) = 35.69631 42.98332 39.33981
#
# Velocity S-wave (km/s) = 3.72241 4.08472 3.90777
# Velocity P-wave (km/s) = 5.99868 6.92215 6.47690
#
# Compressibility (1/GPa) = 0.02216973
#
# Stress axis : x y z
#
# Youngs Moduli (GPa) = 143.79118 72.95010 75.78248
#
# Poissons Ratio (x) = 0.19194 0.19406
# Poissons Ratio (y) = 0.37834 0.04943
# Poissons Ratio (z) = 0.36822 0.04758
#
# Static dielectric constant tensor:
#      x y z
#    x 5.153240 -0.070650 0.463310 
#    y -0.070650 4.623610 -0.007200 
#    z 0.463310 -0.007200 6.853040 
# 
# 
# High freq. dielectric constant tensor:
#      x y z
#    x 2.054310 -0.001360 0.015200 
#    y -0.001360 2.022290 -0.008680 
#    z 0.015200 -0.008680 2.042470 
# 
# From -- ./inp_files/323682.got.cif
#   From: 2010.06.25/outbox.cif.g09.slc.cpg/sg2_162_cif.got.tgz:323682.got - 2010.06.27 13:26:56.
