data_PCOD8014589
_publ_section_title
;
Structure prediction by ZEFSAII (Michael W. Deem and Ramdas Pophale) SiO2 
 PCOD8014589
Probable space group: P -1
;
_chemical_formula_sum "Si O2"
_cell_formula_units_Z 16
_cell_length_a 8.810439
_cell_length_b 8.763212
_cell_length_c 11.621766
_cell_angle_alpha 104.070417
_cell_angle_beta 117.434637
_cell_angle_gamma 62.128311
_cell_volume 703.556274
_symmetry_space_group_name_H-M "P -1"
_symmetry_group_IT_number 2
_symmetry_cell_setting 'triclinic'
loop_
_space_group_symop_operation_xyz
x,y,z
-x,-y,-z
loop_
_atom_site_type_symbol
_atom_site_label
_atom_site_fract_x
_atom_site_fract_y
_atom_site_fract_z
Si Si1 0.607745 0.862694 0.708915
Si Si2 0.059925 0.356596 0.091921
Si Si3 0.140688 0.461288 0.718240
Si Si4 0.812163 0.951866 0.069611
Si Si5 0.375695 0.703208 0.489184
Si Si6 0.941443 0.282798 0.468354
Si Si7 0.860109 0.005718 0.685643
Si Si8 0.570059 0.849982 0.135098
O O1 0.724342 0.699426 0.802610
O O2 0.516672 0.797014 0.563756
O O3 0.745449 0.943780 0.722885
O O4 0.445319 0.001483 0.753308
O O5 0.940089 0.417380 0.177225
O O6 0.054760 0.180931 0.004956
O O7 0.000000 0.500000 0.000000
O O8 0.148432 0.573008 0.633819
O O9 0.351694 0.330972 0.802596
O O10 0.020987 0.352987 0.617305
O O11 0.725529 0.841877 0.094387
O O12 0.938022 0.025337 0.197716
O O13 0.634564 0.113258 0.982856
O O14 0.500000 0.500000 0.500000
O O15 0.230099 0.756367 0.553204
O O16 0.257389 0.789750 0.347946
O O17 0.101675 0.110166 0.438391
#
# Coordination Sequence:
#
# PCOD8014589 Si02
#       8
#     2   2   2   2   2   2   2   2
#     4  11  25  44  68 102 141 183 233 285 352 407
#     4  11  22  42  72 101 139 184 228 284 343 415
#     4  11  22  43  73 105 136 184 231 288 344 409
#     4  10  23  41  70 101 138 189 230 275 351 418
#     4  12  27  42  70 105 136 180 234 297 344 406
#     4  11  25  44  72 101 143 182 232 281 353 419
#     4  12  25  47  71 102 143 187 232 283 352 424
#     4  10  21  41  69 102 139 180 232 286 338 410
#
# _framework density 22.741607999999999
#
# number of rings (size 3 to 8) (size 9 to 14) (size 15 to 20)
#    0.000    1.000    2.500    3.750    5.250    2.000 
#    0.000    1.875    0.000    0.000    0.000    0.000 
#    0.000    0.000    0.000    0.000    0.000    0.000 
#
# Total GULP energy -198335.698032 kJ/mol
# GULP energy per Si atom -12395.981127 kJ/mol
# Density = 2.268985 g / cm^3
# Si number density = 22.741608 Si / 1000 Ang^3
#
#
#
# Elastic Constant Matrix: (Units=GPa)
#
#
# Indices 1 2 3 4 5 6 
#
# 1 82.1971 32.4576 48.4818 -2.9873 4.0295 2.6297
# 2 32.4576 137.3142 55.2118 -28.3323 4.4853 -16.5198
# 3 48.4818 55.2118 120.3717 -7.2988 3.3297 -4.0434
# 4 -2.9873 -28.3323 -7.2988 40.5121 -0.7387 -3.6160
# 5 4.0295 4.4853 3.3297 -0.7387 34.3956 5.7165
# 6 2.6297 -16.5198 -4.0434 -3.6160 5.7165 30.4649
#
#
#
# Elastic Compliance Matrix: (Units=1/GPa)
#
#
# Indices 1 2 3 4 5 6 
#
# 1 0.016611 -0.002383 -0.005816 -0.001821 -0.000510 -0.003618
# 2 -0.002383 0.012020 -0.003747 0.008195 -0.002009 0.007576
# 3 -0.005816 -0.003747 0.012320 -0.000829 -0.000043 0.000015
# 4 -0.001821 0.008195 -0.000829 0.030857 -0.001515 0.008438
# 5 -0.000510 -0.002009 -0.000043 -0.001515 0.030523 -0.006958
# 6 -0.003618 0.007576 0.000015 0.008438 -0.006958 0.039554
#
#
# Mechanical properties :
#
#
# Convention : Reuss Voigt Hill
#
# Bulk Modulus (GPa) = 58.61083 68.02058 63.31570
# Shear Modulus (GPa) = 29.16066 34.65664 31.90865
#
# Velocity S-wave (km/s) = 3.58475 3.90799 3.74986
# Velocity P-wave (km/s) = 6.55457 7.09495 6.83011
#
# Compressibility (1/GPa) = 0.01706169
#
# Stress axis : x y z
#
# Youngs Moduli (GPa) = 60.19955 83.19234 81.16935
#
# Poissons Ratio (x) = 0.19822 0.47204
# Poissons Ratio (y) = 0.14343 0.30413
# Poissons Ratio (z) = 0.35009 0.31171
#
# Static dielectric constant tensor:
#      x y z
#    x 3.839600 -0.188630 -0.124490 
#    y -0.188630 4.359050 -0.184080 
#    z -0.124490 -0.184080 4.253790 
# 
# 
# High freq. dielectric constant tensor:
#      x y z
#    x 1.879220 -0.015620 -0.012300 
#    y -0.015620 1.907570 -0.016940 
#    z -0.012300 -0.016940 1.905570 
# 
# From -- ./inp_files/274893.got.cif
#   From: 2010.06.25/outbox.cif.g09.slc.cpg/sg2_138_cif.got.tgz:274893.got - 2010.06.27 13:26:56.
