data_PCOD8014784
_publ_section_title
;
Structure prediction by ZEFSAII (Michael W. Deem and Ramdas Pophale) SiO2 
 PCOD8014784
Probable space group: P -1
;
_chemical_formula_sum "Si O2"
_cell_formula_units_Z 16
_cell_length_a 11.905493
_cell_length_b 8.022169
_cell_length_c 19.114910
_cell_angle_alpha 145.969845
_cell_angle_beta 136.696529
_cell_angle_gamma 54.738068
_cell_volume 699.143709
_symmetry_space_group_name_H-M "P -1"
_symmetry_group_IT_number 2
_symmetry_cell_setting 'triclinic'
loop_
_space_group_symop_operation_xyz
x,y,z
-x,-y,-z
loop_
_atom_site_type_symbol
_atom_site_label
_atom_site_fract_x
_atom_site_fract_y
_atom_site_fract_z
Si Si1 0.386595 0.244859 0.729254
Si Si2 0.699677 0.636619 0.058480
Si Si3 0.460497 0.309338 0.623008
Si Si4 0.034875 0.472900 0.651863
Si Si5 0.988648 0.323750 0.138541
Si Si6 0.710682 0.190127 0.355558
Si Si7 0.061482 0.108352 0.858278
Si Si8 0.814807 0.517471 0.840718
O O1 0.401387 0.232953 0.648325
O O2 0.205635 0.337613 0.698307
O O3 0.391883 0.924406 0.660781
O O4 0.522191 0.479520 0.905392
O O5 0.803492 0.422246 0.078386
O O6 0.800516 0.697200 0.054446
O O7 0.675207 0.945462 0.194281
O O8 0.332598 0.485332 0.580079
O O9 0.622762 0.527168 0.768920
O O10 0.500000 0.000000 0.500000
O O11 0.905697 0.226366 0.474348
O O12 0.959033 0.616019 0.736992
O O13 0.063291 0.763647 0.715858
O O14 0.127907 0.520075 0.226292
O O15 0.000000 0.000000 0.000000
O O16 0.881464 0.229317 0.809633
O O17 0.108700 0.168684 0.982315
#
# Coordination Sequence:
#
# PCOD8014784 Si02
#       8
#     2   2   2   2   2   2   2   2
#     4  12  28  48  78 106 150 191 249 303 362 442
#     4  11  25  46  72 110 144 191 247 300 363 437
#     4  12  29  48  74 108 148 193 244 304 375 426
#     4  12  26  46  72 108 144 196 247 292 374 435
#     4  11  24  40  74 103 144 186 236 299 360 428
#     4  12  29  48  73 108 152 196 243 303 366 437
#     4  10  21  41  72  99 144 186 240 298 357 439
#     4  10  22  42  64 104 141 181 238 298 361 426
#
# _framework density 22.88514
#
# number of rings (size 3 to 8) (size 9 to 14) (size 15 to 20)
#    0.000    0.750    3.750    2.250    5.250    5.500 
#    0.000    0.000    0.000    0.000    0.000    0.000 
#    0.000    0.000    0.000    0.000    0.000    0.000 
#
# Total GULP energy -198336.983497 kJ/mol
# GULP energy per Si atom -12396.061469 kJ/mol
# Density = 2.283305 g / cm^3
# Si number density = 22.885140 Si / 1000 Ang^3
#
#
#
# Elastic Constant Matrix: (Units=GPa)
#
#
# Indices 1 2 3 4 5 6 
#
# 1 110.3092 32.8988 36.2561 -9.3409 -3.1808 6.5240
# 2 32.8988 98.2223 39.8377 5.3270 -3.7012 -0.0146
# 3 36.2561 39.8377 106.0649 2.9449 5.8139 4.2002
# 4 -9.3409 5.3270 2.9449 37.0162 -8.5399 0.2920
# 5 -3.1808 -3.7012 5.8139 -8.5399 37.6896 -3.3226
# 6 6.5240 -0.0146 4.2002 0.2920 -3.3226 31.2387
#
#
#
# Elastic Compliance Matrix: (Units=1/GPa)
#
#
# Indices 1 2 3 4 5 6 
#
# 1 0.011362 -0.002732 -0.002999 0.003949 0.001889 -0.001807
# 2 -0.002732 0.012859 -0.003965 -0.001931 0.001318 0.001268
# 3 -0.002999 -0.003965 0.012214 -0.001854 -0.003064 -0.001326
# 4 0.003949 -0.001931 -0.001854 0.030109 0.007244 -0.000087
# 5 0.001889 0.001318 -0.003064 0.007244 0.029205 0.003057
# 6 -0.001807 0.001268 -0.001326 -0.000087 0.003057 0.032894
#
#
# Mechanical properties :
#
#
# Convention : Reuss Voigt Hill
#
# Bulk Modulus (GPa) = 58.67593 59.17573 58.92583
# Shear Modulus (GPa) = 32.52759 34.89581 33.71170
#
# Velocity S-wave (km/s) = 3.77416 3.90914 3.84224
# Velocity P-wave (km/s) = 6.68486 6.80360 6.74449
#
# Compressibility (1/GPa) = 0.01704276
#
# Stress axis : x y z
#
# Youngs Moduli (GPa) = 88.01414 77.76828 81.87060
#
# Poissons Ratio (x) = 0.21249 0.24554
# Poissons Ratio (y) = 0.24049 0.32458
# Poissons Ratio (z) = 0.26397 0.30832
#
# Static dielectric constant tensor:
#      x y z
#    x 5.102680 0.281850 0.300490 
#    y 0.281850 4.259890 -0.061420 
#    z 0.300490 -0.061420 4.083410 
# 
# 
# High freq. dielectric constant tensor:
#      x y z
#    x 1.913650 0.012230 0.001790 
#    y 0.012230 1.904980 0.001870 
#    z 0.001790 0.001870 1.899500 
# 
# From -- ./inp_files/405566.got.cif
#   From: 2010.06.25/outbox.cif.g09.slc.cpg/sg2_203_cif.got.tgz:405566.got - 2010.06.27 13:26:56.
