data_PCOD8014891
_publ_section_title
;
Structure prediction by ZEFSAII (Michael W. Deem and Ramdas Pophale) SiO2 
 PCOD8014891
Probable space group: P -1
;
_chemical_formula_sum "Si O2"
_cell_formula_units_Z 12
_cell_length_a 10.004963
_cell_length_b 15.998468
_cell_length_c 10.487760
_cell_angle_alpha 145.852945
_cell_angle_beta 39.958763
_cell_angle_gamma 135.420843
_cell_volume 590.869239
_symmetry_space_group_name_H-M "P -1"
_symmetry_group_IT_number 2
_symmetry_cell_setting 'triclinic'
loop_
_space_group_symop_operation_xyz
x,y,z
-x,-y,-z
loop_
_atom_site_type_symbol
_atom_site_label
_atom_site_fract_x
_atom_site_fract_y
_atom_site_fract_z
Si Si1 0.124021 0.313521 0.576102
Si Si2 0.345311 0.472492 0.200406
Si Si3 0.154148 0.045600 0.061025
Si Si4 0.931660 0.377148 0.031982
Si Si5 0.492136 0.328255 0.156572
Si Si6 0.104267 0.718509 0.779908
O O1 0.999457 0.439145 0.766726
O O2 0.369054 0.377214 0.432503
O O3 0.113184 0.315791 0.741635
O O4 0.037280 0.144579 0.368780
O O5 0.472548 0.432041 0.178710
O O6 0.259202 0.625328 0.480762
O O7 0.140308 0.335417 0.153947
O O8 0.500000 0.500000 0.000000
O O9 0.196237 0.895066 0.906585
O O10 0.379179 0.151080 0.983965
O O11 0.000000 0.000000 0.000000
O O12 0.734273 0.339029 0.029550
O O13 0.883506 0.291060 0.089406
#
# Coordination Sequence:
#
# PCOD8014891 Si02
#       6
#     2   2   2   2   2   2
#     4   9  22  39  63  89 127 163 200 246 313 357
#     4  11  25  39  64  91 121 166 209 248 300 367
#     4  10  21  42  63  85 132 166 189 257 315 351
#     4  11  22  38  68  92 118 166 209 247 300 367
#     4  10  22  42  62  90 124 159 203 252 303 363
#     4  11  23  42  60  92 128 155 207 259 297 362
#
# _framework density 20.309062999999998
#
# number of rings (size 3 to 8) (size 9 to 14) (size 15 to 20)
#    1.000    0.667    3.333    0.500    7.000    1.333 
#    3.000    1.667    0.000    0.000    0.000    0.000 
#    0.000    0.000    0.000    0.000    0.000    0.000 
#
# Total GULP energy -148684.379498 kJ/mol
# GULP energy per Si atom -12390.364958 kJ/mol
# Density = 2.026284 g / cm^3
# Si number density = 20.309063 Si / 1000 Ang^3
#
#
#
# Elastic Constant Matrix: (Units=GPa)
#
#
# Indices 1 2 3 4 5 6 
#
# 1 99.7231 29.9668 32.3761 -1.0083 0.8554 -12.0461
# 2 29.9668 102.5013 75.7623 3.9545 -2.9987 -20.1574
# 3 32.3761 75.7623 120.6042 3.2154 19.9606 -9.7016
# 4 -1.0083 3.9545 3.2154 49.3398 -3.6175 6.8479
# 5 0.8554 -2.9987 19.9606 -3.6175 14.7077 0.2872
# 6 -12.0461 -20.1574 -9.7016 6.8479 0.2872 30.7128
#
#
#
# Elastic Compliance Matrix: (Units=1/GPa)
#
#
# Indices 1 2 3 4 5 6 
#
# 1 0.011538 -0.000041 -0.003488 0.000308 0.004066 0.003290
# 2 -0.000041 0.034159 -0.027779 0.000520 0.044540 0.013096
# 3 -0.003488 -0.027779 0.035043 -0.003040 -0.053624 -0.007351
# 4 0.000308 0.000520 -0.003040 0.021902 0.009707 -0.005472
# 5 0.004066 0.044540 -0.053624 0.009707 0.151799 0.010304
# 6 0.003290 0.013096 -0.007351 -0.005472 0.010304 0.041247
#
#
# Mechanical properties :
#
#
# Convention : Reuss Voigt Hill
#
# Bulk Modulus (GPa) = 55.17616 66.55989 60.86802
# Shear Modulus (GPa) = 13.72324 31.26695 22.49509
#
# Velocity S-wave (km/s) = 2.60228 3.92797 3.33173
# Velocity P-wave (km/s) = 6.02133 7.30867 6.69601
#
# Compressibility (1/GPa) = 0.01812377
#
# Stress axis : x y z
#
# Youngs Moduli (GPa) = 86.66846 29.27504 28.53606
#
# Poissons Ratio (x) = 0.00119 0.09954
# Poissons Ratio (y) = 0.00354 0.79271
# Poissons Ratio (z) = 0.30233 0.81324
#
# Static dielectric constant tensor:
#      x y z
#    x 3.507340 -0.125970 0.059250 
#    y -0.125970 3.984430 0.106860 
#    z 0.059250 0.106860 3.877340 
# 
# 
# High freq. dielectric constant tensor:
#      x y z
#    x 1.780850 -0.000810 0.012180 
#    y -0.000810 1.796500 -0.005460 
#    z 0.012180 -0.005460 1.794350 
# 
# From -- ./inp_files/204641.got.cif
#   From: 2010.06.25/outbox.cif.g09.slc.cpg/sg2_103_cif.got.tgz:204641.got - 2010.06.27 13:26:56.
