data_PCOD8014594
_publ_section_title
;
Structure prediction by ZEFSAII (Michael W. Deem and Ramdas Pophale) SiO2 
 PCOD8014594
Probable space group: P -1
;
_chemical_formula_sum "Si O2"
_cell_formula_units_Z 14
_cell_length_a 17.908678
_cell_length_b 11.484017
_cell_length_c 5.171048
_cell_angle_alpha 109.045597
_cell_angle_beta 93.873038
_cell_angle_gamma 37.080602
_cell_volume 570.390622
_symmetry_space_group_name_H-M "P -1"
_symmetry_group_IT_number 2
_symmetry_cell_setting 'triclinic'
loop_
_space_group_symop_operation_xyz
x,y,z
-x,-y,-z
loop_
_atom_site_type_symbol
_atom_site_label
_atom_site_fract_x
_atom_site_fract_y
_atom_site_fract_z
Si Si1 0.560024 0.702269 0.429958
Si Si2 0.281321 0.139279 0.725070
Si Si3 0.304372 0.835828 0.565900
Si Si4 0.149830 0.636352 0.728190
Si Si5 0.493121 0.381648 0.151553
Si Si6 0.064827 0.995341 0.720044
Si Si7 0.874530 0.584167 0.597738
O O1 0.695643 0.591775 0.330560
O O2 0.579520 0.585639 0.595473
O O3 0.437696 0.960902 0.657402
O O4 0.516021 0.691160 0.152145
O O5 0.214250 0.305312 0.601073
O O6 0.273165 0.006945 0.546080
O O7 0.204451 0.259090 0.063122
O O8 0.416106 0.615410 0.259147
O O9 0.357695 0.790519 0.839472
O O10 0.174591 0.933407 0.586274
O O11 0.132365 0.805437 0.788573
O O12 0.101009 0.596794 0.482567
O O13 0.047079 0.759512 0.026780
O O14 0.000000 0.000000 0.500000
O O15 0.000000 0.500000 0.500000
#
# Coordination Sequence:
#
# PCOD8014594 Si02
#       7
#     2   2   2   2   2   2   2
#     4  11  23  45  68 107 140 176 233 284 352 406
#     4  11  26  44  73 102 136 186 232 278 340 412
#     4  10  21  41  69 103 141 177 233 283 346 415
#     4  11  27  43  71  99 143 181 232 292 344 410
#     4  10  22  39  69 105 140 180 215 294 352 402
#     4  11  24  45  69 106 135 186 228 290 356 407
#     4  12  28  49  71 100 138 189 234 279 336 413
#
# _framework density 24.544581000000001
#
# number of rings (size 3 to 8) (size 9 to 14) (size 15 to 20)
#    0.000    1.143    1.429    3.857    4.000    7.429 
#    7.714    0.000    0.000    0.000    0.000    0.000 
#    0.000    0.000    0.000    0.000    0.000    0.000 
#
# Total GULP energy -173438.621262 kJ/mol
# GULP energy per Si atom -12388.472947 kJ/mol
# Density = 2.448872 g / cm^3
# Si number density = 24.544581 Si / 1000 Ang^3
#
#
#
# Elastic Constant Matrix: (Units=GPa)
#
#
# Indices 1 2 3 4 5 6 
#
# 1 129.4848 23.8297 29.4613 20.0608 -3.2588 -36.0180
# 2 23.8297 56.1935 30.5563 15.3540 -8.5469 -17.1392
# 3 29.4613 30.5563 151.5447 15.0713 0.6616 -16.9241
# 4 20.0608 15.3540 15.0713 41.8235 -8.4253 -5.8294
# 5 -3.2588 -8.5469 0.6616 -8.4253 30.1038 7.4829
# 6 -36.0180 -17.1392 -16.9241 -5.8294 7.4829 40.5270
#
#
#
# Elastic Compliance Matrix: (Units=1/GPa)
#
#
# Indices 1 2 3 4 5 6 
#
# 1 0.011118 -0.000900 -0.000548 -0.004022 -0.002438 0.009144
# 2 -0.000900 0.024085 -0.003422 -0.005537 0.003654 0.006486
# 3 -0.000548 -0.003422 0.007709 -0.001454 -0.001965 0.001438
# 4 -0.004022 -0.005537 -0.001454 0.029328 0.007133 -0.003622
# 5 -0.002438 0.003654 -0.001965 0.007133 0.037873 -0.007409
# 6 0.009144 0.006486 0.001438 -0.003622 -0.007409 0.036992
#
#
# Mechanical properties :
#
#
# Convention : Reuss Voigt Hill
#
# Bulk Modulus (GPa) = 30.14640 56.10195 43.12418
# Shear Modulus (GPa) = 29.77900 39.38258 34.58079
#
# Velocity S-wave (km/s) = 3.48697 4.01001 3.75760
# Velocity P-wave (km/s) = 5.34050 6.65935 6.03605
#
# Compressibility (1/GPa) = 0.03317146
#
# Stress axis : x y z
#
# Youngs Moduli (GPa) = 89.94092 41.51949 129.71544
#
# Poissons Ratio (x) = 0.03736 0.07112
# Poissons Ratio (y) = 0.08094 0.44393
# Poissons Ratio (z) = 0.04931 0.14210
#
# Static dielectric constant tensor:
#      x y z
#    x 4.289740 -0.176100 -0.176640 
#    y -0.176100 4.321390 0.265840 
#    z -0.176640 0.265840 4.461790 
# 
# 
# High freq. dielectric constant tensor:
#      x y z
#    x 1.983850 0.000920 -0.004460 
#    y 0.000920 1.972800 0.016770 
#    z -0.004460 0.016770 1.980200 
# 
# From -- ./inp_files/65808.got.cif
#   From: 2010.06.25/outbox.cif.g09.slc.cpg/sg2_33_cif.got.tgz:65808.got - 2010.06.27 13:26:56.
