data_PCOD8014048
_publ_section_title
;
Structure prediction by ZEFSAII (Michael W. Deem and Ramdas Pophale) SiO2 
 PCOD8014048
Probable space group: P -1
;
_chemical_formula_sum "Si O2"
_cell_formula_units_Z 16
_cell_length_a 5.459307
_cell_length_b 20.717025
_cell_length_c 10.267077
_cell_angle_alpha 138.477358
_cell_angle_beta 107.745321
_cell_angle_gamma 58.789373
_cell_volume 651.250620
_symmetry_space_group_name_H-M "P -1"
_symmetry_group_IT_number 2
_symmetry_cell_setting 'triclinic'
loop_
_space_group_symop_operation_xyz
x,y,z
-x,-y,-z
loop_
_atom_site_type_symbol
_atom_site_label
_atom_site_fract_x
_atom_site_fract_y
_atom_site_fract_z
Si Si1 0.995024 0.786474 0.385254
Si Si2 0.719221 0.123016 0.245193
Si Si3 0.428282 0.656983 0.041772
Si Si4 0.214573 0.583460 0.273319
Si Si5 0.543721 0.827133 0.183688
Si Si6 0.054259 0.895896 0.031190
Si Si7 0.730769 0.646626 0.494999
Si Si8 0.950888 0.715701 0.859867
O O1 0.028386 0.858634 0.614216
O O2 0.001028 0.675350 0.277176
O O3 0.690859 0.865295 0.380970
O O4 0.261443 0.742090 0.258848
O O5 0.410968 0.225348 0.382069
O O6 0.758932 0.115643 0.085286
O O7 0.750903 0.007841 0.135241
O O8 0.649995 0.537421 0.953133
O O9 0.214353 0.637698 0.877687
O O10 0.591912 0.708297 0.060032
O O11 0.481909 0.607951 0.392534
O O12 0.018225 0.579340 0.354949
O O13 0.212133 0.906599 0.207882
O O14 0.713526 0.809952 0.051443
O O15 0.024149 0.785062 0.867898
O O16 0.835371 0.640276 0.652268
#
# Coordination Sequence:
#
# PCOD8014048 Si02
#       8
#     2   2   2   2   2   2   2   2
#     4  10  23  42  65  97 134 175 218 277 329 394
#     4  10  22  43  69  99 130 171 223 278 335 397
#     4  10  24  42  65  92 134 182 221 269 331 399
#     4  11  26  42  68 101 132 177 229 276 332 392
#     4  10  22  41  65  94 132 180 215 275 330 395
#     4  10  21  44  69  98 130 173 221 274 340 400
#     4  11  24  43  67 102 137 170 224 285 329 394
#     4  10  21  41  64  94 137 173 218 275 337 391
#
# _framework density 24.568116
#
# number of rings (size 3 to 8) (size 9 to 14) (size 15 to 20)
#    0.000    1.750    1.250    1.875    8.750    2.500 
#    4.500    5.625    0.000    0.000    0.000    0.000 
#    0.000    0.000    0.000    0.000    0.000    0.000 
#
# Total GULP energy -198237.349552 kJ/mol
# GULP energy per Si atom -12389.834347 kJ/mol
# Density = 2.451220 g / cm^3
# Si number density = 24.568116 Si / 1000 Ang^3
#
#
#
# Elastic Constant Matrix: (Units=GPa)
#
#
# Indices 1 2 3 4 5 6 
#
# 1 66.9353 -2.6817 2.0190 -11.7126 -4.5309 -8.1607
# 2 -2.6817 84.5129 15.1429 -6.5108 2.6403 2.7866
# 3 2.0190 15.1429 56.4155 -16.4949 9.3464 -11.9847
# 4 -11.7126 -6.5108 -16.4949 45.3863 -13.2886 4.9679
# 5 -4.5309 2.6403 9.3464 -13.2886 18.3011 -9.7648
# 6 -8.1607 2.7866 -11.9847 4.9679 -9.7648 28.6292
#
#
#
# Elastic Compliance Matrix: (Units=1/GPa)
#
#
# Indices 1 2 3 4 5 6 
#
# 1 0.018658 0.000235 0.001322 0.008791 0.015403 0.009577
# 2 0.000235 0.012697 -0.003753 0.000519 -0.001210 -0.003243
# 3 0.001322 -0.003753 0.022699 0.006754 -0.001197 0.008664
# 4 0.008791 0.000519 0.006754 0.034107 0.028213 0.008987
# 5 0.015403 -0.001210 -0.001197 0.028213 0.096885 0.032157
# 6 0.009577 -0.003243 0.008664 0.008987 0.032157 0.051011
#
#
# Mechanical properties :
#
#
# Convention : Reuss Voigt Hill
#
# Bulk Modulus (GPa) = 20.13580 26.31378 23.22479
# Shear Modulus (GPa) = 19.45499 31.35557 25.40528
#
# Velocity S-wave (km/s) = 2.81709 3.57637 3.21919
# Velocity P-wave (km/s) = 4.33532 5.27140 4.82611
#
# Compressibility (1/GPa) = 0.04966278
#
# Stress axis : x y z
#
# Youngs Moduli (GPa) = 53.59650 78.75763 44.05420
#
# Poissons Ratio (x) = -0.01854 -0.05824
# Poissons Ratio (y) = -0.01262 0.16535
# Poissons Ratio (z) = -0.07086 0.29560
#
# Static dielectric constant tensor:
#      x y z
#    x 4.296920 -0.248930 0.175290 
#    y -0.248930 4.681780 -0.215300 
#    z 0.175290 -0.215300 4.198660 
# 
# 
# High freq. dielectric constant tensor:
#      x y z
#    x 1.965850 -0.011390 0.010380 
#    y -0.011390 1.986300 -0.021390 
#    z 0.010380 -0.021390 1.957210 
# 
# From -- ./inp_files/118902.got.cif
#   From: 2010.06.25/outbox.cif.g09.slc.cpg/sg2_60_cif.got.tgz:118902.got - 2010.06.27 13:26:56.
