data_PCOD8014068
_publ_section_title
;
Structure prediction by ZEFSAII (Michael W. Deem and Ramdas Pophale) SiO2 
 PCOD8014068
Probable space group: P -1
;
_chemical_formula_sum "Si O2"
_cell_formula_units_Z 16
_cell_length_a 11.976822
_cell_length_b 8.884482
_cell_length_c 20.558717
_cell_angle_alpha 92.097031
_cell_angle_beta 31.581694
_cell_angle_gamma 71.285434
_cell_volume 847.218872
_symmetry_space_group_name_H-M "P -1"
_symmetry_group_IT_number 2
_symmetry_cell_setting 'triclinic'
loop_
_space_group_symop_operation_xyz
x,y,z
-x,-y,-z
loop_
_atom_site_type_symbol
_atom_site_label
_atom_site_fract_x
_atom_site_fract_y
_atom_site_fract_z
Si Si1 0.277840 0.972125 0.360540
Si Si2 0.443190 0.873281 0.413241
Si Si3 0.031172 0.640761 0.180969
Si Si4 0.146748 0.384925 0.242171
Si Si5 0.978760 0.297005 0.604238
Si Si6 0.764765 0.292647 0.399382
Si Si7 0.462194 0.731279 0.145009
Si Si8 0.761032 0.129810 0.884402
O O1 0.494632 0.819968 0.309403
O O2 0.438378 0.883945 0.210063
O O3 0.148193 0.200276 0.448669
O O4 0.000000 0.000000 0.500000
O O5 0.363758 0.752137 0.482228
O O6 0.714945 0.818816 0.313020
O O7 0.180454 0.117173 0.556093
O O8 0.023482 0.547354 0.248529
O O9 0.191661 0.721196 0.115539
O O10 0.205840 0.463491 0.037097
O O11 0.080380 0.502377 0.344772
O O12 0.979349 0.308436 0.327081
O O13 0.489463 0.193948 0.060626
O O14 0.677400 0.349863 0.753886
O O15 0.500000 0.500000 0.500000
O O16 0.952812 0.107765 0.250001
O O17 0.302366 0.852784 0.160373
#
# Coordination Sequence:
#
# PCOD8014068 Si02
#       8
#     2   2   2   2   2   2   2   2
#     4   8  17  32  57  79 105 133 180 223 261 308
#     4  10  21  35  51  84 108 139 173 222 268 307
#     4  11  20  32  57  84 110 134 173 227 271 313
#     4  11  20  34  53  80 109 142 175 210 269 326
#     4   9  17  34  54  78 100 137 179 220 255 306
#     4  12  23  33  50  77 117 147 169 216 267 321
#     4  10  16  34  59  80 105 134 178 227 262 308
#     4  11  21  36  54  82 109 140 176 220 267 316
#
# _framework density 18.885321000000001
#
# number of rings (size 3 to 8) (size 9 to 14) (size 15 to 20)
#    0.750    1.000    5.000    1.125    1.750    1.500 
#    0.000    0.000    0.000    6.750    0.000    1.750 
#    0.000    0.000    0.000    0.000    0.000    0.000 
#
# Total GULP energy -198220.535490 kJ/mol
# GULP energy per Si atom -12388.783468 kJ/mol
# Density = 1.884234 g / cm^3
# Si number density = 18.885321 Si / 1000 Ang^3
#
#
#
# Elastic Constant Matrix: (Units=GPa)
#
#
# Indices 1 2 3 4 5 6 
#
# 1 72.9931 16.5030 41.3917 6.0893 13.1742 16.0119
# 2 16.5030 51.9401 27.7143 3.7143 10.1282 15.3359
# 3 41.3917 27.7143 88.2284 12.4623 12.6002 12.2862
# 4 6.0893 3.7143 12.4623 30.2433 11.0313 -1.4606
# 5 13.1742 10.1282 12.6002 11.0313 41.2530 12.5227
# 6 16.0119 15.3359 12.2862 -1.4606 12.5227 21.9968
#
#
#
# Elastic Compliance Matrix: (Units=1/GPa)
#
#
# Indices 1 2 3 4 5 6 
#
# 1 0.020799 0.001353 -0.008371 -0.001165 -0.000749 -0.011059
# 2 0.001353 0.027381 -0.006714 -0.001844 0.000462 -0.016710
# 3 -0.008371 -0.006714 0.018007 -0.004897 0.000015 0.000383
# 4 -0.001165 -0.001844 -0.004897 0.041119 -0.013276 0.015157
# 5 -0.000749 0.000462 0.000015 -0.013276 0.033988 -0.020016
# 6 -0.011059 -0.016710 0.000383 0.015157 -0.020016 0.077348
#
#
# Mechanical properties :
#
#
# Convention : Reuss Voigt Hill
#
# Bulk Modulus (GPa) = 25.82521 42.70884 34.26703
# Shear Modulus (GPa) = 19.30394 27.20214 23.25304
#
# Velocity S-wave (km/s) = 3.20060 3.79936 3.51276
# Velocity P-wave (km/s) = 5.23096 6.47385 5.88531
#
# Compressibility (1/GPa) = 0.03872185
#
# Stress axis : x y z
#
# Youngs Moduli (GPa) = 48.07852 36.52129 55.53469
#
# Poissons Ratio (x) = -0.04940 0.46489
# Poissons Ratio (y) = -0.06504 0.37287
# Poissons Ratio (z) = 0.40248 0.24521
#
# Static dielectric constant tensor:
#      x y z
#    x 3.696730 0.321300 0.237930 
#    y 0.321300 3.244710 0.284790 
#    z 0.237930 0.284790 3.745440 
# 
# 
# High freq. dielectric constant tensor:
#      x y z
#    x 1.713130 0.023590 0.002230 
#    y 0.023590 1.706460 0.014790 
#    z 0.002230 0.014790 1.739730 
# 
# From -- ./inp_files/609612.got.cif
#   From: 2010.06.25/outbox.cif.g09.slc.cpg/sg2_305_cif.got.tgz:609612.got - 2010.06.27 13:26:56.
