data_PCOD8014771
_publ_section_title
;
Structure prediction by ZEFSAII (Michael W. Deem and Ramdas Pophale) SiO2 
 PCOD8014771
Probable space group: P -1
;
_chemical_formula_sum "Si O2"
_cell_formula_units_Z 16
_cell_length_a 16.715184
_cell_length_b 8.388127
_cell_length_c 13.994035
_cell_angle_alpha 38.858538
_cell_angle_beta 33.786768
_cell_angle_gamma 40.027833
_cell_volume 643.845134
_symmetry_space_group_name_H-M "P -1"
_symmetry_group_IT_number 2
_symmetry_cell_setting 'triclinic'
loop_
_space_group_symop_operation_xyz
x,y,z
-x,-y,-z
loop_
_atom_site_type_symbol
_atom_site_label
_atom_site_fract_x
_atom_site_fract_y
_atom_site_fract_z
Si Si1 0.020360 0.843414 0.452117
Si Si2 0.174144 0.963758 0.060853
Si Si3 0.292664 0.528105 0.990236
Si Si4 0.569359 0.603686 0.587411
Si Si5 0.760781 0.749985 0.470304
Si Si6 0.913374 0.169701 0.094299
Si Si7 0.511948 0.933331 0.304853
Si Si8 0.321214 0.978422 0.297620
O O1 0.123142 0.935914 0.232302
O O2 0.095795 0.522166 0.538951
O O3 0.852335 0.893856 0.550328
O O4 0.000000 0.000000 0.500000
O O5 0.203076 0.691867 0.095643
O O6 0.323933 0.041919 0.884718
O O7 0.034728 0.204066 0.035483
O O8 0.361349 0.209117 0.091185
O O9 0.422091 0.657336 0.776414
O O10 0.190251 0.551965 0.983540
O O11 0.676592 0.768294 0.442559
O O12 0.521853 0.704390 0.480377
O O13 0.668326 0.285913 0.650774
O O14 0.622896 0.780433 0.669053
O O15 0.811894 0.007999 0.317515
O O16 0.000000 0.000000 0.000000
O O17 0.454110 0.847326 0.303995
#
# Coordination Sequence:
#
# PCOD8014771 Si02
#       8
#     2   2   2   2   2   2   2   2
#     4  12  27  48  69 104 151 193 238 303 373 431
#     4  11  25  45  75 111 143 189 252 306 356 434
#     4  11  23  44  76 110 145 191 245 300 361 431
#     4  12  24  46  75 110 152 190 240 301 368 434
#     4  12  23  45  78 102 144 195 245 299 356 433
#     4  10  21  41  72 110 143 183 245 297 354 427
#     4  12  26  46  78 110 144 195 248 302 358 434
#     4  12  28  46  71 106 154 196 239 296 371 438
#
# _framework density 24.850698000000001
#
# number of rings (size 3 to 8) (size 9 to 14) (size 15 to 20)
#    0.000    0.500    3.750    5.625    1.750    3.500 
#    0.000    0.625    0.000    0.000    0.000    0.000 
#    0.000    0.000    0.000    0.000    0.000    0.000 
#
# Total GULP energy -198306.655833 kJ/mol
# GULP energy per Si atom -12394.165990 kJ/mol
# Density = 2.479414 g / cm^3
# Si number density = 24.850698 Si / 1000 Ang^3
#
#
#
# Elastic Constant Matrix: (Units=GPa)
#
#
# Indices 1 2 3 4 5 6 
#
# 1 113.5915 27.0966 61.1512 10.8998 -9.8552 -23.1423
# 2 27.0966 88.9785 31.7106 4.9594 3.7335 -10.9189
# 3 61.1512 31.7106 145.9340 13.1139 -1.5730 -7.5672
# 4 10.8998 4.9594 13.1139 32.2853 -6.2323 -5.2335
# 5 -9.8552 3.7335 -1.5730 -6.2323 47.2570 4.5776
# 6 -23.1423 -10.9189 -7.5672 -5.2335 4.5776 26.9407
#
#
#
# Elastic Compliance Matrix: (Units=1/GPa)
#
#
# Indices 1 2 3 4 5 6 
#
# 1 0.013998 -0.001342 -0.005003 -0.000566 0.001849 0.009651
# 2 -0.001342 0.012930 -0.002033 -0.000448 -0.001790 0.003734
# 3 -0.005003 -0.002033 0.009454 -0.002416 -0.000612 -0.002831
# 4 -0.000566 -0.000448 -0.002416 0.033693 0.003840 0.004546
# 5 0.001849 -0.001790 -0.000612 0.003840 0.022403 -0.002370
# 6 0.009651 0.003734 -0.002831 0.004546 -0.002370 0.047413
#
#
# Mechanical properties :
#
#
# Convention : Reuss Voigt Hill
#
# Bulk Modulus (GPa) = 50.94883 65.38011 58.16447
# Shear Modulus (GPa) = 30.63940 36.53296 33.58618
#
# Velocity S-wave (km/s) = 3.51513 3.83835 3.68029
# Velocity P-wave (km/s) = 6.08452 6.78308 6.44327
#
# Compressibility (1/GPa) = 0.01962753
#
# Stress axis : x y z
#
# Youngs Moduli (GPa) = 71.44047 77.33960 105.77335
#
# Poissons Ratio (x) = 0.10375 0.52916
# Poissons Ratio (y) = 0.09584 0.21503
# Poissons Ratio (z) = 0.35740 0.15722
#
# Static dielectric constant tensor:
#      x y z
#    x 4.851200 -0.520260 0.076060 
#    y -0.520260 4.571720 0.191900 
#    z 0.076060 0.191900 4.102300 
# 
# 
# High freq. dielectric constant tensor:
#      x y z
#    x 1.997070 -0.022490 -0.007250 
#    y -0.022490 1.981320 0.016200 
#    z -0.007250 0.016200 1.988810 
# 
# From -- ./inp_files/537567.got.cif
#   From: 2010.06.25/outbox.cif.g09.slc.cpg/sg2_269_cif.got.tgz:537567.got - 2010.06.27 13:26:56.
