data_PCOD8014000
_publ_section_title
;
Structure prediction by ZEFSAII (Michael W. Deem and Ramdas Pophale) SiO2 
 PCOD8014000
Probable space group: P -1
;
_chemical_formula_sum "Si O2"
_cell_formula_units_Z 16
_cell_length_a 13.906915
_cell_length_b 7.064907
_cell_length_c 13.003011
_cell_angle_alpha 121.800848
_cell_angle_beta 137.657319
_cell_angle_gamma 73.328903
_cell_volume 719.493490
_symmetry_space_group_name_H-M "P -1"
_symmetry_group_IT_number 2
_symmetry_cell_setting 'triclinic'
loop_
_space_group_symop_operation_xyz
x,y,z
-x,-y,-z
loop_
_atom_site_type_symbol
_atom_site_label
_atom_site_fract_x
_atom_site_fract_y
_atom_site_fract_z
Si Si1 0.535772 0.884980 0.652595
Si Si2 0.674661 0.344249 0.122390
Si Si3 0.070259 0.469027 0.153486
Si Si4 0.066951 0.746574 0.588384
Si Si5 0.096796 0.879535 0.431517
Si Si6 0.614717 0.826381 0.243596
Si Si7 0.648875 0.505167 0.727948
Si Si8 0.226739 0.708742 0.046538
O O1 0.556689 0.709481 0.712015
O O2 0.454787 0.734202 0.452392
O O3 0.439926 0.070464 0.665210
O O4 0.692339 0.036236 0.789084
O O5 0.764902 0.212241 0.232957
O O6 0.666144 0.587450 0.235087
O O7 0.512372 0.200316 0.949128
O O8 0.742925 0.363722 0.066601
O O9 0.118002 0.713874 0.310813
O O10 0.226270 0.401599 0.232992
O O11 0.000000 0.500000 0.000000
O O12 0.948809 0.305870 0.080012
O O13 0.022941 0.745412 0.433200
O O14 0.000000 0.500000 0.500000
O O15 0.994624 0.943070 0.639491
O O16 0.247499 0.999631 0.635957
O O17 0.717093 0.472181 0.884026
#
# Coordination Sequence:
#
# PCOD8014000 Si02
#       8
#     2   2   2   2   2   2   2   2
#     4  10  21  41  64  90 127 168 217 262 319 380
#     4  10  22  42  64  97 134 164 215 261 321 390
#     4  10  22  40  64  93 125 163 214 267 314 379
#     4  11  23  41  66  94 128 169 211 268 321 391
#     4  11  23  42  68  92 128 171 214 263 333 376
#     4  10  21  42  63  94 131 167 210 266 313 389
#     4  10  21  41  64  91 125 167 219 264 314 382
#     4  10  22  40  64  90 130 167 206 267 326 374
#
# _framework density 22.237866
#
# number of rings (size 3 to 8) (size 9 to 14) (size 15 to 20)
#    0.000    1.750    2.500    1.125    1.750    5.000 
#    6.750    5.000    0.000    0.000    0.000    0.000 
#    0.000    0.000    0.000    0.000    0.000    0.000 
#
# Total GULP energy -198214.687766 kJ/mol
# GULP energy per Si atom -12388.417985 kJ/mol
# Density = 2.218725 g / cm^3
# Si number density = 22.237866 Si / 1000 Ang^3
#
#
#
# Elastic Constant Matrix: (Units=GPa)
#
#
# Indices 1 2 3 4 5 6 
#
# 1 70.5747 41.5507 28.2466 8.7739 2.5304 -16.3182
# 2 41.5507 94.4386 39.3393 -3.6218 -0.7408 1.4910
# 3 28.2466 39.3393 112.0129 7.4912 16.9309 -2.2434
# 4 8.7739 -3.6218 7.4912 36.3876 4.8434 1.5144
# 5 2.5304 -0.7408 16.9309 4.8434 39.2994 1.5646
# 6 -16.3182 1.4910 -2.2434 1.5144 1.5646 19.8818
#
#
#
# Elastic Compliance Matrix: (Units=1/GPa)
#
#
# Indices 1 2 3 4 5 6 
#
# 1 0.029780 -0.013244 -0.001512 -0.009082 -0.001434 0.026069
# 2 -0.013244 0.018691 -0.004335 0.006126 0.002853 -0.013452
# 3 -0.001512 -0.004335 0.011706 -0.001872 -0.004834 0.000928
# 4 -0.009082 0.006126 -0.001872 0.031357 -0.001945 -0.010360
# 5 -0.001434 0.002853 -0.004834 -0.001945 0.028073 -0.003998
# 6 0.026069 -0.013452 0.000928 -0.010360 -0.003998 0.073911
#
#
# Mechanical properties :
#
#
# Convention : Reuss Voigt Hill
#
# Bulk Modulus (GPa) = 45.46480 55.03326 50.24903
# Shear Modulus (GPa) = 20.91767 30.30639 25.61203
#
# Velocity S-wave (km/s) = 3.07030 3.69565 3.39740
# Velocity P-wave (km/s) = 5.74962 6.55833 6.16725
#
# Compressibility (1/GPa) = 0.02199504
#
# Stress axis : x y z
#
# Youngs Moduli (GPa) = 33.57960 53.50072 85.42768
#
# Poissons Ratio (x) = 0.70854 0.12918
# Poissons Ratio (y) = 0.44472 0.37034
# Poissons Ratio (z) = 0.05078 0.23194
#
# Static dielectric constant tensor:
#      x y z
#    x 4.272270 -0.207000 0.517710 
#    y -0.207000 3.983130 -0.114810 
#    z 0.517710 -0.114810 4.528590 
# 
# 
# High freq. dielectric constant tensor:
#      x y z
#    x 1.860300 -0.013760 0.016610 
#    y -0.013760 1.859000 0.006900 
#    z 0.016610 0.006900 1.895820 
# 
# From -- ./inp_files/526029.got.cif
#   From: 2010.06.25/outbox.cif.g09.slc.cpg/sg2_264_cif.got.tgz:526029.got - 2010.06.27 13:26:56.
