data_PCOD8014790
_publ_section_title
;
Structure prediction by ZEFSAII (Michael W. Deem and Ramdas Pophale) SiO2 
 PCOD8014790
Probable space group: P -1
;
_chemical_formula_sum "Si O2"
_cell_formula_units_Z 14
_cell_length_a 16.580524
_cell_length_b 8.066227
_cell_length_c 10.594022
_cell_angle_alpha 135.585768
_cell_angle_beta 53.763897
_cell_angle_gamma 140.173656
_cell_volume 632.204987
_symmetry_space_group_name_H-M "P -1"
_symmetry_group_IT_number 2
_symmetry_cell_setting 'triclinic'
loop_
_space_group_symop_operation_xyz
x,y,z
-x,-y,-z
loop_
_atom_site_type_symbol
_atom_site_label
_atom_site_fract_x
_atom_site_fract_y
_atom_site_fract_z
Si Si1 0.763091 0.844550 0.343394
Si Si2 0.074537 0.597729 0.353658
Si Si3 0.510720 0.240763 0.031694
Si Si4 0.665185 0.259657 0.253637
Si Si5 0.914510 0.348026 0.120352
Si Si6 0.492200 0.368071 0.571542
Si Si7 0.195493 0.267160 0.013325
O O1 0.694268 0.497924 0.250035
O O2 0.659697 0.885423 0.407039
O O3 0.825935 0.043448 0.519564
O O4 0.852611 0.905867 0.174003
O O5 0.142316 0.447371 0.188634
O O6 0.000000 0.500000 0.500000
O O7 0.993533 0.540315 0.274619
O O8 0.454028 0.383320 0.234796
O O9 0.653119 0.497216 0.992510
O O10 0.500000 0.000000 0.000000
O O11 0.417987 0.073149 0.907832
O O12 0.795961 0.352865 0.236899
O O13 0.575427 0.249597 0.438092
O O14 0.000000 0.500000 0.000000
O O15 0.863366 0.004026 0.980515
O O16 0.500000 0.500000 0.500000
#
# Coordination Sequence:
#
# PCOD8014790 Si02
#       7
#     2   2   2   2   2   2   2
#     4  10  21  41  73 103 131 180 236 283 333 415
#     4  12  26  45  75  97 130 192 246 276 333 415
#     4  11  20  39  73 102 130 182 226 280 349 410
#     4  11  23  41  66 104 144 170 225 288 347 408
#     4  12  29  47  67 101 148 187 223 292 352 396
#     4   9  18  34  64 101 130 169 225 274 332 407
#     4  11  24  47  71  99 140 178 241 286 335 418
#
# _framework density 22.144715000000001
#
# number of rings (size 3 to 8) (size 9 to 14) (size 15 to 20)
#    0.000    1.143    5.714    2.143    4.000    1.143 
#    2.571    2.857    0.000    0.000    0.000    0.000 
#    0.000    0.000    0.000    0.000    0.000    0.000 
#
# Total GULP energy -173483.940608 kJ/mol
# GULP energy per Si atom -12391.710043 kJ/mol
# Density = 2.209431 g / cm^3
# Si number density = 22.144715 Si / 1000 Ang^3
#
#
#
# Elastic Constant Matrix: (Units=GPa)
#
#
# Indices 1 2 3 4 5 6 
#
# 1 110.4339 42.5439 85.3600 4.0358 4.9035 26.0522
# 2 42.5439 108.3520 54.9722 5.1808 17.0749 7.8868
# 3 85.3600 54.9722 213.9107 -1.4540 8.0419 26.2202
# 4 4.0358 5.1808 -1.4540 35.5237 4.8204 5.6384
# 5 4.9035 17.0749 8.0419 4.8204 27.6848 -2.1895
# 6 26.0522 7.8868 26.2202 5.6384 -2.1895 28.3860
#
#
#
# Elastic Compliance Matrix: (Units=1/GPa)
#
#
# Indices 1 2 3 4 5 6 
#
# 1 0.015999 -0.003334 -0.004311 0.000094 -0.000318 -0.009818
# 2 -0.003334 0.012388 -0.001727 -0.000777 -0.006343 0.000879
# 3 -0.004311 -0.001727 0.007192 0.001543 -0.000732 -0.002570
# 4 0.000094 -0.000777 0.001543 0.030349 -0.005885 -0.007778
# 5 -0.000318 -0.006343 -0.000732 -0.005885 0.041890 0.007130
# 6 -0.009818 0.000879 -0.002570 -0.007778 0.007130 0.048463
#
#
# Mechanical properties :
#
#
# Convention : Reuss Voigt Hill
#
# Bulk Modulus (GPa) = 59.40972 88.71653 74.06312
# Shear Modulus (GPa) = 27.67952 34.97361 31.32656
#
# Velocity S-wave (km/s) = 3.53928 3.97838 3.76524
# Velocity P-wave (km/s) = 6.60214 7.82640 7.24019
#
# Compressibility (1/GPa) = 0.01683226
#
# Stress axis : x y z
#
# Youngs Moduli (GPa) = 62.50370 80.72618 139.03882
#
# Poissons Ratio (x) = 0.26917 0.59946
# Poissons Ratio (y) = 0.20841 0.24019
# Poissons Ratio (z) = 0.26948 0.13945
#
# Static dielectric constant tensor:
#      x y z
#    x 3.925020 0.172300 -0.176380 
#    y 0.172300 3.128270 -0.829610 
#    z -0.176380 -0.829610 4.473530 
# 
# 
# High freq. dielectric constant tensor:
#      x y z
#    x 1.847670 0.024380 -0.002260 
#    y 0.024380 1.876040 -0.002760 
#    z -0.002260 -0.002760 1.890360 
# 
# From -- ./inp_files/460859.got.cif
#   From: 2010.06.25/outbox.cif.g09.slc.cpg/sg2_231_cif.got.tgz:460859.got - 2010.06.27 13:26:56.
