data_PCOD8014483
_publ_section_title
;
Structure prediction by ZEFSAII (Michael W. Deem and Ramdas Pophale) SiO2 
 PCOD8014483
Probable space group: P -1
;
_chemical_formula_sum "Si O2"
_cell_formula_units_Z 14
_cell_length_a 15.274859
_cell_length_b 11.908324
_cell_length_c 11.931377
_cell_angle_alpha 128.348929
_cell_angle_beta 151.586184
_cell_angle_gamma 40.383559
_cell_volume 660.405059
_symmetry_space_group_name_H-M "P -1"
_symmetry_group_IT_number 2
_symmetry_cell_setting 'triclinic'
loop_
_space_group_symop_operation_xyz
x,y,z
-x,-y,-z
loop_
_atom_site_type_symbol
_atom_site_label
_atom_site_fract_x
_atom_site_fract_y
_atom_site_fract_z
Si Si1 0.985058 0.674012 0.109247
Si Si2 0.462605 0.582399 0.664801
Si Si3 0.466392 0.443025 0.809601
Si Si4 0.995607 0.391166 0.526661
Si Si5 0.053023 0.843505 0.836415
Si Si6 0.914827 0.219617 0.920670
Si Si7 0.647181 0.801759 0.004502
O O1 0.222321 0.634117 0.387187
O O2 0.919195 0.777774 0.980390
O O3 0.795548 0.791356 0.061130
O O4 0.000000 0.500000 0.000000
O O5 0.470233 0.566171 0.797657
O O6 0.662309 0.394166 0.721719
O O7 0.495129 0.733148 0.757658
O O8 0.222988 0.476914 0.559904
O O9 0.500000 0.500000 0.000000
O O10 0.677528 0.239974 0.903004
O O11 0.998675 0.232325 0.375646
O O12 0.000000 0.500000 0.500000
O O13 0.204446 0.317582 0.797835
O O14 0.993970 0.792445 0.857484
O O15 0.909679 0.051667 0.788585
O O16 0.500000 0.000000 0.000000
#
# Coordination Sequence:
#
# PCOD8014483 Si02
#       7
#     2   2   2   2   2   2   2
#     4  12  26  43  71  96 134 187 229 271 351 417
#     4  11  23  44  66  92 139 179 221 284 338 412
#     4   9  18  37  64  92 127 176 218 271 351 390
#     4  11  22  40  67  95 139 179 230 284 344 412
#     4   9  21  38  68 100 129 176 229 286 337 406
#     4  10  21  41  67  98 136 176 227 281 346 405
#     4  12  28  44  67 107 137 179 238 283 344 413
#
# _framework density 21.199110000000001
#
# number of rings (size 3 to 8) (size 9 to 14) (size 15 to 20)
#    0.000    1.429    2.857    3.000    2.000    4.000 
#    0.000    0.000    0.000    6.857    0.000    0.000 
#    0.000    0.000    0.000    0.000    0.000    0.000 
#
# Total GULP energy -173539.960632 kJ/mol
# GULP energy per Si atom -12395.711474 kJ/mol
# Density = 2.115086 g / cm^3
# Si number density = 21.199110 Si / 1000 Ang^3
#
#
#
# Elastic Constant Matrix: (Units=GPa)
#
#
# Indices 1 2 3 4 5 6 
#
# 1 177.2286 52.7884 34.8106 -3.6884 9.8136 -0.6657
# 2 52.7884 129.0335 35.7232 3.0735 18.8562 -4.8233
# 3 34.8106 35.7232 93.4205 7.5774 16.6757 -1.1459
# 4 -3.6884 3.0735 7.5774 24.0772 0.5584 -1.3089
# 5 9.8136 18.8562 16.6757 0.5584 30.1717 3.3613
# 6 -0.6657 -4.8233 -1.1459 -1.3089 3.3613 33.6917
#
#
#
# Elastic Compliance Matrix: (Units=1/GPa)
#
#
# Indices 1 2 3 4 5 6 
#
# 1 0.006718 -0.002339 -0.001812 0.001880 0.000267 -0.000217
# 2 -0.002339 0.010027 -0.002066 -0.000788 -0.004543 0.001742
# 3 -0.001812 -0.002066 0.013502 -0.004106 -0.005564 0.000523
# 4 0.001880 -0.000788 -0.004106 0.043259 0.001200 0.001346
# 5 0.000267 -0.004543 -0.005564 0.001200 0.039475 -0.004726
# 6 -0.000217 0.001742 0.000523 0.001346 -0.004726 0.030467
#
#
# Mechanical properties :
#
#
# Convention : Reuss Voigt Hill
#
# Bulk Modulus (GPa) = 56.13922 71.81413 63.97667
# Shear Modulus (GPa) = 30.89829 36.01217 33.45523
#
# Velocity S-wave (km/s) = 3.82190 4.12607 3.97689
# Velocity P-wave (km/s) = 6.78345 7.52654 7.16464
#
# Compressibility (1/GPa) = 0.01781286
#
# Stress axis : x y z
#
# Youngs Moduli (GPa) = 148.84301 99.73473 74.06159
#
# Poissons Ratio (x) = 0.23327 0.13420
# Poissons Ratio (y) = 0.34813 0.15304
# Poissons Ratio (z) = 0.26970 0.20609
#
# Static dielectric constant tensor:
#      x y z
#    x 4.340300 0.012230 -0.397500 
#    y 0.012230 3.742070 0.130020 
#    z -0.397500 0.130020 3.186190 
# 
# 
# High freq. dielectric constant tensor:
#      x y z
#    x 1.860830 -0.007220 -0.009900 
#    y -0.007220 1.819720 -0.003960 
#    z -0.009900 -0.003960 1.815670 
# 
# From -- ./inp_files/419971.got.cif
#   From: 2010.06.25/outbox.cif.g09.slc.cpg/sg2_210_cif.got.tgz:419971.got - 2010.06.27 13:26:56.
