data_PCOD8014669
_publ_section_title
;
Structure prediction by ZEFSAII (Michael W. Deem and Ramdas Pophale) SiO2 
 PCOD8014669
Probable space group: P -1
;
_chemical_formula_sum "Si O2"
_cell_formula_units_Z 16
_cell_length_a 14.177933
_cell_length_b 5.323222
_cell_length_c 11.621660
_cell_angle_alpha 73.338431
_cell_angle_beta 63.448646
_cell_angle_gamma 59.420670
_cell_volume 673.482323
_symmetry_space_group_name_H-M "P -1"
_symmetry_group_IT_number 2
_symmetry_cell_setting 'triclinic'
loop_
_space_group_symop_operation_xyz
x,y,z
-x,-y,-z
loop_
_atom_site_type_symbol
_atom_site_label
_atom_site_fract_x
_atom_site_fract_y
_atom_site_fract_z
Si Si1 0.842343 0.469604 0.808220
Si Si2 0.479293 0.012773 0.747269
Si Si3 0.673111 0.968972 0.969530
Si Si4 0.314761 0.212952 0.607379
Si Si5 0.941607 0.547286 0.210425
Si Si6 0.106473 0.080411 0.018518
Si Si7 0.688852 0.386888 0.738213
Si Si8 0.363372 0.739009 0.445794
O O1 0.718392 0.748068 0.866277
O O2 0.960293 0.517198 0.733888
O O3 0.816064 0.359890 0.714556
O O4 0.863482 0.253500 0.933015
O O5 0.595939 0.709474 0.707719
O O6 0.379964 0.025368 0.709173
O O7 0.512664 0.279276 0.667132
O O8 0.433780 0.041092 0.899901
O O9 0.783768 0.865686 0.008153
O O10 0.634606 0.284243 0.889175
O O11 0.380196 0.418462 0.519202
O O12 0.177951 0.430697 0.672786
O O13 0.317137 0.989432 0.535686
O O14 0.990033 0.281473 0.128757
O O15 0.914889 0.846874 0.115014
O O16 0.719525 0.180863 0.634362
#
# Coordination Sequence:
#
# PCOD8014669 Si02
#       8
#     2   2   2   2   2   2   2   2
#     4  10  22  41  68 105 144 185 227 297 364 437
#     4  12  25  46  74 106 145 189 238 308 355 426
#     4  10  22  41  71 111 142 181 236 294 377 425
#     4  12  28  47  75 109 141 193 244 296 354 424
#     4  10  21  41  70 103 142 182 236 296 364 422
#     4   9  19  39  67 106 143 176 227 301 368 427
#     4  11  25  45  70 100 151 191 241 291 356 428
#     4  12  28  49  71 102 148 197 247 291 346 422
#
# _framework density 23.757117999999998
#
# number of rings (size 3 to 8) (size 9 to 14) (size 15 to 20)
#    0.000    1.250    2.500    2.250    3.500    5.000 
#    0.000    1.250    0.000    0.000    0.000    0.000 
#    0.000    0.000    0.000    0.000    0.000    0.000 
#
# Total GULP energy -198249.489805 kJ/mol
# GULP energy per Si atom -12390.593113 kJ/mol
# Density = 2.370305 g / cm^3
# Si number density = 23.757118 Si / 1000 Ang^3
#
#
#
# Elastic Constant Matrix: (Units=GPa)
#
#
# Indices 1 2 3 4 5 6 
#
# 1 103.7076 29.9645 40.5207 -4.6032 17.2395 11.9444
# 2 29.9645 74.8212 17.0725 -13.2919 4.0845 5.2829
# 3 40.5207 17.0725 83.6735 -10.2934 19.9348 1.3490
# 4 -4.6032 -13.2919 -10.2934 15.4226 6.8987 5.6379
# 5 17.2395 4.0845 19.9348 6.8987 29.9019 7.8302
# 6 11.9444 5.2829 1.3490 5.6379 7.8302 29.8878
#
#
#
# Elastic Compliance Matrix: (Units=1/GPa)
#
#
# Indices 1 2 3 4 5 6 
#
# 1 0.013673 -0.003872 -0.005031 0.000128 -0.003040 -0.003781
# 2 -0.003872 0.018607 0.001765 0.019829 -0.004943 -0.004266
# 3 -0.005031 0.001765 0.020258 0.020200 -0.015798 0.001113
# 4 0.000128 0.019829 0.020200 0.119144 -0.039384 -0.016625
# 5 -0.003040 -0.004943 -0.015798 -0.039384 0.056700 -0.004624
# 6 -0.003781 -0.004266 0.001113 -0.016625 -0.004624 0.040021
#
#
# Mechanical properties :
#
#
# Convention : Reuss Voigt Hill
#
# Bulk Modulus (GPa) = 26.13572 48.59087 37.36329
# Shear Modulus (GPa) = 16.92428 26.68542 21.80485
#
# Velocity S-wave (km/s) = 2.67195 3.35514 3.03285
# Velocity P-wave (km/s) = 4.53257 5.95877 5.29392
#
# Compressibility (1/GPa) = 0.03826181
#
# Stress axis : x y z
#
# Youngs Moduli (GPa) = 73.13496 53.74286 49.36289
#
# Poissons Ratio (x) = 0.20812 0.24832
# Poissons Ratio (y) = 0.28321 -0.08710
# Poissons Ratio (z) = 0.36791 -0.09483
#
# Static dielectric constant tensor:
#      x y z
#    x 4.506330 0.085110 0.217450 
#    y 0.085110 4.128910 -0.110770 
#    z 0.217450 -0.110770 4.201050 
# 
# 
# High freq. dielectric constant tensor:
#      x y z
#    x 1.952970 0.006210 0.021020 
#    y 0.006210 1.928030 -0.014920 
#    z 0.021020 -0.014920 1.924680 
# 
# From -- ./inp_files/441728.got.cif
#   From: 2010.06.25/outbox.cif.g09.slc.cpg/sg2_221_cif.got.tgz:441728.got - 2010.06.27 13:26:56.
