data_PCOD8014340
_publ_section_title
;
Structure prediction by ZEFSAII (Michael W. Deem and Ramdas Pophale) SiO2 
 PCOD8014340
Probable space group: P -1
;
_chemical_formula_sum "Si O2"
_cell_formula_units_Z 14
_cell_length_a 13.986752
_cell_length_b 10.999925
_cell_length_c 9.339161
_cell_angle_alpha 53.924838
_cell_angle_beta 124.342157
_cell_angle_gamma 151.031344
_cell_volume 558.053906
_symmetry_space_group_name_H-M "P -1"
_symmetry_group_IT_number 2
_symmetry_cell_setting 'triclinic'
loop_
_space_group_symop_operation_xyz
x,y,z
-x,-y,-z
loop_
_atom_site_type_symbol
_atom_site_label
_atom_site_fract_x
_atom_site_fract_y
_atom_site_fract_z
Si Si1 0.894187 0.608969 0.821316
Si Si2 0.981500 0.625856 0.202165
Si Si3 0.613203 0.325912 0.262735
Si Si4 0.054663 0.035684 0.251846
Si Si5 0.721854 0.810417 0.936031
Si Si6 0.875363 0.193520 0.384063
Si Si7 0.455423 0.848197 0.359494
O O1 0.870097 0.763588 0.707739
O O2 0.711488 0.341785 0.769269
O O3 0.091898 0.780629 0.777005
O O4 0.908176 0.549182 0.029644
O O5 0.834621 0.569924 0.216645
O O6 0.987322 0.456402 0.368479
O O7 0.194606 0.928128 0.194241
O O8 0.514338 0.390286 0.100748
O O9 0.618126 0.305589 0.450010
O O10 0.501523 0.072900 0.262026
O O11 0.223457 0.216947 0.145202
O O12 0.024371 0.844430 0.432664
O O13 0.835889 0.855806 0.134801
O O14 0.643479 0.954833 0.386816
#
# Coordination Sequence:
#
# PCOD8014340 Si02
#       7
#     2   2   2   2   2   2   2
#     4  11  24  42  60  96 132 170 205 254 316 385
#     4  10  24  40  70  97 120 164 219 259 320 363
#     4  10  21  41  66  98 122 162 212 270 311 367
#     4  10  23  41  63  94 127 172 210 248 321 378
#     4  10  21  44  65  90 132 163 209 266 309 374
#     4  11  22  42  65  94 127 163 211 262 313 372
#     4  10  23  39  66  97 127 159 214 264 318 366
#
# _framework density 25.087181000000001
#
# number of rings (size 3 to 8) (size 9 to 14) (size 15 to 20)
#    0.000    1.714    1.429    1.714    2.000    6.857 
#    0.000    9.286    0.000    0.000    0.000    0.000 
#    0.000    0.000    0.000    0.000    0.000    0.000 
#
# Total GULP energy -173655.020130 kJ/mol
# GULP energy per Si atom -12403.930009 kJ/mol
# Density = 2.503008 g / cm^3
# Si number density = 25.087181 Si / 1000 Ang^3
#
#
#
# Elastic Constant Matrix: (Units=GPa)
#
#
# Indices 1 2 3 4 5 6 
#
# 1 145.5551 33.3931 22.5373 -5.1999 -1.2795 11.2080
# 2 33.3931 43.2839 7.6411 14.8625 -8.4908 -1.2321
# 3 22.5373 7.6411 32.4874 -9.8449 0.0096 2.7503
# 4 -5.1999 14.8625 -9.8449 33.5741 -12.5473 -2.7212
# 5 -1.2795 -8.4908 0.0096 -12.5473 61.7021 -9.9336
# 6 11.2080 -1.2321 2.7503 -2.7212 -9.9336 48.6780
#
#
#
# Elastic Compliance Matrix: (Units=1/GPa)
#
#
# Indices 1 2 3 4 5 6 
#
# 1 0.009581 -0.008255 -0.003378 0.003787 -0.000507 -0.002116
# 2 -0.008255 0.038582 -0.009777 -0.020500 0.001384 0.002566
# 3 -0.003378 -0.009777 0.040401 0.016292 0.001815 -0.000471
# 4 0.003787 -0.020500 0.016292 0.047020 0.007101 0.001766
# 5 -0.000507 0.001384 0.001815 0.007101 0.018511 0.004224
# 6 -0.002116 0.002566 -0.000471 0.001766 0.004224 0.022083
#
#
# Mechanical properties :
#
#
# Convention : Reuss Voigt Hill
#
# Bulk Modulus (GPa) = 21.86183 38.71882 30.29032
# Shear Modulus (GPa) = 21.34509 39.30784 30.32647
#
# Velocity S-wave (km/s) = 2.92007 3.96264 3.48061
# Velocity P-wave (km/s) = 4.48357 6.03356 5.31537
#
# Compressibility (1/GPa) = 0.04574182
#
# Stress axis : x y z
#
# Youngs Moduli (GPa) = 104.37359 25.91898 24.75203
#
# Poissons Ratio (x) = 0.21397 0.08362
# Poissons Ratio (y) = 0.86163 0.24201
# Poissons Ratio (z) = 0.35259 0.25342
#
# Static dielectric constant tensor:
#      x y z
#    x 5.112440 -0.145400 -0.031940 
#    y -0.145400 4.650020 -0.363780 
#    z -0.031940 -0.363780 4.442510 
# 
# 
# High freq. dielectric constant tensor:
#      x y z
#    x 2.029750 -0.009620 0.006970 
#    y -0.009620 2.006490 -0.022720 
#    z 0.006970 -0.022720 1.999410 
# 
# From -- ./inp_files/204141.got.cif
#   From: 2010.06.25/outbox.cif.g09.slc.cpg/sg2_103_cif.got.tgz:204141.got - 2010.06.27 13:26:56.
