data_PCOD8014377
_publ_section_title
;
Structure prediction by ZEFSAII (Michael W. Deem and Ramdas Pophale) SiO2 
 PCOD8014377
Probable space group: P -1
;
_chemical_formula_sum "Si O2"
_cell_formula_units_Z 16
_cell_length_a 17.144783
_cell_length_b 9.663217
_cell_length_c 8.633928
_cell_angle_alpha 91.895283
_cell_angle_beta 29.153341
_cell_angle_gamma 92.195751
_cell_volume 696.312999
_symmetry_space_group_name_H-M "P -1"
_symmetry_group_IT_number 2
_symmetry_cell_setting 'triclinic'
loop_
_space_group_symop_operation_xyz
x,y,z
-x,-y,-z
loop_
_atom_site_type_symbol
_atom_site_label
_atom_site_fract_x
_atom_site_fract_y
_atom_site_fract_z
Si Si1 0.187428 0.385435 0.283286
Si Si2 0.275564 0.784794 0.613519
Si Si3 0.075464 0.161597 0.659073
Si Si4 0.205450 0.862194 0.393953
Si Si5 0.015034 0.375606 0.277597
Si Si6 0.525053 0.966074 0.773704
Si Si7 0.534575 0.466302 0.619074
Si Si8 0.732838 0.711908 0.405360
O O1 0.117801 0.227681 0.420870
O O2 0.144189 0.422430 0.183146
O O3 0.098828 0.494435 0.554117
O O4 0.377760 0.402560 0.971669
O O5 0.258265 0.781716 0.456354
O O6 0.419357 0.895378 0.408426
O O7 0.322843 0.641481 0.606570
O O8 0.108581 0.827428 0.978198
O O9 0.197913 0.266660 0.542492
O O10 0.116102 0.001770 0.602282
O O11 0.092924 0.757717 0.488191
O O12 0.351807 0.902022 0.024473
O O13 0.110991 0.330427 0.959972
O O14 0.663172 0.860119 0.486222
O O15 0.500000 0.000000 0.000000
O O16 0.500000 0.500000 0.500000
O O17 0.588286 0.601513 0.629099
#
# Coordination Sequence:
#
# PCOD8014377 Si02
#       8
#     2   2   2   2   2   2   2   2
#     4  11  27  46  67  99 141 186 227 282 339 406
#     4  11  23  41  70 101 135 177 227 280 341 397
#     4  12  24  42  74 104 138 173 233 289 333 407
#     4  11  22  43  72 103 138 175 226 287 339 406
#     4  11  24  45  71  96 142 185 230 275 343 404
#     4  10  21  41  67 105 140 171 217 283 345 399
#     4  12  27  46  68  97 143 182 229 280 341 411
#     4  12  23  43  74 101 135 182 228 283 341 404
#
# _framework density 22.978172000000001
#
# number of rings (size 3 to 8) (size 9 to 14) (size 15 to 20)
#    0.000    0.750    5.000    3.375    5.250    2.000 
#    0.000    0.625    0.000    0.000    0.000    0.000 
#    0.000    0.000    0.000    0.000    0.000    0.000 
#
# Total GULP energy -198284.556468 kJ/mol
# GULP energy per Si atom -12392.784779 kJ/mol
# Density = 2.292587 g / cm^3
# Si number density = 22.978172 Si / 1000 Ang^3
#
#
#
# Elastic Constant Matrix: (Units=GPa)
#
#
# Indices 1 2 3 4 5 6 
#
# 1 54.1518 35.0918 13.0196 3.5502 -16.1994 -6.4691
# 2 35.0918 124.2967 17.9625 3.4167 -7.8865 -8.7361
# 3 13.0196 17.9625 96.0640 -2.9188 -22.9361 -2.5216
# 4 3.5502 3.4167 -2.9188 51.9576 3.6833 -12.8021
# 5 -16.1994 -7.8865 -22.9361 3.6833 29.5697 -7.2912
# 6 -6.4691 -8.7361 -2.5216 -12.8021 -7.2912 32.7601
#
#
#
# Elastic Compliance Matrix: (Units=1/GPa)
#
#
# Indices 1 2 3 4 5 6 
#
# 1 0.028388 -0.006627 0.001614 -0.000785 0.016967 0.007432
# 2 -0.006627 0.010063 -0.001392 0.000060 -0.001815 0.000887
# 3 0.001614 -0.001392 0.013389 0.000869 0.011760 0.003935
# 4 -0.000785 0.000060 0.000869 0.021393 -0.000382 0.008203
# 5 0.016967 -0.001815 0.011760 -0.000382 0.055752 0.016031
# 6 0.007432 0.000887 0.003935 0.008203 0.016031 0.039306
#
#
# Mechanical properties :
#
#
# Convention : Reuss Voigt Hill
#
# Bulk Modulus (GPa) = 25.62148 45.18448 35.40298
# Shear Modulus (GPa) = 25.75851 36.75340 31.25595
#
# Velocity S-wave (km/s) = 3.35177 4.00370 3.69215
# Velocity P-wave (km/s) = 5.11407 6.40934 5.79799
#
# Compressibility (1/GPa) = 0.03902975
#
# Stress axis : x y z
#
# Youngs Moduli (GPa) = 35.22595 99.37411 74.68941
#
# Poissons Ratio (x) = 0.65859 -0.12055
# Poissons Ratio (y) = 0.23346 0.10394
# Poissons Ratio (z) = -0.05685 0.13829
#
# Static dielectric constant tensor:
#      x y z
#    x 3.950710 0.189370 -0.429500 
#    y 0.189370 4.389620 -0.149280 
#    z -0.429500 -0.149280 4.360130 
# 
# 
# High freq. dielectric constant tensor:
#      x y z
#    x 1.879250 0.004120 -0.025790 
#    y 0.004120 1.920510 -0.005480 
#    z -0.025790 -0.005480 1.921020 
# 
# From -- ./inp_files/184360.got.cif
#   From: 2010.06.25/outbox.cif.g09.slc.cpg/sg2_93_cif.got.tgz:184360.got - 2010.06.27 13:26:56.
