data_PCOD8014301
_publ_section_title
;
Structure prediction by ZEFSAII (Michael W. Deem and Ramdas Pophale) SiO2 
 PCOD8014301
Probable space group: P -1
;
_chemical_formula_sum "Si O2"
_cell_formula_units_Z 14
_cell_length_a 11.436053
_cell_length_b 9.550768
_cell_length_c 9.427756
_cell_angle_alpha 59.917829
_cell_angle_beta 97.747011
_cell_angle_gamma 129.107712
_cell_volume 665.703606
_symmetry_space_group_name_H-M "P -1"
_symmetry_group_IT_number 2
_symmetry_cell_setting 'triclinic'
loop_
_space_group_symop_operation_xyz
x,y,z
-x,-y,-z
loop_
_atom_site_type_symbol
_atom_site_label
_atom_site_fract_x
_atom_site_fract_y
_atom_site_fract_z
Si Si1 0.838652 0.447404 0.990754
Si Si2 0.605222 0.911943 0.909325
Si Si3 0.140857 0.076999 0.084148
Si Si4 0.632420 0.442201 0.165229
Si Si5 0.420572 0.040652 0.815346
Si Si6 0.864015 0.812312 0.670848
Si Si7 0.562272 0.677795 0.539385
O O1 0.858223 0.614423 0.798908
O O2 0.775646 0.452086 0.133639
O O3 0.000000 0.500000 0.000000
O O4 0.714670 0.206827 0.034666
O O5 0.793035 0.046600 0.861506
O O6 0.509208 0.707887 0.891893
O O7 0.572775 0.070477 0.782078
O O8 0.546176 0.824739 0.105826
O O9 0.087335 0.053591 0.246251
O O10 0.298845 0.316854 0.952723
O O11 0.000000 0.000000 0.000000
O O12 0.572171 0.370625 0.353842
O O13 0.368929 0.105640 0.643197
O O14 0.696137 0.714601 0.634514
O O15 0.000000 0.000000 0.500000
O O16 0.500000 0.500000 0.500000
#
# Coordination Sequence:
#
# PCOD8014301 Si02
#       7
#     2   2   2   2   2   2   2
#     4  10  23  43  69  96 135 180 220 273 339 401
#     4  10  21  41  66  94 127 174 226 272 321 402
#     4  11  24  40  68  94 131 179 223 270 333 404
#     4  10  23  42  67  95 132 176 227 272 335 392
#     4  10  24  39  71  97 131 174 226 270 339 396
#     4  11  26  45  66  98 137 173 221 280 334 391
#     4  12  26  42  69 101 135 174 226 284 331 394
#
# _framework density 21.030381999999999
#
# number of rings (size 3 to 8) (size 9 to 14) (size 15 to 20)
#    0.000    1.429    1.429    2.143   20.000    2.286 
#    2.571    0.000    0.000    2.571    0.000    0.000 
#    0.000    0.000    0.000    0.000    0.000    0.000 
#
# Total GULP energy -173446.690067 kJ/mol
# GULP energy per Si atom -12389.049290 kJ/mol
# Density = 2.098252 g / cm^3
# Si number density = 21.030382 Si / 1000 Ang^3
#
#
#
# Elastic Constant Matrix: (Units=GPa)
#
#
# Indices 1 2 3 4 5 6 
#
# 1 176.7522 53.0150 63.9198 12.5998 14.4251 8.5278
# 2 53.0150 95.9414 55.7631 23.1783 -6.2441 -7.3955
# 3 63.9198 55.7631 153.2471 4.9319 0.2558 -5.0859
# 4 12.5998 23.1783 4.9319 37.8202 0.8040 3.6861
# 5 14.4251 -6.2441 0.2558 0.8040 40.5370 4.7866
# 6 8.5278 -7.3955 -5.0859 3.6861 4.7866 20.5152
#
#
#
# Elastic Compliance Matrix: (Units=1/GPa)
#
#
# Indices 1 2 3 4 5 6 
#
# 1 0.008001 -0.003870 -0.002095 0.000495 -0.002890 -0.004655
# 2 -0.003870 0.018570 -0.004542 -0.010375 0.003501 0.008224
# 3 -0.002095 -0.004542 0.009018 0.002200 -0.000187 0.001117
# 4 0.000495 -0.010375 0.002200 0.033259 -0.001378 -0.009054
# 5 -0.002890 0.003501 -0.000187 -0.001378 0.026686 -0.003561
# 6 -0.004655 0.008224 0.001117 -0.009054 -0.003561 0.056379
#
#
# Mechanical properties :
#
#
# Convention : Reuss Voigt Hill
#
# Bulk Modulus (GPa) = 68.60653 85.70405 77.15529
# Shear Modulus (GPa) = 28.12388 36.65734 32.39061
#
# Velocity S-wave (km/s) = 3.66088 4.17953 3.92877
# Velocity P-wave (km/s) = 7.11075 8.00826 7.57281
#
# Compressibility (1/GPa) = 0.01457587
#
# Stress axis : x y z
#
# Youngs Moduli (GPa) = 124.98157 53.85125 110.88560
#
# Poissons Ratio (x) = 0.20842 0.23226
# Poissons Ratio (y) = 0.48371 0.50362
# Poissons Ratio (z) = 0.26179 0.24458
#
# Static dielectric constant tensor:
#      x y z
#    x 0.694630 0.292340 4.626880 
#    y 0.292340 3.901430 -0.364090 
#    z 4.626880 -0.364090 -2.234980 
# 
# 
# High freq. dielectric constant tensor:
#      x y z
#    x 1.842790 -0.011340 0.002100 
#    y -0.011340 1.821460 0.012710 
#    z 0.002100 0.012710 1.807760 
# 
# From -- ./inp_files/242601.got.cif
#   From: 2010.06.25/outbox.cif.g09.slc.cpg/sg2_122_cif.got.tgz:242601.got - 2010.06.27 13:26:56.
