data_PCOD8014591
_publ_section_title
;
Structure prediction by ZEFSAII (Michael W. Deem and Ramdas Pophale) SiO2 
 PCOD8014591
Probable space group: P -1
;
_chemical_formula_sum "Si O2"
_cell_formula_units_Z 14
_cell_length_a 14.583738
_cell_length_b 27.272475
_cell_length_c 10.707561
_cell_angle_alpha 159.596292
_cell_angle_beta 31.176533
_cell_angle_gamma 160.833774
_cell_volume 470.725267
_symmetry_space_group_name_H-M "P -1"
_symmetry_group_IT_number 2
_symmetry_cell_setting 'triclinic'
loop_
_space_group_symop_operation_xyz
x,y,z
-x,-y,-z
loop_
_atom_site_type_symbol
_atom_site_label
_atom_site_fract_x
_atom_site_fract_y
_atom_site_fract_z
Si Si1 0.252467 0.437425 0.087731
Si Si2 0.570588 0.694471 0.061634
Si Si3 0.683469 0.991126 0.820830
Si Si4 0.974670 0.274503 0.654071
Si Si5 0.105819 0.135184 0.341809
Si Si6 0.020326 0.295710 0.373062
Si Si7 0.626753 0.280736 0.181901
O O1 0.317738 0.640813 0.547285
O O2 0.500000 0.500000 0.000000
O O3 0.217272 0.367892 0.814944
O O4 0.995092 0.208359 0.918622
O O5 0.551638 0.756087 0.370545
O O6 0.286220 0.542333 0.948469
O O7 0.817477 0.933403 0.272081
O O8 0.678035 0.601176 0.725252
O O9 0.743589 0.038239 0.014889
O O10 0.500000 0.000000 0.000000
O O11 0.026382 0.135296 0.290893
O O12 0.889326 0.243943 0.537225
O O13 0.707711 0.167417 0.794130
O O14 0.333484 0.153480 0.150887
O O15 0.097549 0.481386 0.648213
#
# Coordination Sequence:
#
# PCOD8014591 Si02
#       7
#     2   2   2   2   2   2   2
#     4   8  17  37  66  93 134 177 222 285 341 399
#     4  11  23  44  74 100 138 185 233 290 342 412
#     4  10  21  41  69 103 133 176 237 289 337 409
#     4  12  25  45  72 102 141 192 224 285 351 419
#     4  10  23  44  66 104 140 178 238 283 348 412
#     4  11  23  44  70 101 142 185 228 281 358 413
#     4  10  21  43  68  97 141 185 232 286 342 411
#
# _framework density 29.741342
#
# number of rings (size 3 to 8) (size 9 to 14) (size 15 to 20)
#    0.000    1.714    1.429    3.000    0.000    1.143 
#   10.286    0.714    0.000    0.000    0.000    0.000 
#    0.000    0.000    0.000    0.000    0.000    0.000 
#
# Total GULP energy -173555.053792 kJ/mol
# GULP energy per Si atom -12396.789557 kJ/mol
# Density = 2.967365 g / cm^3
# Si number density = 29.741342 Si / 1000 Ang^3
#
#
#
# Elastic Constant Matrix: (Units=GPa)
#
#
# Indices 1 2 3 4 5 6 
#
# 1 128.9228 31.8248 7.0160 -14.1959 11.4426 9.1633
# 2 31.8248 133.3807 35.6191 -19.2697 9.9620 28.6640
# 3 7.0160 35.6191 56.5657 -15.0676 -8.3754 15.4585
# 4 -14.1959 -19.2697 -15.0676 55.7654 4.3581 7.7449
# 5 11.4426 9.9620 -8.3754 4.3581 37.9912 -8.0857
# 6 9.1633 28.6640 15.4585 7.7449 -8.0857 47.6004
#
#
#
# Elastic Compliance Matrix: (Units=1/GPa)
#
#
# Indices 1 2 3 4 5 6 
#
# 1 0.008694 -0.001197 0.000430 0.002418 -0.002909 -0.001980
# 2 -0.001197 0.011521 -0.005175 0.003630 -0.005616 -0.006571
# 3 0.000430 -0.005175 0.024330 0.005183 0.004960 -0.004868
# 4 0.002418 0.003630 0.005183 0.022835 -0.005053 -0.008908
# 5 -0.002909 -0.005616 0.004960 -0.005053 0.032178 0.008619
# 6 -0.001980 -0.006571 -0.004868 -0.008908 0.008619 0.029841
#
#
# Mechanical properties :
#
#
# Convention : Reuss Voigt Hill
#
# Bulk Modulus (GPa) = 30.61876 51.97656 41.29766
# Shear Modulus (GPa) = 32.85813 44.56535 38.71174
#
# Velocity S-wave (km/s) = 3.32745 3.87516 3.61170
# Velocity P-wave (km/s) = 5.00799 6.12671 5.59538
#
# Compressibility (1/GPa) = 0.03265971
#
# Stress axis : x y z
#
# Youngs Moduli (GPa) = 115.02440 86.79801 41.10212
#
# Poissons Ratio (x) = 0.10391 -0.01767
# Poissons Ratio (y) = 0.13770 0.21271
# Poissons Ratio (z) = -0.04946 0.44920
#
# Static dielectric constant tensor:
#      x y z
#    x 5.053940 -0.272390 -0.145900 
#    y -0.272390 5.713600 0.464390 
#    z -0.145900 0.464390 5.467630 
# 
# 
# High freq. dielectric constant tensor:
#      x y z
#    x 2.223250 -0.025090 0.012410 
#    y -0.025090 2.253840 0.028670 
#    z 0.012410 0.028670 2.242210 
# 
# From -- ./inp_files/426160.got.cif
#   From: 2010.06.25/outbox.cif.g09.slc.cpg/sg2_214_cif.got.tgz:426160.got - 2010.06.27 13:26:56.
