data_PCOD8014653
_publ_section_title
;
Structure prediction by ZEFSAII (Michael W. Deem and Ramdas Pophale) SiO2 
 PCOD8014653
Probable space group: P -1
;
_chemical_formula_sum "Si O2"
_cell_formula_units_Z 16
_cell_length_a 14.501888
_cell_length_b 28.869241
_cell_length_c 7.246456
_cell_angle_alpha 139.221136
_cell_angle_beta 129.480383
_cell_angle_gamma 20.515840
_cell_volume 657.782057
_symmetry_space_group_name_H-M "P -1"
_symmetry_group_IT_number 2
_symmetry_cell_setting 'triclinic'
loop_
_space_group_symop_operation_xyz
x,y,z
-x,-y,-z
loop_
_atom_site_type_symbol
_atom_site_label
_atom_site_fract_x
_atom_site_fract_y
_atom_site_fract_z
Si Si1 0.087057 0.516508 0.422435
Si Si2 0.581186 0.243105 0.960249
Si Si3 0.247541 0.188622 0.295838
Si Si4 0.993718 0.863986 0.815166
Si Si5 0.337882 0.550101 0.277549
Si Si6 0.926411 0.230061 0.974205
Si Si7 0.350663 0.946774 0.379586
Si Si8 0.767300 0.548296 0.175897
O O1 0.251633 0.440448 0.593130
O O2 0.831238 0.709756 0.654548
O O3 0.994116 0.483810 0.199709
O O4 0.293369 0.419688 0.224205
O O5 0.524905 0.274905 0.762711
O O6 0.675841 0.116053 0.758742
O O7 0.818786 0.169766 0.100617
O O8 0.351170 0.176698 0.572613
O O9 0.977228 0.284419 0.274062
O O10 0.500000 0.000000 0.000000
O O11 0.119836 0.725246 0.462072
O O12 0.697874 0.030704 0.835756
O O13 0.961790 0.877666 0.036858
O O14 0.500000 0.500000 0.500000
O O15 0.172021 0.565696 0.153278
O O16 0.600340 0.392619 0.999895
O O17 0.100828 0.123632 0.691809
#
# Coordination Sequence:
#
# PCOD8014653 Si02
#       8
#     2   2   2   2   2   2   2   2
#     4  11  26  44  72  99 130 176 224 272 331 388
#     4  12  24  45  68  98 135 168 230 275 320 396
#     4  10  23  44  64  99 133 166 221 270 324 398
#     4  11  25  42  65 102 130 174 223 265 335 400
#     4  10  21  41  69  99 126 170 226 268 326 393
#     4  10  23  43  64  95 135 173 212 281 327 382
#     4  11  26  42  65  95 134 180 216 269 332 389
#     4  11  24  44  69 102 130 174 219 277 332 391
#
# _framework density 24.324168
#
# number of rings (size 3 to 8) (size 9 to 14) (size 15 to 20)
#    0.000    1.250    3.750    1.500    7.000    2.500 
#    2.250    0.000    0.000    0.000    0.000    0.000 
#    0.000    0.000    0.000    0.000    0.000    0.000 
#
# Total GULP energy -198234.960237 kJ/mol
# GULP energy per Si atom -12389.685015 kJ/mol
# Density = 2.426880 g / cm^3
# Si number density = 24.324168 Si / 1000 Ang^3
#
#
#
# Elastic Constant Matrix: (Units=GPa)
#
#
# Indices 1 2 3 4 5 6 
#
# 1 81.0007 44.2910 16.5974 -20.5380 29.7018 -10.7860
# 2 44.2910 121.3736 19.8713 -22.7452 17.4059 23.7529
# 3 16.5974 19.8713 62.9812 -15.9285 29.6791 -5.8439
# 4 -20.5380 -22.7452 -15.9285 29.8056 -10.2240 3.3499
# 5 29.7018 17.4059 29.6791 -10.2240 50.1938 -11.8289
# 6 -10.7860 23.7529 -5.8439 3.3499 -11.8289 41.7145
#
#
#
# Elastic Compliance Matrix: (Units=1/GPa)
#
#
# Indices 1 2 3 4 5 6 
#
# 1 0.021748 -0.007137 0.003401 0.007400 -0.009262 0.006943
# 2 -0.007137 0.014675 -0.001601 0.006246 -0.001310 -0.011299
# 3 0.003401 -0.001601 0.024444 0.009365 -0.013879 0.000528
# 4 0.007400 0.006246 0.009365 0.047778 -0.003571 -0.005181
# 5 -0.009262 -0.001310 -0.013879 -0.003571 0.034889 0.006587
# 6 0.006943 -0.011299 0.000528 -0.005181 0.006587 0.034559
#
#
# Mechanical properties :
#
#
# Convention : Reuss Voigt Hill
#
# Bulk Modulus (GPa) = 19.92309 47.43055 33.67682
# Shear Modulus (GPa) = 24.33107 36.64917 30.49012
#
# Velocity S-wave (km/s) = 3.16616 3.88583 3.54431
# Velocity P-wave (km/s) = 4.64484 6.29878 5.53395
#
# Compressibility (1/GPa) = 0.05019303
#
# Stress axis : x y z
#
# Youngs Moduli (GPa) = 45.98135 68.14337 40.90919
#
# Poissons Ratio (x) = 0.48632 -0.13911
# Poissons Ratio (y) = 0.32816 0.06549
# Poissons Ratio (z) = -0.15636 0.10909
#
# Static dielectric constant tensor:
#      x y z
#    x 4.371880 -0.273730 0.276450 
#    y -0.273730 5.054470 0.155260 
#    z 0.276450 0.155260 4.602980 
# 
# 
# High freq. dielectric constant tensor:
#      x y z
#    x 1.961220 -0.000280 0.030380 
#    y -0.000280 1.973980 -0.013450 
#    z 0.030380 -0.013450 1.957470 
# 
# From -- ./inp_files/321003.got.cif
#   From: 2010.06.25/outbox.cif.g09.slc.cpg/sg2_161_cif.got.tgz:321003.got - 2010.06.27 13:26:56.
