data_PCOD8014585
_publ_section_title
;
Structure prediction by ZEFSAII (Michael W. Deem and Ramdas Pophale) SiO2 
 PCOD8014585
Probable space group: P -1
;
_chemical_formula_sum "Si O2"
_cell_formula_units_Z 16
_cell_length_a 11.676756
_cell_length_b 8.753333
_cell_length_c 9.050171
_cell_angle_alpha 61.360594
_cell_angle_beta 96.952932
_cell_angle_gamma 115.901974
_cell_volume 725.709380
_symmetry_space_group_name_H-M "P -1"
_symmetry_group_IT_number 2
_symmetry_cell_setting 'triclinic'
loop_
_space_group_symop_operation_xyz
x,y,z
-x,-y,-z
loop_
_atom_site_type_symbol
_atom_site_label
_atom_site_fract_x
_atom_site_fract_y
_atom_site_fract_z
Si Si1 0.252406 0.811930 0.675171
Si Si2 0.993122 0.498267 0.674838
Si Si3 0.739754 0.886198 0.246999
Si Si4 0.779915 0.629743 0.590924
Si Si5 0.721058 0.883949 0.698140
Si Si6 0.547118 0.248001 0.773973
Si Si7 0.509724 0.169266 0.133663
Si Si8 0.111023 0.943934 0.087883
O O1 0.134708 0.609319 0.712037
O O2 0.371076 0.772134 0.763954
O O3 0.208300 0.910820 0.753362
O O4 0.296622 0.953741 0.475973
O O5 0.000000 0.500000 0.500000
O O6 0.906759 0.605253 0.662452
O O7 0.932830 0.283541 0.830734
O O8 0.806016 0.758192 0.386139
O O9 0.587290 0.765999 0.299938
O O10 0.770262 0.936295 0.057298
O O11 0.742621 0.729605 0.673652
O O12 0.662794 0.424073 0.632233
O O13 0.593406 0.775083 0.827103
O O14 0.846307 0.989233 0.769915
O O15 0.560934 0.057177 0.815327
O O16 0.559821 0.284609 0.935329
O O17 0.000000 0.000000 0.000000
#
# Coordination Sequence:
#
# PCOD8014585 Si02
#       8
#     2   2   2   2   2   2   2   2
#     4  10  24  41  71 101 135 181 231 280 338 401
#     4  12  26  47  71 100 133 182 234 278 338 419
#     4  10  23  45  67 101 140 181 223 282 343 403
#     4  11  26  42  72 101 138 179 230 281 337 412
#     4  11  23  45  67 103 141 180 224 287 342 398
#     4  10  21  41  69 101 136 183 228 279 340 403
#     4  10  21  42  70 101 139 178 229 284 340 399
#     4  12  26  45  71  99 140 183 225 282 349 403
#
# _framework density 22.047393
#
# number of rings (size 3 to 8) (size 9 to 14) (size 15 to 20)
#    0.000    1.250    2.500    2.250    5.250    3.000 
#    4.500    0.000    0.000    0.000    0.000    0.000 
#    0.000    0.000    0.000    0.000    0.000    0.000 
#
# Total GULP energy -198490.498188 kJ/mol
# GULP energy per Si atom -12405.656137 kJ/mol
# Density = 2.199721 g / cm^3
# Si number density = 22.047393 Si / 1000 Ang^3
#
#
#
# Elastic Constant Matrix: (Units=GPa)
#
#
# Indices 1 2 3 4 5 6 
#
# 1 107.0301 36.1227 29.9163 1.6338 11.1358 -1.1456
# 2 36.1227 100.3983 34.9305 3.9462 4.6835 17.4175
# 3 29.9163 34.9305 91.9541 8.6900 6.3904 -4.3959
# 4 1.6338 3.9462 8.6900 35.9666 4.0645 4.4073
# 5 11.1358 4.6835 6.3904 4.0645 40.3744 1.9480
# 6 -1.1456 17.4175 -4.3959 4.4073 1.9480 36.4939
#
#
#
# Elastic Compliance Matrix: (Units=1/GPa)
#
#
# Indices 1 2 3 4 5 6 
#
# 1 0.011430 -0.003603 -0.002125 0.000443 -0.002535 0.001904
# 2 -0.003603 0.014132 -0.004640 0.000611 0.000390 -0.007511
# 3 -0.002125 -0.004640 0.013898 -0.003165 -0.000962 0.004256
# 4 0.000443 0.000611 -0.003165 0.029255 -0.002441 -0.004061
# 5 -0.002535 0.000390 -0.000962 -0.002441 0.025891 -0.001469
# 6 0.001904 -0.007511 0.004256 -0.004061 -0.001469 0.032128
#
#
# Mechanical properties :
#
#
# Convention : Reuss Voigt Hill
#
# Bulk Modulus (GPa) = 53.40361 55.70239 54.55300
# Shear Modulus (GPa) = 32.52854 35.79454 34.16154
#
# Velocity S-wave (km/s) = 3.84525 4.03367 3.94059
# Velocity P-wave (km/s) = 6.63245 6.85665 6.74548
#
# Compressibility (1/GPa) = 0.01872533
#
# Stress axis : x y z
#
# Youngs Moduli (GPa) = 87.48608 70.76215 71.95140
#
# Poissons Ratio (x) = 0.25494 0.15288
# Poissons Ratio (y) = 0.31520 0.33385
# Poissons Ratio (z) = 0.18589 0.32833
#
# Static dielectric constant tensor:
#      x y z
#    x 4.006220 -0.069790 -0.054010 
#    y -0.069790 3.923670 0.170630 
#    z -0.054010 0.170630 4.172920 
# 
# 
# High freq. dielectric constant tensor:
#      x y z
#    x 1.870970 0.004900 0.004510 
#    y 0.004900 1.861570 0.007090 
#    z 0.004510 0.007090 1.873570 
# 
# From -- ./inp_files/207988.got.cif
#   From: 2010.06.25/outbox.cif.g09.slc.cpg/sg2_104_cif.got.tgz:207988.got - 2010.06.27 13:26:56.
