data_PCOD8014729
_publ_section_title
;
Structure prediction by ZEFSAII (Michael W. Deem and Ramdas Pophale) SiO2 
 PCOD8014729
Probable space group: P -1
;
_chemical_formula_sum "Si O2"
_cell_formula_units_Z 16
_cell_length_a 17.976575
_cell_length_b 11.021705
_cell_length_c 12.917209
_cell_angle_alpha 143.514388
_cell_angle_beta 32.481575
_cell_angle_gamma 145.317806
_cell_volume 729.332309
_symmetry_space_group_name_H-M "P -1"
_symmetry_group_IT_number 2
_symmetry_cell_setting 'triclinic'
loop_
_space_group_symop_operation_xyz
x,y,z
-x,-y,-z
loop_
_atom_site_type_symbol
_atom_site_label
_atom_site_fract_x
_atom_site_fract_y
_atom_site_fract_z
Si Si1 0.057596 0.788990 0.393738
Si Si2 0.382529 0.253109 0.004919
Si Si3 0.773361 0.444110 0.868526
Si Si4 0.548931 0.005636 0.716840
Si Si5 0.355111 0.519538 0.638809
Si Si6 0.760444 0.740609 0.604488
Si Si7 0.217875 0.198675 0.750768
Si Si8 0.081468 0.188686 0.211245
O O1 0.119424 0.598889 0.201676
O O2 0.906706 0.698630 0.436936
O O3 0.020574 0.830203 0.581894
O O4 0.189385 0.021191 0.350549
O O5 0.475474 0.102240 0.781001
O O6 0.500000 0.500000 0.000000
O O7 0.340955 0.265274 0.181976
O O8 0.229795 0.149868 0.041647
O O9 0.629670 0.200570 0.842889
O O10 0.864583 0.566479 0.740186
O O11 0.718111 0.620293 0.105650
O O12 0.397774 0.786150 0.789600
O O13 0.672261 0.927742 0.471489
O O14 0.500000 0.500000 0.500000
O O15 0.336326 0.464014 0.500852
O O16 0.212041 0.337528 0.749021
O O17 0.039688 0.016592 0.859163
#
# Coordination Sequence:
#
# PCOD8014729 Si02
#       8
#     2   2   2   2   2   2   2   2
#     4  10  21  41  71 103 131 189 225 294 342 401
#     4  11  25  43  70 103 139 186 223 285 350 416
#     4  12  24  41  72  99 136 184 234 279 349 407
#     4  11  25  43  68  96 142 184 225 282 349 404
#     4  10  22  42  63  99 140 176 226 289 331 411
#     4  10  22  42  69 100 143 176 236 281 351 410
#     4  11  25  43  68 103 137 176 241 285 335 416
#     4  11  22  46  69 100 143 176 237 286 336 412
#
# _framework density 21.937874000000001
#
# number of rings (size 3 to 8) (size 9 to 14) (size 15 to 20)
#    0.000    1.250    3.750    1.500    5.250    1.500 
#    0.000    3.750    0.000    0.000    0.000    0.000 
#    0.000    0.000    0.000    0.000    0.000    0.000 
#
# Total GULP energy -198309.339263 kJ/mol
# GULP energy per Si atom -12394.333704 kJ/mol
# Density = 2.188794 g / cm^3
# Si number density = 21.937874 Si / 1000 Ang^3
#
#
#
# Elastic Constant Matrix: (Units=GPa)
#
#
# Indices 1 2 3 4 5 6 
#
# 1 114.1131 62.4997 49.7817 11.1865 -14.8332 -5.1526
# 2 62.4997 153.5666 50.2515 12.3445 -4.1890 -6.9666
# 3 49.7817 50.2515 94.5854 15.3583 -10.2682 7.2187
# 4 11.1865 12.3445 15.3583 33.5682 -4.2234 4.7203
# 5 -14.8332 -4.1890 -10.2682 -4.2234 46.0447 3.0775
# 6 -5.1526 -6.9666 7.2187 4.7203 3.0775 45.2973
#
#
#
# Elastic Compliance Matrix: (Units=1/GPa)
#
#
# Indices 1 2 3 4 5 6 
#
# 1 0.013361 -0.003660 -0.004785 -0.000802 0.002722 0.001618
# 2 -0.003660 0.009114 -0.002990 -0.001154 -0.001234 0.001666
# 3 -0.004785 -0.002990 0.015719 -0.003850 0.001553 -0.003213
# 4 -0.000802 -0.001154 -0.003850 0.032950 0.002016 -0.003226
# 5 0.002722 -0.001234 0.001553 0.002016 0.023142 -0.001910
# 6 0.001618 0.001666 -0.003213 -0.003226 -0.001910 0.023495
#
#
# Mechanical properties :
#
#
# Convention : Reuss Voigt Hill
#
# Bulk Modulus (GPa) = 65.25759 76.37010 70.81384
# Shear Modulus (GPa) = 34.30334 38.29750 36.30042
#
# Velocity S-wave (km/s) = 3.95860 4.18272 4.07220
# Velocity P-wave (km/s) = 7.12076 7.62984 7.37969
#
# Compressibility (1/GPa) = 0.01532389
#
# Stress axis : x y z
#
# Youngs Moduli (GPa) = 74.84584 109.71779 63.61883
#
# Poissons Ratio (x) = 0.40152 0.30444
# Poissons Ratio (y) = 0.27391 0.19021
# Poissons Ratio (z) = 0.35817 0.32805
#
# Static dielectric constant tensor:
#      x y z
#    x 4.316850 -0.341800 -0.153870 
#    y -0.341800 4.856090 -0.170240 
#    z -0.153870 -0.170240 3.612390 
# 
# 
# High freq. dielectric constant tensor:
#      x y z
#    x 1.866350 -0.003610 -0.010040 
#    y -0.003610 1.880020 -0.000420 
#    z -0.010040 -0.000420 1.839120 
# 
# From -- ./inp_files/541003.got.cif
#   From: 2010.06.25/outbox.cif.g09.slc.cpg/sg2_271_cif.got.tgz:541003.got - 2010.06.27 13:26:56.
