data_PCOD8014878
_publ_section_title
;
Structure prediction by ZEFSAII (Michael W. Deem and Ramdas Pophale) SiO2 
 PCOD8014878
Probable space group: P -1
;
_chemical_formula_sum "Si O2"
_cell_formula_units_Z 12
_cell_length_a 8.465324
_cell_length_b 14.883429
_cell_length_c 9.372362
_cell_angle_alpha 148.091164
_cell_angle_beta 69.328192
_cell_angle_gamma 113.334449
_cell_volume 572.768792
_symmetry_space_group_name_H-M "P -1"
_symmetry_group_IT_number 2
_symmetry_cell_setting 'triclinic'
loop_
_space_group_symop_operation_xyz
x,y,z
-x,-y,-z
loop_
_atom_site_type_symbol
_atom_site_label
_atom_site_fract_x
_atom_site_fract_y
_atom_site_fract_z
Si Si1 0.692646 0.475474 0.757952
Si Si2 0.083372 0.117232 0.999125
Si Si3 0.518135 0.251176 0.738427
Si Si4 0.946809 0.298828 0.037457
Si Si5 0.238131 0.945233 0.457715
Si Si6 0.697350 0.524677 0.511373
O O1 0.637372 0.297896 0.623706
O O2 0.717261 0.428411 0.523871
O O3 0.869074 0.588848 0.914753
O O4 0.535381 0.577853 0.951238
O O5 0.227677 0.269512 0.225796
O O6 0.952966 0.210355 0.073404
O O7 0.166122 0.998697 0.703511
O O8 0.000000 0.000000 0.000000
O O9 0.629572 0.181862 0.729955
O O10 0.345318 0.113369 0.569704
O O11 0.807922 0.424010 0.237257
O O12 0.909461 0.147603 0.727123
O O13 0.500000 0.500000 0.500000
#
# Coordination Sequence:
#
# PCOD8014878 Si02
#       6
#     2   2   2   2   2   2
#     4  10  21  42  62  94 126 171 211 255 313 378
#     4  11  25  44  65  95 130 165 210 264 318 372
#     4  10  22  38  66  88 132 163 211 255 315 366
#     4  11  24  42  68  92 129 167 213 259 315 375
#     4  11  23  42  64  96 127 165 210 263 316 367
#     4  11  24  44  64  92 129 170 212 259 315 379
#
# _framework density 20.950862000000001
#
# number of rings (size 3 to 8) (size 9 to 14) (size 15 to 20)
#    0.000    1.333    3.333    3.500    7.000    2.000 
#    3.000    1.667    0.000    0.000    0.000    0.000 
#    0.000    0.000    0.000    0.000    0.000    0.000 
#
# Total GULP energy -148751.542651 kJ/mol
# GULP energy per Si atom -12395.961888 kJ/mol
# Density = 2.090318 g / cm^3
# Si number density = 20.950862 Si / 1000 Ang^3
#
#
#
# Elastic Constant Matrix: (Units=GPa)
#
#
# Indices 1 2 3 4 5 6 
#
# 1 114.2036 35.3500 51.5890 5.6372 6.9478 13.6878
# 2 35.3500 158.7185 37.4246 2.4083 20.2750 27.1300
# 3 51.5890 37.4246 110.5924 -1.2779 9.5313 7.3656
# 4 5.6372 2.4083 -1.2779 16.3705 0.2123 -3.6532
# 5 6.9478 20.2750 9.5313 0.2123 45.9529 4.7398
# 6 13.6878 27.1300 7.3656 -3.6532 4.7398 22.4100
#
#
#
# Elastic Compliance Matrix: (Units=1/GPa)
#
#
# Indices 1 2 3 4 5 6 
#
# 1 0.012299 -0.000320 -0.005279 -0.006026 0.000063 -0.006386
# 2 -0.000320 0.008926 -0.002038 -0.003565 -0.002418 -0.010011
# 3 -0.005279 -0.002038 0.012163 0.003644 -0.001103 0.002520
# 4 -0.006026 -0.003565 0.003644 0.067986 -0.000440 0.017975
# 5 0.000063 -0.002418 -0.001103 -0.000440 0.023228 -0.001733
# 6 -0.006386 -0.010011 0.002520 0.017975 -0.001733 0.063111
#
#
# Mechanical properties :
#
#
# Convention : Reuss Voigt Hill
#
# Bulk Modulus (GPa) = 55.19782 70.24909 62.72346
# Shear Modulus (GPa) = 23.92060 34.22342 29.07201
#
# Velocity S-wave (km/s) = 3.38264 4.04605 3.72913
# Velocity P-wave (km/s) = 6.45445 7.44517 6.96744
#
# Compressibility (1/GPa) = 0.01811666
#
# Stress axis : x y z
#
# Youngs Moduli (GPa) = 81.30924 112.02803 82.21382
#
# Poissons Ratio (x) = 0.03580 0.43398
# Poissons Ratio (y) = 0.02599 0.16752
# Poissons Ratio (z) = 0.42921 0.22827
#
# Static dielectric constant tensor:
#      x y z
#    x 3.808430 0.125510 -0.094710 
#    y 0.125510 3.925140 0.066230 
#    z -0.094710 0.066230 3.793180 
# 
# 
# High freq. dielectric constant tensor:
#      x y z
#    x 1.825380 0.006270 -0.011690 
#    y 0.006270 1.812660 0.007070 
#    z -0.011690 0.007070 1.823030 
# 
# From -- ./inp_files/152413.got.cif
#   From: 2010.06.25/outbox.cif.g09.slc.cpg/sg2_77_cif.got.tgz:152413.got - 2010.06.27 13:26:56.
