data_PCOD8014837
_publ_section_title
;
Structure prediction by ZEFSAII (Michael W. Deem and Ramdas Pophale) SiO2 
 PCOD8014837
Probable space group: P -1
;
_chemical_formula_sum "Si O2"
_cell_formula_units_Z 16
_cell_length_a 12.742055
_cell_length_b 17.317313
_cell_length_c 8.034434
_cell_angle_alpha 114.060432
_cell_angle_beta 98.385210
_cell_angle_gamma 137.581822
_cell_volume 751.602092
_symmetry_space_group_name_H-M "P -1"
_symmetry_group_IT_number 2
_symmetry_cell_setting 'triclinic'
loop_
_space_group_symop_operation_xyz
x,y,z
-x,-y,-z
loop_
_atom_site_type_symbol
_atom_site_label
_atom_site_fract_x
_atom_site_fract_y
_atom_site_fract_z
Si Si1 0.750249 0.331999 0.229211
Si Si2 0.353119 0.288914 0.707953
Si Si3 0.225317 0.334400 0.982949
Si Si4 0.468255 0.982867 0.216730
Si Si5 0.435154 0.727134 0.198294
Si Si6 0.786586 0.121346 0.636447
Si Si7 0.482488 0.792935 0.628037
Si Si8 0.935147 0.019571 0.862602
O O1 0.632976 0.315331 0.318508
O O2 0.000000 0.500000 0.500000
O O3 0.643114 0.162500 0.062077
O O4 0.732525 0.355762 0.055838
O O5 0.243125 0.283522 0.787902
O O6 0.497354 0.321424 0.876200
O O7 0.144825 0.093793 0.408028
O O8 0.524718 0.448778 0.747374
O O9 0.052800 0.288774 0.854058
O O10 0.143179 0.226258 0.033716
O O11 0.290745 0.870288 0.227679
O O12 0.712447 0.116863 0.447424
O O13 0.514867 0.104934 0.253201
O O14 0.341746 0.665887 0.316197
O O15 0.661080 0.942587 0.457441
O O16 0.736541 0.938312 0.813664
O O17 0.000000 0.000000 0.000000
#
# Coordination Sequence:
#
# PCOD8014837 Si02
#       8
#     2   2   2   2   2   2   2   2
#     4  11  24  36  59  93 127 164 205 260 315 370
#     4  10  23  39  64  95 124 159 215 260 300 399
#     4  11  21  39  65  95 121 163 214 250 324 372
#     4   9  18  36  59  86 120 156 210 257 293 383
#     4   9  20  41  61  87 125 164 208 259 308 378
#     4   9  17  34  65  87 113 168 206 253 317 358
#     4  10  21  42  61  92 117 165 219 247 318 378
#     4  11  24  41  65  91 127 168 202 265 321 366
#
# _framework density 21.287860999999999
#
# number of rings (size 3 to 8) (size 9 to 14) (size 15 to 20)
#    0.000    2.000    3.750    1.500    1.750    5.000 
#    0.000    2.500    0.000    0.000    0.000    0.000 
#    0.000    0.000    0.000    0.000    0.000    0.000 
#
# Total GULP energy -198215.732629 kJ/mol
# GULP energy per Si atom -12388.483289 kJ/mol
# Density = 2.123941 g / cm^3
# Si number density = 21.287861 Si / 1000 Ang^3
#
#
#
# Elastic Constant Matrix: (Units=GPa)
#
#
# Indices 1 2 3 4 5 6 
#
# 1 103.5268 34.4529 16.8673 -20.0220 11.4899 0.8463
# 2 34.4529 78.6840 25.5809 -15.8380 13.8456 10.7359
# 3 16.8673 25.5809 63.2906 -23.6450 9.8057 2.3720
# 4 -20.0220 -15.8380 -23.6450 26.4875 -1.2002 -0.0734
# 5 11.4899 13.8456 9.8057 -1.2002 26.6340 -4.6164
# 6 0.8463 10.7359 2.3720 -0.0734 -4.6164 37.2705
#
#
#
# Elastic Compliance Matrix: (Units=1/GPa)
#
#
# Indices 1 2 3 4 5 6 
#
# 1 0.012764 -0.003795 0.002124 0.009100 -0.003870 0.000207
# 2 -0.003795 0.018593 -0.003220 0.005011 -0.007657 -0.006003
# 3 0.002124 -0.003220 0.026436 0.022900 -0.008252 -0.001780
# 4 0.009100 0.005011 0.022900 0.067483 -0.012709 -0.004549
# 5 -0.003870 -0.007657 -0.008252 -0.012709 0.047158 0.008635
# 6 0.000207 -0.006003 -0.001780 -0.004549 0.008635 0.029729
#
#
# Mechanical properties :
#
#
# Convention : Reuss Voigt Hill
#
# Bulk Modulus (GPa) = 20.82892 44.36707 32.59800
# Shear Modulus (GPa) = 21.93472 29.31841 25.62657
#
# Velocity S-wave (km/s) = 3.21345 3.71514 3.47336
# Velocity P-wave (km/s) = 4.85530 6.26815 5.60641
#
# Compressibility (1/GPa) = 0.04801018
#
# Stress axis : x y z
#
# Youngs Moduli (GPa) = 78.34546 53.78451 37.82687
#
# Poissons Ratio (x) = 0.20411 -0.08033
# Poissons Ratio (y) = 0.29731 0.12181
# Poissons Ratio (z) = -0.16638 0.17320
#
# Static dielectric constant tensor:
#      x y z
#    x 4.122990 -0.146690 0.059400 
#    y -0.146690 4.014790 -0.152890 
#    z 0.059400 -0.152890 3.882040 
# 
# 
# High freq. dielectric constant tensor:
#      x y z
#    x 1.849980 -0.002560 -0.006920 
#    y -0.002560 1.825220 -0.004800 
#    z -0.006920 -0.004800 1.808860 
# 
# From -- ./inp_files/279708.got.cif
#   From: 2010.06.25/outbox.cif.g09.slc.cpg/sg2_140_cif.got.tgz:279708.got - 2010.06.27 13:26:56.
