data_PCOD8014886
_publ_section_title
;
Structure prediction by ZEFSAII (Michael W. Deem and Ramdas Pophale) SiO2 
 PCOD8014886
Probable space group: P -1
;
_chemical_formula_sum "Si O2"
_cell_formula_units_Z 16
_cell_length_a 9.883114
_cell_length_b 15.365160
_cell_length_c 10.717065
_cell_angle_alpha 62.597311
_cell_angle_beta 75.774792
_cell_angle_gamma 128.894264
_cell_volume 712.236478
_symmetry_space_group_name_H-M "P -1"
_symmetry_group_IT_number 2
_symmetry_cell_setting 'triclinic'
loop_
_space_group_symop_operation_xyz
x,y,z
-x,-y,-z
loop_
_atom_site_type_symbol
_atom_site_label
_atom_site_fract_x
_atom_site_fract_y
_atom_site_fract_z
Si Si1 0.237550 0.722710 0.826397
Si Si2 0.560201 0.138195 0.831231
Si Si3 0.832700 0.115039 0.378233
Si Si4 0.861502 0.850737 0.861292
Si Si5 0.538019 0.442834 0.634145
Si Si6 0.006444 0.322382 0.443357
Si Si7 0.747897 0.894094 0.197171
Si Si8 0.594540 0.277858 0.975043
O O1 0.124980 0.763594 0.799273
O O2 0.524452 0.884739 0.576569
O O3 0.332126 0.765454 0.919847
O O4 0.000000 0.500000 0.000000
O O5 0.297337 0.021055 0.892948
O O6 0.636413 0.263951 0.835646
O O7 0.790970 0.265659 0.590951
O O8 0.500000 0.000000 0.000000
O O9 0.075308 0.185055 0.243450
O O10 0.865368 0.160086 0.488540
O O11 0.689249 0.692110 0.114815
O O12 0.710843 0.859707 0.844356
O O13 0.168287 0.060033 0.706605
O O14 0.500000 0.500000 0.500000
O O15 0.832583 0.634076 0.508485
O O16 0.522015 0.331512 0.631710
O O17 0.205284 0.508828 0.190555
O O18 0.000000 0.000000 0.000000
#
# Coordination Sequence:
#
# PCOD8014886 Si02
#       8
#     2   2   2   2   2   2   2   2
#     4  11  25  47  70 100 140 183 239 291 341 422
#     4  12  25  39  70  99 135 185 232 296 359 414
#     4  11  26  47  72 103 139 188 235 282 355 424
#     4  10  24  45  70  97 146 182 231 285 345 428
#     4  10  23  42  69 103 139 182 228 292 354 412
#     4  11  24  44  67 102 143 177 241 287 349 428
#     4  10  21  42  62  97 134 177 226 286 344 410
#     4  11  23  45  68 101 137 185 232 295 355 409
#
# _framework density 22.464448999999998
#
# number of rings (size 3 to 8) (size 9 to 14) (size 15 to 20)
#    0.000    1.250    5.000    1.125    8.750    3.500 
#    2.250    0.000    0.000    0.000    0.000    0.000 
#    0.000    0.000    0.000    0.000    0.000    0.000 
#
# Total GULP energy -198233.758687 kJ/mol
# GULP energy per Si atom -12389.609918 kJ/mol
# Density = 2.241332 g / cm^3
# Si number density = 22.464449 Si / 1000 Ang^3
#
#
#
# Elastic Constant Matrix: (Units=GPa)
#
#
# Indices 1 2 3 4 5 6 
#
# 1 157.5708 62.9848 35.0858 7.0038 -8.9520 20.1045
# 2 62.9848 121.6013 39.6419 2.9816 -19.9154 3.1717
# 3 35.0858 39.6419 65.3449 -4.9057 -10.1808 -2.5216
# 4 7.0038 2.9816 -4.9057 38.4162 -9.4805 -3.2156
# 5 -8.9520 -19.9154 -10.1808 -9.4805 39.3894 8.3449
# 6 20.1045 3.1717 -2.5216 -3.2156 8.3449 38.9883
#
#
#
# Elastic Compliance Matrix: (Units=1/GPa)
#
#
# Indices 1 2 3 4 5 6 
#
# 1 0.009176 -0.003560 -0.003124 -0.002207 -0.000032 -0.004819
# 2 -0.003560 0.012390 -0.004948 0.000078 0.004281 -0.000402
# 3 -0.003124 -0.004948 0.020848 0.004522 0.002592 0.003180
# 4 -0.002207 0.000078 0.004522 0.028971 0.007198 0.002273
# 5 -0.000032 0.004281 0.002592 0.007198 0.031274 -0.006264
# 6 -0.004819 -0.000402 0.003180 0.002273 -0.006264 0.029900
#
#
# Mechanical properties :
#
#
# Convention : Reuss Voigt Hill
#
# Bulk Modulus (GPa) = 52.21616 68.88245 60.54930
# Shear Modulus (GPa) = 30.82483 37.14576 33.98529
#
# Velocity S-wave (km/s) = 3.70829 4.07078 3.89375
# Velocity P-wave (km/s) = 6.45210 7.26804 6.87219
#
# Compressibility (1/GPa) = 0.01915116
#
# Stress axis : x y z
#
# Youngs Moduli (GPa) = 108.97881 80.70964 47.96547
#
# Poissons Ratio (x) = 0.28732 0.14984
# Poissons Ratio (y) = 0.38795 0.23733
# Poissons Ratio (z) = 0.34044 0.39934
#
# Static dielectric constant tensor:
#      x y z
#    x 4.472020 0.132140 -0.167920 
#    y 0.132140 4.917250 -0.266820 
#    z -0.167920 -0.266820 3.974690 
# 
# 
# High freq. dielectric constant tensor:
#      x y z
#    x 1.896390 0.015260 -0.002340 
#    y 0.015260 1.885590 -0.006320 
#    z -0.002340 -0.006320 1.864360 
# 
# From -- ./inp_files/398783.got.cif
#   From: 2010.06.25/outbox.cif.g09.slc.cpg/sg2_200_cif.got.tgz:398783.got - 2010.06.27 13:26:56.
