data_PCOD8014054
_publ_section_title
;
Structure prediction by ZEFSAII (Michael W. Deem and Ramdas Pophale) SiO2 
 PCOD8014054
Probable space group: P -1
;
_chemical_formula_sum "Si O2"
_cell_formula_units_Z 16
_cell_length_a 11.200158
_cell_length_b 9.989392
_cell_length_c 9.087896
_cell_angle_alpha 67.298946
_cell_angle_beta 57.642736
_cell_angle_gamma 59.408810
_cell_volume 730.288235
_symmetry_space_group_name_H-M "P -1"
_symmetry_group_IT_number 2
_symmetry_cell_setting 'triclinic'
loop_
_space_group_symop_operation_xyz
x,y,z
-x,-y,-z
loop_
_atom_site_type_symbol
_atom_site_label
_atom_site_fract_x
_atom_site_fract_y
_atom_site_fract_z
Si Si1 0.403147 0.491654 0.285061
Si Si2 0.141022 0.083831 0.002248
Si Si3 0.044720 0.627282 0.502143
Si Si4 0.440100 0.830297 0.548916
Si Si5 0.908689 0.938007 0.280633
Si Si6 0.521321 0.050424 0.228745
Si Si7 0.400227 0.349013 0.030383
Si Si8 0.900555 0.627034 0.901036
O O1 0.497695 0.360675 0.402325
O O2 0.418691 0.411734 0.150776
O O3 0.225664 0.584514 0.399339
O O4 0.481036 0.620276 0.171852
O O5 0.071788 0.141664 0.860599
O O6 0.310232 0.957161 0.914919
O O7 0.165131 0.212718 0.032819
O O8 0.037541 0.009079 0.187462
O O9 0.942486 0.798033 0.432630
O O10 0.003970 0.636902 0.694760
O O11 0.000000 0.500000 0.500000
O O12 0.527568 0.870700 0.611410
O O13 0.255845 0.920352 0.642649
O O14 0.497532 0.885185 0.334057
O O15 0.422107 0.165025 0.115937
O O16 0.230942 0.431009 0.042129
O O17 0.000000 0.500000 0.000000
#
# Coordination Sequence:
#
# PCOD8014054 Si02
#       8
#     2   2   2   2   2   2   2   2
#     4  10  22  38  68  98 126 169 220 276 317 394
#     4  10  23  40  66  95 132 167 217 271 330 388
#     4  12  24  42  69  97 131 176 227 266 325 398
#     4   9  19  33  63  94 123 157 219 270 312 374
#     4  10  22  42  69  96 125 176 223 266 323 398
#     4   9  18  36  61  90 119 162 214 265 320 388
#     4  10  21  41  64  95 130 168 218 269 332 387
#     4  12  27  41  62  95 138 173 218 273 335 385
#
# _framework density 21.909158000000001
#
# number of rings (size 3 to 8) (size 9 to 14) (size 15 to 20)
#    0.000    1.750    1.250    2.250    8.750    3.000 
#    0.000    1.875    0.000    0.000    0.000    0.000 
#    0.000    0.000    0.000    0.000    0.000    0.000 
#
# Total GULP energy -198290.444483 kJ/mol
# GULP energy per Si atom -12393.152780 kJ/mol
# Density = 2.185929 g / cm^3
# Si number density = 21.909158 Si / 1000 Ang^3
#
#
#
# Elastic Constant Matrix: (Units=GPa)
#
#
# Indices 1 2 3 4 5 6 
#
# 1 58.8165 40.5615 55.9415 -16.7328 -23.4262 -22.2015
# 2 40.5615 90.7167 43.2555 -28.0496 3.7852 -23.9336
# 3 55.9415 43.2555 119.0307 -29.4853 -20.3743 -17.7817
# 4 -16.7328 -28.0496 -29.4853 41.3971 -6.7189 1.9134
# 5 -23.4262 3.7852 -20.3743 -6.7189 36.0706 2.6718
# 6 -22.2015 -23.9336 -17.7817 1.9134 2.6718 34.5005
#
#
#
# Elastic Compliance Matrix: (Units=1/GPa)
#
#
# Indices 1 2 3 4 5 6 
#
# 1 0.068122 -0.016123 -0.012941 0.012753 0.039354 0.022228
# 2 -0.016123 0.022202 -0.000241 0.006119 -0.012205 0.005508
# 3 -0.012941 -0.000241 0.016571 0.006803 0.002286 -0.000508
# 4 0.012753 0.006119 0.006803 0.040680 0.018150 0.012297
# 5 0.039354 -0.012205 0.002286 0.018150 0.058308 0.012514
# 6 0.022228 0.005508 -0.000508 0.012297 0.012514 0.045197
#
#
# Mechanical properties :
#
#
# Convention : Reuss Voigt Hill
#
# Bulk Modulus (GPa) = 20.71031 60.89788 40.80410
# Shear Modulus (GPa) = 15.34756 30.98067 23.16412
#
# Velocity S-wave (km/s) = 2.64958 3.76447 3.25511
# Velocity P-wave (km/s) = 4.33978 6.83746 5.72646
#
# Compressibility (1/GPa) = 0.04828513
#
# Stress axis : x y z
#
# Youngs Moduli (GPa) = 14.67959 45.04179 60.34509
#
# Poissons Ratio (x) = 0.72620 0.78091
# Poissons Ratio (y) = 0.23667 0.01457
# Poissons Ratio (z) = 0.18996 0.01087
#
# Static dielectric constant tensor:
#      x y z
#    x 3.637200 -0.274230 -0.171320 
#    y -0.274230 3.763640 -0.353630 
#    z -0.171320 -0.353630 4.200550 
# 
# 
# High freq. dielectric constant tensor:
#      x y z
#    x 1.847680 -0.019860 -0.014970 
#    y -0.019860 1.852190 -0.016000 
#    z -0.014970 -0.016000 1.871360 
# 
# From -- ./inp_files/261944.got.cif
#   From: 2010.06.25/outbox.cif.g09.slc.cpg/sg2_131_cif.got.tgz:261944.got - 2010.06.27 13:26:56.
