data_PCOD8014498
_publ_section_title
;
Structure prediction by ZEFSAII (Michael W. Deem and Ramdas Pophale) SiO2 
 PCOD8014498
Probable space group: P -1
;
_chemical_formula_sum "Si O2"
_cell_formula_units_Z 14
_cell_length_a 20.268249
_cell_length_b 8.945628
_cell_length_c 8.331009
_cell_angle_alpha 122.448351
_cell_angle_beta 136.922355
_cell_angle_gamma 39.581633
_cell_volume 656.140452
_symmetry_space_group_name_H-M "P -1"
_symmetry_group_IT_number 2
_symmetry_cell_setting 'triclinic'
loop_
_space_group_symop_operation_xyz
x,y,z
-x,-y,-z
loop_
_atom_site_type_symbol
_atom_site_label
_atom_site_fract_x
_atom_site_fract_y
_atom_site_fract_z
Si Si1 0.595053 0.150032 0.369251
Si Si2 0.331658 0.597631 0.200892
Si Si3 0.106620 0.388109 0.992364
Si Si4 0.732935 0.663610 0.486723
Si Si5 0.994708 0.205068 0.544232
Si Si6 0.933536 0.245979 0.105577
Si Si7 0.557662 0.575055 0.030121
O O1 0.461531 0.339224 0.340668
O O2 0.688670 0.198067 0.615865
O O3 0.562200 0.190300 0.143265
O O4 0.663238 0.885604 0.375141
O O5 0.345312 0.621725 0.046895
O O6 0.213339 0.613675 0.031861
O O7 0.059907 0.590405 0.899579
O O8 0.113589 0.184175 0.806145
O O9 0.238619 0.288296 0.258030
O O10 0.000000 0.500000 0.000000
O O11 0.862120 0.451045 0.505903
O O12 0.635598 0.617225 0.305489
O O13 0.010085 0.190577 0.372455
O O14 0.000000 0.000000 0.500000
O O15 0.000000 0.000000 0.000000
O O16 0.500000 0.500000 0.000000
#
# Coordination Sequence:
#
# PCOD8014498 Si02
#       7
#     2   2   2   2   2   2   2
#     4   9  21  42  69  90 141 175 220 276 338 406
#     4   9  22  42  66  98 135 173 228 264 343 404
#     4  10  25  42  65  99 132 175 232 279 339 400
#     4  11  22  41  71  94 140 172 225 284 341 404
#     4  11  24  46  66  98 137 177 236 284 332 409
#     4  12  24  43  73  95 140 184 224 281 347 400
#     4  10  21  41  68 100 133 172 226 275 340 399
#
# _framework density 21.336894000000001
#
# number of rings (size 3 to 8) (size 9 to 14) (size 15 to 20)
#    0.857    0.857    1.429    2.571    8.000    0.000 
#    0.000    5.714    0.000    0.000    0.000    0.000 
#    0.000    0.000    0.000    0.000    0.000    0.000 
#
# Total GULP energy -173511.736537 kJ/mol
# GULP energy per Si atom -12393.695467 kJ/mol
# Density = 2.128833 g / cm^3
# Si number density = 21.336894 Si / 1000 Ang^3
#
#
#
# Elastic Constant Matrix: (Units=GPa)
#
#
# Indices 1 2 3 4 5 6 
#
# 1 130.1003 44.4797 62.3919 1.5117 -1.1235 28.6559
# 2 44.4797 100.6255 40.6333 6.1747 0.0293 18.5992
# 3 62.3919 40.6333 212.6856 13.3494 0.0369 23.4769
# 4 1.5117 6.1747 13.3494 27.7378 7.6148 -2.2324
# 5 -1.1235 0.0293 0.0369 7.6148 32.8556 -1.3141
# 6 28.6559 18.5992 23.4769 -2.2324 -1.3141 31.3333
#
#
#
# Elastic Compliance Matrix: (Units=1/GPa)
#
#
# Indices 1 2 3 4 5 6 
#
# 1 0.011147 -0.002864 -0.001978 0.000417 0.000010 -0.006983
# 2 -0.002864 0.012530 -0.000913 -0.002631 0.000329 -0.004308
# 3 -0.001978 -0.000913 0.005881 -0.002835 0.000494 -0.002236
# 4 0.000417 -0.002631 -0.002835 0.040987 -0.009246 0.005837
# 5 0.000010 0.000329 0.000494 -0.009246 0.032584 0.000133
# 6 -0.006983 -0.004308 -0.002236 0.005837 0.000133 0.042955
#
#
# Mechanical properties :
#
#
# Convention : Reuss Voigt Hill
#
# Bulk Modulus (GPa) = 55.40680 82.04681 68.72680
# Shear Modulus (GPa) = 30.56010 38.11245 34.33627
#
# Velocity S-wave (km/s) = 3.78863 4.23096 4.01589
# Velocity P-wave (km/s) = 6.72029 7.89965 7.33372
#
# Compressibility (1/GPa) = 0.01804833
#
# Stress axis : x y z
#
# Youngs Moduli (GPa) = 89.70676 79.80816 170.02861
#
# Poissons Ratio (x) = 0.22854 0.33640
# Poissons Ratio (y) = 0.25688 0.15527
# Poissons Ratio (z) = 0.17748 0.07288
#
# Static dielectric constant tensor:
#      x y z
#    x 3.613160 0.003700 -0.090060 
#    y 0.003700 3.639510 0.119200 
#    z -0.090060 0.119200 4.943780 
# 
# 
# High freq. dielectric constant tensor:
#      x y z
#    x 1.816610 0.010310 0.003210 
#    y 0.010310 1.818270 0.002830 
#    z 0.003210 0.002830 1.866880 
# 
# From -- ./inp_files/343065.got.cif
#   From: 2010.06.25/outbox.cif.g09.slc.cpg/sg2_172_cif.got.tgz:343065.got - 2010.06.27 13:26:56.
