data_PCOD8014339
_publ_section_title
;
Structure prediction by ZEFSAII (Michael W. Deem and Ramdas Pophale) SiO2 
 PCOD8014339
Probable space group: P -1
;
_chemical_formula_sum "Si O2"
_cell_formula_units_Z 16
_cell_length_a 11.847482
_cell_length_b 8.250467
_cell_length_c 18.219439
_cell_angle_alpha 136.525184
_cell_angle_beta 138.406842
_cell_angle_gamma 73.926472
_cell_volume 661.431711
_symmetry_space_group_name_H-M "P -1"
_symmetry_group_IT_number 2
_symmetry_cell_setting 'triclinic'
loop_
_space_group_symop_operation_xyz
x,y,z
-x,-y,-z
loop_
_atom_site_type_symbol
_atom_site_label
_atom_site_fract_x
_atom_site_fract_y
_atom_site_fract_z
Si Si1 0.603259 0.599789 0.160747
Si Si2 0.624186 0.371627 0.715611
Si Si3 0.974485 0.700499 0.892586
Si Si4 0.220391 0.266123 0.425385
Si Si5 0.232272 0.173336 0.948929
Si Si6 0.391178 0.877180 0.674582
Si Si7 0.236038 0.741853 0.906066
Si Si8 0.681555 0.008235 0.732647
O O1 0.775961 0.531363 0.224438
O O2 0.704148 0.942000 0.333719
O O3 0.500000 0.500000 0.000000
O O4 0.419559 0.410583 0.067528
O O5 0.397818 0.312263 0.581550
O O6 0.735803 0.440693 0.712617
O O7 0.612562 0.107630 0.660920
O O8 0.777294 0.662566 0.932104
O O9 0.028464 0.625905 0.815554
O O10 0.128325 0.724431 0.039633
O O11 0.000000 0.000000 0.000000
O O12 0.221546 0.553860 0.516478
O O13 0.255664 0.194370 0.336412
O O14 0.994353 0.999300 0.258378
O O15 0.260303 0.930021 0.909999
O O16 0.488319 0.828996 0.634928
O O17 0.563742 0.057975 0.879909
#
# Coordination Sequence:
#
# PCOD8014339 Si02
#       8
#     2   2   2   2   2   2   2   2
#     4  10  23  44  74  98 130 187 233 280 341 404
#     4  12  23  42  67 103 145 180 223 281 345 405
#     4  11  20  38  68 103 139 177 225 273 340 415
#     4  12  25  40  67 106 139 178 226 281 346 407
#     4  12  23  45  74  99 135 184 230 276 345 408
#     4  10  21  41  66  97 140 177 227 285 334 404
#     4  10  21  41  71  99 132 186 230 276 341 406
#     4  11  22  38  64  99 138 185 224 276 340 407
#
# _framework density 24.189951000000001
#
# number of rings (size 3 to 8) (size 9 to 14) (size 15 to 20)
#    0.000    1.000    5.000    2.250    0.000    1.000 
#    0.000    5.625    0.000    0.000    0.000    0.000 
#    0.000    0.000    0.000    0.000    0.000    0.000 
#
# Total GULP energy -198359.319404 kJ/mol
# GULP energy per Si atom -12397.457463 kJ/mol
# Density = 2.413489 g / cm^3
# Si number density = 24.189951 Si / 1000 Ang^3
#
#
#
# Elastic Constant Matrix: (Units=GPa)
#
#
# Indices 1 2 3 4 5 6 
#
# 1 84.9863 30.4064 28.8523 10.3648 7.0498 -17.9285
# 2 30.4064 122.9454 42.8809 21.5926 6.6901 -14.7022
# 3 28.8523 42.8809 79.7098 15.7250 14.6737 -7.9343
# 4 10.3648 21.5926 15.7250 24.8071 -3.1482 -11.6482
# 5 7.0498 6.6901 14.6737 -3.1482 24.3790 2.0496
# 6 -17.9285 -14.7022 -7.9343 -11.6482 2.0496 40.6480
#
#
#
# Elastic Compliance Matrix: (Units=1/GPa)
#
#
# Indices 1 2 3 4 5 6 
#
# 1 0.014889 -0.001643 -0.003490 -0.000376 -0.002248 0.005297
# 2 -0.001643 0.011161 -0.003867 -0.006349 -0.001147 0.000796
# 3 -0.003490 -0.003867 0.019668 -0.009643 -0.010903 -0.001312
# 4 -0.000376 -0.006349 -0.009643 0.059562 0.014338 0.012000
# 5 -0.002248 -0.001147 -0.010903 0.014338 0.050564 -0.001975
# 6 0.005297 0.000796 -0.001312 0.012000 -0.001975 0.030508
#
#
# Mechanical properties :
#
#
# Convention : Reuss Voigt Hill
#
# Bulk Modulus (GPa) = 36.07697 54.65788 45.36743
# Shear Modulus (GPa) = 23.40917 30.33361 26.87139
#
# Velocity S-wave (km/s) = 3.11420 3.54499 3.33656
# Velocity P-wave (km/s) = 5.27990 6.27697 5.79990
#
# Compressibility (1/GPa) = 0.02771851
#
# Stress axis : x y z
#
# Youngs Moduli (GPa) = 67.16280 89.59427 50.84486
#
# Poissons Ratio (x) = 0.14722 0.17745
# Poissons Ratio (y) = 0.11036 0.19660
# Poissons Ratio (z) = 0.23440 0.34643
#
# Static dielectric constant tensor:
#      x y z
#    x 4.145720 -0.492690 -0.143650 
#    y -0.492690 4.826640 0.048490 
#    z -0.143650 0.048490 4.166220 
# 
# 
# High freq. dielectric constant tensor:
#      x y z
#    x 1.944750 -0.005080 -0.004690 
#    y -0.005080 1.971360 0.004870 
#    z -0.004690 0.004870 1.944870 
# 
# From -- ./inp_files/594270.got.cif
#   From: 2010.06.25/outbox.cif.g09.slc.cpg/sg2_298_cif.got.tgz:594270.got - 2010.06.27 13:26:56.
