data_PCOD8014254
_publ_section_title
;
Structure prediction by ZEFSAII (Michael W. Deem and Ramdas Pophale) SiO2 
 PCOD8014254
Probable space group: P -1
;
_chemical_formula_sum "Si O2"
_cell_formula_units_Z 12
_cell_length_a 16.433302
_cell_length_b 8.974251
_cell_length_c 8.012088
_cell_angle_alpha 100.950416
_cell_angle_beta 59.109859
_cell_angle_gamma 50.341405
_cell_volume 485.097038
_symmetry_space_group_name_H-M "P -1"
_symmetry_group_IT_number 2
_symmetry_cell_setting 'triclinic'
loop_
_space_group_symop_operation_xyz
x,y,z
-x,-y,-z
loop_
_atom_site_type_symbol
_atom_site_label
_atom_site_fract_x
_atom_site_fract_y
_atom_site_fract_z
Si Si1 0.479445 0.703316 0.524260
Si Si2 0.750187 0.765746 0.336624
Si Si3 0.505843 0.110628 0.175840
Si Si4 0.837852 0.316057 0.554111
Si Si5 0.904823 0.530974 0.464683
Si Si6 0.837899 0.368826 0.941645
O O1 0.500000 0.500000 0.500000
O O2 0.383098 0.922703 0.830869
O O3 0.336115 0.952150 0.575892
O O4 0.695928 0.466060 0.224033
O O5 0.573286 0.913834 0.628464
O O6 0.910291 0.581834 0.276512
O O7 0.845971 0.530528 0.036605
O O8 0.344151 0.439080 0.324747
O O9 0.670918 0.823885 0.809833
O O10 0.988065 0.243117 0.323769
O O11 0.766178 0.460349 0.846184
O O12 0.945463 0.004868 0.360819
O O13 0.000000 0.500000 0.500000
#
# Coordination Sequence:
#
# PCOD8014254 Si02
#       6
#     2   2   2   2   2   2
#     4  11  23  39  65  98 133 165 210 272 321 376
#     4  10  21  43  68  89 128 175 217 253 317 393
#     4  10  21  41  66  89 129 175 215 254 321 384
#     4  10  21  41  68  94 126 173 221 259 305 394
#     4  11  23  39  66  99 131 164 210 274 326 372
#     4  10  21  41  69  94 126 173 223 255 311 384
#
# _framework density 24.737316
#
# number of rings (size 3 to 8) (size 9 to 14) (size 15 to 20)
#    0.000    1.667    0.000    7.000    2.333    6.000 
#    6.000    3.333    3.667    0.000    0.000    0.000 
#    0.000    0.000    0.000    0.000    0.000    0.000 
#
# Total GULP energy -148701.409503 kJ/mol
# GULP energy per Si atom -12391.784125 kJ/mol
# Density = 2.468101 g / cm^3
# Si number density = 24.737316 Si / 1000 Ang^3
#
#
#
# Elastic Constant Matrix: (Units=GPa)
#
#
# Indices 1 2 3 4 5 6 
#
# 1 102.5412 61.2071 14.3155 4.5255 21.4510 -4.1755
# 2 61.2071 188.2990 25.8220 10.9501 24.3218 -2.7012
# 3 14.3155 25.8220 66.8102 9.7191 24.8510 -4.1857
# 4 4.5255 10.9501 9.7191 25.2279 -6.5781 7.4073
# 5 21.4510 24.3218 24.8510 -6.5781 37.6711 -3.1171
# 6 -4.1755 -2.7012 -4.1857 7.4073 -3.1171 42.1926
#
#
#
# Elastic Compliance Matrix: (Units=1/GPa)
#
#
# Indices 1 2 3 4 5 6 
#
# 1 0.013231 -0.003386 0.001741 -0.003828 -0.007048 0.001417
# 2 -0.003386 0.007025 -0.000466 -0.003115 -0.002811 0.000408
# 3 0.001741 -0.000466 0.024462 -0.015699 -0.019246 0.003903
# 4 -0.003828 -0.003115 -0.015699 0.056936 0.023630 -0.010386
# 5 -0.007048 -0.002811 -0.019246 0.023630 0.048921 -0.003321
# 6 0.001417 0.000408 0.003903 -0.010386 -0.003321 0.025832
#
#
# Mechanical properties :
#
#
# Convention : Reuss Voigt Hill
#
# Bulk Modulus (GPa) = 24.69365 62.25994 43.47680
# Shear Modulus (GPa) = 25.75608 38.10538 31.93073
#
# Velocity S-wave (km/s) = 3.23024 3.92905 3.59666
# Velocity P-wave (km/s) = 4.89046 6.76804 5.90436
#
# Compressibility (1/GPa) = 0.04049624
#
# Stress axis : x y z
#
# Youngs Moduli (GPa) = 75.57755 142.34197 40.88011
#
# Poissons Ratio (x) = 0.48203 -0.07116
# Poissons Ratio (y) = 0.25594 0.01903
# Poissons Ratio (z) = -0.13156 0.06626
#
# Static dielectric constant tensor:
#      x y z
#    x 4.320910 -0.284720 0.312040 
#    y -0.284720 4.529360 -0.151240 
#    z 0.312040 -0.151240 4.500510 
# 
# 
# High freq. dielectric constant tensor:
#      x y z
#    x 1.975610 -0.018420 0.018210 
#    y -0.018420 1.999400 -0.000090 
#    z 0.018210 -0.000090 1.982180 
# 
# From -- ./inp_files/152423.got.cif
#   From: 2010.06.25/outbox.cif.g09.slc.cpg/sg2_77_cif.got.tgz:152423.got - 2010.06.27 13:26:56.
