data_PCOD8014049
_publ_section_title
;
Structure prediction by ZEFSAII (Michael W. Deem and Ramdas Pophale) SiO2 
 PCOD8014049
Probable space group: P -1
;
_chemical_formula_sum "Si O2"
_cell_formula_units_Z 16
_cell_length_a 11.647491
_cell_length_b 12.515161
_cell_length_c 12.203828
_cell_angle_alpha 125.167749
_cell_angle_beta 125.241487
_cell_angle_gamma 31.076834
_cell_volume 735.738299
_symmetry_space_group_name_H-M "P -1"
_symmetry_group_IT_number 2
_symmetry_cell_setting 'triclinic'
loop_
_space_group_symop_operation_xyz
x,y,z
-x,-y,-z
loop_
_atom_site_type_symbol
_atom_site_label
_atom_site_fract_x
_atom_site_fract_y
_atom_site_fract_z
Si Si1 0.619973 0.333795 0.868021
Si Si2 0.778135 0.893219 0.207426
Si Si3 0.540175 0.556399 0.393537
Si Si4 0.140395 0.768687 0.450677
Si Si5 0.925303 0.855193 0.039863
Si Si6 0.627980 0.769951 0.663126
Si Si7 0.433074 0.897172 0.200155
Si Si8 0.092426 0.454759 0.846192
O O1 0.474062 0.466563 0.756340
O O2 0.637496 0.164389 0.790801
O O3 0.881466 0.183110 0.907877
O O4 0.500000 0.500000 0.000000
O O5 0.820805 0.952899 0.160883
O O6 0.818455 0.707827 0.103852
O O7 0.965904 0.780875 0.337537
O O8 0.527941 0.105194 0.240235
O O9 0.335802 0.632314 0.386752
O O10 0.766020 0.324974 0.430793
O O11 0.543129 0.711193 0.507210
O O12 0.000000 0.000000 0.500000
O O13 0.039881 0.630352 0.975406
O O14 0.713525 0.020270 0.940687
O O15 0.880241 0.558403 0.719207
O O16 0.614366 0.918484 0.676383
O O17 0.699284 0.680877 0.202638
#
# Coordination Sequence:
#
# PCOD8014049 Si02
#       8
#     2   2   2   2   2   2   2   2
#     4  12  25  47  68  95 133 180 227 273 324 392
#     4  11  21  37  66 101 133 169 218 269 340 401
#     4  11  24  43  69  97 135 174 215 276 335 391
#     4  11  22  41  65 104 133 166 214 270 340 398
#     4  11  23  41  66  97 132 180 219 276 331 386
#     4  10  22  41  68  98 134 170 219 275 334 396
#     4  10  24  43  67  93 135 177 232 268 320 392
#     4  10  21  41  64  94 140 170 219 273 326 402
#
# _framework density 21.746863999999999
#
# number of rings (size 3 to 8) (size 9 to 14) (size 15 to 20)
#    0.000    1.250    5.000    0.750    0.000    7.000 
#    2.250    0.625    0.000    0.000    0.000    0.000 
#    0.000    0.000    0.000    0.000    0.000    0.000 
#
# Total GULP energy -198302.073978 kJ/mol
# GULP energy per Si atom -12393.879624 kJ/mol
# Density = 2.169737 g / cm^3
# Si number density = 21.746864 Si / 1000 Ang^3
#
#
#
# Elastic Constant Matrix: (Units=GPa)
#
#
# Indices 1 2 3 4 5 6 
#
# 1 121.9092 41.4426 30.7557 -8.3730 6.3627 -3.9957
# 2 41.4426 117.4610 45.8229 -12.9872 -2.7280 -3.9501
# 3 30.7557 45.8229 76.6940 -15.4165 -8.4506 1.0655
# 4 -8.3730 -12.9872 -15.4165 32.5189 2.2967 8.0167
# 5 6.3627 -2.7280 -8.4506 2.2967 32.3417 -6.6557
# 6 -3.9957 -3.9501 1.0655 8.0167 -6.6557 39.5594
#
#
#
# Elastic Compliance Matrix: (Units=1/GPa)
#
#
# Indices 1 2 3 4 5 6 
#
# 1 0.009911 -0.002434 -0.002756 0.000408 -0.002849 0.000270
# 2 -0.002434 0.011813 -0.005871 0.001088 0.000045 0.000879
# 3 -0.002756 -0.005871 0.019422 0.006333 0.004270 -0.001953
# 4 0.000408 0.001088 0.006333 0.036401 -0.002528 -0.007823
# 5 -0.002849 0.000045 0.004270 -0.002528 0.033979 0.005831
# 6 0.000270 0.000879 -0.001953 -0.007823 0.005831 0.028012
#
#
# Mechanical properties :
#
#
# Convention : Reuss Voigt Hill
#
# Bulk Modulus (GPa) = 52.56019 61.34516 56.95267
# Shear Modulus (GPa) = 29.76158 34.08686 31.92422
#
# Velocity S-wave (km/s) = 3.70340 3.96338 3.83559
# Velocity P-wave (km/s) = 6.51985 7.01531 6.77211
#
# Compressibility (1/GPa) = 0.01902581
#
# Stress axis : x y z
#
# Youngs Moduli (GPa) = 100.89812 84.65082 51.48687
#
# Poissons Ratio (x) = 0.20600 0.14190
# Poissons Ratio (y) = 0.24554 0.30227
# Poissons Ratio (z) = 0.27809 0.49696
#
# Static dielectric constant tensor:
#      x y z
#    x 4.010980 0.073540 0.159330 
#    y 0.073540 4.020580 -0.011050 
#    z 0.159330 -0.011050 3.525610 
# 
# 
# High freq. dielectric constant tensor:
#      x y z
#    x 1.865220 0.002560 0.028670 
#    y 0.002560 1.867410 -0.006030 
#    z 0.028670 -0.006030 1.829160 
# 
# From -- ./inp_files/71195.got.cif
#   From: 2010.06.25/outbox.cif.g09.slc.cpg/sg2_36_cif.got.tgz:71195.got - 2010.06.27 13:26:56.
