data_PCOD8014800
_publ_section_title
;
Structure prediction by ZEFSAII (Michael W. Deem and Ramdas Pophale) SiO2 
 PCOD8014800
Probable space group: P -1
;
_chemical_formula_sum "Si O2"
_cell_formula_units_Z 14
_cell_length_a 11.744669
_cell_length_b 12.683079
_cell_length_c 8.053343
_cell_angle_alpha 144.232349
_cell_angle_beta 57.348007
_cell_angle_gamma 123.521446
_cell_volume 574.169278
_symmetry_space_group_name_H-M "P -1"
_symmetry_group_IT_number 2
_symmetry_cell_setting 'triclinic'
loop_
_space_group_symop_operation_xyz
x,y,z
-x,-y,-z
loop_
_atom_site_type_symbol
_atom_site_label
_atom_site_fract_x
_atom_site_fract_y
_atom_site_fract_z
Si Si1 0.914857 0.442155 0.658125
Si Si2 0.154470 0.009427 0.443829
Si Si3 0.543117 0.292481 0.414060
Si Si4 0.486316 0.083402 0.851814
Si Si5 0.286274 0.406601 0.797129
Si Si6 0.266431 0.937397 0.591699
Si Si7 0.187315 0.607748 0.827769
O O1 0.845798 0.225000 0.437377
O O2 0.000000 0.500000 0.500000
O O3 0.030202 0.494302 0.779275
O O4 0.794266 0.555449 0.924137
O O5 0.180657 0.035872 0.655943
O O6 0.246650 0.186839 0.503373
O O7 0.200956 0.827228 0.116617
O O8 0.000000 0.000000 0.500000
O O9 0.454134 0.443666 0.730145
O O10 0.706358 0.401343 0.420372
O O11 0.515820 0.124987 0.351708
O O12 0.499389 0.224980 0.173864
O O13 0.618330 0.146862 0.705572
O O14 0.344547 0.078141 0.852368
O O15 0.240058 0.530159 0.852014
#
# Coordination Sequence:
#
# PCOD8014800 Si02
#       7
#     2   2   2   2   2   2   2
#     4  12  26  46  67 100 146 187 230 300 365 412
#     4  12  22  42  76 101 137 195 237 281 354 423
#     4  11  21  43  73 108 135 192 241 286 357 426
#     4  10  21  41  74 104 147 184 236 296 352 421
#     4  12  24  43  72 103 138 187 243 283 352 431
#     4  11  22  44  69 103 147 188 226 302 357 406
#     4  12  24  46  72 104 149 181 234 302 347 426
#
# _framework density 24.383050999999998
#
# number of rings (size 3 to 8) (size 9 to 14) (size 15 to 20)
#    0.000    0.571    5.714    3.429    0.000    0.000 
#    2.571    3.571    0.000    0.000    0.000    0.000 
#    0.000    0.000    0.000    0.000    0.000    0.000 
#
# Total GULP energy -173565.680918 kJ/mol
# GULP energy per Si atom -12397.548637 kJ/mol
# Density = 2.432755 g / cm^3
# Si number density = 24.383051 Si / 1000 Ang^3
#
#
#
# Elastic Constant Matrix: (Units=GPa)
#
#
# Indices 1 2 3 4 5 6 
#
# 1 123.3811 23.3853 30.4780 -3.0487 -13.8774 -1.9551
# 2 23.3853 131.3123 31.3643 -8.1811 -12.5864 14.9736
# 3 30.4780 31.3643 62.8689 -6.7986 -27.8272 -1.4845
# 4 -3.0487 -8.1811 -6.7986 40.1535 5.2871 0.3702
# 5 -13.8774 -12.5864 -27.8272 5.2871 43.4790 -2.1650
# 6 -1.9551 14.9736 -1.4845 0.3702 -2.1650 38.3836
#
#
#
# Elastic Compliance Matrix: (Units=1/GPa)
#
#
# Indices 1 2 3 4 5 6 
#
# 1 0.009272 -0.000750 -0.004029 -0.000165 0.000215 0.000623
# 2 -0.000750 0.009287 -0.004602 0.001202 -0.000836 -0.003898
# 3 -0.004029 -0.004602 0.026826 0.001350 0.014558 0.003436
# 4 -0.000165 0.001202 0.001350 0.025636 -0.001997 -0.000785
# 5 0.000215 -0.000836 0.014558 -0.001997 0.032523 0.002754
# 6 0.000623 -0.003898 0.003436 -0.000785 0.002754 0.027901
#
#
# Mechanical properties :
#
#
# Convention : Reuss Voigt Hill
#
# Bulk Modulus (GPa) = 37.56048 54.22418 45.89233
# Shear Modulus (GPa) = 31.43036 39.89220 35.66128
#
# Velocity S-wave (km/s) = 3.59419 4.04922 3.82847
# Velocity P-wave (km/s) = 5.71508 6.64442 6.19719
#
# Compressibility (1/GPa) = 0.02662373
#
# Stress axis : x y z
#
# Youngs Moduli (GPa) = 107.84810 107.67290 37.27728
#
# Poissons Ratio (x) = 0.08071 0.15020
# Poissons Ratio (y) = 0.08084 0.17156
# Poissons Ratio (z) = 0.43454 0.49553
#
# Static dielectric constant tensor:
#      x y z
#    x 5.085090 0.227140 -0.120320 
#    y 0.227140 4.712650 -0.090190 
#    z -0.120320 -0.090190 4.197040 
# 
# 
# High freq. dielectric constant tensor:
#      x y z
#    x 1.981520 0.012690 -0.008030 
#    y 0.012690 1.988160 -0.000490 
#    z -0.008030 -0.000490 1.931440 
# 
# From -- ./inp_files/260860.got.cif
#   From: 2010.06.25/outbox.cif.g09.slc.cpg/sg2_131_cif.got.tgz:260860.got - 2010.06.27 13:26:56.
