data_PCOD8014008
_publ_section_title
;
Structure prediction by ZEFSAII (Michael W. Deem and Ramdas Pophale) SiO2 
 PCOD8014008
Probable space group: P -1
;
_chemical_formula_sum "Si O2"
_cell_formula_units_Z 16
_cell_length_a 9.187786
_cell_length_b 11.621673
_cell_length_c 9.412998
_cell_angle_alpha 88.453575
_cell_angle_beta 49.568298
_cell_angle_gamma 97.502777
_cell_volume 750.158321
_symmetry_space_group_name_H-M "P -1"
_symmetry_group_IT_number 2
_symmetry_cell_setting 'triclinic'
loop_
_space_group_symop_operation_xyz
x,y,z
-x,-y,-z
loop_
_atom_site_type_symbol
_atom_site_label
_atom_site_fract_x
_atom_site_fract_y
_atom_site_fract_z
Si Si1 0.413945 0.402778 0.667901
Si Si2 0.345494 0.407096 0.015808
Si Si3 0.196469 0.231271 0.591784
Si Si4 0.947582 0.623813 0.564919
Si Si5 0.563459 0.114613 0.362607
Si Si6 0.548524 0.845564 0.053453
Si Si7 0.767233 0.092434 0.941853
Si Si8 0.683507 0.239798 0.552268
O O1 0.500000 0.500000 0.500000
O O2 0.259389 0.299548 0.696047
O O3 0.601143 0.358882 0.611221
O O4 0.321497 0.449675 0.866694
O O5 0.145586 0.402771 0.221618
O O6 0.500000 0.500000 0.000000
O O7 0.380740 0.275166 0.002747
O O8 0.180067 0.327672 0.477277
O O9 0.365960 0.160802 0.438976
O O10 0.992709 0.144530 0.761176
O O11 0.000000 0.500000 0.500000
O O12 0.121034 0.733357 0.480774
O O13 0.710244 0.099607 0.143235
O O14 0.698881 0.206702 0.379127
O O15 0.500000 0.000000 0.500000
O O16 0.462476 0.862010 0.265329
O O17 0.723945 0.957323 0.917739
O O18 0.375499 0.837383 0.050096
#
# Coordination Sequence:
#
# PCOD8014008 Si02
#       8
#     2   2   2   2   2   2   2   2
#     4  10  22  44  64  96 135 174 222 282 339 400
#     4  11  24  41  70  95 134 182 224 281 350 403
#     4  11  25  43  70 103 136 178 230 285 340 411
#     4  12  24  44  67  98 131 177 232 285 337 410
#     4  11  24  43  65  99 138 180 216 278 346 400
#     4  10  21  44  63 101 131 179 221 281 337 405
#     4  11  23  41  72  96 141 175 229 278 342 413
#     4  10  21  41  64  90 136 168 218 276 334 399
#
# _framework density 21.328831999999998
#
# number of rings (size 3 to 8) (size 9 to 14) (size 15 to 20)
#    0.000    1.250    2.500    3.750    1.750    2.500 
#    0.000    3.750    0.000    0.000    0.000    0.000 
#    0.000    0.000    0.000    0.000    0.000    0.000 
#
# Total GULP energy -198257.872369 kJ/mol
# GULP energy per Si atom -12391.117023 kJ/mol
# Density = 2.128029 g / cm^3
# Si number density = 21.328832 Si / 1000 Ang^3
#
#
#
# Elastic Constant Matrix: (Units=GPa)
#
#
# Indices 1 2 3 4 5 6 
#
# 1 88.4209 32.7200 24.4251 1.2772 7.6324 2.6721
# 2 32.7200 92.1275 41.1061 -4.7262 -5.4015 -0.5560
# 3 24.4251 41.1061 118.3900 -1.2173 15.9672 1.6523
# 4 1.2772 -4.7262 -1.2173 33.2660 3.3664 2.5531
# 5 7.6324 -5.4015 15.9672 3.3664 35.1266 -9.2744
# 6 2.6721 -0.5560 1.6523 2.5531 -9.2744 41.2521
#
#
#
# Elastic Compliance Matrix: (Units=1/GPa)
#
#
# Indices 1 2 3 4 5 6 
#
# 1 0.013667 -0.004859 -0.000598 -0.000715 -0.003837 -0.001745
# 2 -0.004859 0.015330 -0.005165 0.001396 0.006163 0.002027
# 3 -0.000598 -0.005165 0.011250 0.000491 -0.006337 -0.001936
# 4 -0.000715 0.001396 0.000491 0.030864 -0.003512 -0.002654
# 5 -0.003837 0.006163 -0.006337 -0.003512 0.035804 0.008852
# 6 -0.001745 0.002027 -0.001936 -0.002654 0.008852 0.026614
#
#
# Mechanical properties :
#
#
# Convention : Reuss Voigt Hill
#
# Bulk Modulus (GPa) = 52.62528 55.04898 53.83713
# Shear Modulus (GPa) = 31.03499 35.30808 33.17153
#
# Velocity S-wave (km/s) = 3.81868 4.07309 3.94794
# Velocity P-wave (km/s) = 6.64605 6.92718 6.78807
#
# Compressibility (1/GPa) = 0.01900227
#
# Stress axis : x y z
#
# Youngs Moduli (GPa) = 73.16764 65.23019 88.88779
#
# Poissons Ratio (x) = 0.31698 0.05314
# Poissons Ratio (y) = 0.35556 0.45914
# Poissons Ratio (z) = 0.04375 0.33694
#
# Static dielectric constant tensor:
#      x y z
#    x 4.237170 0.002560 0.694070 
#    y 0.002560 3.895050 -0.090230 
#    z 0.694070 -0.090230 4.831690 
# 
# 
# High freq. dielectric constant tensor:
#      x y z
#    x 1.838110 0.007600 0.017990 
#    y 0.007600 1.842510 -0.006690 
#    z 0.017990 -0.006690 1.842450 
# 
# From -- ./inp_files/187059.got.cif
#   From: 2010.06.25/outbox.cif.g09.slc.cpg/sg2_94_cif.got.tgz:187059.got - 2010.06.27 13:26:56.
