data_PCOD8014834
_publ_section_title
;
Structure prediction by ZEFSAII (Michael W. Deem and Ramdas Pophale) SiO2 
 PCOD8014834
Probable space group: P -1
;
_chemical_formula_sum "Si O2"
_cell_formula_units_Z 16
_cell_length_a 9.241786
_cell_length_b 8.942829
_cell_length_c 10.025209
_cell_angle_alpha 90.490896
_cell_angle_beta 96.562209
_cell_angle_gamma 119.202402
_cell_volume 716.533933
_symmetry_space_group_name_H-M "P -1"
_symmetry_group_IT_number 2
_symmetry_cell_setting 'triclinic'
loop_
_space_group_symop_operation_xyz
x,y,z
-x,-y,-z
loop_
_atom_site_type_symbol
_atom_site_label
_atom_site_fract_x
_atom_site_fract_y
_atom_site_fract_z
Si Si1 0.422913 0.103989 0.838638
Si Si2 0.637806 0.458981 0.352349
Si Si3 0.021226 0.592670 0.865156
Si Si4 0.126667 0.997198 0.407531
Si Si5 0.462997 0.272760 0.571839
Si Si6 0.968430 0.062269 0.137934
Si Si7 0.985734 0.383909 0.621271
Si Si8 0.409978 0.766645 0.884679
O O1 0.483032 0.171679 0.696533
O O2 0.226028 0.034356 0.839711
O O3 0.487359 0.966929 0.859545
O O4 0.524312 0.250920 0.962350
O O5 0.621860 0.352223 0.487392
O O6 0.548517 0.570411 0.363819
O O7 0.828404 0.586129 0.332530
O O8 0.536825 0.328057 0.220333
O O9 0.958731 0.732348 0.862265
O O10 0.920821 0.447630 0.741335
O O11 0.213845 0.689379 0.849604
O O12 0.000000 0.500000 0.000000
O O13 0.132306 0.818986 0.416662
O O14 0.307306 0.151959 0.461618
O O15 0.000000 0.000000 0.500000
O O16 0.074593 0.022373 0.255052
O O17 0.000000 0.000000 0.000000
O O18 0.000000 0.500000 0.500000
#
# Coordination Sequence:
#
# PCOD8014834 Si02
#       8
#     2   2   2   2   2   2   2   2
#     4  10  21  42  61  90 118 163 204 251 302 364
#     4  10  23  42  59  93 126 158 205 256 302 363
#     4  10  22  41  61  91 124 158 204 255 306 363
#     4  12  22  41  64  93 124 166 208 252 311 368
#     4  11  24  40  64  91 128 160 207 251 305 369
#     4  11  23  39  65  92 123 161 206 255 305 369
#     4  11  23  40  65  91 125 163 204 257 310 364
#     4   9  22  41  63  84 125 160 204 250 305 362
#
# _framework density 22.329719000000001
#
# number of rings (size 3 to 8) (size 9 to 14) (size 15 to 20)
#    0.000    1.500    2.500    1.500    5.250    3.000 
#    4.500    0.000    0.000    0.000    0.000    0.000 
#    0.000    0.000    0.000    0.000    0.000    0.000 
#
# Total GULP energy -198383.070482 kJ/mol
# GULP energy per Si atom -12398.941905 kJ/mol
# Density = 2.227890 g / cm^3
# Si number density = 22.329719 Si / 1000 Ang^3
#
#
#
# Elastic Constant Matrix: (Units=GPa)
#
#
# Indices 1 2 3 4 5 6 
#
# 1 23.9192 15.2898 7.2487 10.6937 -4.7120 -8.7470
# 2 15.2898 123.7154 55.5431 12.6398 -10.7846 -25.3780
# 3 7.2487 55.5431 164.1359 10.1984 -1.5135 -17.3124
# 4 10.6937 12.6398 10.1984 47.6040 -6.4336 -3.0168
# 5 -4.7120 -10.7846 -1.5135 -6.4336 35.2351 -0.6779
# 6 -8.7470 -25.3780 -17.3124 -3.0168 -0.6779 27.5069
#
#
#
# Elastic Compliance Matrix: (Units=1/GPa)
#
#
# Indices 1 2 3 4 5 6 
#
# 1 0.053886 -0.002602 0.000662 -0.009997 0.004886 0.014175
# 2 -0.002602 0.011756 -0.002914 -0.000977 0.003104 0.008154
# 3 0.000662 -0.002914 0.007311 -0.000897 -0.000614 0.002010
# 4 -0.009997 -0.000977 -0.000897 0.023939 0.002659 -0.001953
# 5 0.004886 0.003104 -0.000614 0.002659 0.030541 0.005075
# 6 0.014175 0.008154 0.002010 -0.001953 0.005075 0.049561
#
#
# Mechanical properties :
#
#
# Convention : Reuss Voigt Hill
#
# Bulk Modulus (GPa) = 15.81134 51.99263 33.90198
# Shear Modulus (GPa) = 24.06350 37.64846 30.85598
#
# Velocity S-wave (km/s) = 3.28631 4.11058 3.72134
# Velocity P-wave (km/s) = 4.63638 6.77228 5.80344
#
# Compressibility (1/GPa) = 0.06324576
#
# Stress axis : x y z
#
# Youngs Moduli (GPa) = 18.55784 85.06424 136.77203
#
# Poissons Ratio (x) = 0.22132 -0.09056
# Poissons Ratio (y) = 0.04828 0.39854
# Poissons Ratio (z) = -0.01229 0.24787
#
# Static dielectric constant tensor:
#      x y z
#    x 3.885910 -0.048720 -0.034940 
#    y -0.048720 4.262530 0.146330 
#    z -0.034940 0.146330 4.310930 
# 
# 
# High freq. dielectric constant tensor:
#      x y z
#    x 1.857300 -0.003530 -0.006710 
#    y -0.003530 1.887460 0.007490 
#    z -0.006710 0.007490 1.897590 
# 
# From -- ./inp_files/199604.got.cif
#   From: 2010.06.25/outbox.cif.g09.slc.cpg/sg2_100_cif.got.tgz:199604.got - 2010.06.27 13:26:56.
