data_PCOD8014689
_publ_section_title
;
Structure prediction by ZEFSAII (Michael W. Deem and Ramdas Pophale) SiO2 
 PCOD8014689
Probable space group: P -1
;
_chemical_formula_sum "Si O2"
_cell_formula_units_Z 16
_cell_length_a 13.774565
_cell_length_b 8.694765
_cell_length_c 14.461860
_cell_angle_alpha 46.278247
_cell_angle_beta 128.752881
_cell_angle_gamma 92.798477
_cell_volume 714.844563
_symmetry_space_group_name_H-M "P -1"
_symmetry_group_IT_number 2
_symmetry_cell_setting 'triclinic'
loop_
_space_group_symop_operation_xyz
x,y,z
-x,-y,-z
loop_
_atom_site_type_symbol
_atom_site_label
_atom_site_fract_x
_atom_site_fract_y
_atom_site_fract_z
Si Si1 0.800055 0.817478 0.806983
Si Si2 0.696168 0.738453 0.233857
Si Si3 0.143440 0.500994 0.202113
Si Si4 0.934984 0.486235 0.640747
Si Si5 0.862137 0.308652 0.158763
Si Si6 0.221107 0.936501 0.940304
Si Si7 0.459405 0.444716 0.402646
Si Si8 0.135946 0.683959 0.645903
O O1 0.794485 0.763552 0.718014
O O2 0.616852 0.122441 0.596397
O O3 0.852827 0.559690 0.012289
O O4 0.957575 0.797287 0.928726
O O5 0.767400 0.609760 0.431772
O O6 0.735560 0.504162 0.283113
O O7 0.794546 0.836715 0.223819
O O8 0.500000 0.000000 0.000000
O O9 0.126263 0.442077 0.320356
O O10 0.282265 0.523379 0.268548
O O11 0.002418 0.643098 0.591404
O O12 0.077045 0.137198 0.850455
O O13 0.798159 0.240892 0.065085
O O14 0.760149 0.417571 0.151711
O O15 0.046068 0.011376 0.428215
O O16 0.410044 0.691943 0.199728
O O17 0.500000 0.500000 0.500000
#
# Coordination Sequence:
#
# PCOD8014689 Si02
#       8
#     2   2   2   2   2   2   2   2
#     4  11  25  48  68  99 140 177 227 282 334 401
#     4  11  24  43  62  99 133 170 218 279 331 397
#     4  11  25  45  70  99 134 183 225 272 339 400
#     4  11  21  43  68  95 133 174 220 273 326 403
#     4  11  20  41  72  94 124 175 222 270 338 398
#     4  11  23  44  68  93 131 179 223 273 336 392
#     4  12  28  46  69 100 136 180 228 282 336 396
#     4  10  21  41  70  95 126 171 220 270 336 392
#
# _framework density 22.382486
#
# number of rings (size 3 to 8) (size 9 to 14) (size 15 to 20)
#    0.000    1.000    5.000    1.875    3.500    2.000 
#    4.500    0.625    0.000    0.000    0.000    0.000 
#    0.000    0.000    0.000    0.000    0.000    0.000 
#
# Total GULP energy -198215.255726 kJ/mol
# GULP energy per Si atom -12388.453483 kJ/mol
# Density = 2.233154 g / cm^3
# Si number density = 22.382486 Si / 1000 Ang^3
#
#
#
# Elastic Constant Matrix: (Units=GPa)
#
#
# Indices 1 2 3 4 5 6 
#
# 1 48.4406 38.5312 42.0917 1.6787 5.2571 -24.4316
# 2 38.5312 147.1744 77.1606 14.6257 -1.5613 -36.5487
# 3 42.0917 77.1606 156.5822 0.4144 1.8102 -21.6059
# 4 1.6787 14.6257 0.4144 40.6287 -1.5059 -5.8010
# 5 5.2571 -1.5613 1.8102 -1.5059 31.5085 11.1417
# 6 -24.4316 -36.5487 -21.6059 -5.8010 11.1417 42.0706
#
#
#
# Elastic Compliance Matrix: (Units=1/GPa)
#
#
# Indices 1 2 3 4 5 6 
#
# 1 0.041072 -0.001830 -0.006822 0.001755 -0.014549 0.022853
# 2 -0.001830 0.011413 -0.004192 -0.003093 -0.001384 0.006640
# 3 -0.006822 -0.004192 0.009894 0.001355 0.001382 -0.002702
# 4 0.001755 -0.003093 0.001355 0.026014 -0.000227 0.002675
# 5 -0.014549 -0.001384 0.001382 -0.000227 0.041020 -0.019836
# 6 0.022853 0.006640 -0.002702 0.002675 -0.019836 0.047044
#
#
# Mechanical properties :
#
#
# Convention : Reuss Voigt Hill
#
# Bulk Modulus (GPa) = 27.25457 74.19601 50.72529
# Shear Modulus (GPa) = 23.32370 35.80247 29.56309
#
# Velocity S-wave (km/s) = 3.23158 4.00381 3.63824
# Velocity P-wave (km/s) = 5.11149 7.38885 6.35305
#
# Compressibility (1/GPa) = 0.03669109
#
# Stress axis : x y z
#
# Youngs Moduli (GPa) = 24.34771 87.61938 101.07479
#
# Poissons Ratio (x) = 0.16030 0.68955
# Poissons Ratio (y) = 0.04454 0.42370
# Poissons Ratio (z) = 0.16610 0.36729
#
# Static dielectric constant tensor:
#      x y z
#    x 4.186440 -0.258840 -0.172060 
#    y -0.258840 4.495500 0.094580 
#    z -0.172060 0.094580 4.247990 
# 
# 
# High freq. dielectric constant tensor:
#      x y z
#    x 1.861210 -0.018730 -0.017410 
#    y -0.018730 1.906530 0.007240 
#    z -0.017410 0.007240 1.880700 
# 
# From -- ./inp_files/528176.got.cif
#   From: 2010.06.25/outbox.cif.g09.slc.cpg/sg2_265_cif.got.tgz:528176.got - 2010.06.27 13:26:56.
