data_PCOD8014806
_publ_section_title
;
Structure prediction by ZEFSAII (Michael W. Deem and Ramdas Pophale) SiO2 
 PCOD8014806
Probable space group: P -1
;
_chemical_formula_sum "Si O2"
_cell_formula_units_Z 16
_cell_length_a 8.264957
_cell_length_b 12.077478
_cell_length_c 11.853050
_cell_angle_alpha 103.769562
_cell_angle_beta 86.429415
_cell_angle_gamma 144.609246
_cell_volume 647.023798
_symmetry_space_group_name_H-M "P -1"
_symmetry_group_IT_number 2
_symmetry_cell_setting 'triclinic'
loop_
_space_group_symop_operation_xyz
x,y,z
-x,-y,-z
loop_
_atom_site_type_symbol
_atom_site_label
_atom_site_fract_x
_atom_site_fract_y
_atom_site_fract_z
Si Si1 0.380303 0.081056 0.565411
Si Si2 0.841681 0.863028 0.260381
Si Si3 0.008236 0.501524 0.722030
Si Si4 0.400970 0.878064 0.649980
Si Si5 0.081901 0.130989 0.128544
Si Si6 0.483560 0.059438 0.901390
Si Si7 0.735231 0.435472 0.923225
Si Si8 0.726745 0.548628 0.175988
O O1 0.205217 0.092068 0.611646
O O2 0.379647 0.067359 0.426065
O O3 0.705323 0.277073 0.642486
O O4 0.255083 0.894460 0.585508
O O5 0.573533 0.715027 0.150829
O O6 0.885099 0.755499 0.261148
O O7 0.106078 0.070680 0.228761
O O8 0.149887 0.649680 0.647973
O O9 0.204836 0.510571 0.753126
O O10 0.970266 0.566979 0.844951
O O11 0.575121 0.031331 0.785777
O O12 0.382599 0.367178 0.148100
O O13 0.842878 0.089959 0.142519
O O14 0.000000 0.000000 0.000000
O O15 0.707818 0.294856 0.950881
O O16 0.500000 0.000000 0.000000
O O17 0.826709 0.578788 0.050296
#
# Coordination Sequence:
#
# PCOD8014806 Si02
#       8
#     2   2   2   2   2   2   2   2
#     4  10  23  46  68  97 120 169 233 267 312 385
#     4  10  22  40  62  90 130 168 220 263 316 393
#     4  11  24  40  65  98 128 164 228 268 316 383
#     4  11  22  42  75  92 126 170 216 278 325 359
#     4  11  23  39  59  93 132 173 214 249 329 399
#     4  11  22  40  67 101 126 164 213 273 319 383
#     4  10  21  42  56  99 132 165 222 255 322 392
#     4  12  24  40  62  94 139 179 197 267 338 377
#
# _framework density 24.728611999999998
#
# number of rings (size 3 to 8) (size 9 to 14) (size 15 to 20)
#    0.000    1.250    6.250    1.875    3.500    2.000 
#    0.000    0.625    0.000    2.250    0.000    0.000 
#    0.000    0.000    0.000    0.000    0.000    0.000 
#
# Total GULP energy -198446.827211 kJ/mol
# GULP energy per Si atom -12402.926701 kJ/mol
# Density = 2.467233 g / cm^3
# Si number density = 24.728612 Si / 1000 Ang^3
#
#
#
# Elastic Constant Matrix: (Units=GPa)
#
#
# Indices 1 2 3 4 5 6 
#
# 1 66.8707 41.3379 46.4680 -9.0482 -30.2063 -17.7155
# 2 41.3379 87.8003 46.7617 -28.7521 -8.3706 -26.4065
# 3 46.4680 46.7617 165.4334 -22.6132 -39.2980 -9.8939
# 4 -9.0482 -28.7521 -22.6132 42.3243 -4.5549 2.4523
# 5 -30.2063 -8.3706 -39.2980 -4.5549 43.0316 4.3176
# 6 -17.7155 -26.4065 -9.8939 2.4523 4.3176 28.8699
#
#
#
# Elastic Compliance Matrix: (Units=1/GPa)
#
#
# Indices 1 2 3 4 5 6 
#
# 1 0.033244 -0.010734 -0.001081 0.000934 0.019638 0.007194
# 2 -0.010734 0.026668 -0.003126 0.012601 -0.005523 0.016489
# 3 -0.001081 -0.003126 0.009498 0.003669 0.007872 -0.001756
# 4 0.000934 0.012601 0.003669 0.034819 0.009238 0.009017
# 5 0.019638 -0.005523 0.007872 0.009238 0.043880 0.002349
# 6 0.007194 0.016489 -0.001756 0.009017 0.002349 0.052416
#
#
# Mechanical properties :
#
#
# Convention : Reuss Voigt Hill
#
# Bulk Modulus (GPa) = 25.29899 65.47105 45.38502
# Shear Modulus (GPa) = 20.52681 35.21429 27.87055
#
# Velocity S-wave (km/s) = 2.88424 3.77773 3.36081
# Velocity P-wave (km/s) = 4.62003 6.74993 5.78387
#
# Compressibility (1/GPa) = 0.03952728
#
# Stress axis : x y z
#
# Youngs Moduli (GPa) = 30.08072 37.49868 105.28062
#
# Poissons Ratio (x) = 0.40252 0.11379
# Poissons Ratio (y) = 0.32290 0.32912
# Poissons Ratio (z) = 0.03251 0.11723
#
# Static dielectric constant tensor:
#      x y z
#    x 4.418660 -0.074250 -0.322970 
#    y -0.074250 4.605950 -0.184580 
#    z -0.322970 -0.184580 4.633130 
# 
# 
# High freq. dielectric constant tensor:
#      x y z
#    x 1.976670 -0.009560 -0.013880 
#    y -0.009560 1.984570 -0.011440 
#    z -0.013880 -0.011440 1.982740 
# 
# From -- ./inp_files/390420.got.cif
#   From: 2010.06.25/outbox.cif.g09.slc.cpg/sg2_196_cif.got.tgz:390420.got - 2010.06.27 13:26:56.
