data_PCOD8014430
_publ_section_title
;
Structure prediction by ZEFSAII (Michael W. Deem and Ramdas Pophale) SiO2 
 PCOD8014430
Probable space group: P -1
;
_chemical_formula_sum "Si O2"
_cell_formula_units_Z 14
_cell_length_a 10.154423
_cell_length_b 9.257142
_cell_length_c 17.653329
_cell_angle_alpha 109.289037
_cell_angle_beta 46.861441
_cell_angle_gamma 71.170706
_cell_volume 690.965151
_symmetry_space_group_name_H-M "P -1"
_symmetry_group_IT_number 2
_symmetry_cell_setting 'triclinic'
loop_
_space_group_symop_operation_xyz
x,y,z
-x,-y,-z
loop_
_atom_site_type_symbol
_atom_site_label
_atom_site_fract_x
_atom_site_fract_y
_atom_site_fract_z
Si Si1 0.675877 0.222682 0.577078
Si Si2 0.819473 0.863267 0.356618
Si Si3 0.913893 0.232816 0.070504
Si Si4 0.304919 0.920385 0.300575
Si Si5 0.249217 0.630748 0.010491
Si Si6 0.638643 0.664022 0.881557
Si Si7 0.545743 0.975597 0.100990
O O1 0.406344 0.522830 0.722190
O O2 0.590310 0.158754 0.666524
O O3 0.753373 0.080603 0.445887
O O4 0.950953 0.141049 0.479081
O O5 0.992887 0.754583 0.190676
O O6 0.032186 0.632449 0.293391
O O7 0.500000 0.000000 0.500000
O O8 0.907184 0.282397 0.993851
O O9 0.000000 0.000000 0.000000
O O10 0.132236 0.190533 0.025827
O O11 0.369859 0.038882 0.255991
O O12 0.471380 0.673592 0.145157
O O13 0.377874 0.712560 0.990733
O O14 0.628591 0.765861 0.824722
O O15 0.578376 0.814959 0.001844
#
# Coordination Sequence:
#
# PCOD8014430 Si02
#       7
#     2   2   2   2   2   2   2
#     4  10  23  39  65  94 131 166 219 267 319 376
#     4  12  24  40  65 101 129 164 222 275 311 387
#     4  11  24  45  65  96 133 174 211 272 328 386
#     4  10  21  41  67  95 125 175 218 262 314 394
#     4  11  22  43  73  88 132 182 214 256 334 388
#     4  11  22  42  66  98 129 174 212 267 323 392
#     4  11  23  39  68  97 131 170 219 261 326 386
#
# _framework density 20.261513000000001
#
# number of rings (size 3 to 8) (size 9 to 14) (size 15 to 20)
#    0.000    1.143    4.286    2.143    2.000    1.143 
#    2.571    2.143    0.000    0.000    0.000    0.000 
#    0.000    0.000    0.000    0.000    0.000    0.000 
#
# Total GULP energy -173590.471018 kJ/mol
# GULP energy per Si atom -12399.319358 kJ/mol
# Density = 2.021540 g / cm^3
# Si number density = 20.261513 Si / 1000 Ang^3
#
#
#
# Elastic Constant Matrix: (Units=GPa)
#
#
# Indices 1 2 3 4 5 6 
#
# 1 79.4033 12.3130 22.3202 6.6073 -11.0883 -7.2873
# 2 12.3130 108.4495 46.8818 2.3267 -13.2414 -9.5237
# 3 22.3202 46.8818 124.5728 7.6102 -9.0755 -10.2120
# 4 6.6073 2.3267 7.6102 34.7437 1.0594 -3.3800
# 5 -11.0883 -13.2414 -9.0755 1.0594 32.4711 1.0263
# 6 -7.2873 -9.5237 -10.2120 -3.3800 1.0263 26.0960
#
#
#
# Elastic Compliance Matrix: (Units=1/GPa)
#
#
# Indices 1 2 3 4 5 6 
#
# 1 0.014151 0.000017 -0.001870 -0.002143 0.004298 0.002779
# 2 0.000017 0.011558 -0.003896 0.000220 0.003541 0.002587
# 3 -0.001870 -0.003896 0.010107 -0.001440 0.000588 0.001802
# 4 -0.002143 0.000220 -0.001440 0.029834 -0.002109 0.002865
# 5 0.004298 0.003541 0.000588 -0.002109 0.033906 0.001116
# 6 0.002779 0.002587 0.001802 0.002865 0.001116 0.041073
#
#
# Mechanical properties :
#
#
# Convention : Reuss Voigt Hill
#
# Bulk Modulus (GPa) = 41.12303 52.82841 46.97572
# Shear Modulus (GPa) = 31.20464 34.05620 32.63042
#
# Velocity S-wave (km/s) = 3.92866 4.10424 4.01741
# Velocity P-wave (km/s) = 6.39682 6.97063 6.68988
#
# Compressibility (1/GPa) = 0.02431727
#
# Stress axis : x y z
#
# Youngs Moduli (GPa) = 70.66831 86.51946 98.93965
#
# Poissons Ratio (x) = -0.00143 0.18499
# Poissons Ratio (y) = -0.00117 0.38548
# Poissons Ratio (z) = 0.13213 0.33709
#
# Static dielectric constant tensor:
#      x y z
#    x 3.857770 -0.141970 -0.055760 
#    y -0.141970 3.888910 0.061120 
#    z -0.055760 0.061120 3.700540 
# 
# 
# High freq. dielectric constant tensor:
#      x y z
#    x 1.799140 -0.004670 -0.000410 
#    y -0.004670 1.788510 0.003810 
#    z -0.000410 0.003810 1.789960 
# 
# From -- ./inp_files/155617.got.cif
#   From: 2010.06.25/outbox.cif.g09.slc.cpg/sg2_78_cif.got.tgz:155617.got - 2010.06.27 13:26:56.
