data_PCOD8014228
_publ_section_title
;
Structure prediction by ZEFSAII (Michael W. Deem and Ramdas Pophale) SiO2 
 PCOD8014228
Probable space group: P -1
;
_chemical_formula_sum "Si O2"
_cell_formula_units_Z 16
_cell_length_a 5.467356
_cell_length_b 16.790472
_cell_length_c 8.271201
_cell_angle_alpha 70.482301
_cell_angle_beta 111.345079
_cell_angle_gamma 89.903276
_cell_volume 659.964379
_symmetry_space_group_name_H-M "P -1"
_symmetry_group_IT_number 2
_symmetry_cell_setting 'triclinic'
loop_
_space_group_symop_operation_xyz
x,y,z
-x,-y,-z
loop_
_atom_site_type_symbol
_atom_site_label
_atom_site_fract_x
_atom_site_fract_y
_atom_site_fract_z
Si Si1 0.389224 0.948629 0.651084
Si Si2 0.669387 0.783198 0.946844
Si Si3 0.918426 0.249764 0.682274
Si Si4 0.967435 0.551988 0.120864
Si Si5 0.147421 0.392118 0.471492
Si Si6 0.633580 0.748878 0.605607
Si Si7 0.093365 0.116194 0.562370
Si Si8 0.524496 0.363082 0.858451
O O1 0.600774 0.886185 0.849397
O O2 0.205512 0.885514 0.567923
O O3 0.500000 0.000000 0.500000
O O4 0.232672 0.018617 0.687730
O O5 0.605048 0.735364 0.798024
O O6 0.483967 0.739316 0.059132
O O7 0.976425 0.761563 0.099319
O O8 0.620211 0.236236 0.584051
O O9 0.947527 0.345930 0.566310
O O10 0.106779 0.174314 0.684250
O O11 0.039710 0.488740 0.333250
O O12 0.173527 0.619156 0.091013
O O13 0.667706 0.594626 0.068284
O O14 0.000000 0.500000 0.000000
O O15 0.185523 0.336190 0.354618
O O16 0.415596 0.393877 0.635384
O O17 0.764738 0.835959 0.575347
#
# Coordination Sequence:
#
# PCOD8014228 Si02
#       8
#     2   2   2   2   2   2   2   2
#     4  11  21  41  68  94 133 174 232 277 352 409
#     4  11  24  43  70  99 133 185 224 288 346 421
#     4  10  23  42  65 101 135 175 233 274 355 407
#     4  12  26  45  71 104 140 183 236 284 347 416
#     4  10  25  42  69  97 134 184 223 288 341 408
#     4  11  22  44  69  96 141 173 230 281 347 412
#     4  10  21  41  65  99 129 181 223 288 345 415
#     4  11  27  45  68 104 140 182 235 284 350 415
#
# _framework density 24.243732000000001
#
# number of rings (size 3 to 8) (size 9 to 14) (size 15 to 20)
#    0.000    1.250    2.500    1.875    7.000    1.500 
#    4.500    2.500    0.000    0.000    0.000    0.000 
#    0.000    0.000    0.000    0.000    0.000    0.000 
#
# Total GULP energy -198211.817228 kJ/mol
# GULP energy per Si atom -12388.238577 kJ/mol
# Density = 2.418855 g / cm^3
# Si number density = 24.243732 Si / 1000 Ang^3
#
#
#
# Elastic Constant Matrix: (Units=GPa)
#
#
# Indices 1 2 3 4 5 6 
#
# 1 96.5221 28.5776 33.9833 -4.2349 -0.3105 17.9611
# 2 28.5776 96.0120 32.1468 -14.1091 -0.9884 11.9818
# 3 33.9833 32.1468 127.2174 -15.8948 3.7383 9.0021
# 4 -4.2349 -14.1091 -15.8948 46.4038 5.5131 0.0405
# 5 -0.3105 -0.9884 3.7383 5.5131 18.7208 8.4052
# 6 17.9611 11.9818 9.0021 0.0405 8.4052 48.2170
#
#
#
# Elastic Compliance Matrix: (Units=1/GPa)
#
#
# Indices 1 2 3 4 5 6 
#
# 1 0.012777 -0.002487 -0.002676 -0.000824 0.002704 -0.004112
# 2 -0.002487 0.012504 -0.002044 0.002744 0.001115 -0.001996
# 3 -0.002676 -0.002044 0.009504 0.002742 -0.002968 0.000245
# 4 -0.000824 0.002744 0.002742 0.024166 -0.007731 0.000441
# 5 0.002704 0.001115 -0.002968 -0.007731 0.061530 -0.011450
# 6 -0.004112 -0.001996 0.000245 0.000441 -0.011450 0.024717
#
#
# Mechanical properties :
#
#
# Convention : Reuss Voigt Hill
#
# Bulk Modulus (GPa) = 49.09003 56.57411 52.83207
# Shear Modulus (GPa) = 30.04759 37.67125 33.85942
#
# Velocity S-wave (km/s) = 3.52433 3.94617 3.74120
# Velocity P-wave (km/s) = 6.07072 6.64449 6.36408
#
# Compressibility (1/GPa) = 0.02037074
#
# Stress axis : x y z
#
# Youngs Moduli (GPa) = 78.26808 79.97597 105.21494
#
# Poissons Ratio (x) = 0.19890 0.28155
# Poissons Ratio (y) = 0.19466 0.21505
# Poissons Ratio (z) = 0.20945 0.16347
#
# Static dielectric constant tensor:
#      x y z
#    x 4.264280 -0.115200 -0.025990 
#    y -0.115200 4.666630 -0.083940 
#    z -0.025990 -0.083940 4.427050 
# 
# 
# High freq. dielectric constant tensor:
#      x y z
#    x 1.951700 -0.005740 -0.004240 
#    y -0.005740 1.981270 -0.005040 
#    z -0.004240 -0.005040 1.954290 
# 
# From -- ./inp_files/46757.got.cif
#   From: 2010.06.25/outbox.cif.g09.slc.cpg/sg2_24_cif.got.tgz:46757.got - 2010.06.27 13:26:56.
