data_PCOD8014938
_publ_section_title
;
Structure prediction by ZEFSAII (Michael W. Deem and Ramdas Pophale) SiO2 
 PCOD8014938
Probable space group: P -1
;
_chemical_formula_sum "Si O2"
_cell_formula_units_Z 16
_cell_length_a 8.960405
_cell_length_b 12.674198
_cell_length_c 8.298430
_cell_angle_alpha 72.363554
_cell_angle_beta 107.837881
_cell_angle_gamma 79.664260
_cell_volume 815.547960
_symmetry_space_group_name_H-M "P -1"
_symmetry_group_IT_number 2
_symmetry_cell_setting 'triclinic'
loop_
_space_group_symop_operation_xyz
x,y,z
-x,-y,-z
loop_
_atom_site_type_symbol
_atom_site_label
_atom_site_fract_x
_atom_site_fract_y
_atom_site_fract_z
Si Si1 0.532388 0.369574 0.129196
Si Si2 0.617547 0.986423 0.696069
Si Si3 0.586194 0.375403 0.518194
Si Si4 0.071219 0.733246 0.211366
Si Si5 0.496775 0.183226 0.790412
Si Si6 0.720741 0.747928 0.029955
Si Si7 0.043193 0.970119 0.213293
Si Si8 0.216582 0.813188 0.910804
O O1 0.540469 0.363224 0.325433
O O2 0.704068 0.281293 0.158398
O O3 0.500000 0.500000 0.000000
O O4 0.370766 0.338688 0.031826
O O5 0.500000 0.000000 0.500000
O O6 0.499579 0.068785 0.748267
O O7 0.770417 0.034186 0.682349
O O8 0.684570 0.857449 0.847555
O O9 0.500000 0.500000 0.500000
O O10 0.779698 0.361611 0.608727
O O11 0.525461 0.282569 0.640594
O O12 0.025209 0.841075 0.274635
O O13 0.916489 0.687681 0.140515
O O14 0.133178 0.757244 0.045509
O O15 0.327737 0.223442 0.813070
O O16 0.637280 0.144977 0.989014
O O17 0.920278 0.066055 0.246600
O O18 0.000000 0.000000 0.000000
#
# Coordination Sequence:
#
# PCOD8014938 Si02
#       8
#     2   2   2   2   2   2   2   2
#     4  11  24  43  63  91 122 157 209 258 312 368
#     4  12  21  34  59  96 132 161 202 253 306 365
#     4  11  22  43  67  87 117 169 207 252 311 366
#     4  10  19  38  64  91 123 165 204 247 308 362
#     4  10  20  38  59  86 125 166 204 247 302 361
#     4  11  22  37  64  93 122 163 210 248 303 370
#     4  10  16  35  62  85 129 167 198 238 310 371
#     4   9  17  36  64  83 117 168 197 244 304 366
#
# _framework density 19.618711999999999
#
# number of rings (size 3 to 8) (size 9 to 14) (size 15 to 20)
#    0.000    1.500    6.250    3.375    0.000    1.000 
#    2.250    5.625    0.000    0.000    0.000    0.000 
#    0.000    0.000    0.000    0.000    0.000    0.000 
#
# Total GULP energy -198255.157402 kJ/mol
# GULP energy per Si atom -12390.947338 kJ/mol
# Density = 1.957406 g / cm^3
# Si number density = 19.618712 Si / 1000 Ang^3
#
#
#
# Elastic Constant Matrix: (Units=GPa)
#
#
# Indices 1 2 3 4 5 6 
#
# 1 103.6338 38.3633 30.8460 10.0566 22.6701 -5.0853
# 2 38.3633 123.2210 32.9378 6.9508 13.0347 -18.1988
# 3 30.8460 32.9378 78.6501 7.8083 17.8360 -5.6937
# 4 10.0566 6.9508 7.8083 33.7752 -1.2132 -0.8028
# 5 22.6701 13.0347 17.8360 -1.2132 30.8124 2.7339
# 6 -5.0853 -18.1988 -5.6937 -0.8028 2.7339 38.0992
#
#
#
# Elastic Compliance Matrix: (Units=1/GPa)
#
#
# Indices 1 2 3 4 5 6 
#
# 1 0.013194 -0.002458 -0.002027 -0.003212 -0.007689 0.000768
# 2 -0.002458 0.010438 -0.002686 -0.000745 -0.001467 0.004346
# 3 -0.002027 -0.002686 0.016673 -0.002926 -0.007263 0.001398
# 4 -0.003212 -0.000745 -0.002926 0.031575 0.005701 -0.000965
# 5 -0.007689 -0.001467 -0.007263 0.005701 0.043678 -0.005827
# 6 0.000768 0.004346 0.001398 -0.000965 -0.005827 0.029032
#
#
# Mechanical properties :
#
#
# Convention : Reuss Voigt Hill
#
# Bulk Modulus (GPa) = 38.51657 56.64437 47.58047
# Shear Modulus (GPa) = 29.83532 34.09455 31.96494
#
# Velocity S-wave (km/s) = 3.90392 4.17329 4.04085
# Velocity P-wave (km/s) = 6.32424 7.22198 6.78797
#
# Compressibility (1/GPa) = 0.02596285
#
# Stress axis : x y z
#
# Youngs Moduli (GPa) = 75.79260 95.80563 59.97674
#
# Poissons Ratio (x) = 0.23548 0.12158
# Poissons Ratio (y) = 0.18629 0.16110
# Poissons Ratio (z) = 0.15364 0.25733
#
# Static dielectric constant tensor:
#      x y z
#    x 4.033010 -0.248260 0.057360 
#    y -0.248260 3.822980 -0.042300 
#    z 0.057360 -0.042300 3.585730 
# 
# 
# High freq. dielectric constant tensor:
#      x y z
#    x 1.764330 -0.008840 0.009970 
#    y -0.008840 1.763530 0.003680 
#    z 0.009970 0.003680 1.749050 
# 
# From -- ./inp_files/186905.got.cif
#   From: 2010.06.25/outbox.cif.g09.slc.cpg/sg2_94_cif.got.tgz:186905.got - 2010.06.27 13:26:56.
