data_PCOD8014075
_publ_section_title
;
Structure prediction by ZEFSAII (Michael W. Deem and Ramdas Pophale) SiO2 
 PCOD8014075
Probable space group: P -1
;
_chemical_formula_sum "Si O2"
_cell_formula_units_Z 16
_cell_length_a 14.933801
_cell_length_b 9.284943
_cell_length_c 11.651704
_cell_angle_alpha 40.106608
_cell_angle_beta 113.572559
_cell_angle_gamma 133.841388
_cell_volume 720.768170
_symmetry_space_group_name_H-M "P -1"
_symmetry_group_IT_number 2
_symmetry_cell_setting 'triclinic'
loop_
_space_group_symop_operation_xyz
x,y,z
-x,-y,-z
loop_
_atom_site_type_symbol
_atom_site_label
_atom_site_fract_x
_atom_site_fract_y
_atom_site_fract_z
Si Si1 0.170156 0.717613 0.154345
Si Si2 0.098463 0.462628 0.524283
Si Si3 0.196950 0.574780 0.018558
Si Si4 0.542933 0.804227 0.290562
Si Si5 0.620894 0.015194 0.574013
Si Si6 0.378926 0.458248 0.208289
Si Si7 0.020946 0.919684 0.937829
Si Si8 0.555820 0.905276 0.854110
O O1 0.111808 0.512750 0.363418
O O2 0.122125 0.536548 0.120065
O O3 0.323453 0.921732 0.104014
O O4 0.142574 0.939956 0.003933
O O5 0.236231 0.662910 0.541101
O O6 0.000000 0.500000 0.500000
O O7 0.041471 0.132690 0.719021
O O8 0.245002 0.391995 0.177214
O O9 0.098615 0.415535 0.958300
O O10 0.305580 0.920470 0.825058
O O11 0.500000 0.500000 0.500000
O O12 0.468543 0.721173 0.183745
O O13 0.493155 0.911158 0.291813
O O14 0.500000 0.000000 0.500000
O O15 0.632411 0.827196 0.602597
O O16 0.594922 0.868413 0.773835
O O17 0.442348 0.581017 0.041039
O O18 0.000000 0.000000 0.000000
#
# Coordination Sequence:
#
# PCOD8014075 Si02
#       8
#     2   2   2   2   2   2   2   2
#     4  11  23  46  71  96 141 178 239 290 347 427
#     4  11  25  48  70 100 143 189 239 296 359 418
#     4  11  24  46  67 102 137 183 235 280 361 424
#     4  11  22  41  69 101 141 176 221 285 349 420
#     4  11  25  39  66 105 134 172 240 289 343 419
#     4  11  21  41  67  94 138 178 214 280 352 414
#     4  12  27  45  73  97 135 189 236 293 348 418
#     4  10  21  41  64  96 134 179 217 275 352 407
#
# _framework density 22.198539
#
# number of rings (size 3 to 8) (size 9 to 14) (size 15 to 20)
#    0.000    1.000    3.750    3.000    3.500    5.500 
#    2.250    0.000    0.000    0.000    0.000    0.000 
#    0.000    0.000    0.000    0.000    0.000    0.000 
#
# Total GULP energy -198287.039244 kJ/mol
# GULP energy per Si atom -12392.939953 kJ/mol
# Density = 2.214801 g / cm^3
# Si number density = 22.198539 Si / 1000 Ang^3
#
#
#
# Elastic Constant Matrix: (Units=GPa)
#
#
# Indices 1 2 3 4 5 6 
#
# 1 114.5785 26.6972 46.0273 -3.3799 -2.7606 -5.1926
# 2 26.6972 100.2398 26.9065 -4.9211 -13.8327 -6.9393
# 3 46.0273 26.9065 116.1017 -6.7631 12.4947 -2.2257
# 4 -3.3799 -4.9211 -6.7631 25.6466 -4.9996 0.5948
# 5 -2.7606 -13.8327 12.4947 -4.9996 33.4985 2.3841
# 6 -5.1926 -6.9393 -2.2257 0.5948 2.3841 38.9295
#
#
#
# Elastic Compliance Matrix: (Units=1/GPa)
#
#
# Indices 1 2 3 4 5 6 
#
# 1 0.010808 -0.001447 -0.004106 0.000400 0.001825 0.000831
# 2 -0.001447 0.012180 -0.002740 0.002604 0.006221 0.001401
# 3 -0.004106 -0.002740 0.011533 0.000876 -0.005638 -0.000045
# 4 0.000400 0.002604 0.000876 0.041143 0.006957 -0.000487
# 5 0.001825 0.006221 -0.005638 0.006957 0.035803 -0.001269
# 6 0.000831 0.001401 -0.000045 -0.000487 -0.001269 0.026131
#
#
# Mechanical properties :
#
#
# Convention : Reuss Voigt Hill
#
# Bulk Modulus (GPa) = 55.76053 58.90911 57.33482
# Shear Modulus (GPa) = 31.21828 35.03420 33.12624
#
# Velocity S-wave (km/s) = 3.75416 3.97699 3.86718
# Velocity P-wave (km/s) = 6.63063 6.90533 6.76937
#
# Compressibility (1/GPa) = 0.01793383
#
# Stress axis : x y z
#
# Youngs Moduli (GPa) = 92.52494 82.09947 86.70759
#
# Poissons Ratio (x) = 0.11881 0.35606
# Poissons Ratio (y) = 0.13390 0.23758
# Poissons Ratio (z) = 0.37995 0.22496
#
# Static dielectric constant tensor:
#      x y z
#    x 4.093240 -0.072150 0.023720 
#    y -0.072150 4.117940 0.079280 
#    z 0.023720 0.079280 3.842160 
# 
# 
# High freq. dielectric constant tensor:
#      x y z
#    x 1.886030 -0.007660 0.004080 
#    y -0.007660 1.877570 0.006610 
#    z 0.004080 0.006610 1.863240 
# 
# From -- ./inp_files/234716.got.cif
#   From: 2010.06.25/outbox.cif.g09.slc.cpg/sg2_118_cif.got.tgz:234716.got - 2010.06.27 13:26:56.
