data_PCOD8014134
_publ_section_title
;
Structure prediction by ZEFSAII (Michael W. Deem and Ramdas Pophale) SiO2 
 PCOD8014134
Probable space group: P -1
;
_chemical_formula_sum "Si O2"
_cell_formula_units_Z 16
_cell_length_a 17.333313
_cell_length_b 16.000648
_cell_length_c 6.519340
_cell_angle_alpha 43.386472
_cell_angle_beta 48.354148
_cell_angle_gamma 37.996449
_cell_volume 746.357400
_symmetry_space_group_name_H-M "P -1"
_symmetry_group_IT_number 2
_symmetry_cell_setting 'triclinic'
loop_
_space_group_symop_operation_xyz
x,y,z
-x,-y,-z
loop_
_atom_site_type_symbol
_atom_site_label
_atom_site_fract_x
_atom_site_fract_y
_atom_site_fract_z
Si Si1 0.079430 0.469862 0.213038
Si Si2 0.310111 0.412196 0.118614
Si Si3 0.381632 0.561456 0.406109
Si Si4 0.477342 0.094616 0.569986
Si Si5 0.044608 0.267670 0.344727
Si Si6 0.805372 0.326251 0.841672
Si Si7 0.670172 0.993354 0.756597
Si Si8 0.641736 0.274633 0.473181
O O1 0.226946 0.383344 0.171061
O O2 0.078165 0.356273 0.271234
O O3 0.000000 0.500000 0.500000
O O4 0.026446 0.629723 0.913941
O O5 0.420332 0.263462 0.307032
O O6 0.219742 0.534243 0.233927
O O7 0.376291 0.464744 0.766587
O O8 0.278333 0.616911 0.316478
O O9 0.526664 0.438890 0.283619
O O10 0.354874 0.706862 0.317855
O O11 0.609510 0.031264 0.568766
O O12 0.500000 0.000000 0.500000
O O13 0.374751 0.096592 0.888778
O O14 0.954334 0.230155 0.682134
O O15 0.176024 0.108247 0.339297
O O16 0.772625 0.230652 0.208359
O O17 0.620902 0.147214 0.690867
#
# Coordination Sequence:
#
# PCOD8014134 Si02
#       8
#     2   2   2   2   2   2   2   2
#     4  11  21  38  61  92 125 160 206 249 305 367
#     4  11  21  37  67  94 120 157 206 262 309 359
#     4  10  21  41  65  91 120 156 214 265 302 357
#     4  11  24  41  64  93 126 163 201 254 314 370
#     4  11  24  38  62  92 127 166 200 254 307 369
#     4  11  22  39  63  92 121 160 210 256 304 358
#     4  11  25  43  60  92 132 163 204 248 311 377
#     4  10  23  40  63  87 123 165 209 254 306 363
#
# _framework density 21.437450999999999
#
# number of rings (size 3 to 8) (size 9 to 14) (size 15 to 20)
#    0.000    1.250    2.500    3.375    1.750    5.500 
#    0.000    0.625    0.000    0.000    0.000    0.000 
#    0.000    0.000    0.000    0.000    0.000    0.000 
#
# Total GULP energy -198397.210349 kJ/mol
# GULP energy per Si atom -12399.825647 kJ/mol
# Density = 2.138866 g / cm^3
# Si number density = 21.437451 Si / 1000 Ang^3
#
#
#
# Elastic Constant Matrix: (Units=GPa)
#
#
# Indices 1 2 3 4 5 6 
#
# 1 103.7658 15.7932 16.8092 1.2879 5.0933 -2.2545
# 2 15.7932 66.6960 18.9120 4.3504 0.9542 -0.3992
# 3 16.8092 18.9120 54.3195 6.4349 2.3247 1.1316
# 4 1.2879 4.3504 6.4349 27.8516 -4.3146 -7.2161
# 5 5.0933 0.9542 2.3247 -4.3146 34.4790 3.1307
# 6 -2.2545 -0.3992 1.1316 -7.2161 3.1307 37.6796
#
#
#
# Elastic Compliance Matrix: (Units=1/GPa)
#
#
# Indices 1 2 3 4 5 6 
#
# 1 0.010405 -0.001720 -0.002631 0.000414 -0.001340 0.000874
# 2 -0.001720 0.016968 -0.005210 -0.001380 -0.000034 -0.000028
# 3 -0.002631 -0.005210 0.021689 -0.004716 -0.001370 -0.001653
# 4 0.000414 -0.001380 -0.004716 0.039820 0.004607 0.007395
# 5 -0.001340 -0.000034 -0.001370 0.004607 0.030021 -0.001651
# 6 0.000874 -0.000028 -0.001653 0.007395 -0.001651 0.028195
#
#
# Mechanical properties :
#
#
# Convention : Reuss Voigt Hill
#
# Bulk Modulus (GPa) = 33.39970 36.42334 34.91152
# Shear Modulus (GPa) = 28.37681 31.55316 29.96498
#
# Velocity S-wave (km/s) = 3.64222 3.84066 3.74275
# Velocity P-wave (km/s) = 5.77075 6.05764 5.91593
#
# Compressibility (1/GPa) = 0.02994039
#
# Stress axis : x y z
#
# Youngs Moduli (GPa) = 96.11050 58.93307 46.10569
#
# Poissons Ratio (x) = 0.10139 0.12129
# Poissons Ratio (y) = 0.16535 0.24020
# Poissons Ratio (z) = 0.25284 0.30703
#
# Static dielectric constant tensor:
#      x y z
#    x -0.648850 -0.057640 -0.803560 
#    y -0.057640 3.820290 0.136010 
#    z -0.803560 0.136010 3.891920 
# 
# 
# High freq. dielectric constant tensor:
#      x y z
#    x 1.858820 0.008250 -0.004990 
#    y 0.008250 1.822260 0.017170 
#    z -0.004990 0.017170 1.843650 
# 
# From -- ./inp_files/77911.got.cif
#   From: 2010.06.25/outbox.cif.g09.slc.cpg/sg2_39_cif.got.tgz:77911.got - 2010.06.27 13:26:56.
