data_PCOD8014187
_publ_section_title
;
Structure prediction by ZEFSAII (Michael W. Deem and Ramdas Pophale) SiO2 
 PCOD8014187
Probable space group: P -1
;
_chemical_formula_sum "Si O2"
_cell_formula_units_Z 16
_cell_length_a 8.275221
_cell_length_b 16.402006
_cell_length_c 8.976172
_cell_angle_alpha 59.400147
_cell_angle_beta 58.243239
_cell_angle_gamma 97.611054
_cell_volume 746.435245
_symmetry_space_group_name_H-M "P -1"
_symmetry_group_IT_number 2
_symmetry_cell_setting 'triclinic'
loop_
_space_group_symop_operation_xyz
x,y,z
-x,-y,-z
loop_
_atom_site_type_symbol
_atom_site_label
_atom_site_fract_x
_atom_site_fract_y
_atom_site_fract_z
Si Si1 0.981664 0.529238 0.648748
Si Si2 0.984025 0.031426 0.311723
Si Si3 0.546261 0.414024 0.134244
Si Si4 0.444742 0.077613 0.544914
Si Si5 0.941957 0.234863 0.207958
Si Si6 0.301467 0.489053 0.704883
Si Si7 0.714485 0.018964 0.963122
Si Si8 0.053809 0.260303 0.475126
O O1 0.199120 0.551313 0.611887
O O2 0.000000 0.500000 0.500000
O O3 0.978147 0.641413 0.545785
O O4 0.757070 0.424111 0.935089
O O5 0.753034 0.923785 0.451612
O O6 0.198660 0.050978 0.098688
O O7 0.987031 0.145976 0.191301
O O8 0.000000 0.000000 0.500000
O O9 0.603206 0.444849 0.249791
O O10 0.312234 0.292520 0.342388
O O11 0.500000 0.500000 0.000000
O O12 0.681955 0.199889 0.336156
O O13 0.500000 0.000000 0.500000
O O14 0.344567 0.024284 0.802109
O O15 0.978693 0.231104 0.368516
O O16 0.111457 0.357658 0.944478
O O17 0.500000 0.500000 0.500000
O O18 0.903057 0.152331 0.751950
O O19 0.500000 0.000000 0.000000
#
# Coordination Sequence:
#
# PCOD8014187 Si02
#       8
#     2   2   2   2   2   2   2   2
#     4  11  25  44  67 101 133 175 228 277 332 398
#     4  11  23  44  68 104 136 176 224 276 332 396
#     4  10  21  41  65  94 133 170 220 276 323 392
#     4  10  23  43  67  99 137 174 222 276 325 399
#     4  11  23  45  70  96 137 179 220 276 340 391
#     4  12  25  44  69  98 136 174 225 277 331 401
#     4  12  23  44  69 101 137 174 223 275 329 402
#     4  11  23  44  71  96 136 181 219 275 342 388
#
# _framework density 21.435214999999999
#
# number of rings (size 3 to 8) (size 9 to 14) (size 15 to 20)
#    0.000    1.000    5.000    3.000    0.000    6.000 
#    0.000    0.000    0.000    0.000    0.000    0.000 
#    0.000    0.000    0.000    0.000    0.000    0.000 
#
# Total GULP energy -198378.461249 kJ/mol
# GULP energy per Si atom -12398.653828 kJ/mol
# Density = 2.138643 g / cm^3
# Si number density = 21.435215 Si / 1000 Ang^3
#
#
#
# Elastic Constant Matrix: (Units=GPa)
#
#
# Indices 1 2 3 4 5 6 
#
# 1 135.7235 31.5218 43.4026 16.8154 -16.9505 35.6836
# 2 31.5218 99.7844 45.5839 17.0162 -7.7224 13.2273
# 3 43.4026 45.5839 147.2414 13.4034 -14.9854 19.7353
# 4 16.8154 17.0162 13.4034 54.6722 3.8352 0.1724
# 5 -16.9505 -7.7224 -14.9854 3.8352 43.6402 1.2538
# 6 35.6836 13.2273 19.7353 0.1724 1.2538 42.8339
#
#
#
# Elastic Compliance Matrix: (Units=1/GPa)
#
#
# Indices 1 2 3 4 5 6 
#
# 1 0.011127 -0.001016 -0.001098 -0.003110 0.004284 -0.008562
# 2 -0.001016 0.012504 -0.002970 -0.002923 0.001103 -0.001667
# 3 -0.001098 -0.002970 0.008643 -0.001002 0.002167 -0.002209
# 4 -0.003110 -0.002923 -0.001002 0.020671 -0.004000 0.003989
# 5 0.004284 0.001103 0.002167 -0.004000 0.026032 -0.005654
# 6 -0.008562 -0.001667 -0.002209 0.003989 -0.005654 0.032161
#
#
# Mechanical properties :
#
#
# Convention : Reuss Voigt Hill
#
# Bulk Modulus (GPa) = 45.23938 69.30731 57.27334
# Shear Modulus (GPa) = 38.85774 45.71200 42.28487
#
# Velocity S-wave (km/s) = 4.26232 4.62298 4.44631
# Velocity P-wave (km/s) = 6.73603 7.80381 7.28950
#
# Compressibility (1/GPa) = 0.02210464
#
# Stress axis : x y z
#
# Youngs Moduli (GPa) = 89.87364 79.97366 115.70581
#
# Poissons Ratio (x) = 0.08127 0.12710
# Poissons Ratio (y) = 0.09133 0.34362
# Poissons Ratio (z) = 0.09872 0.23750
#
# Static dielectric constant tensor:
#      x y z
#    x 4.338350 0.156920 -0.309680 
#    y 0.156920 3.145040 0.256360 
#    z -0.309680 0.256360 3.782710 
# 
# 
# High freq. dielectric constant tensor:
#      x y z
#    x 1.862830 0.008250 -0.012320 
#    y 0.008250 1.840830 0.009300 
#    z -0.012320 0.009300 1.846910 
# 
# From -- ./inp_files/206209.got.cif
#   From: 2010.06.25/outbox.cif.g09.slc.cpg/sg2_104_cif.got.tgz:206209.got - 2010.06.27 13:26:56.
