data_PCOD8014865
_publ_section_title
;
Structure prediction by ZEFSAII (Michael W. Deem and Ramdas Pophale) SiO2 
 PCOD8014865
Probable space group: P -1
;
_chemical_formula_sum "Si O2"
_cell_formula_units_Z 16
_cell_length_a 9.593449
_cell_length_b 15.555531
_cell_length_c 16.167832
_cell_angle_alpha 26.474440
_cell_angle_beta 134.085744
_cell_angle_gamma 133.278629
_cell_volume 757.611436
_symmetry_space_group_name_H-M "P -1"
_symmetry_group_IT_number 2
_symmetry_cell_setting 'triclinic'
loop_
_space_group_symop_operation_xyz
x,y,z
-x,-y,-z
loop_
_atom_site_type_symbol
_atom_site_label
_atom_site_fract_x
_atom_site_fract_y
_atom_site_fract_z
Si Si1 0.196914 0.652825 0.922936
Si Si2 0.941501 0.326613 0.331514
Si Si3 0.810616 0.026331 0.948904
Si Si4 0.816978 0.934027 0.421267
Si Si5 0.371285 0.369931 0.848523
Si Si6 0.913740 0.742134 0.016106
Si Si7 0.607075 0.226001 0.562721
Si Si8 0.699825 0.036323 0.602161
O O1 0.190125 0.708750 0.775297
O O2 0.221118 0.857101 0.810363
O O3 0.394691 0.566503 0.090651
O O4 0.000000 0.500000 0.000000
O O5 0.995855 0.559984 0.168176
O O6 0.131526 0.221773 0.490453
O O7 0.828333 0.229079 0.448799
O O8 0.702126 0.186839 0.723281
O O9 0.888444 0.107310 0.001137
O O10 0.664631 0.813837 0.071889
O O11 0.000000 0.000000 0.000000
O O12 0.629352 0.816935 0.493847
O O13 0.000000 0.000000 0.500000
O O14 0.245196 0.326595 0.917605
O O15 0.306540 0.550947 0.619330
O O16 0.807968 0.848224 0.808671
O O17 0.667882 0.076095 0.650805
O O18 0.500000 0.000000 0.500000
#
# Coordination Sequence:
#
# PCOD8014865 Si02
#       8
#     2   2   2   2   2   2   2   2
#     4  11  23  41  69  94 131 177 219 265 331 406
#     4  11  25  40  62  97 135 169 212 272 342 389
#     4  10  22  42  64  94 134 174 226 273 315 392
#     4  10  21  42  62  91 133 172 215 261 323 398
#     4  11  21  38  66  98 126 172 225 269 321 389
#     4  11  24  42  63  98 136 174 218 272 337 379
#     4  12  22  41  69  96 129 174 228 267 321 394
#     4  12  24  38  65  99 138 167 210 286 340 385
#
# _framework density 21.119007
#
# number of rings (size 3 to 8) (size 9 to 14) (size 15 to 20)
#    0.000    1.000    5.000    3.750    3.500    4.000 
#    0.000    0.625    0.000    3.750    0.000    0.000 
#    0.000    0.000    0.000    0.000    0.000    0.000 
#
# Total GULP energy -198321.762612 kJ/mol
# GULP energy per Si atom -12395.110163 kJ/mol
# Density = 2.107094 g / cm^3
# Si number density = 21.119007 Si / 1000 Ang^3
#
#
#
# Elastic Constant Matrix: (Units=GPa)
#
#
# Indices 1 2 3 4 5 6 
#
# 1 69.3316 30.9695 11.6768 -3.0335 10.2137 2.3458
# 2 30.9695 91.3234 46.8297 -8.3332 7.4879 -2.5547
# 3 11.6768 46.8297 128.9969 -14.1792 8.7027 -6.2946
# 4 -3.0335 -8.3332 -14.1792 36.4954 -2.7059 6.8628
# 5 10.2137 7.4879 8.7027 -2.7059 29.7781 -11.2704
# 6 2.3458 -2.5547 -6.2946 6.8628 -11.2704 31.4536
#
#
#
# Elastic Compliance Matrix: (Units=1/GPa)
#
#
# Indices 1 2 3 4 5 6 
#
# 1 0.018132 -0.006129 0.000899 0.000759 -0.006440 -0.004143
# 2 -0.006129 0.015712 -0.005005 0.001038 -0.000116 0.000463
# 3 0.000899 -0.005005 0.009896 0.002589 -0.001562 0.000382
# 4 0.000759 0.001038 0.002589 0.029821 -0.000953 -0.006302
# 5 -0.006440 -0.000116 -0.001562 -0.000953 0.042028 0.015426
# 6 -0.004143 0.000463 0.000382 -0.006302 0.015426 0.039118
#
#
# Mechanical properties :
#
#
# Convention : Reuss Voigt Hill
#
# Bulk Modulus (GPa) = 42.97006 52.06709 47.51857
# Shear Modulus (GPa) = 27.33253 32.89050 30.11151
#
# Velocity S-wave (km/s) = 3.60142 3.95066 3.78008
# Velocity P-wave (km/s) = 6.13877 6.74670 6.44990
#
# Compressibility (1/GPa) = 0.02327202
#
# Stress axis : x y z
#
# Youngs Moduli (GPa) = 55.15230 63.64596 101.04912
#
# Poissons Ratio (x) = 0.39006 -0.09087
# Poissons Ratio (y) = 0.33800 0.50571
# Poissons Ratio (z) = -0.04960 0.31852
#
# Static dielectric constant tensor:
#      x y z
#    x 3.863770 -0.052850 0.310210 
#    y -0.052850 4.191030 -0.177190 
#    z 0.310210 -0.177190 4.118970 
# 
# 
# High freq. dielectric constant tensor:
#      x y z
#    x 1.808500 0.009120 0.016340 
#    y 0.009120 1.812540 -0.015370 
#    z 0.016340 -0.015370 1.844970 
# 
# From -- ./inp_files/505173.got.cif
#   From: 2010.06.25/outbox.cif.g09.slc.cpg/sg2_253_cif.got.tgz:505173.got - 2010.06.27 13:26:56.
