data_PCOD8014645
_publ_section_title
;
Structure prediction by ZEFSAII (Michael W. Deem and Ramdas Pophale) SiO2 
 PCOD8014645
Probable space group: P -1
;
_chemical_formula_sum "Si O2"
_cell_formula_units_Z 12
_cell_length_a 10.497176
_cell_length_b 12.158403
_cell_length_c 9.028458
_cell_angle_alpha 75.864326
_cell_angle_beta 57.002028
_cell_angle_gamma 37.261330
_cell_volume 542.972998
_symmetry_space_group_name_H-M "P -1"
_symmetry_group_IT_number 2
_symmetry_cell_setting 'triclinic'
loop_
_space_group_symop_operation_xyz
x,y,z
-x,-y,-z
loop_
_atom_site_type_symbol
_atom_site_label
_atom_site_fract_x
_atom_site_fract_y
_atom_site_fract_z
Si Si1 0.242059 0.013800 0.389896
Si Si2 0.756121 0.665809 0.992485
Si Si3 0.525320 0.546356 0.726341
Si Si4 0.106910 0.869140 0.668021
Si Si5 0.398121 0.710456 0.070783
Si Si6 0.019853 0.375974 0.427471
O O1 0.184108 0.168687 0.462452
O O2 0.982057 0.151478 0.408479
O O3 0.262096 0.892008 0.524029
O O4 0.510700 0.863796 0.175776
O O5 0.848613 0.691822 0.794128
O O6 0.671148 0.603104 0.980790
O O7 0.000000 0.500000 0.000000
O O8 0.292358 0.676229 0.712496
O O9 0.662458 0.341974 0.740487
O O10 0.720196 0.522050 0.549231
O O11 0.406274 0.652492 0.924225
O O12 0.841057 0.056780 0.863449
O O13 0.000000 0.500000 0.500000
#
# Coordination Sequence:
#
# PCOD8014645 Si02
#       6
#     2   2   2   2   2   2
#     4  10  23  43  65 100 136 167 229 281 320 407
#     4  11  24  43  67  98 134 178 219 272 344 397
#     4  11  22  40  69  94 132 177 219 273 337 392
#     4  10  21  41  69  98 127 173 226 277 333 384
#     4  10  22  42  63  99 134 167 225 277 321 404
#     4  12  24  44  65  96 137 179 216 277 335 391
#
# _framework density 22.100546999999999
#
# number of rings (size 3 to 8) (size 9 to 14) (size 15 to 20)
#    0.000    1.333    3.333    2.000    2.333    0.667 
#    0.000    5.000    0.000    0.000    0.000    0.000 
#    0.000    0.000    0.000    0.000    0.000    0.000 
#
# Total GULP energy -148694.253727 kJ/mol
# GULP energy per Si atom -12391.187811 kJ/mol
# Density = 2.205024 g / cm^3
# Si number density = 22.100547 Si / 1000 Ang^3
#
#
#
# Elastic Constant Matrix: (Units=GPa)
#
#
# Indices 1 2 3 4 5 6 
#
# 1 64.8102 36.0195 16.4704 2.3884 -8.7817 0.0480
# 2 36.0195 79.6991 25.9072 4.0263 4.4195 -2.9590
# 3 16.4704 25.9072 112.0205 1.3573 -15.8317 -4.6251
# 4 2.3884 4.0263 1.3573 29.0482 3.2865 0.3884
# 5 -8.7817 4.4195 -15.8317 3.2865 32.7731 3.9301
# 6 0.0480 -2.9590 -4.6251 0.3884 3.9301 42.7371
#
#
#
# Elastic Compliance Matrix: (Units=1/GPa)
#
#
# Indices 1 2 3 4 5 6 
#
# 1 0.022379 -0.010613 0.000227 -0.001247 0.007836 -0.001445
# 2 -0.010613 0.019095 -0.003823 -0.000782 -0.007380 0.001606
# 3 0.000227 -0.003823 0.010609 -0.000637 0.005722 0.000363
# 4 -0.001247 -0.000782 -0.000637 0.035125 -0.004050 -0.000068
# 5 0.007836 -0.007380 0.005722 -0.004050 0.037171 -0.003282
# 6 -0.001445 0.001606 0.000363 -0.000068 -0.003282 0.023853
#
#
# Mechanical properties :
#
#
# Convention : Reuss Voigt Hill
#
# Bulk Modulus (GPa) = 42.25642 45.92491 44.09067
# Shear Modulus (GPa) = 27.09459 32.78721 29.94090
#
# Velocity S-wave (km/s) = 3.50518 3.85586 3.68470
# Velocity P-wave (km/s) = 5.96182 6.37563 6.17220
#
# Compressibility (1/GPa) = 0.02366504
#
# Stress axis : x y z
#
# Youngs Moduli (GPa) = 44.68455 52.37068 94.25970
#
# Poissons Ratio (x) = 0.55581 -0.02139
# Poissons Ratio (y) = 0.47424 0.36033
# Poissons Ratio (z) = -0.01014 0.20020
#
# Static dielectric constant tensor:
#      x y z
#    x 3.990670 0.246980 -0.164750 
#    y 0.246980 3.937540 0.026220 
#    z -0.164750 0.026220 4.147850 
# 
# 
# High freq. dielectric constant tensor:
#      x y z
#    x 1.857030 0.014510 -0.006640 
#    y 0.014510 1.861980 0.013840 
#    z -0.006640 0.013840 1.891720 
# 
# From -- ./inp_files/77278.got.cif
#   From: 2010.06.25/outbox.cif.g09.slc.cpg/sg2_39_cif.got.tgz:77278.got - 2010.06.27 13:26:56.
