data_PCOD8014103
_publ_section_title
;
Structure prediction by ZEFSAII (Michael W. Deem and Ramdas Pophale) SiO2 
 PCOD8014103
Probable space group: P -1
;
_chemical_formula_sum "Si O2"
_cell_formula_units_Z 14
_cell_length_a 19.234962
_cell_length_b 8.828500
_cell_length_c 8.843653
_cell_angle_alpha 66.231401
_cell_angle_beta 110.726619
_cell_angle_gamma 149.244811
_cell_volume 702.742639
_symmetry_space_group_name_H-M "P -1"
_symmetry_group_IT_number 2
_symmetry_cell_setting 'triclinic'
loop_
_space_group_symop_operation_xyz
x,y,z
-x,-y,-z
loop_
_atom_site_type_symbol
_atom_site_label
_atom_site_fract_x
_atom_site_fract_y
_atom_site_fract_z
Si Si1 0.694470 0.576401 0.712594
Si Si2 0.827850 0.419834 0.334207
Si Si3 0.721831 0.994330 0.650309
Si Si4 0.441309 0.025283 0.556069
Si Si5 0.124032 0.336336 0.027243
Si Si6 0.063244 0.952483 0.502386
Si Si7 0.942758 0.529546 0.832147
O O1 0.689054 0.740991 0.728579
O O2 0.542545 0.242970 0.685760
O O3 0.751249 0.553126 0.887473
O O4 0.782358 0.742310 0.558218
O O5 0.976184 0.754590 0.364682
O O6 0.802173 0.187074 0.476017
O O7 0.705683 0.306767 0.355947
O O8 0.827052 0.431912 0.147501
O O9 0.583402 0.846935 0.605025
O O10 0.808933 0.207439 0.778478
O O11 0.500000 0.000000 0.500000
O O12 0.087868 0.359926 0.145058
O O13 0.000000 0.000000 0.000000
O O14 0.051638 0.783228 0.684791
O O15 0.000000 0.000000 0.500000
O O16 0.000000 0.500000 0.000000
#
# Coordination Sequence:
#
# PCOD8014103 Si02
#       7
#     2   2   2   2   2   2   2
#     4  12  22  36  69  86 124 159 204 250 297 360
#     4   9  22  38  61  84 125 153 203 241 304 356
#     4   9  23  41  58  89 120 159 203 242 304 359
#     4  10  21  41  65  87 119 164 203 244 299 366
#     4  12  22  38  59  94 123 156 199 257 303 347
#     4  11  20  38  59  91 116 160 203 244 297 360
#     4  11  23  36  60  88 126 155 200 250 303 353
#
# _framework density 19.921945999999998
#
# number of rings (size 3 to 8) (size 9 to 14) (size 15 to 20)
#    0.857    0.571    2.857    3.000    2.000    1.714 
#    0.000    0.000    0.000    2.571    0.000    0.000 
#    0.000    0.000    0.000    0.000    0.000    0.000 
#
# Total GULP energy -173501.470842 kJ/mol
# GULP energy per Si atom -12392.962203 kJ/mol
# Density = 1.987660 g / cm^3
# Si number density = 19.921946 Si / 1000 Ang^3
#
#
#
# Elastic Constant Matrix: (Units=GPa)
#
#
# Indices 1 2 3 4 5 6 
#
# 1 73.6865 10.0234 21.4905 10.7187 9.8175 -8.7847
# 2 10.0234 60.7860 26.1200 20.5620 8.1644 -3.8416
# 3 21.4905 26.1200 131.2080 13.7127 17.8820 -0.4034
# 4 10.7187 20.5620 13.7127 30.5686 6.7457 -2.0005
# 5 9.8175 8.1644 17.8820 6.7457 41.0875 1.9809
# 6 -8.7847 -3.8416 -0.4034 -2.0005 1.9809 36.5861
#
#
#
# Elastic Compliance Matrix: (Units=1/GPa)
#
#
# Indices 1 2 3 4 5 6 
#
# 1 0.015403 0.000103 -0.001791 -0.003888 -0.002457 0.003610
# 2 0.000103 0.022519 -0.002934 -0.013519 -0.001084 0.001677
# 3 -0.001791 -0.002934 0.008957 -0.000851 -0.002722 -0.000539
# 4 -0.003888 -0.013519 -0.000851 0.044295 -0.003298 0.000238
# 5 -0.002457 -0.001084 -0.002722 -0.003298 0.026981 -0.002375
# 6 0.003610 0.001677 -0.000539 0.000238 -0.002375 0.028511
#
#
# Mechanical properties :
#
#
# Convention : Reuss Voigt Hill
#
# Bulk Modulus (GPa) = 26.57077 42.32757 34.44917
# Shear Modulus (GPa) = 29.68133 35.51822 32.59978
#
# Velocity S-wave (km/s) = 3.86409 4.22698 4.04960
# Velocity P-wave (km/s) = 5.76841 6.71685 6.26062
#
# Compressibility (1/GPa) = 0.03763534
#
# Stress axis : x y z
#
# Youngs Moduli (GPa) = 64.92402 44.40600 111.64242
#
# Poissons Ratio (x) = -0.00458 0.19995
# Poissons Ratio (y) = -0.00670 0.32758
# Poissons Ratio (z) = 0.11628 0.13030
#
# Static dielectric constant tensor:
#      x y z
#    x 3.527870 0.016290 0.123280 
#    y 0.016290 3.669180 0.046890 
#    z 0.123280 0.046890 3.720620 
# 
# 
# High freq. dielectric constant tensor:
#      x y z
#    x 1.773900 -0.004510 0.011500 
#    y -0.004510 1.763380 0.013180 
#    z 0.011500 0.013180 1.778710 
# 
# From -- ./inp_files/225426.got.cif
#   From: 2010.06.25/outbox.cif.g09.slc.cpg/sg2_113_cif.got.tgz:225426.got - 2010.06.27 13:26:56.
