data_PCOD8014513
_publ_section_title
;
Structure prediction by ZEFSAII (Michael W. Deem and Ramdas Pophale) SiO2 
 PCOD8014513
Probable space group: P -1
;
_chemical_formula_sum "Si O2"
_cell_formula_units_Z 14
_cell_length_a 11.023342
_cell_length_b 8.694416
_cell_length_c 7.796817
_cell_angle_alpha 97.411836
_cell_angle_beta 56.457786
_cell_angle_gamma 76.184567
_cell_volume 572.509810
_symmetry_space_group_name_H-M "P -1"
_symmetry_group_IT_number 2
_symmetry_cell_setting 'triclinic'
loop_
_space_group_symop_operation_xyz
x,y,z
-x,-y,-z
loop_
_atom_site_type_symbol
_atom_site_label
_atom_site_fract_x
_atom_site_fract_y
_atom_site_fract_z
Si Si1 0.578142 0.834097 0.069577
Si Si2 0.812224 0.002756 0.827205
Si Si3 0.843397 0.075957 0.441515
Si Si4 0.776491 0.537107 0.076234
Si Si5 0.417821 0.190437 0.312092
Si Si6 0.098673 0.293465 0.717015
Si Si7 0.316589 0.739916 0.735803
O O1 0.629458 0.656787 0.097987
O O2 0.504587 0.815083 0.938493
O O3 0.732955 0.870359 0.906317
O O4 0.460411 0.991336 0.297024
O O5 0.756428 0.094324 0.697217
O O6 0.785592 0.129359 0.024286
O O7 0.997235 0.889781 0.650121
O O8 0.731487 0.209104 0.415142
O O9 0.895647 0.892252 0.291438
O O10 0.920812 0.415770 0.827512
O O11 0.846909 0.655043 0.139087
O O12 0.706509 0.433278 0.239719
O O13 0.230266 0.291708 0.473741
O O14 0.501725 0.277109 0.388488
#
# Coordination Sequence:
#
# PCOD8014513 Si02
#       7
#     2   2   2   2   2   2   2
#     4  10  22  44  70  96 136 178 230 284 332 415
#     4  10  21  41  68 103 128 182 235 281 329 407
#     4  11  22  40  71 100 134 180 237 277 333 409
#     4  11  26  41  68 101 141 178 223 285 357 385
#     4  10  23  45  69  96 133 184 233 267 343 411
#     4  11  23  44  65 103 133 179 231 276 336 417
#     4  11  24  43  68 100 143 178 223 289 340 410
#
# _framework density 24.453728999999999
#
# number of rings (size 3 to 8) (size 9 to 14) (size 15 to 20)
#    0.000    1.429    2.857    2.143    4.000    4.000 
#    2.571    0.000    0.000    0.000    0.000    0.000 
#    0.000    0.000    0.000    0.000    0.000    0.000 
#
# Total GULP energy -173545.806444 kJ/mol
# GULP energy per Si atom -12396.129032 kJ/mol
# Density = 2.439807 g / cm^3
# Si number density = 24.453729 Si / 1000 Ang^3
#
#
#
# Elastic Constant Matrix: (Units=GPa)
#
#
# Indices 1 2 3 4 5 6 
#
# 1 78.7866 26.9149 5.3392 -7.7898 10.7331 -9.6567
# 2 26.9149 103.1777 26.7103 -2.1434 8.6719 -25.2532
# 3 5.3392 26.7103 85.2291 6.4233 -0.3380 -6.6594
# 4 -7.7898 -2.1434 6.4233 27.8263 -9.8908 -3.1611
# 5 10.7331 8.6719 -0.3380 -9.8908 30.5345 -8.9188
# 6 -9.6567 -25.2532 -6.6594 -3.1611 -8.9188 34.0841
#
#
#
# Elastic Compliance Matrix: (Units=1/GPa)
#
#
# Indices 1 2 3 4 5 6 
#
# 1 0.014631 -0.003179 -0.000055 0.002982 -0.002896 0.001298
# 2 -0.003179 0.013596 -0.003533 0.002146 0.000485 0.008808
# 3 -0.000055 -0.003533 0.013066 -0.003364 -0.000040 -0.000403
# 4 0.002982 0.002146 -0.003364 0.044391 0.015599 0.009976
# 5 -0.002896 0.000485 -0.000040 0.015599 0.042193 0.012018
# 6 0.001298 0.008808 -0.000403 0.009976 0.012018 0.040224
#
#
# Mechanical properties :
#
#
# Convention : Reuss Voigt Hill
#
# Bulk Modulus (GPa) = 36.02712 42.79136 39.40924
# Shear Modulus (GPa) = 26.19342 32.37091 29.28217
#
# Velocity S-wave (km/s) = 3.27638 3.64230 3.46418
# Velocity P-wave (km/s) = 5.39237 5.93510 5.67023
#
# Compressibility (1/GPa) = 0.02775686
#
# Stress axis : x y z
#
# Youngs Moduli (GPa) = 68.34938 73.55283 76.53653
#
# Poissons Ratio (x) = 0.23386 0.00421
# Poissons Ratio (y) = 0.21731 0.27042
# Poissons Ratio (z) = 0.00376 0.25988
#
# Static dielectric constant tensor:
#      x y z
#    x 4.720760 0.127740 -0.144160 
#    y 0.127740 4.091960 0.152840 
#    z -0.144160 0.152840 4.484690 
# 
# 
# High freq. dielectric constant tensor:
#      x y z
#    x 1.986760 0.012720 -0.016140 
#    y 0.012720 1.933960 0.001150 
#    z -0.016140 0.001150 1.980970 
# 
# From -- ./inp_files/239508.got.cif
#   From: 2010.06.25/outbox.cif.g09.slc.cpg/sg2_120_cif.got.tgz:239508.got - 2010.06.27 13:26:56.
