data_PCOD8014450
_publ_section_title
;
Structure prediction by ZEFSAII (Michael W. Deem and Ramdas Pophale) SiO2 
 PCOD8014450
Probable space group: P -1
;
_chemical_formula_sum "Si O2"
_cell_formula_units_Z 16
_cell_length_a 12.495159
_cell_length_b 13.922174
_cell_length_c 17.258189
_cell_angle_alpha 27.889696
_cell_angle_beta 31.501070
_cell_angle_gamma 48.815033
_cell_volume 675.966802
_symmetry_space_group_name_H-M "P -1"
_symmetry_group_IT_number 2
_symmetry_cell_setting 'triclinic'
loop_
_space_group_symop_operation_xyz
x,y,z
-x,-y,-z
loop_
_atom_site_type_symbol
_atom_site_label
_atom_site_fract_x
_atom_site_fract_y
_atom_site_fract_z
Si Si1 0.373453 0.760248 0.577563
Si Si2 0.733022 0.243639 0.040643
Si Si3 0.046695 0.723827 0.683617
Si Si4 0.233532 0.527322 0.300220
Si Si5 0.576641 0.643280 0.246102
Si Si6 0.852620 0.612256 0.229251
Si Si7 0.523891 0.255978 0.309633
Si Si8 0.335027 0.153253 0.117288
O O1 0.150482 0.776721 0.669026
O O2 0.434122 0.600456 0.596406
O O3 0.330275 0.652180 0.767256
O O4 0.573197 0.000283 0.284701
O O5 0.636414 0.357144 0.086538
O O6 0.783563 0.420958 0.815378
O O7 0.960438 0.222361 0.946503
O O8 0.013347 0.483001 0.844362
O O9 0.804563 0.729390 0.833507
O O10 0.215930 0.894839 0.395782
O O11 0.299819 0.309176 0.420626
O O12 0.000000 0.500000 0.500000
O O13 0.416769 0.736926 0.081396
O O14 0.736854 0.737345 0.155507
O O15 0.325662 0.589184 0.467116
O O16 0.656908 0.818436 0.001320
O O17 0.500000 0.000000 0.500000
#
# Coordination Sequence:
#
# PCOD8014450 Si02
#       8
#     2   2   2   2   2   2   2   2
#     4  10  21  41  67  96 132 177 229 279 337 409
#     4  11  23  41  67  97 140 173 228 284 341 397
#     4  10  23  41  68  96 128 177 233 271 340 403
#     4  12  24  44  70 102 138 185 223 277 348 409
#     4  10  22  41  66  89 137 173 227 275 341 406
#     4  10  23  41  60 100 129 177 219 287 334 401
#     4  10  23  42  64 100 135 172 226 280 333 397
#     4  11  22  42  71  94 128 182 228 278 329 417
#
# _framework density 23.669802000000001
#
# number of rings (size 3 to 8) (size 9 to 14) (size 15 to 20)
#    0.000    1.500    2.500    1.875    1.750    2.000 
#    4.500    0.000    0.000    0.000    0.000    0.000 
#    0.000    0.000    0.000    0.000    0.000    0.000 
#
# Total GULP energy -198258.095032 kJ/mol
# GULP energy per Si atom -12391.130940 kJ/mol
# Density = 2.361593 g / cm^3
# Si number density = 23.669802 Si / 1000 Ang^3
#
#
#
# Elastic Constant Matrix: (Units=GPa)
#
#
# Indices 1 2 3 4 5 6 
#
# 1 161.7910 24.9833 48.0640 11.4433 9.8875 -0.6293
# 2 24.9833 74.0717 20.2898 17.1043 4.8160 -8.2426
# 3 48.0640 20.2898 86.8167 21.7665 0.9220 -6.3261
# 4 11.4433 17.1043 21.7665 35.7760 3.2961 -1.2317
# 5 9.8875 4.8160 0.9220 3.2961 53.3543 8.2943
# 6 -0.6293 -8.2426 -6.3261 -1.2317 8.2943 23.1166
#
#
#
# Elastic Compliance Matrix: (Units=1/GPa)
#
#
# Indices 1 2 3 4 5 6 
#
# 1 0.007676 -0.001725 -0.004156 0.000960 -0.001083 -0.001104
# 2 -0.001725 0.016579 -0.000842 -0.006505 -0.001676 0.005889
# 3 -0.004156 -0.000842 0.016294 -0.008113 0.000534 0.003422
# 4 0.000960 -0.006505 -0.008113 0.035740 -0.001327 -0.002133
# 5 -0.001083 -0.001676 0.000534 -0.001327 0.020390 -0.007868
# 6 -0.001104 0.005889 0.003422 -0.002133 -0.007868 0.048974
#
#
# Mechanical properties :
#
#
# Convention : Reuss Voigt Hill
#
# Bulk Modulus (GPa) = 36.89523 56.59484 46.74503
# Shear Modulus (GPa) = 29.73837 37.73886 33.73861
#
# Velocity S-wave (km/s) = 3.54840 3.99731 3.77952
# Velocity P-wave (km/s) = 5.69293 6.72805 6.23202
#
# Compressibility (1/GPa) = 0.02710378
#
# Stress axis : x y z
#
# Youngs Moduli (GPa) = 130.28053 60.31649 61.37270
#
# Poissons Ratio (x) = 0.10402 0.25506
# Poissons Ratio (y) = 0.22467 0.05168
# Poissons Ratio (z) = 0.54144 0.05079
#
# Static dielectric constant tensor:
#      x y z
#    x 4.835920 0.079470 0.080160 
#    y 0.079470 4.196330 0.186860 
#    z 0.080160 0.186860 4.152800 
# 
# 
# High freq. dielectric constant tensor:
#      x y z
#    x 1.957300 0.004590 0.003500 
#    y 0.004590 1.920800 0.014850 
#    z 0.003500 0.014850 1.935570 
# 
# From -- ./inp_files/569928.got.cif
#   From: 2010.06.25/outbox.cif.g09.slc.cpg/sg2_285_cif.got.tgz:569928.got - 2010.06.27 13:26:56.
