data_PCOD8014877
_publ_section_title
;
Structure prediction by ZEFSAII (Michael W. Deem and Ramdas Pophale) SiO2 
 PCOD8014877
Probable space group: P -1
;
_chemical_formula_sum "Si O2"
_cell_formula_units_Z 16
_cell_length_a 8.687202
_cell_length_b 22.304333
_cell_length_c 8.108010
_cell_angle_alpha 58.439574
_cell_angle_beta 129.576370
_cell_angle_gamma 143.058591
_cell_volume 727.412634
_symmetry_space_group_name_H-M "P -1"
_symmetry_group_IT_number 2
_symmetry_cell_setting 'triclinic'
loop_
_space_group_symop_operation_xyz
x,y,z
-x,-y,-z
loop_
_atom_site_type_symbol
_atom_site_label
_atom_site_fract_x
_atom_site_fract_y
_atom_site_fract_z
Si Si1 0.643693 0.794956 0.130367
Si Si2 0.888873 0.299647 0.546580
Si Si3 0.205296 0.942169 0.466310
Si Si4 0.718961 0.880049 0.717663
Si Si5 0.559259 0.621398 0.282627
Si Si6 0.195435 0.894913 0.887943
Si Si7 0.158054 0.404734 0.255301
Si Si8 0.169380 0.726641 0.104858
O O1 0.462274 0.677984 0.146255
O O2 0.498446 0.798388 0.179354
O O3 0.963770 0.853541 0.307238
O O4 0.634348 0.844514 0.898916
O O5 0.571089 0.189872 0.483048
O O6 0.908551 0.338789 0.689220
O O7 0.137228 0.302823 0.713241
O O8 0.944642 0.362036 0.330952
O O9 0.184515 0.892167 0.688209
O O10 0.500000 0.000000 0.500000
O O11 0.145932 0.009279 0.364231
O O12 0.942895 0.878762 0.811704
O O13 0.316334 0.518173 0.165792
O O14 0.605174 0.594845 0.531427
O O15 0.135653 0.799414 0.033361
O O16 0.500000 0.000000 0.000000
O O17 0.012363 0.342012 0.079199
#
# Coordination Sequence:
#
# PCOD8014877 Si02
#       8
#     2   2   2   2   2   2   2   2
#     4  12  22  39  65  95 123 168 211 259 314 379
#     4  10  21  42  62  94 125 165 205 263 310 372
#     4  12  24  39  63  93 125 168 213 255 316 382
#     4  12  23  41  62  91 133 167 205 265 314 368
#     4   9  20  42  66  90 131 163 205 265 321 365
#     4  12  25  42  60  93 127 169 213 260 311 374
#     4   9  21  43  66  91 130 163 208 263 317 372
#     4  12  23  40  67  92 128 166 215 256 313 376
#
# _framework density 21.995768999999999
#
# number of rings (size 3 to 8) (size 9 to 14) (size 15 to 20)
#    0.750    0.250    1.250    6.750    0.000    1.000 
#    0.000    0.625    0.000    0.000    0.000    0.000 
#    0.000    0.000    0.000    0.000    0.000    0.000 
#
# Total GULP energy -198264.636417 kJ/mol
# GULP energy per Si atom -12391.539776 kJ/mol
# Density = 2.194571 g / cm^3
# Si number density = 21.995769 Si / 1000 Ang^3
#
#
#
# Elastic Constant Matrix: (Units=GPa)
#
#
# Indices 1 2 3 4 5 6 
#
# 1 126.7881 28.7111 24.7144 5.0940 -4.0087 4.1407
# 2 28.7111 119.9276 32.3342 17.1730 4.9079 -6.2117
# 3 24.7144 32.3342 79.5521 15.3565 -27.6962 -2.6245
# 4 5.0940 17.1730 15.3565 32.4972 -5.4121 0.8354
# 5 -4.0087 4.9079 -27.6962 -5.4121 40.4091 1.6027
# 6 4.1407 -6.2117 -2.6245 0.8354 1.6027 21.6000
#
#
#
# Elastic Compliance Matrix: (Units=1/GPa)
#
#
# Indices 1 2 3 4 5 6 
#
# 1 0.008770 -0.001657 -0.002386 0.000627 -0.000383 -0.002443
# 2 -0.001657 0.011119 -0.005044 -0.004269 -0.005682 0.003489
# 3 -0.002386 -0.005044 0.021259 -0.004644 0.014297 0.000709
# 4 0.000627 -0.004269 -0.004644 0.035596 0.002303 -0.003460
# 5 -0.000383 -0.005682 0.014297 0.002303 0.035608 -0.002555
# 6 -0.002443 0.003489 0.000709 -0.003460 -0.002555 0.048178
#
#
# Mechanical properties :
#
#
# Convention : Reuss Voigt Hill
#
# Bulk Modulus (GPa) = 43.52685 55.30970 49.41827
# Shear Modulus (GPa) = 26.82948 34.93513 30.88230
#
# Velocity S-wave (km/s) = 3.49629 3.98963 3.75108
# Velocity P-wave (km/s) = 6.01086 6.81345 6.42470
#
# Compressibility (1/GPa) = 0.02297433
#
# Stress axis : x y z
#
# Youngs Moduli (GPa) = 114.02499 89.93238 47.03879
#
# Poissons Ratio (x) = 0.14901 0.11225
# Poissons Ratio (y) = 0.18893 0.23726
# Poissons Ratio (z) = 0.27210 0.45361
#
# Static dielectric constant tensor:
#      x y z
#    x 3.896180 0.095710 -0.066510 
#    y 0.095710 3.802030 0.076550 
#    z -0.066510 0.076550 3.988560 
# 
# 
# High freq. dielectric constant tensor:
#      x y z
#    x 1.860500 0.011390 -0.002180 
#    y 0.011390 1.857170 0.010580 
#    z -0.002180 0.010580 1.871630 
# 
# From -- ./inp_files/222018.got.cif
#   From: 2010.06.25/outbox.cif.g09.slc.cpg/sg2_112_cif.got.tgz:222018.got - 2010.06.27 13:26:56.
