data_PCOD8014429
_publ_section_title
;
Structure prediction by ZEFSAII (Michael W. Deem and Ramdas Pophale) SiO2 
 PCOD8014429
Probable space group: P -1
;
_chemical_formula_sum "Si O2"
_cell_formula_units_Z 14
_cell_length_a 11.894175
_cell_length_b 6.188417
_cell_length_c 15.845422
_cell_angle_alpha 57.097351
_cell_angle_beta 49.553769
_cell_angle_gamma 88.421938
_cell_volume 641.703269
_symmetry_space_group_name_H-M "P -1"
_symmetry_group_IT_number 2
_symmetry_cell_setting 'triclinic'
loop_
_space_group_symop_operation_xyz
x,y,z
-x,-y,-z
loop_
_atom_site_type_symbol
_atom_site_label
_atom_site_fract_x
_atom_site_fract_y
_atom_site_fract_z
Si Si1 0.397071 0.927052 0.754949
Si Si2 0.665947 0.806178 0.573257
Si Si3 0.758006 0.805375 0.337245
Si Si4 0.463648 0.839466 0.179867
Si Si5 0.246543 0.967210 0.136740
Si Si6 0.065086 0.551864 0.683048
Si Si7 0.901900 0.631515 0.904489
O O1 0.502250 0.841507 0.658544
O O2 0.371172 0.184178 0.670291
O O3 0.497468 0.047436 0.767784
O O4 0.213786 0.629469 0.919101
O O5 0.680316 0.765649 0.476032
O O6 0.641459 0.519930 0.696888
O O7 0.839499 0.096918 0.461649
O O8 0.785572 0.529880 0.360991
O O9 0.940681 0.110277 0.175145
O O10 0.345399 0.957118 0.173193
O O11 0.640598 0.971910 0.014997
O O12 0.068572 0.650782 0.281243
O O13 0.207849 0.233790 0.112917
O O14 0.964280 0.490890 0.832467
#
# Coordination Sequence:
#
# PCOD8014429 Si02
#       7
#     2   2   2   2   2   2   2
#     4  12  23  40  66  99 126 168 212 259 315 374
#     4  11  24  42  63  97 130 166 208 258 321 373
#     4  10  24  42  64  93 134 167 208 259 312 381
#     4  11  24  39  67  97 126 164 212 263 314 372
#     4  10  22  44  64  94 129 162 213 265 308 376
#     4  10  22  44  65  90 132 170 205 258 319 370
#     4  10  21  41  67  95 125 167 213 259 315 373
#
# _framework density 21.816935999999998
#
# number of rings (size 3 to 8) (size 9 to 14) (size 15 to 20)
#    0.000    1.429    2.857    1.714    0.000    7.429 
#    0.000   10.000    0.000    0.000    0.000    0.000 
#    0.000    0.000    0.000    0.000    0.000    0.000 
#
# Total GULP energy -173666.306518 kJ/mol
# GULP energy per Si atom -12404.736180 kJ/mol
# Density = 2.176728 g / cm^3
# Si number density = 21.816936 Si / 1000 Ang^3
#
#
#
# Elastic Constant Matrix: (Units=GPa)
#
#
# Indices 1 2 3 4 5 6 
#
# 1 108.4615 41.9980 24.9762 17.4772 20.9262 -18.1469
# 2 41.9980 105.4738 30.5620 17.0376 6.9871 -20.7460
# 3 24.9762 30.5620 101.2734 2.6779 -0.2795 -11.4404
# 4 17.4772 17.0376 2.6779 40.9776 -9.1954 -8.0916
# 5 20.9262 6.9871 -0.2795 -9.1954 23.6075 -1.3033
# 6 -18.1469 -20.7460 -11.4404 -8.0916 -1.3033 32.4913
#
#
#
# Elastic Compliance Matrix: (Units=1/GPa)
#
#
# Indices 1 2 3 4 5 6 
#
# 1 0.015964 -0.002375 -0.002625 -0.008666 -0.016653 0.003649
# 2 -0.002375 0.013012 -0.002688 -0.003928 -0.003035 0.004935
# 3 -0.002625 -0.002688 0.011467 0.002831 0.004457 0.001739
# 4 -0.008666 -0.003928 0.002831 0.035334 0.022827 0.003364
# 5 -0.016653 -0.003035 0.004457 0.022827 0.066891 -0.001302
# 6 0.003649 0.004935 0.001739 0.003364 -0.001302 0.037365
#
#
# Mechanical properties :
#
#
# Convention : Reuss Voigt Hill
#
# Bulk Modulus (GPa) = 39.89378 56.69787 48.29583
# Shear Modulus (GPa) = 24.53813 33.92679 29.23246
#
# Velocity S-wave (km/s) = 3.35734 3.94771 3.66443
# Velocity P-wave (km/s) = 5.77532 6.84278 6.33159
#
# Compressibility (1/GPa) = 0.02506656
#
# Stress axis : x y z
#
# Youngs Moduli (GPa) = 62.64117 76.85247 87.20945
#
# Poissons Ratio (x) = 0.18254 0.22891
# Poissons Ratio (y) = 0.14879 0.23441
# Poissons Ratio (z) = 0.16442 0.20657
#
# Static dielectric constant tensor:
#      x y z
#    x 3.687440 -0.214840 -0.206680 
#    y -0.214840 3.981420 -0.131220 
#    z -0.206680 -0.131220 4.183490 
# 
# 
# High freq. dielectric constant tensor:
#      x y z
#    x 1.840690 -0.011250 -0.016230 
#    y -0.011250 1.863990 -0.005600 
#    z -0.016230 -0.005600 1.874900 
# 
# From -- ./inp_files/26865.got.cif
#   From: 2010.06.25/outbox.cif.g09.slc.cpg/sg2_14_cif.got.tgz:26865.got - 2010.06.27 13:26:56.
