data_PCOD8014748
_publ_section_title
;
Structure prediction by ZEFSAII (Michael W. Deem and Ramdas Pophale) SiO2 
 PCOD8014748
Probable space group: P -1
;
_chemical_formula_sum "Si O2"
_cell_formula_units_Z 16
_cell_length_a 12.513228
_cell_length_b 23.196870
_cell_length_c 20.057751
_cell_angle_alpha 15.615023
_cell_angle_beta 37.493117
_cell_angle_gamma 28.038160
_cell_volume 658.746463
_symmetry_space_group_name_H-M "P -1"
_symmetry_group_IT_number 2
_symmetry_cell_setting 'triclinic'
loop_
_space_group_symop_operation_xyz
x,y,z
-x,-y,-z
loop_
_atom_site_type_symbol
_atom_site_label
_atom_site_fract_x
_atom_site_fract_y
_atom_site_fract_z
Si Si1 0.588365 0.892929 0.344560
Si Si2 0.081145 0.181923 0.306267
Si Si3 0.564715 0.582818 0.541856
Si Si4 0.337576 0.608886 0.893110
Si Si5 0.104136 0.342649 0.752667
Si Si6 0.898481 0.696424 0.047383
Si Si7 0.505179 0.225389 0.888805
Si Si8 0.468159 0.410010 0.909268
O O1 0.830105 0.533481 0.643469
O O2 0.343266 0.952576 0.388934
O O3 0.634997 0.966326 0.170112
O O4 0.535757 0.107196 0.192243
O O5 0.839486 0.277204 0.286929
O O6 0.159072 0.978901 0.560415
O O7 0.000000 0.500000 0.000000
O O8 0.813503 0.497937 0.494121
O O9 0.606866 0.441533 0.751589
O O10 0.317660 0.943287 0.262256
O O11 0.516952 0.457713 0.645829
O O12 0.532465 0.398975 0.967603
O O13 0.164518 0.546905 0.053278
O O14 0.500000 0.500000 0.000000
O O15 0.314928 0.975018 0.041247
O O16 0.070448 0.382812 0.802853
O O17 0.792009 0.574038 0.200415
#
# Coordination Sequence:
#
# PCOD8014748 Si02
#       8
#     2   2   2   2   2   2   2   2
#     4  10  22  42  63 104 130 168 225 283 337 392
#     4  10  21  41  71  96 130 179 231 273 333 416
#     4  10  22  43  71 100 128 177 237 272 332 410
#     4  12  25  44  67 103 141 178 223 290 356 398
#     4  11  24  42  64 100 145 172 219 285 343 400
#     4  11  24  44  65  99 138 177 226 276 338 414
#     4  10  22  41  71  94 129 182 225 275 333 404
#     4  10  22  42  70  95 129 177 229 279 328 417
#
# _framework density 24.288554999999999
#
# number of rings (size 3 to 8) (size 9 to 14) (size 15 to 20)
#    0.000    1.500    1.250    3.750    3.500    5.000 
#    9.000    3.125    0.000    0.000    0.000    0.000 
#    0.000    0.000    0.000    0.000    0.000    0.000 
#
# Total GULP energy -198306.474668 kJ/mol
# GULP energy per Si atom -12394.154667 kJ/mol
# Density = 2.423327 g / cm^3
# Si number density = 24.288555 Si / 1000 Ang^3
#
#
#
# Elastic Constant Matrix: (Units=GPa)
#
#
# Indices 1 2 3 4 5 6 
#
# 1 97.2785 19.3647 30.1701 11.4279 7.6245 7.3414
# 2 19.3647 96.6784 27.5681 22.8902 -7.5398 -4.1430
# 3 30.1701 27.5681 32.8937 14.1738 1.6114 4.4486
# 4 11.4279 22.8902 14.1738 25.2155 -4.6548 10.0950
# 5 7.6245 -7.5398 1.6114 -4.6548 30.3680 1.8891
# 6 7.3414 -4.1430 4.4486 10.0950 1.8891 41.6248
#
#
#
# Elastic Compliance Matrix: (Units=1/GPa)
#
#
# Indices 1 2 3 4 5 6 
#
# 1 0.014717 0.000676 -0.014023 0.000528 -0.002638 -0.001038
# 2 0.000676 0.016082 -0.010289 -0.010705 0.002413 0.005068
# 3 -0.014023 -0.010289 0.060416 -0.019170 -0.005170 -0.000124
# 4 0.000528 -0.010705 -0.019170 0.068133 0.009670 -0.016072
# 5 -0.002638 0.002413 -0.005170 0.009670 0.036117 -0.002726
# 6 -0.001038 0.005068 -0.000124 -0.016072 -0.002726 0.028747
#
#
# Mechanical properties :
#
#
# Convention : Reuss Voigt Hill
#
# Bulk Modulus (GPa) = 22.75634 42.33960 32.54797
# Shear Modulus (GPa) = 17.47449 29.42485 23.44967
#
# Velocity S-wave (km/s) = 2.68517 3.48439 3.11056
# Velocity P-wave (km/s) = 4.35925 5.80153 5.13132
#
# Compressibility (1/GPa) = 0.04394380
#
# Stress axis : x y z
#
# Youngs Moduli (GPa) = 67.94670 62.18063 16.55191
#
# Poissons Ratio (x) = -0.04201 0.23210
# Poissons Ratio (y) = -0.04591 0.17030
# Poissons Ratio (z) = 0.95280 0.63976
#
# Static dielectric constant tensor:
#      x y z
#    x 4.710360 -0.231200 -0.332640 
#    y -0.231200 4.663240 0.230910 
#    z -0.332640 0.230910 4.424330 
# 
# 
# High freq. dielectric constant tensor:
#      x y z
#    x 1.971110 -0.001870 -0.010920 
#    y -0.001870 1.967020 0.013770 
#    z -0.010920 0.013770 1.953120 
# 
# From -- ./inp_files/570682.got.cif
#   From: 2010.06.25/outbox.cif.g09.slc.cpg/sg2_286_cif.got.tgz:570682.got - 2010.06.27 13:26:56.
