data_PCOD8014581
_publ_section_title
;
Structure prediction by ZEFSAII (Michael W. Deem and Ramdas Pophale) SiO2 
 PCOD8014581
Probable space group: P -1
;
_chemical_formula_sum "Si O2"
_cell_formula_units_Z 14
_cell_length_a 9.687686
_cell_length_b 16.444091
_cell_length_c 23.359000
_cell_angle_alpha 18.805140
_cell_angle_beta 147.323042
_cell_angle_gamma 148.705013
_cell_volume 610.992413
_symmetry_space_group_name_H-M "P -1"
_symmetry_group_IT_number 2
_symmetry_cell_setting 'triclinic'
loop_
_space_group_symop_operation_xyz
x,y,z
-x,-y,-z
loop_
_atom_site_type_symbol
_atom_site_label
_atom_site_fract_x
_atom_site_fract_y
_atom_site_fract_z
Si Si1 0.050059 0.721953 0.260563
Si Si2 0.261458 0.853347 0.471331
Si Si3 0.274233 0.641833 0.190134
Si Si4 0.916926 0.223261 0.077204
Si Si5 0.426738 0.770920 0.457949
Si Si6 0.280757 0.630201 0.857961
Si Si7 0.608742 0.986657 0.914402
O O1 0.144181 0.676843 0.387133
O O2 0.310986 0.897638 0.198109
O O3 0.907226 0.438769 0.368065
O O4 0.833066 0.870529 0.093657
O O5 0.390974 0.816020 0.481660
O O6 0.500000 0.000000 0.500000
O O7 0.051463 0.008200 0.285893
O O8 0.438772 0.455512 0.349721
O O9 0.399093 0.777059 0.202941
O O10 0.962268 0.450301 0.219906
O O11 0.260260 0.851574 0.994582
O O12 0.698012 0.229945 0.045938
O O13 0.155274 0.505812 0.959493
O O14 0.605176 0.053812 0.304726
O O15 0.500000 0.500000 0.000000
#
# Coordination Sequence:
#
# PCOD8014581 Si02
#       7
#     2   2   2   2   2   2   2
#     4  11  27  45  73  98 141 187 232 291 347 419
#     4  12  27  45  72 102 140 179 235 294 349 418
#     4  10  23  40  75  99 142 182 232 286 344 414
#     4  10  23  42  67  99 137 184 223 285 347 407
#     4  12  23  47  70 107 136 184 238 279 354 417
#     4  10  21  41  69 100 137 185 222 282 345 410
#     4  11  23  47  68 103 141 184 238 284 351 410
#
# _framework density 22.913540999999999
#
# number of rings (size 3 to 8) (size 9 to 14) (size 15 to 20)
#    0.857    0.286    1.429    4.714    2.000    4.571 
#    2.571    2.143    0.000    0.000    0.000    0.000 
#    0.000    0.000    0.000    0.000    0.000    0.000 
#
# Total GULP energy -173512.019157 kJ/mol
# GULP energy per Si atom -12393.715654 kJ/mol
# Density = 2.286139 g / cm^3
# Si number density = 22.913541 Si / 1000 Ang^3
#
#
#
# Elastic Constant Matrix: (Units=GPa)
#
#
# Indices 1 2 3 4 5 6 
#
# 1 144.1554 45.3001 61.7872 11.5811 7.2636 23.2792
# 2 45.3001 90.4487 37.9035 14.7859 -0.7659 -3.6015
# 3 61.7872 37.9035 104.4813 15.5449 4.5219 -0.8035
# 4 11.5811 14.7859 15.5449 33.9675 11.7409 -4.2576
# 5 7.2636 -0.7659 4.5219 11.7409 30.2880 -3.4516
# 6 23.2792 -3.6015 -0.8035 -4.2576 -3.4516 39.3488
#
#
#
# Elastic Compliance Matrix: (Units=1/GPa)
#
#
# Indices 1 2 3 4 5 6 
#
# 1 0.012014 -0.004065 -0.005605 0.000355 -0.003177 -0.007834
# 2 -0.004065 0.015132 -0.002487 -0.005029 0.004083 0.003553
# 3 -0.005605 -0.002487 0.014289 -0.003448 0.000836 0.003081
# 4 0.000355 -0.005029 -0.003448 0.038298 -0.014298 0.002149
# 5 -0.003177 0.004083 0.000836 -0.014298 0.039780 0.004213
# 6 -0.007834 0.003553 0.003081 0.002149 0.004213 0.031039
#
#
# Mechanical properties :
#
#
# Convention : Reuss Voigt Hill
#
# Bulk Modulus (GPa) = 58.41090 69.89635 64.15362
# Shear Modulus (GPa) = 27.68995 33.66050 30.67522
#
# Velocity S-wave (km/s) = 3.48005 3.83694 3.66285
# Velocity P-wave (km/s) = 6.45716 7.08520 6.77846
#
# Compressibility (1/GPa) = 0.01712009
#
# Stress axis : x y z
#
# Youngs Moduli (GPa) = 83.23962 66.08478 69.98524
#
# Poissons Ratio (x) = 0.26861 0.39230
# Poissons Ratio (y) = 0.33834 0.17406
# Poissons Ratio (z) = 0.46659 0.16436
#
# Static dielectric constant tensor:
#      x y z
#    x 4.241240 0.333100 -0.133990 
#    y 0.333100 4.178890 -0.033850 
#    z -0.133990 -0.033850 4.164610 
# 
# 
# High freq. dielectric constant tensor:
#      x y z
#    x 1.905480 0.024460 -0.005610 
#    y 0.024460 1.902780 0.005910 
#    z -0.005610 0.005910 1.908030 
# 
# From -- ./inp_files/608059.got.cif
#   From: 2010.06.25/outbox.cif.g09.slc.cpg/sg2_305_cif.got.tgz:608059.got - 2010.06.27 13:26:56.
