data_PCOD8014983
_publ_section_title
;
Structure prediction by ZEFSAII (Michael W. Deem and Ramdas Pophale) SiO2 
 PCOD8014983
Probable space group: P -1
;
_chemical_formula_sum "Si O2"
_cell_formula_units_Z 14
_cell_length_a 15.115877
_cell_length_b 7.126517
_cell_length_c 10.648230
_cell_angle_alpha 88.066214
_cell_angle_beta 111.161778
_cell_angle_gamma 43.051850
_cell_volume 645.584338
_symmetry_space_group_name_H-M "P -1"
_symmetry_group_IT_number 2
_symmetry_cell_setting 'triclinic'
loop_
_space_group_symop_operation_xyz
x,y,z
-x,-y,-z
loop_
_atom_site_type_symbol
_atom_site_label
_atom_site_fract_x
_atom_site_fract_y
_atom_site_fract_z
Si Si1 0.818195 0.635252 0.280525
Si Si2 0.423936 0.324101 0.453666
Si Si3 0.501127 0.661256 0.898145
Si Si4 0.168431 0.652618 0.936142
Si Si5 0.630092 0.278893 0.416367
Si Si6 0.869258 0.367383 0.810703
Si Si7 0.107406 0.411278 0.413232
O O1 0.865348 0.402543 0.209295
O O2 0.848585 0.524471 0.445001
O O3 0.922375 0.657734 0.307642
O O4 0.636469 0.971028 0.157250
O O5 0.555146 0.262167 0.481924
O O6 0.370541 0.496930 0.556819
O O7 0.268169 0.569691 0.281924
O O8 0.500000 0.000000 0.500000
O O9 0.473753 0.586602 0.761235
O O10 0.500000 0.500000 0.000000
O O11 0.661389 0.523338 0.978755
O O12 0.147819 0.549629 0.051769
O O13 0.040491 0.017999 0.875923
O O14 0.808395 0.921912 0.507354
O O15 0.837956 0.585635 0.691335
#
# Coordination Sequence:
#
# PCOD8014983 Si02
#       7
#     2   2   2   2   2   2   2
#     4  10  23  41  64  89 126 168 214 266 309 382
#     4  11  21  39  64  94 123 165 207 262 323 370
#     4  11  23  42  61  88 126 170 211 258 320 386
#     4  11  24  41  60  94 131 166 213 263 317 391
#     4  10  22  39  63  91 129 160 211 269 306 375
#     4  11  23  39  64  92 131 164 211 267 321 381
#     4  10  21  42  64  93 124 166 216 266 320 370
#
# _framework density 21.685780999999999
#
# number of rings (size 3 to 8) (size 9 to 14) (size 15 to 20)
#    0.000    1.429    2.857    2.143    0.000    3.429 
#    0.000    0.000    0.000    0.000    0.000    0.000 
#    0.000    0.000    0.000    0.000    0.000    0.000 
#
# Total GULP energy -173454.507235 kJ/mol
# GULP energy per Si atom -12389.607660 kJ/mol
# Density = 2.163642 g / cm^3
# Si number density = 21.685781 Si / 1000 Ang^3
#
#
#
# Elastic Constant Matrix: (Units=GPa)
#
#
# Indices 1 2 3 4 5 6 
#
# 1 88.6750 38.6970 42.9105 -8.2525 -4.8586 -10.0942
# 2 38.6970 128.1431 58.2087 23.4396 0.2782 -3.1607
# 3 42.9105 58.2087 121.4645 11.6109 -3.4012 -3.2889
# 4 -8.2525 23.4396 11.6109 37.8243 -14.3758 4.7911
# 5 -4.8586 0.2782 -3.4012 -14.3758 46.1845 -8.1794
# 6 -10.0942 -3.1607 -3.2889 4.7911 -8.1794 27.1907
#
#
#
# Elastic Compliance Matrix: (Units=1/GPa)
#
#
# Indices 1 2 3 4 5 6 
#
# 1 0.017312 -0.004851 -0.004407 0.009530 0.005428 0.005284
# 2 -0.004851 0.012548 -0.003539 -0.009133 -0.003740 -0.000286
# 3 -0.004407 -0.003539 0.011702 -0.002475 -0.000407 -0.000319
# 4 0.009530 -0.009133 -0.002475 0.040063 0.013183 -0.000917
# 5 0.005428 -0.003740 -0.000407 0.013183 0.027652 0.007526
# 6 0.005284 -0.000286 -0.000319 -0.000917 0.007526 0.041093
#
#
# Mechanical properties :
#
#
# Convention : Reuss Voigt Hill
#
# Bulk Modulus (GPa) = 62.62313 68.65721 65.64017
# Shear Modulus (GPa) = 27.58039 35.47100 31.52570
#
# Velocity S-wave (km/s) = 3.57013 4.04874 3.81694
# Velocity P-wave (km/s) = 6.77751 7.32019 7.05407
#
# Compressibility (1/GPa) = 0.01596854
#
# Stress axis : x y z
#
# Youngs Moduli (GPa) = 57.76184 79.69503 85.45200
#
# Poissons Ratio (x) = 0.38657 0.37662
# Poissons Ratio (y) = 0.28018 0.30242
# Poissons Ratio (z) = 0.25458 0.28205
#
# Static dielectric constant tensor:
#      x y z
#    x 3.912490 -0.284000 0.076560 
#    y -0.284000 4.511230 0.247600 
#    z 0.076560 0.247600 4.120440 
# 
# 
# High freq. dielectric constant tensor:
#      x y z
#    x 1.847460 -0.030020 0.012000 
#    y -0.030020 1.844950 0.003330 
#    z 0.012000 0.003330 1.864910 
# 
# From -- ./inp_files/441957.got.cif
#   From: 2010.06.25/outbox.cif.g09.slc.cpg/sg2_221_cif.got.tgz:441957.got - 2010.06.27 13:26:56.
