data_PCOD8014035
_publ_section_title
;
Structure prediction by ZEFSAII (Michael W. Deem and Ramdas Pophale) SiO2 
 PCOD8014035
Probable space group: P -1
;
_chemical_formula_sum "Si O2"
_cell_formula_units_Z 16
_cell_length_a 14.225141
_cell_length_b 8.815111
_cell_length_c 13.751050
_cell_angle_alpha 30.934059
_cell_angle_beta 129.155295
_cell_angle_gamma 120.471163
_cell_volume 684.762686
_symmetry_space_group_name_H-M "P -1"
_symmetry_group_IT_number 2
_symmetry_cell_setting 'triclinic'
loop_
_space_group_symop_operation_xyz
x,y,z
-x,-y,-z
loop_
_atom_site_type_symbol
_atom_site_label
_atom_site_fract_x
_atom_site_fract_y
_atom_site_fract_z
Si Si1 0.791211 0.520369 0.206807
Si Si2 0.373396 0.759065 0.608701
Si Si3 0.314791 0.600638 0.316435
Si Si4 0.818632 0.815424 0.865317
Si Si5 0.923875 0.226181 0.188796
Si Si6 0.159287 0.102617 0.512331
Si Si7 0.489042 0.312742 0.447423
Si Si8 0.070632 0.994394 0.900534
O O1 0.675065 0.500678 0.213433
O O2 0.900511 0.662625 0.257808
O O3 0.835735 0.185318 0.393950
O O4 0.756813 0.707398 0.983548
O O5 0.471886 0.604354 0.682197
O O6 0.265474 0.929315 0.381917
O O7 0.435352 0.992972 0.587848
O O8 0.281132 0.267982 0.500034
O O9 0.390757 0.572562 0.280153
O O10 0.395148 0.718458 0.389439
O O11 0.194188 0.818139 0.115408
O O12 0.948290 0.938753 0.910776
O O13 0.838222 0.534118 0.958974
O O14 0.956231 0.095865 0.177053
O O15 0.045668 0.310834 0.278999
O O16 0.861921 0.976497 0.346073
#
# Coordination Sequence:
#
# PCOD8014035 Si02
#       8
#     2   2   2   2   2   2   2   2
#     4  11  25  41  64 102 138 173 212 272 333 397
#     4  11  23  46  69  95 133 179 221 273 329 386
#     4  11  22  44  70  92 132 176 218 277 325 385
#     4  11  23  43  69 101 138 170 210 273 341 399
#     4  10  22  37  66 100 132 174 212 267 328 406
#     4  10  21  41  64  93 140 174 211 263 336 399
#     4  10  24  42  71  92 124 184 232 264 320 386
#     4  12  24  40  68 105 133 165 218 272 337 399
#
# _framework density 23.365759000000001
#
# number of rings (size 3 to 8) (size 9 to 14) (size 15 to 20)
#    0.000    1.250    2.500    3.000    1.750    2.000 
#    0.000    6.250    2.750    0.000    0.000    0.000 
#    0.000    0.000    0.000    0.000    0.000    0.000 
#
# Total GULP energy -198379.234037 kJ/mol
# GULP energy per Si atom -12398.702127 kJ/mol
# Density = 2.331258 g / cm^3
# Si number density = 23.365759 Si / 1000 Ang^3
#
#
#
# Elastic Constant Matrix: (Units=GPa)
#
#
# Indices 1 2 3 4 5 6 
#
# 1 120.3556 39.2304 37.4138 -6.8910 -26.2011 16.5850
# 2 39.2304 131.5083 33.9010 -7.6928 -13.3249 17.7117
# 3 37.4138 33.9010 60.3674 -2.2484 -10.3853 11.9472
# 4 -6.8910 -7.6928 -2.2484 24.4879 3.8564 2.5336
# 5 -26.2011 -13.3249 -10.3853 3.8564 38.5303 -0.6459
# 6 16.5850 17.7117 11.9472 2.5336 -0.6459 37.7345
#
#
#
# Elastic Compliance Matrix: (Units=1/GPa)
#
#
# Indices 1 2 3 4 5 6 
#
# 1 0.012194 -0.001130 -0.005133 0.001952 0.006268 -0.003227
# 2 -0.001130 0.009584 -0.003797 0.002456 0.001227 -0.002944
# 3 -0.005133 -0.003797 0.022700 -0.000438 0.001307 -0.003097
# 4 0.001952 0.002456 -0.000438 0.042979 -0.002324 -0.004797
# 5 0.006268 0.001227 0.001307 -0.002324 0.031174 -0.003055
# 6 -0.003227 -0.002944 -0.003097 -0.004797 -0.003055 0.030552
#
#
# Mechanical properties :
#
#
# Convention : Reuss Voigt Hill
#
# Bulk Modulus (GPa) = 41.05316 59.25798 50.15557
# Shear Modulus (GPa) = 28.18134 33.59627 30.88880
#
# Velocity S-wave (km/s) = 3.47666 3.79600 3.63983
# Velocity P-wave (km/s) = 5.80725 6.68049 6.25912
#
# Compressibility (1/GPa) = 0.02435866
#
# Stress axis : x y z
#
# Youngs Moduli (GPa) = 82.00899 104.33521 44.05292
#
# Poissons Ratio (x) = 0.11795 0.22611
# Poissons Ratio (y) = 0.09271 0.16725
# Poissons Ratio (z) = 0.42093 0.39612
#
# Static dielectric constant tensor:
#      x y z
#    x 4.689240 0.058960 -0.172770 
#    y 0.058960 4.351520 -0.236190 
#    z -0.172770 -0.236190 3.864270 
# 
# 
# High freq. dielectric constant tensor:
#      x y z
#    x 1.942800 -0.005360 -0.004830 
#    y -0.005360 1.933550 -0.009170 
#    z -0.004830 -0.009170 1.891150 
# 
# From -- ./inp_files/529236.got.cif
#   From: 2010.06.25/outbox.cif.g09.slc.cpg/sg2_265_cif.got.tgz:529236.got - 2010.06.27 13:26:56.
