data_PCOD8014055
_publ_section_title
;
Structure prediction by ZEFSAII (Michael W. Deem and Ramdas Pophale) SiO2 
 PCOD8014055
Probable space group: P -1
;
_chemical_formula_sum "Si O2"
_cell_formula_units_Z 14
_cell_length_a 9.123835
_cell_length_b 8.777661
_cell_length_c 13.157106
_cell_angle_alpha 52.471589
_cell_angle_beta 70.504999
_cell_angle_gamma 51.251142
_cell_volume 649.782314
_symmetry_space_group_name_H-M "P -1"
_symmetry_group_IT_number 2
_symmetry_cell_setting 'triclinic'
loop_
_space_group_symop_operation_xyz
x,y,z
-x,-y,-z
loop_
_atom_site_type_symbol
_atom_site_label
_atom_site_fract_x
_atom_site_fract_y
_atom_site_fract_z
Si Si1 0.061246 0.173475 0.426419
Si Si2 0.637681 0.448581 0.145131
Si Si3 0.050372 0.164068 0.865459
Si Si4 0.716456 0.658449 0.222815
Si Si5 0.308201 0.483792 0.106689
Si Si6 0.790387 0.942210 0.348551
Si Si7 0.460206 0.979327 0.313969
O O1 0.081119 0.215669 0.523376
O O2 0.901190 0.418104 0.316295
O O3 0.265405 0.041923 0.379103
O O4 0.000000 0.000000 0.500000
O O5 0.644348 0.624834 0.146991
O O6 0.428195 0.569081 0.098466
O O7 0.704289 0.212011 0.285392
O O8 0.765558 0.397627 0.035925
O O9 0.226963 0.155309 0.878154
O O10 0.082775 0.121779 0.755250
O O11 0.870292 0.429460 0.815073
O O12 0.000000 0.000000 0.000000
O O13 0.541988 0.770387 0.297504
O O14 0.430400 0.207281 0.175749
O O15 0.623673 0.901003 0.392097
#
# Coordination Sequence:
#
# PCOD8014055 Si02
#       7
#     2   2   2   2   2   2   2
#     4  12  24  44  67  95 130 171 220 273 318 372
#     4  10  21  41  64  95 130 172 211 271 322 388
#     4  11  22  42  67  99 130 170 218 264 324 393
#     4  11  25  44  66  99 133 167 222 267 321 385
#     4  10  21  42  67  91 134 172 213 263 334 385
#     4  10  22  42  67  92 133 170 216 266 319 385
#     4  10  24  44  64  94 132 172 216 264 322 391
#
# _framework density 21.545674999999999
#
# number of rings (size 3 to 8) (size 9 to 14) (size 15 to 20)
#    0.000    1.429    4.286    0.429    2.000    5.143 
#    7.714    0.000    0.000    0.000    0.000    0.000 
#    0.000    0.000    0.000    0.000    0.000    0.000 
#
# Total GULP energy -173526.101778 kJ/mol
# GULP energy per Si atom -12394.721556 kJ/mol
# Density = 2.149664 g / cm^3
# Si number density = 21.545675 Si / 1000 Ang^3
#
#
#
# Elastic Constant Matrix: (Units=GPa)
#
#
# Indices 1 2 3 4 5 6 
#
# 1 121.3481 60.2856 66.4074 25.8104 2.5828 14.2759
# 2 60.2856 115.8980 36.4706 31.3034 0.6694 -4.4842
# 3 66.4074 36.4706 93.6566 20.7447 5.5462 2.1202
# 4 25.8104 31.3034 20.7447 36.7169 0.0569 -2.8089
# 5 2.5828 0.6694 5.5462 0.0569 39.4655 7.7833
# 6 14.2759 -4.4842 2.1202 -2.8089 7.7833 37.0173
#
#
#
# Elastic Compliance Matrix: (Units=1/GPa)
#
#
# Indices 1 2 3 4 5 6 
#
# 1 0.017914 -0.005821 -0.009772 -0.002696 0.001810 -0.007639
# 2 -0.005821 0.013702 0.000424 -0.007567 -0.000576 0.003427
# 3 -0.009772 0.000424 0.018322 -0.003608 -0.002535 0.003030
# 4 -0.002696 -0.007567 -0.003608 0.037863 0.000131 0.003175
# 5 0.001810 -0.000576 -0.002535 0.000131 0.026819 -0.006252
# 6 -0.007639 0.003427 0.003030 0.003175 -0.006252 0.031758
#
#
# Mechanical properties :
#
#
# Convention : Reuss Voigt Hill
#
# Bulk Modulus (GPa) = 51.02059 73.02554 62.02306
# Shear Modulus (GPa) = 27.28520 33.82256 30.55388
#
# Velocity S-wave (km/s) = 3.56250 3.96638 3.76985
# Velocity P-wave (km/s) = 6.37601 7.41236 6.91363
#
# Compressibility (1/GPa) = 0.01959993
#
# Stress axis : x y z
#
# Youngs Moduli (GPa) = 55.82191 72.98059 54.57915
#
# Poissons Ratio (x) = 0.42481 0.53337
# Poissons Ratio (y) = 0.32493 -0.02314
# Poissons Ratio (z) = 0.54552 -0.03095
#
# Static dielectric constant tensor:
#      x y z
#    x 3.983280 -0.015790 -0.112940 
#    y -0.015790 4.084900 0.021340 
#    z -0.112940 0.021340 3.785360 
# 
# 
# High freq. dielectric constant tensor:
#      x y z
#    x 1.846080 0.000490 -0.007820 
#    y 0.000490 1.854990 0.003410 
#    z -0.007820 0.003410 1.833570 
# 
# From -- ./inp_files/186351.got.cif
#   From: 2010.06.25/outbox.cif.g09.slc.cpg/sg2_94_cif.got.tgz:186351.got - 2010.06.27 13:26:56.
