data_PCOD8014570
_publ_section_title
;
Structure prediction by ZEFSAII (Michael W. Deem and Ramdas Pophale) SiO2 
 PCOD8014570
Probable space group: P -1
;
_chemical_formula_sum "Si O2"
_cell_formula_units_Z 14
_cell_length_a 14.613278
_cell_length_b 14.666935
_cell_length_c 9.579049
_cell_angle_alpha 25.650622
_cell_angle_beta 140.071122
_cell_angle_gamma 142.955385
_cell_volume 526.521847
_symmetry_space_group_name_H-M "P -1"
_symmetry_group_IT_number 2
_symmetry_cell_setting 'triclinic'
loop_
_space_group_symop_operation_xyz
x,y,z
-x,-y,-z
loop_
_atom_site_type_symbol
_atom_site_label
_atom_site_fract_x
_atom_site_fract_y
_atom_site_fract_z
Si Si1 0.620461 0.117302 0.786028
Si Si2 0.029393 0.050426 0.210722
Si Si3 0.736650 0.514970 0.005912
Si Si4 0.760843 0.061488 0.731792
Si Si5 0.587178 0.570869 0.181479
Si Si6 0.763084 0.619016 0.595269
Si Si7 0.724526 0.134820 0.186993
O O1 0.697196 0.061738 0.815248
O O2 0.643168 0.384779 0.435437
O O3 0.441887 0.949536 0.816671
O O4 0.704259 0.069226 0.088481
O O5 0.175213 0.980699 0.451379
O O6 0.096145 0.304399 0.002729
O O7 0.911488 0.855341 0.439862
O O8 0.936779 0.074313 0.931218
O O9 0.750359 0.270332 0.344429
O O10 0.596255 0.507383 0.952773
O O11 0.689027 0.594365 0.695000
O O12 0.665625 0.828471 0.856640
O O13 0.632390 0.604757 0.350763
O O14 0.814890 0.406803 0.926341
#
# Coordination Sequence:
#
# PCOD8014570 Si02
#       7
#     2   2   2   2   2   2   2
#     4  10  22  41  69  99 126 167 218 269 316 383
#     4  11  24  42  64  96 129 172 214 263 324 378
#     4  12  23  42  65  97 131 172 212 263 326 384
#     4  11  26  43  65  96 137 169 213 261 325 389
#     4  10  22  43  68  95 128 167 220 266 318 375
#     4  10  23  39  68  97 127 164 219 272 316 377
#     4  10  21  41  68  98 125 163 224 269 315 373
#
# _framework density 26.589593000000001
#
# number of rings (size 3 to 8) (size 9 to 14) (size 15 to 20)
#    0.000    1.429    1.429    3.000    6.000    0.571 
#    2.571    0.714    0.000    0.000    0.000    0.000 
#    0.000    0.000    0.000    0.000    0.000    0.000 
#
# Total GULP energy -173522.235660 kJ/mol
# GULP energy per Si atom -12394.445404 kJ/mol
# Density = 2.652907 g / cm^3
# Si number density = 26.589593 Si / 1000 Ang^3
#
#
#
# Elastic Constant Matrix: (Units=GPa)
#
#
# Indices 1 2 3 4 5 6 
#
# 1 27.2886 17.8965 6.0081 4.9500 8.2540 9.1242
# 2 17.8965 150.1764 48.8538 -19.8140 5.1570 19.5690
# 3 6.0081 48.8538 136.4562 -19.1473 24.9150 16.6201
# 4 4.9500 -19.8140 -19.1473 57.5477 -2.7134 7.6493
# 5 8.2540 5.1570 24.9150 -2.7134 37.0808 -0.5140
# 6 9.1242 19.5690 16.6201 7.6493 -0.5140 20.7865
#
#
#
# Elastic Compliance Matrix: (Units=1/GPa)
#
#
# Indices 1 2 3 4 5 6 
#
# 1 0.050123 -0.004472 0.004053 -0.002428 -0.013720 -0.020477
# 2 -0.004472 0.009128 -0.001991 0.003774 0.001251 -0.006396
# 3 0.004053 -0.001991 0.011080 0.003647 -0.007946 -0.010303
# 4 -0.002428 0.003774 0.003647 0.021840 -0.001024 -0.013466
# 5 -0.013720 0.001251 -0.007946 -0.001024 0.035285 0.012447
# 6 -0.020477 -0.006396 -0.010303 -0.013466 0.012447 0.076619
#
#
# Mechanical properties :
#
#
# Convention : Reuss Voigt Hill
#
# Bulk Modulus (GPa) = 15.26480 51.04867 33.15674
# Shear Modulus (GPa) = 21.67005 39.16053 30.41529
#
# Velocity S-wave (km/s) = 2.85789 3.84184 3.38580
# Velocity P-wave (km/s) = 4.07963 6.23860 5.27084
#
# Compressibility (1/GPa) = 0.06551019
#
# Stress axis : x y z
#
# Youngs Moduli (GPa) = 19.95084 109.55359 90.25157
#
# Poissons Ratio (x) = 0.48997 -0.36577
# Poissons Ratio (y) = 0.08923 0.17968
# Poissons Ratio (z) = -0.08086 0.21811
#
# Static dielectric constant tensor:
#      x y z
#    x 4.235610 -0.031330 -0.150160 
#    y -0.031330 5.046250 -0.238520 
#    z -0.150160 -0.238520 5.254690 
# 
# 
# High freq. dielectric constant tensor:
#      x y z
#    x 2.037240 -0.006600 -0.006790 
#    y -0.006600 2.077610 -0.010460 
#    z -0.006790 -0.010460 2.092650 
# 
# From -- ./inp_files/190734.got.cif
#   From: 2010.06.25/outbox.cif.g09.slc.cpg/sg2_96_cif.got.tgz:190734.got - 2010.06.27 13:26:56.
