data_PCOD8014824
_publ_section_title
;
Structure prediction by ZEFSAII (Michael W. Deem and Ramdas Pophale) SiO2 
 PCOD8014824
Probable space group: P -1
;
_chemical_formula_sum "Si O2"
_cell_formula_units_Z 14
_cell_length_a 17.974625
_cell_length_b 9.281312
_cell_length_c 6.538106
_cell_angle_alpha 52.287785
_cell_angle_beta 130.691143
_cell_angle_gamma 126.431963
_cell_volume 618.705866
_symmetry_space_group_name_H-M "P -1"
_symmetry_group_IT_number 2
_symmetry_cell_setting 'triclinic'
loop_
_space_group_symop_operation_xyz
x,y,z
-x,-y,-z
loop_
_atom_site_type_symbol
_atom_site_label
_atom_site_fract_x
_atom_site_fract_y
_atom_site_fract_z
Si Si1 0.113629 0.205427 0.196574
Si Si2 0.569660 0.155858 0.138708
Si Si3 0.778621 0.445719 0.202288
Si Si4 0.895073 0.164864 0.722308
Si Si5 0.270594 0.362706 0.672358
Si Si6 0.684433 0.909726 0.700237
Si Si7 0.420247 0.351198 0.629874
O O1 0.162505 0.240792 0.478817
O O2 0.095165 0.981685 0.309593
O O3 0.188066 0.352872 0.035460
O O4 0.002894 0.240983 0.973009
O O5 0.667780 0.297582 0.061046
O O6 0.611537 0.044326 0.487791
O O7 0.492877 0.269421 0.980345
O O8 0.500000 0.000000 0.000000
O O9 0.868783 0.348890 0.424251
O O10 0.756103 0.481652 0.369622
O O11 0.802765 0.048679 0.806119
O O12 0.354480 0.451389 0.565433
O O13 0.327675 0.239852 0.010502
O O14 0.659617 0.811567 0.515134
O O15 0.500000 0.500000 0.500000
#
# Coordination Sequence:
#
# PCOD8014824 Si02
#       7
#     2   2   2   2   2   2   2
#     4  11  23  44  68  96 131 178 217 268 333 384
#     4   9  21  40  65  91 128 172 213 267 325 381
#     4  11  23  44  66  98 135 167 223 273 323 394
#     4  10  22  45  68  93 135 175 217 269 326 397
#     4  12  23  39  67  96 131 172 214 276 330 379
#     4  10  21  42  60  92 133 162 217 271 316 391
#     4  11  22  40  65  90 128 173 214 268 329 383
#
# _framework density 22.627876000000001
#
# number of rings (size 3 to 8) (size 9 to 14) (size 15 to 20)
#    0.000    1.429    2.857    2.143    0.000    4.000 
#    5.143    7.143    0.000    0.000    0.000    0.000 
#    0.000    0.000    0.000    0.000    0.000    0.000 
#
# Total GULP energy -173451.568737 kJ/mol
# GULP energy per Si atom -12389.397767 kJ/mol
# Density = 2.257637 g / cm^3
# Si number density = 22.627876 Si / 1000 Ang^3
#
#
#
# Elastic Constant Matrix: (Units=GPa)
#
#
# Indices 1 2 3 4 5 6 
#
# 1 93.0972 39.6682 49.6355 9.6374 20.6888 -0.2464
# 2 39.6682 90.2634 47.4542 -2.6485 9.3555 -0.0975
# 3 49.6355 47.4542 127.2839 4.4800 27.0387 -5.3713
# 4 9.6374 -2.6485 4.4800 31.7586 3.4749 11.4547
# 5 20.6888 9.3555 27.0387 3.4749 41.2252 -0.9409
# 6 -0.2464 -0.0975 -5.3713 11.4547 -0.9409 31.1940
#
#
#
# Elastic Compliance Matrix: (Units=1/GPa)
#
#
# Indices 1 2 3 4 5 6 
#
# 1 0.016096 -0.005054 -0.003245 -0.004796 -0.004371 0.001182
# 2 -0.005054 0.015569 -0.004386 0.004082 0.001485 -0.002201
# 3 -0.003245 -0.004386 0.011981 -0.001374 -0.005064 0.002375
# 4 -0.004796 0.004082 -0.001374 0.038867 -0.001227 -0.014571
# 5 -0.004371 0.001485 -0.005064 -0.001227 0.029549 0.000440
# 6 0.001182 -0.002201 0.002375 -0.014571 0.000440 0.037833
#
#
# Mechanical properties :
#
#
# Convention : Reuss Voigt Hill
#
# Bulk Modulus (GPa) = 54.71494 64.90671 59.81082
# Shear Modulus (GPa) = 27.56990 32.42803 29.99896
#
# Velocity S-wave (km/s) = 3.49435 3.78974 3.64504
# Velocity P-wave (km/s) = 6.36502 6.92071 6.64867
#
# Compressibility (1/GPa) = 0.01827654
#
# Stress axis : x y z
#
# Youngs Moduli (GPa) = 62.12609 64.23068 83.46204
#
# Poissons Ratio (x) = 0.32463 0.27087
# Poissons Ratio (y) = 0.31399 0.36603
# Poissons Ratio (z) = 0.20162 0.28169
#
# Static dielectric constant tensor:
#      x y z
#    x 4.086470 0.001890 0.764060 
#    y 0.001890 4.306410 -0.159030 
#    z 0.764060 -0.159030 4.645360 
# 
# 
# High freq. dielectric constant tensor:
#      x y z
#    x 1.874840 0.011290 0.043920 
#    y 0.011290 1.892360 -0.004770 
#    z 0.043920 -0.004770 1.894220 
# 
# From -- ./inp_files/46431.got.cif
#   From: 2010.06.25/outbox.cif.g09.slc.cpg/sg2_24_cif.got.tgz:46431.got - 2010.06.27 13:26:56.
