data_PCOD8014854
_publ_section_title
;
Structure prediction by ZEFSAII (Michael W. Deem and Ramdas Pophale) SiO2 
 PCOD8014854
Probable space group: P -1
;
_chemical_formula_sum "Si O2"
_cell_formula_units_Z 12
_cell_length_a 14.322007
_cell_length_b 9.028746
_cell_length_c 7.584055
_cell_angle_alpha 64.958744
_cell_angle_beta 52.341785
_cell_angle_gamma 99.436561
_cell_volume 568.382010
_symmetry_space_group_name_H-M "P -1"
_symmetry_group_IT_number 2
_symmetry_cell_setting 'triclinic'
loop_
_space_group_symop_operation_xyz
x,y,z
-x,-y,-z
loop_
_atom_site_type_symbol
_atom_site_label
_atom_site_fract_x
_atom_site_fract_y
_atom_site_fract_z
Si Si1 0.882991 0.357884 0.853350
Si Si2 0.713267 0.838206 0.798429
Si Si3 0.584734 0.295609 0.693113
Si Si4 0.814352 0.623253 0.012048
Si Si5 0.055705 0.902895 0.861666
Si Si6 0.327836 0.902223 0.061187
O O1 0.000000 0.500000 0.500000
O O2 0.850000 0.479647 0.957894
O O3 0.947951 0.267779 0.942098
O O4 0.733524 0.177351 0.022989
O O5 0.781590 0.922200 0.483732
O O6 0.535968 0.697648 0.061743
O O7 0.765821 0.707357 0.874542
O O8 0.765556 0.029092 0.771658
O O9 0.683455 0.499098 0.365781
O O10 0.498801 0.097715 0.761449
O O11 0.686471 0.276564 0.719253
O O12 0.954659 0.809448 0.853525
O O13 0.000000 0.000000 0.000000
#
# Coordination Sequence:
#
# PCOD8014854 Si02
#       6
#     2   2   2   2   2   2
#     4  12  24  39  63  95 123 161 205 251 302 362
#     4  10  21  42  62  90 122 162 198 251 305 354
#     4   9  21  41  67  88 124 161 201 250 303 358
#     4  12  23  40  65  92 124 157 208 252 301 360
#     4  12  25  42  63  89 123 165 204 251 306 359
#     4   9  20  41  65  86 127 157 204 240 311 356
#
# _framework density 21.112559000000001
#
# number of rings (size 3 to 8) (size 9 to 14) (size 15 to 20)
#    1.000    0.333    0.000    6.500    0.000    0.667 
#    0.000    1.667    0.000    0.000    0.000    0.000 
#    0.000    0.000    0.000    0.000    0.000    0.000 
#
# Total GULP energy -148800.392203 kJ/mol
# GULP energy per Si atom -12400.032684 kJ/mol
# Density = 2.106451 g / cm^3
# Si number density = 21.112559 Si / 1000 Ang^3
#
#
#
# Elastic Constant Matrix: (Units=GPa)
#
#
# Indices 1 2 3 4 5 6 
#
# 1 80.9893 33.1977 20.7953 -3.1679 7.5083 -32.7689
# 2 33.1977 96.6993 11.1973 22.4213 -6.4122 -24.6053
# 3 20.7953 11.1973 137.8453 2.4461 -6.1351 -25.2188
# 4 -3.1679 22.4213 2.4461 29.3203 -10.1125 -1.0440
# 5 7.5083 -6.4122 -6.1351 -10.1125 34.1275 -8.9609
# 6 -32.7689 -24.6053 -25.2188 -1.0440 -8.9609 43.7723
#
#
#
# Elastic Compliance Matrix: (Units=1/GPa)
#
#
# Indices 1 2 3 4 5 6 
#
# 1 0.019569 -0.005273 -0.000573 0.006428 -0.000499 0.011406
# 2 -0.005273 0.016612 0.000887 -0.012304 0.002396 0.006099
# 3 -0.000573 0.000887 0.008438 -0.000128 0.003240 0.005591
# 4 0.006428 -0.012304 -0.000128 0.047978 0.010776 0.001173
# 5 -0.000499 0.002396 0.003240 0.010776 0.036408 0.010550
# 6 0.011406 0.006099 0.005591 0.001173 0.010550 0.040222
#
#
# Mechanical properties :
#
#
# Convention : Reuss Voigt Hill
#
# Bulk Modulus (GPa) = 28.81794 49.54604 39.18199
# Shear Modulus (GPa) = 26.21736 38.13358 32.17547
#
# Velocity S-wave (km/s) = 3.52773 4.25456 3.90808
# Velocity P-wave (km/s) = 5.50204 6.90315 6.24203
#
# Compressibility (1/GPa) = 0.03470061
#
# Stress axis : x y z
#
# Youngs Moduli (GPa) = 51.10190 60.19576 118.50675
#
# Poissons Ratio (x) = 0.31741 0.06794
# Poissons Ratio (y) = 0.26946 -0.10509
# Poissons Ratio (z) = 0.02930 -0.05338
#
# Static dielectric constant tensor:
#      x y z
#    x 3.801830 -0.050040 -0.028090 
#    y -0.050040 3.667520 -0.043470 
#    z -0.028090 -0.043470 3.776300 
# 
# 
# High freq. dielectric constant tensor:
#      x y z
#    x 1.834150 -0.013870 0.000210 
#    y -0.013870 1.814400 -0.006270 
#    z 0.000210 -0.006270 1.829100 
# 
# From -- ./inp_files/89775.got.cif
#   From: 2010.06.25/outbox.cif.g09.slc.cpg/sg2_45_cif.got.tgz:89775.got - 2010.06.27 13:26:56.
