data_PCOD8014388
_publ_section_title
;
Structure prediction by ZEFSAII (Michael W. Deem and Ramdas Pophale) SiO2 
 PCOD8014388
Probable space group: P -1
;
_chemical_formula_sum "Si O2"
_cell_formula_units_Z 16
_cell_length_a 7.965308
_cell_length_b 14.122143
_cell_length_c 9.112060
_cell_angle_alpha 80.168852
_cell_angle_beta 69.369606
_cell_angle_gamma 124.881439
_cell_volume 688.232191
_symmetry_space_group_name_H-M "P -1"
_symmetry_group_IT_number 2
_symmetry_cell_setting 'triclinic'
loop_
_space_group_symop_operation_xyz
x,y,z
-x,-y,-z
loop_
_atom_site_type_symbol
_atom_site_label
_atom_site_fract_x
_atom_site_fract_y
_atom_site_fract_z
Si Si1 0.773698 0.129933 0.413428
Si Si2 0.051084 0.951262 0.837501
Si Si3 0.785250 0.292016 0.144844
Si Si4 0.321573 0.543397 0.921261
Si Si5 0.635239 0.482188 0.748208
Si Si6 0.106781 0.728657 0.380251
Si Si7 0.258423 0.878424 0.022336
Si Si8 0.601835 0.790256 0.196482
O O1 0.947249 0.111053 0.294793
O O2 0.817803 0.252987 0.303029
O O3 0.828869 0.159554 0.559633
O O4 0.500000 0.000000 0.500000
O O5 0.241076 0.112448 0.735441
O O6 0.133904 0.918156 0.960888
O O7 0.769067 0.877440 0.977449
O O8 0.622006 0.328966 0.191955
O O9 0.655753 0.171295 0.105653
O O10 0.059098 0.415901 0.970262
O O11 0.525492 0.547621 0.791640
O O12 0.311504 0.543895 0.101647
O O13 0.448896 0.343451 0.753398
O O14 0.877105 0.582372 0.546880
O O15 0.058243 0.761841 0.230200
O O16 0.339633 0.744870 0.281325
O O17 0.500000 0.000000 0.000000
#
# Coordination Sequence:
#
# PCOD8014388 Si02
#       8
#     2   2   2   2   2   2   2   2
#     4  11  20  41  65  94 126 163 211 268 313 378
#     4  10  23  41  68  91 125 175 215 250 321 394
#     4  10  21  41  67  89 126 173 214 250 319 395
#     4  10  22  41  64  92 125 174 211 256 322 383
#     4  11  23  40  64  95 133 164 212 272 319 373
#     4  12  23  40  64 100 126 164 214 269 322 368
#     4  11  21  41  63  93 128 168 206 262 323 381
#     4  11  22  41  64  94 126 170 215 255 319 386
#
# _framework density 23.247968
#
# number of rings (size 3 to 8) (size 9 to 14) (size 15 to 20)
#    0.000    1.250    3.750    3.375    1.750    0.000 
#    2.250    1.250    0.000    4.500    0.000    0.000 
#    0.000    0.000    0.000    0.000    0.000    0.000 
#
# Total GULP energy -198319.371099 kJ/mol
# GULP energy per Si atom -12394.960694 kJ/mol
# Density = 2.319505 g / cm^3
# Si number density = 23.247968 Si / 1000 Ang^3
#
#
#
# Elastic Constant Matrix: (Units=GPa)
#
#
# Indices 1 2 3 4 5 6 
#
# 1 56.6408 26.6657 20.9560 7.0878 -22.9075 -13.4733
# 2 26.6657 120.2399 21.4380 -8.8771 -4.4001 -17.0734
# 3 20.9560 21.4380 83.9535 -2.0379 -21.3385 -7.1916
# 4 7.0878 -8.8771 -2.0379 40.2867 6.1959 -7.2817
# 5 -22.9075 -4.4001 -21.3385 6.1959 32.8785 2.1076
# 6 -13.4733 -17.0734 -7.1916 -7.2817 2.1076 32.8011
#
#
#
# Elastic Compliance Matrix: (Units=1/GPa)
#
#
# Indices 1 2 3 4 5 6 
#
# 1 0.032807 -0.006120 -0.000410 -0.009507 0.023141 0.006603
# 2 -0.006120 0.010798 -0.002131 0.004914 -0.005389 0.004077
# 3 -0.000410 -0.002131 0.014991 -0.000838 0.009237 0.001230
# 4 -0.009507 0.004914 -0.000838 0.030580 -0.012661 0.006071
# 5 0.023141 -0.005389 0.009237 -0.012661 0.054042 0.002442
# 6 0.006603 0.004077 0.001230 0.006071 0.002442 0.036782
#
#
# Mechanical properties :
#
#
# Convention : Reuss Voigt Hill
#
# Bulk Modulus (GPa) = 24.22795 44.32817 34.27806
# Shear Modulus (GPa) = 23.68777 33.97822 28.83299
#
# Velocity S-wave (km/s) = 3.19551 3.82718 3.52552
# Velocity P-wave (km/s) = 4.90502 6.21600 5.59901
#
# Compressibility (1/GPa) = 0.04127464
#
# Stress axis : x y z
#
# Youngs Moduli (GPa) = 30.48097 92.60640 66.70802
#
# Poissons Ratio (x) = 0.56676 0.02733
# Poissons Ratio (y) = 0.18655 0.14216
# Poissons Ratio (z) = 0.01249 0.19735
#
# Static dielectric constant tensor:
#      x y z
#    x 3.991760 -0.191520 -0.162950 
#    y -0.191520 4.544290 0.142250 
#    z -0.162950 0.142250 4.215620 
# 
# 
# High freq. dielectric constant tensor:
#      x y z
#    x 1.895460 -0.013130 -0.017390 
#    y -0.013130 1.942200 -0.003500 
#    z -0.017390 -0.003500 1.903850 
# 
# From -- ./inp_files/206876.got.cif
#   From: 2010.06.25/outbox.cif.g09.slc.cpg/sg2_104_cif.got.tgz:206876.got - 2010.06.27 13:26:56.
