data_PCOD8014412
_publ_section_title
;
Structure prediction by ZEFSAII (Michael W. Deem and Ramdas Pophale) SiO2 
 PCOD8014412
Probable space group: P -1
;
_chemical_formula_sum "Si O2"
_cell_formula_units_Z 14
_cell_length_a 5.256882
_cell_length_b 27.105203
_cell_length_c 11.968106
_cell_angle_alpha 149.111585
_cell_angle_beta 116.057951
_cell_angle_gamma 84.435381
_cell_volume 624.916518
_symmetry_space_group_name_H-M "P -1"
_symmetry_group_IT_number 2
_symmetry_cell_setting 'triclinic'
loop_
_space_group_symop_operation_xyz
x,y,z
-x,-y,-z
loop_
_atom_site_type_symbol
_atom_site_label
_atom_site_fract_x
_atom_site_fract_y
_atom_site_fract_z
Si Si1 0.442592 0.785500 0.335233
Si Si2 0.571835 0.569441 0.356640
Si Si3 0.276416 0.144085 0.848440
Si Si4 0.864380 0.576421 0.652576
Si Si5 0.374306 0.881737 0.315176
Si Si6 0.205766 0.695420 0.553546
Si Si7 0.960995 0.717325 0.319553
O O1 0.568840 0.906337 0.521959
O O2 0.766485 0.779986 0.406437
O O3 0.266749 0.779947 0.406422
O O4 0.155205 0.684551 0.997448
O O5 0.806148 0.623177 0.617720
O O6 0.326108 0.612870 0.384199
O O7 0.829159 0.612954 0.384305
O O8 0.319386 0.424719 0.031766
O O9 0.550325 0.196427 0.899433
O O10 0.052151 0.196423 0.899407
O O11 0.494818 0.186261 0.087935
O O12 0.000000 0.000000 0.500000
O O13 0.500000 0.500000 0.500000
O O14 0.000000 0.500000 0.500000
O O15 0.500000 0.000000 0.500000
O O16 0.158351 0.746360 0.531477
#
# Coordination Sequence:
#
# PCOD8014412 Si02
#       7
#     2   2   2   2   2   2   2
#     4  12  22  40  62  91 130 169 205 258 323 368
#     4  12  23  40  60  90 129 175 218 255 299 371
#     4  10  21  41  67  93 117 152 212 279 319 360
#     4  12  21  36  57  86 125 159 208 254 301 357
#     4  10  22  41  69  95 117 154 208 273 325 371
#     4  12  24  40  63  90 125 175 221 252 309 373
#     4  12  25  40  58  90 137 175 207 252 305 392
#
# _framework density 22.402992999999999
#
# number of rings (size 3 to 8) (size 9 to 14) (size 15 to 20)
#    0.000    0.571    2.857    6.857    0.000    0.000 
#    0.000    0.000    0.000   20.571    0.000    0.000 
#    0.000    0.000    0.000    0.000    0.000    0.000 
#
# Total GULP energy -173527.810004 kJ/mol
# GULP energy per Si atom -12394.843572 kJ/mol
# Density = 2.235200 g / cm^3
# Si number density = 22.402993 Si / 1000 Ang^3
#
#
#
# Elastic Constant Matrix: (Units=GPa)
#
#
# Indices 1 2 3 4 5 6 
#
# 1 237.0337 93.8414 16.1050 -3.1915 23.9154 5.0894
# 2 93.8414 211.7188 20.5921 -12.5282 8.7041 -0.8971
# 3 16.1050 20.5921 47.8132 -1.8637 -1.5980 -0.6984
# 4 -3.1915 -12.5282 -1.8637 37.1589 -1.9633 0.0786
# 5 23.9154 8.7041 -1.5980 -1.9633 11.7203 -2.0441
# 6 5.0894 -0.8971 -0.6984 0.0786 -2.0441 35.2757
#
#
#
# Elastic Compliance Matrix: (Units=1/GPa)
#
#
# Indices 1 2 3 4 5 6 
#
# 1 0.006494 -0.002274 -0.001679 -0.000937 -0.012251 -0.001736
# 2 -0.002274 0.005992 -0.001728 0.001754 0.000330 0.000461
# 3 -0.001679 -0.001728 0.022545 0.000830 0.008117 0.001113
# 4 -0.000937 0.001754 0.000830 0.027751 0.005449 0.000450
# 5 -0.012251 0.000330 0.008117 0.005449 0.113578 0.008506
# 6 -0.001736 0.000461 0.001113 0.000450 0.008506 0.029124
#
#
# Mechanical properties :
#
#
# Convention : Reuss Voigt Hill
#
# Bulk Modulus (GPa) = 42.25345 84.18252 63.21798
# Shear Modulus (GPa) = 22.24838 41.23280 31.74059
#
# Velocity S-wave (km/s) = 3.15477 4.29476 3.76813
# Velocity P-wave (km/s) = 5.67200 7.88995 6.87106
#
# Compressibility (1/GPa) = 0.02366671
#
# Stress axis : x y z
#
# Youngs Moduli (GPa) = 153.99024 166.90149 44.35656
#
# Poissons Ratio (x) = 0.37956 0.07448
# Poissons Ratio (y) = 0.35020 0.07666
# Poissons Ratio (z) = 0.25858 0.28845
#
# Static dielectric constant tensor:
#      x y z
#    x 5.179190 0.002980 0.141020 
#    y 0.002980 4.720300 0.190710 
#    z 0.141020 0.190710 3.872940 
# 
# 
# High freq. dielectric constant tensor:
#      x y z
#    x 1.921210 0.001410 0.007760 
#    y 0.001410 1.896570 -0.000790 
#    z 0.007760 -0.000790 1.854530 
# 
# From -- ./inp_files/370883.got.cif
#   From: 2010.06.25/outbox.cif.g09.slc.cpg/sg2_186_cif.got.tgz:370883.got - 2010.06.27 13:26:56.
