data_PCOD8014318
_publ_section_title
;
Structure prediction by ZEFSAII (Michael W. Deem and Ramdas Pophale) SiO2 
 PCOD8014318
Probable space group: P -1
;
_chemical_formula_sum "Si O2"
_cell_formula_units_Z 14
_cell_length_a 14.589925
_cell_length_b 30.033001
_cell_length_c 11.935705
_cell_angle_alpha 21.802563
_cell_angle_beta 29.136475
_cell_angle_gamma 19.592830
_cell_volume 651.340515
_symmetry_space_group_name_H-M "P -1"
_symmetry_group_IT_number 2
_symmetry_cell_setting 'triclinic'
loop_
_space_group_symop_operation_xyz
x,y,z
-x,-y,-z
loop_
_atom_site_type_symbol
_atom_site_label
_atom_site_fract_x
_atom_site_fract_y
_atom_site_fract_z
Si Si1 0.672262 0.776608 0.740452
Si Si2 0.173065 0.448988 0.085908
Si Si3 0.659380 0.011915 0.065114
Si Si4 0.635527 0.450782 0.181395
Si Si5 0.912762 0.676727 0.167716
Si Si6 0.239282 0.867137 0.140866
Si Si7 0.012144 0.698346 0.251999
O O1 0.614194 0.712068 0.849921
O O2 0.604111 0.940378 0.388397
O O3 0.497731 0.821450 0.928427
O O4 0.986056 0.624064 0.802507
O O5 0.993007 0.428117 0.385933
O O6 0.340266 0.446079 0.004697
O O7 0.368655 0.186207 0.919663
O O8 0.807687 0.057779 0.858860
O O9 0.858618 0.869943 0.087904
O O10 0.709459 0.297409 0.528126
O O11 0.323914 0.591369 0.144929
O O12 0.843465 0.365518 0.055471
O O13 0.000000 0.500000 0.500000
O O14 0.863531 0.759032 0.149027
O O15 0.000000 0.000000 0.000000
#
# Coordination Sequence:
#
# PCOD8014318 Si02
#       7
#     2   2   2   2   2   2   2
#     4  10  21  41  66  95 140 173 218 266 341 394
#     4  10  21  41  68  99 132 178 213 279 331 397
#     4  11  25  44  69  99 140 178 219 277 339 394
#     4  12  24  42  72  98 133 173 233 271 336 395
#     4  12  24  47  72  93 134 182 225 277 337 396
#     4  12  24  39  64 104 137 174 224 273 329 406
#     4  11  24  45  69 102 133 175 230 275 331 395
#
# _framework density 21.494133000000001
#
# number of rings (size 3 to 8) (size 9 to 14) (size 15 to 20)
#    0.000    0.857    2.857    4.714    2.000    0.571 
#    0.000    1.429    0.000    0.000    0.000    0.000 
#    0.000    0.000    0.000    0.000    0.000    0.000 
#
# Total GULP energy -173632.117359 kJ/mol
# GULP energy per Si atom -12402.294097 kJ/mol
# Density = 2.144521 g / cm^3
# Si number density = 21.494133 Si / 1000 Ang^3
#
#
#
# Elastic Constant Matrix: (Units=GPa)
#
#
# Indices 1 2 3 4 5 6 
#
# 1 146.5702 38.7392 30.9201 -7.5263 -8.9907 2.4220
# 2 38.7392 93.6996 39.1720 -5.3444 0.9174 -4.2199
# 3 30.9201 39.1720 74.7235 -14.6576 5.4686 -11.2145
# 4 -7.5263 -5.3444 -14.6576 26.4063 1.1919 6.9346
# 5 -8.9907 0.9174 5.4686 1.1919 38.0872 -5.9982
# 6 2.4220 -4.2199 -11.2145 6.9346 -5.9982 39.5039
#
#
#
# Elastic Compliance Matrix: (Units=1/GPa)
#
#
# Indices 1 2 3 4 5 6 
#
# 1 0.008136 -0.002447 -0.002265 0.000794 0.002087 -0.001226
# 2 -0.002447 0.014475 -0.006894 -0.001611 0.000120 0.000040
# 3 -0.002265 -0.006894 0.020311 0.008528 -0.003046 0.003209
# 4 0.000794 -0.001611 0.008528 0.044250 -0.003340 -0.006074
# 5 0.002087 0.000120 -0.003046 -0.003340 0.027892 0.003841
# 6 -0.001226 0.000040 0.003209 -0.006074 0.003841 0.027954
#
#
# Mechanical properties :
#
#
# Convention : Reuss Voigt Hill
#
# Bulk Modulus (GPa) = 50.73513 59.18400 54.95957
# Shear Modulus (GPa) = 28.93487 34.54362 31.73925
#
# Velocity S-wave (km/s) = 3.67301 4.01324 3.84689
# Velocity P-wave (km/s) = 6.45317 7.00496 6.73472
#
# Compressibility (1/GPa) = 0.01971021
#
# Stress axis : x y z
#
# Youngs Moduli (GPa) = 122.90544 69.08331 49.23355
#
# Poissons Ratio (x) = 0.16908 0.11149
# Poissons Ratio (y) = 0.30081 0.33943
# Poissons Ratio (z) = 0.27833 0.47628
#
# Static dielectric constant tensor:
#      x y z
#    x 4.032860 0.183750 -0.023720 
#    y 0.183750 3.724130 0.010120 
#    z -0.023720 0.010120 3.942110 
# 
# 
# High freq. dielectric constant tensor:
#      x y z
#    x 1.860680 0.012140 -0.000470 
#    y 0.012140 1.837320 -0.008050 
#    z -0.000470 -0.008050 1.845200 
# 
# From -- ./inp_files/40236.got.cif
#   From: 2010.06.25/outbox.cif.g09.slc.cpg/sg2_21_cif.got.tgz:40236.got - 2010.06.27 13:26:56.
