data_PCOD8014659
_publ_section_title
;
Structure prediction by ZEFSAII (Michael W. Deem and Ramdas Pophale) SiO2 
 PCOD8014659
Probable space group: P -1
;
_chemical_formula_sum "Si O2"
_cell_formula_units_Z 16
_cell_length_a 12.179282
_cell_length_b 14.484196
_cell_length_c 12.414500
_cell_angle_alpha 107.407399
_cell_angle_beta 56.797895
_cell_angle_gamma 59.160838
_cell_volume 928.867026
_symmetry_space_group_name_H-M "P -1"
_symmetry_group_IT_number 2
_symmetry_cell_setting 'triclinic'
loop_
_space_group_symop_operation_xyz
x,y,z
-x,-y,-z
loop_
_atom_site_type_symbol
_atom_site_label
_atom_site_fract_x
_atom_site_fract_y
_atom_site_fract_z
Si Si1 0.669535 0.914688 0.559064
Si Si2 0.261302 0.235274 0.332985
Si Si3 0.245044 0.309951 0.926764
Si Si4 0.471761 0.368774 0.411327
Si Si5 0.785345 0.344106 0.178634
Si Si6 0.960401 0.370010 0.919392
Si Si7 0.333123 0.960410 0.812395
Si Si8 0.019457 0.410127 0.312930
O O1 0.776912 0.835623 0.595631
O O2 0.875366 0.783601 0.312338
O O3 0.475021 0.947169 0.651791
O O4 0.533588 0.102994 0.693473
O O5 0.047732 0.440218 0.562449
O O6 0.219583 0.240245 0.230470
O O7 0.538992 0.105179 0.160354
O O8 0.223597 0.439066 0.973311
O O9 0.131732 0.340176 0.109183
O O10 0.112241 0.336614 0.911788
O O11 0.653613 0.322644 0.227318
O O12 0.395103 0.471168 0.596849
O O13 0.227470 0.500082 0.518957
O O14 0.615425 0.181239 0.303643
O O15 0.819550 0.369535 0.051722
O O16 0.043890 0.165933 0.040966
#
# Coordination Sequence:
#
# PCOD8014659 Si02
#       8
#     2   2   2   2   2   2   2   2
#     4  10  19  32  48  78  99 124 162 204 253 295
#     4   8  18  30  54  75 102 125 159 213 247 292
#     4  11  20  29  51  72 101 135 154 206 252 295
#     4  10  20  33  49  71 103 131 168 197 240 296
#     4  11  21  32  49  72 103 136 163 198 239 300
#     4  11  20  31  46  72 105 130 162 199 248 297
#     4   9  18  34  49  77  97 126 159 206 253 285
#     4  10  16  35  51  76 101 129 165 201 253 289
#
# _framework density 17.225286000000001
#
# number of rings (size 3 to 8) (size 9 to 14) (size 15 to 20)
#    0.750    1.250    3.750    0.750    1.750    0.500 
#    0.000    0.000    0.000    0.750    0.000    0.875 
#    0.000    0.000    0.000    0.000    0.000    0.000 
#
# Total GULP energy -198255.852910 kJ/mol
# GULP energy per Si atom -12390.990807 kJ/mol
# Density = 1.718608 g / cm^3
# Si number density = 17.225286 Si / 1000 Ang^3
#
#
#
# Elastic Constant Matrix: (Units=GPa)
#
#
# Indices 1 2 3 4 5 6 
#
# 1 23.8516 34.3451 3.2890 7.2394 -12.8032 -4.4934
# 2 34.3451 115.1354 67.6881 1.3985 -6.0315 -5.1916
# 3 3.2890 67.6881 55.6037 15.9885 -12.9307 0.1207
# 4 7.2394 1.3985 15.9885 20.2156 8.3570 5.4149
# 5 -12.8032 -6.0315 -12.9307 8.3570 16.6953 -6.3861
# 6 -4.4934 -5.1916 0.1207 5.4149 -6.3861 25.8176
#
#
#
# Elastic Compliance Matrix: (Units=1/GPa)
#
#
# Indices 1 2 3 4 5 6 
#
# 1 0.011278 0.009051 -0.024152 0.025467 -0.022188 -0.006934
# 2 0.009051 0.007716 0.000472 -0.017238 0.023527 0.012560
# 3 -0.024152 0.000472 0.007595 0.017552 -0.026782 -0.014450
# 4 0.025467 -0.017238 0.017552 0.020425 0.016979 0.000800
# 5 -0.022188 0.023527 -0.026782 0.016979 0.023369 0.003214
# 6 -0.006934 0.012560 -0.014450 0.000800 0.003214 0.040747
#
#
# Mechanical properties :
#
#
# Convention : Reuss Voigt Hill
#
# Bulk Modulus (GPa) = -374.44073 45.02612 -164.70730
# Shear Modulus (GPa) = 35.84264 18.49693 27.16979
#
# Velocity S-wave (km/s) = 4.56654 3.28048 3.97586
# Velocity P-wave (km/s) = 13.78572 6.36750 8.64584
#
# Compressibility (1/GPa) = -0.00267065
#
# Stress axis : x y z
#
# Youngs Moduli (GPa) = 88.66971 129.59570 131.66829
#
# Poissons Ratio (x) = -1.17293 3.18011
# Poissons Ratio (y) = -0.80252 -0.06214
# Poissons Ratio (z) = 2.14159 -0.06116
#
# Static dielectric constant tensor:
#      x y z
#    x 2.943640 0.030740 0.038010 
#    y 0.030740 3.575990 0.142230 
#    z 0.038010 0.142230 3.160250 
# 
# 
# High freq. dielectric constant tensor:
#      x y z
#    x 1.614550 0.004210 0.013300 
#    y 0.004210 1.675590 0.016780 
#    z 0.013300 0.016780 1.662510 
# 
# From -- ./inp_files/431569.got.cif
#   From: 2010.06.25/outbox.cif.g09.slc.cpg/sg2_216_cif.got.tgz:431569.got - 2010.06.27 13:26:56.
