data_PCOD8014194
_publ_section_title
;
Structure prediction by ZEFSAII (Michael W. Deem and Ramdas Pophale) SiO2 
 PCOD8014194
Probable space group: P -1
;
_chemical_formula_sum "Si O2"
_cell_formula_units_Z 16
_cell_length_a 25.666046
_cell_length_b 11.822948
_cell_length_c 8.961285
_cell_angle_alpha 143.463239
_cell_angle_beta 31.442454
_cell_angle_gamma 149.020701
_cell_volume 703.390056
_symmetry_space_group_name_H-M "P -1"
_symmetry_group_IT_number 2
_symmetry_cell_setting 'triclinic'
loop_
_space_group_symop_operation_xyz
x,y,z
-x,-y,-z
loop_
_atom_site_type_symbol
_atom_site_label
_atom_site_fract_x
_atom_site_fract_y
_atom_site_fract_z
Si Si1 0.719077 0.939852 0.930339
Si Si2 0.985629 0.202456 0.612726
Si Si3 0.383770 0.253920 0.706809
Si Si4 0.648802 0.578030 0.479140
Si Si5 0.997446 0.647174 0.954184
Si Si6 0.243580 0.668306 0.928630
Si Si7 0.778114 0.633592 0.933803
Si Si8 0.757236 0.183162 0.589134
O O1 0.650436 0.758875 0.775078
O O2 0.852048 0.990037 0.675908
O O3 0.722900 0.167454 0.121277
O O4 0.645991 0.849459 0.164894
O O5 0.994268 0.430800 0.791871
O O6 0.083294 0.185275 0.261299
O O7 0.011807 0.212068 0.736950
O O8 0.524289 0.444936 0.552778
O O9 0.354599 0.059012 0.451048
O O10 0.309550 0.366861 0.974578
O O11 0.661152 0.400720 0.360588
O O12 0.754646 0.698319 0.223839
O O13 0.888060 0.563950 0.018678
O O14 0.123999 0.811911 0.737618
O O15 0.244906 0.802862 0.213247
O O16 0.751313 0.380897 0.733681
#
# Coordination Sequence:
#
# PCOD8014194 Si02
#       8
#     2   2   2   2   2   2   2   2
#     4  11  24  42  63  94 128 161 207 259 311 368
#     4   9  19  37  64  95 122 161 201 254 318 370
#     4  12  25  41  66  90 125 172 211 253 300 368
#     4  11  26  44  60  93 127 167 215 252 303 364
#     4   9  17  36  64  94 128 153 202 257 312 374
#     4  10  23  39  66  92 127 164 199 260 315 367
#     4  10  24  41  66  93 123 163 208 261 307 367
#     4  10  21  41  65  95 124 163 208 250 316 369
#
# _framework density 22.746981999999999
#
# number of rings (size 3 to 8) (size 9 to 14) (size 15 to 20)
#    0.000    1.750    1.250    1.875    3.500    6.500 
#    0.000    0.000    0.000    0.000    0.000    0.000 
#    0.000    0.000    0.000    0.000    0.000    0.000 
#
# Total GULP energy -198468.475652 kJ/mol
# GULP energy per Si atom -12404.279728 kJ/mol
# Density = 2.269521 g / cm^3
# Si number density = 22.746982 Si / 1000 Ang^3
#
#
#
# Elastic Constant Matrix: (Units=GPa)
#
#
# Indices 1 2 3 4 5 6 
#
# 1 100.6718 17.2346 15.2215 -0.3932 -0.8442 11.4283
# 2 17.2346 40.1474 0.1458 -4.8615 6.7155 19.9412
# 3 15.2215 0.1458 57.4417 -6.5165 2.7954 0.2130
# 4 -0.3932 -4.8615 -6.5165 27.4913 1.1285 4.2296
# 5 -0.8442 6.7155 2.7954 1.1285 39.6507 2.3231
# 6 11.4283 19.9412 0.2130 4.2296 2.3231 50.4869
#
#
#
# Elastic Compliance Matrix: (Units=1/GPa)
#
#
# Indices 1 2 3 4 5 6 
#
# 1 0.011343 -0.005012 -0.003225 -0.001466 0.001390 -0.000516
# 2 -0.005012 0.035872 0.002617 0.009216 -0.005835 -0.013549
# 3 -0.003225 0.002617 0.018933 0.005095 -0.001949 -0.000721
# 4 -0.001466 0.009216 0.005095 0.040316 -0.002713 -0.006582
# 5 0.001390 -0.005835 -0.001949 -0.002713 0.026393 0.001011
# 6 -0.000516 -0.013549 -0.000721 -0.006582 0.001011 0.025783
#
#
# Mechanical properties :
#
#
# Convention : Reuss Voigt Hill
#
# Bulk Modulus (GPa) = 18.21246 29.27385 23.74315
# Shear Modulus (GPa) = 26.56988 34.56971 30.56980
#
# Velocity S-wave (km/s) = 3.42140 3.90263 3.66991
# Velocity P-wave (km/s) = 4.86126 5.76234 5.33088
#
# Compressibility (1/GPa) = 0.05490747
#
# Stress axis : x y z
#
# Youngs Moduli (GPa) = 88.15736 27.87705 52.81912
#
# Poissons Ratio (x) = 0.13971 0.17035
# Poissons Ratio (y) = 0.44181 -0.13821
# Poissons Ratio (z) = 0.28433 -0.07295
#
# Static dielectric constant tensor:
#      x y z
#    x 4.217690 -0.006930 -0.054690 
#    y -0.006930 4.029170 -0.106440 
#    z -0.054690 -0.106440 3.989950 
# 
# 
# High freq. dielectric constant tensor:
#      x y z
#    x 1.905320 -0.007210 0.000210 
#    y -0.007210 1.894670 0.003300 
#    z 0.000210 0.003300 1.888420 
# 
# From -- ./inp_files/272310.got.cif
#   From: 2010.06.25/outbox.cif.g09.slc.cpg/sg2_137_cif.got.tgz:272310.got - 2010.06.27 13:26:56.
