data_PCOD8014507
_publ_section_title
;
Structure prediction by ZEFSAII (Michael W. Deem and Ramdas Pophale) SiO2 
 PCOD8014507
Probable space group: P -1
;
_chemical_formula_sum "Si O2"
_cell_formula_units_Z 14
_cell_length_a 9.165373
_cell_length_b 10.998531
_cell_length_c 17.482646
_cell_angle_alpha 40.763682
_cell_angle_beta 37.930858
_cell_angle_gamma 67.993580
_cell_volume 588.484025
_symmetry_space_group_name_H-M "P -1"
_symmetry_group_IT_number 2
_symmetry_cell_setting 'triclinic'
loop_
_space_group_symop_operation_xyz
x,y,z
-x,-y,-z
loop_
_atom_site_type_symbol
_atom_site_label
_atom_site_fract_x
_atom_site_fract_y
_atom_site_fract_z
Si Si1 0.166931 0.409006 0.255780
Si Si2 0.414222 0.935496 0.375202
Si Si3 0.282873 0.074303 0.891862
Si Si4 0.705244 0.429387 0.039809
Si Si5 0.594251 0.474435 0.675168
Si Si6 0.348278 0.754038 0.644221
Si Si7 0.862148 0.308760 0.749851
O O1 0.283781 0.564267 0.059186
O O2 0.012067 0.492437 0.334524
O O3 0.921019 0.152384 0.455926
O O4 0.440504 0.442274 0.170537
O O5 0.507231 0.914119 0.263607
O O6 0.413704 0.771882 0.517466
O O7 0.610993 0.178114 0.217468
O O8 0.391262 0.316017 0.766459
O O9 0.259318 0.920859 0.045349
O O10 0.000000 0.000000 0.000000
O O11 0.004564 0.614823 0.867594
O O12 0.466584 0.611410 0.698672
O O13 0.615011 0.317032 0.803709
O O14 0.904503 0.655904 0.424954
O O15 0.500000 0.000000 0.500000
#
# Coordination Sequence:
#
# PCOD8014507 Si02
#       7
#     2   2   2   2   2   2   2
#     4  10  21  41  68 101 141 178 234 293 345 416
#     4  11  22  41  72 103 136 182 242 285 353 409
#     4  12  24  42  75 106 139 182 234 294 351 422
#     4  10  22  43  69 102 135 186 237 289 345 415
#     4  11  26  47  69 100 148 184 230 293 352 424
#     4  11  27  48  68 103 143 190 236 288 357 420
#     4  11  24  46  69 106 139 187 232 287 357 416
#
# _framework density 23.789940000000001
#
# number of rings (size 3 to 8) (size 9 to 14) (size 15 to 20)
#    0.000    1.143    2.857    2.571    4.000    1.714 
#   10.286    0.000    0.000    0.000    0.000    0.000 
#    0.000    0.000    0.000    0.000    0.000    0.000 
#
# Total GULP energy -173484.072616 kJ/mol
# GULP energy per Si atom -12391.719473 kJ/mol
# Density = 2.373579 g / cm^3
# Si number density = 23.789940 Si / 1000 Ang^3
#
#
#
# Elastic Constant Matrix: (Units=GPa)
#
#
# Indices 1 2 3 4 5 6 
#
# 1 121.8291 27.1898 53.8975 -3.7612 -1.1535 -25.2372
# 2 27.1898 89.5414 28.9593 -18.5678 -18.4702 -21.3737
# 3 53.8975 28.9593 119.7398 -12.6722 -17.6571 -15.2369
# 4 -3.7612 -18.5678 -12.6722 37.2532 8.9006 -6.5321
# 5 -1.1535 -18.4702 -17.6571 8.9006 53.4732 0.5906
# 6 -25.2372 -21.3737 -15.2369 -6.5321 0.5906 34.3996
#
#
#
# Elastic Compliance Matrix: (Units=1/GPa)
#
#
# Indices 1 2 3 4 5 6 
#
# 1 0.011647 -0.000797 -0.004418 0.000777 -0.001681 0.006269
# 2 -0.000797 0.017114 -0.000766 0.009236 0.003978 0.011395
# 3 -0.004418 -0.000766 0.011479 0.002690 0.002963 0.001827
# 4 0.000777 0.009236 0.002690 0.035407 -0.001956 0.014257
# 5 -0.001681 0.003978 0.002963 -0.001956 0.021323 0.001813
# 6 0.006269 0.011395 0.001827 0.014257 0.001813 0.044235
#
#
# Mechanical properties :
#
#
# Convention : Reuss Voigt Hill
#
# Bulk Modulus (GPa) = 35.36335 61.24485 48.30410
# Shear Modulus (GPa) = 30.75155 39.76279 35.25717
#
# Velocity S-wave (km/s) = 3.59921 4.09273 3.85388
# Velocity P-wave (km/s) = 5.67182 6.93785 6.33653
#
# Compressibility (1/GPa) = 0.02827787
#
# Stress axis : x y z
#
# Youngs Moduli (GPa) = 85.85606 58.43308 87.11267
#
# Poissons Ratio (x) = 0.04659 0.38486
# Poissons Ratio (y) = 0.06845 0.06673
# Poissons Ratio (z) = 0.37931 0.04476
#
# Static dielectric constant tensor:
#      x y z
#    x 4.336490 0.060060 0.112570 
#    y 0.060060 2.783100 -0.838440 
#    z 0.112570 -0.838440 3.703680 
# 
# 
# High freq. dielectric constant tensor:
#      x y z
#    x 1.955180 0.010470 0.005490 
#    y 0.010470 1.927460 0.003530 
#    z 0.005490 0.003530 1.952150 
# 
# From -- ./inp_files/81461.got.cif
#   From: 2010.06.25/outbox.cif.g09.slc.cpg/sg2_41_cif.got.tgz:81461.got - 2010.06.27 13:26:56.
