data_PCOD8014893
_publ_section_title
;
Structure prediction by ZEFSAII (Michael W. Deem and Ramdas Pophale) SiO2 
 PCOD8014893
Probable space group: P -1
;
_chemical_formula_sum "Si O2"
_cell_formula_units_Z 14
_cell_length_a 8.059040
_cell_length_b 11.532075
_cell_length_c 8.486983
_cell_angle_alpha 79.318067
_cell_angle_beta 53.607018
_cell_angle_gamma 97.954405
_cell_volume 592.370539
_symmetry_space_group_name_H-M "P -1"
_symmetry_group_IT_number 2
_symmetry_cell_setting 'triclinic'
loop_
_space_group_symop_operation_xyz
x,y,z
-x,-y,-z
loop_
_atom_site_type_symbol
_atom_site_label
_atom_site_fract_x
_atom_site_fract_y
_atom_site_fract_z
Si Si1 0.984725 0.849102 0.733824
Si Si2 0.552598 0.641573 0.486097
Si Si3 0.437336 0.185431 0.843321
Si Si4 0.247465 0.358093 0.307092
Si Si5 0.419735 0.015953 0.369570
Si Si6 0.744934 0.263148 0.167769
Si Si7 0.694587 0.380116 0.878574
O O1 0.156756 0.975854 0.536503
O O2 0.085422 0.797415 0.839549
O O3 0.940293 0.750632 0.642283
O O4 0.766511 0.873663 0.909836
O O5 0.500000 0.500000 0.500000
O O6 0.637502 0.736903 0.270303
O O7 0.736941 0.672990 0.509687
O O8 0.332057 0.661242 0.671988
O O9 0.505080 0.070485 0.771889
O O10 0.642667 0.278559 0.794311
O O11 0.184126 0.485015 0.296425
O O12 0.474105 0.380087 0.087268
O O13 0.500000 0.000000 0.500000
O O14 0.531087 0.160974 0.232394
O O15 0.847494 0.350414 0.937582
#
# Coordination Sequence:
#
# PCOD8014893 Si02
#       7
#     2   2   2   2   2   2   2
#     4  10  22  40  63  93 121 162 205 253 297 366
#     4  11  20  39  64  90 122 168 196 249 311 365
#     4  11  21  40  65  90 122 161 206 246 309 360
#     4   9  19  36  60  88 129 155 201 251 307 356
#     4  10  21  42  63  86 127 161 202 256 300 357
#     4  10  22  41  63  86 127 163 201 253 310 348
#     4   9  19  37  60  90 120 164 197 251 307 363
#
# _framework density 23.633856999999999
#
# number of rings (size 3 to 8) (size 9 to 14) (size 15 to 20)
#    0.000    2.000    4.286    0.000    2.000    3.429 
#    2.571    7.857    0.000    0.000    0.000    0.000 
#    0.000    0.000    0.000    0.000    0.000    0.000 
#
# Total GULP energy -173549.364043 kJ/mol
# GULP energy per Si atom -12396.383146 kJ/mol
# Density = 2.358007 g / cm^3
# Si number density = 23.633857 Si / 1000 Ang^3
#
#
#
# Elastic Constant Matrix: (Units=GPa)
#
#
# Indices 1 2 3 4 5 6 
#
# 1 59.4291 -2.8755 0.6925 3.7854 15.1986 18.2622
# 2 -2.8755 96.1345 23.0465 31.7012 -1.8500 15.1690
# 3 0.6925 23.0465 66.7212 20.4174 0.0213 9.4540
# 4 3.7854 31.7012 20.4174 33.0517 -0.4625 4.9912
# 5 15.1986 -1.8500 0.0213 -0.4625 30.2327 2.7869
# 6 18.2622 15.1690 9.4540 4.9912 2.7869 37.2866
#
#
#
# Elastic Compliance Matrix: (Units=1/GPa)
#
#
# Indices 1 2 3 4 5 6 
#
# 1 0.023869 0.003954 0.001969 -0.006052 -0.010728 -0.012186
# 2 0.003954 0.016639 -0.000168 -0.015325 -0.000599 -0.006567
# 3 0.001969 -0.000168 0.019047 -0.011213 -0.000801 -0.004164
# 4 -0.006052 -0.015325 -0.011213 0.051866 0.002453 0.004916
# 5 -0.010728 -0.000599 -0.000801 0.002453 0.038240 0.002515
# 6 -0.012186 -0.006567 -0.004164 0.004916 0.002515 0.035669
#
#
# Mechanical properties :
#
#
# Convention : Reuss Voigt Hill
#
# Bulk Modulus (GPa) = 14.07174 29.33465 21.70319
# Shear Modulus (GPa) = 25.31540 33.54229 29.42885
#
# Velocity S-wave (km/s) = 3.27639 3.77138 3.53257
# Velocity P-wave (km/s) = 4.50333 5.60388 5.08348
#
# Compressibility (1/GPa) = 0.07106444
#
# Stress axis : x y z
#
# Youngs Moduli (GPa) = 41.89505 60.10047 52.50211
#
# Poissons Ratio (x) = -0.23765 -0.10336
# Poissons Ratio (y) = -0.16566 0.00883
# Poissons Ratio (z) = -0.08248 0.01011
#
# Static dielectric constant tensor:
#      x y z
#    x 4.164820 0.020200 0.357000 
#    y 0.020200 4.490880 -0.155820 
#    z 0.357000 -0.155820 4.184860 
# 
# 
# High freq. dielectric constant tensor:
#      x y z
#    x 1.930840 0.001960 0.024790 
#    y 0.001960 1.941760 0.004710 
#    z 0.024790 0.004710 1.922530 
# 
# From -- ./inp_files/178596.got.cif
#   From: 2010.06.25/outbox.cif.g09.slc.cpg/sg2_90_cif.got.tgz:178596.got - 2010.06.27 13:26:56.
