data_PCOD8014535
_publ_section_title
;
Structure prediction by ZEFSAII (Michael W. Deem and Ramdas Pophale) SiO2 
 PCOD8014535
Probable space group: P -1
;
_chemical_formula_sum "Si O2"
_cell_formula_units_Z 16
_cell_length_a 12.347659
_cell_length_b 12.027022
_cell_length_c 9.519496
_cell_angle_alpha 45.826120
_cell_angle_beta 92.525729
_cell_angle_gamma 122.473182
_cell_volume 716.931214
_symmetry_space_group_name_H-M "P -1"
_symmetry_group_IT_number 2
_symmetry_cell_setting 'triclinic'
loop_
_space_group_symop_operation_xyz
x,y,z
-x,-y,-z
loop_
_atom_site_type_symbol
_atom_site_label
_atom_site_fract_x
_atom_site_fract_y
_atom_site_fract_z
Si Si1 0.757242 0.956795 0.173613
Si Si2 0.289532 0.495186 0.166323
Si Si3 0.706242 0.239662 0.436414
Si Si4 0.169945 0.871702 0.257697
Si Si5 0.353042 0.900800 0.752166
Si Si6 0.566170 0.652173 0.193640
Si Si7 0.723805 0.593370 0.058189
Si Si8 0.025326 0.082000 0.663476
O O1 0.710309 0.006777 0.262177
O O2 0.611128 0.714251 0.308536
O O3 0.881699 0.952960 0.216225
O O4 0.825137 0.146740 0.894976
O O5 0.391238 0.524320 0.271483
O O6 0.120563 0.251281 0.390570
O O7 0.283538 0.675749 0.017758
O O8 0.360305 0.514904 0.002317
O O9 0.821411 0.276485 0.521746
O O10 0.698195 0.137658 0.379018
O O11 0.783212 0.484434 0.203656
O O12 0.534957 0.081331 0.625918
O O13 0.016735 0.815386 0.329278
O O14 0.324628 0.121296 0.088978
O O15 0.605791 0.527858 0.231222
O O16 0.867581 0.847732 0.809976
#
# Coordination Sequence:
#
# PCOD8014535 Si02
#       8
#     2   2   2   2   2   2   2   2
#     4  10  23  43  66  94 133 168 215 264 320 382
#     4  11  22  40  65  99 127 167 216 267 319 375
#     4  10  21  41  68  93 130 166 216 265 322 372
#     4   9  21  43  65  89 131 170 210 255 321 382
#     4  10  22  41  64 101 127 164 214 273 316 377
#     4   9  21  40  64  91 129 164 216 264 310 377
#     4  10  23  40  65  94 132 169 211 265 321 381
#     4  11  24  42  63  94 134 172 213 260 320 386
#
# _framework density 22.317343999999999
#
# number of rings (size 3 to 8) (size 9 to 14) (size 15 to 20)
#    0.750    1.250    1.250    1.125    1.750    6.500 
#    2.250    3.750    0.000    0.000    0.000    0.000 
#    0.000    0.000    0.000    0.000    0.000    0.000 
#
# Total GULP energy -198280.856755 kJ/mol
# GULP energy per Si atom -12392.553547 kJ/mol
# Density = 2.226655 g / cm^3
# Si number density = 22.317344 Si / 1000 Ang^3
#
#
#
# Elastic Constant Matrix: (Units=GPa)
#
#
# Indices 1 2 3 4 5 6 
#
# 1 101.5307 10.0214 20.3052 9.6885 -1.5576 -6.9170
# 2 10.0214 40.3356 9.3549 4.5077 -3.4217 -14.5783
# 3 20.3052 9.3549 62.5937 -1.5475 2.2675 -6.4926
# 4 9.6885 4.5077 -1.5475 35.4228 1.8805 -3.0888
# 5 -1.5576 -3.4217 2.2675 1.8805 26.4079 8.5951
# 6 -6.9170 -14.5783 -6.4926 -3.0888 8.5951 31.1420
#
#
#
# Elastic Compliance Matrix: (Units=1/GPa)
#
#
# Indices 1 2 3 4 5 6 
#
# 1 0.010999 -0.001326 -0.003410 -0.002978 0.000787 0.000599
# 2 -0.001326 0.030881 -0.002868 -0.002533 0.000019 0.013307
# 3 -0.003410 -0.002868 0.017977 0.002495 -0.003198 0.002778
# 4 -0.002978 -0.002533 0.002495 0.029906 -0.003715 0.002664
# 5 0.000787 0.000019 -0.003198 -0.003715 0.042555 -0.012597
# 6 0.000599 0.013307 0.002778 0.002664 -0.012597 0.042793
#
#
# Mechanical properties :
#
#
# Convention : Reuss Voigt Hill
#
# Bulk Modulus (GPa) = 22.39716 31.53589 26.96652
# Shear Modulus (GPa) = 24.36624 29.57977 26.97301
#
# Velocity S-wave (km/s) = 3.30784 3.64458 3.48028
# Velocity P-wave (km/s) = 4.96453 5.64552 5.31594
#
# Compressibility (1/GPa) = 0.04464853
#
# Stress axis : x y z
#
# Youngs Moduli (GPa) = 90.91630 32.38263 55.62795
#
# Poissons Ratio (x) = 0.04294 0.18969
# Poissons Ratio (y) = 0.12054 0.15955
# Poissons Ratio (z) = 0.31002 0.09288
#
# Static dielectric constant tensor:
#      x y z
#    x 3.779640 -0.150390 0.001810 
#    y -0.150390 3.778030 -0.064810 
#    z 0.001810 -0.064810 3.955320 
# 
# 
# High freq. dielectric constant tensor:
#      x y z
#    x 1.869060 -0.007700 0.004780 
#    y -0.007700 1.864790 -0.000130 
#    z 0.004780 -0.000130 1.884470 
# 
# From -- ./inp_files/261638.got.cif
#   From: 2010.06.25/outbox.cif.g09.slc.cpg/sg2_131_cif.got.tgz:261638.got - 2010.06.27 13:26:56.
