data_PCOD8014786
_publ_section_title
;
Structure prediction by ZEFSAII (Michael W. Deem and Ramdas Pophale) SiO2 
 PCOD8014786
Probable space group: P -1
;
_chemical_formula_sum "Si O2"
_cell_formula_units_Z 12
_cell_length_a 10.137970
_cell_length_b 12.333482
_cell_length_c 8.972279
_cell_angle_alpha 48.903055
_cell_angle_beta 113.528269
_cell_angle_gamma 144.076008
_cell_volume 473.014798
_symmetry_space_group_name_H-M "P -1"
_symmetry_group_IT_number 2
_symmetry_cell_setting 'triclinic'
loop_
_space_group_symop_operation_xyz
x,y,z
-x,-y,-z
loop_
_atom_site_type_symbol
_atom_site_label
_atom_site_fract_x
_atom_site_fract_y
_atom_site_fract_z
Si Si1 0.979967 0.413265 0.406165
Si Si2 0.853632 0.021423 0.038321
Si Si3 0.621748 0.469375 0.169223
Si Si4 0.313380 0.417802 0.600216
Si Si5 0.475030 0.090151 0.255986
Si Si6 0.268722 0.842332 0.945757
O O1 0.000000 0.500000 0.500000
O O2 0.148930 0.409650 0.462432
O O3 0.702043 0.147124 0.505961
O O4 0.052848 0.578932 0.156936
O O5 0.889328 0.713942 0.115540
O O6 0.855319 0.850643 0.188675
O O7 0.786180 0.031475 0.164328
O O8 0.681104 0.948543 0.900054
O O9 0.523452 0.387733 0.367619
O O10 0.606658 0.308103 0.223611
O O11 0.500000 0.500000 0.000000
O O12 0.500000 0.500000 0.500000
O O13 0.676951 0.154759 0.204379
O O14 0.500000 0.000000 0.000000
#
# Coordination Sequence:
#
# PCOD8014786 Si02
#       6
#     2   2   2   2   2   2
#     4  12  22  42  71  99 139 184 227 283 345 411
#     4  11  22  46  69  97 139 186 225 281 350 414
#     4  12  24  42  69 102 135 184 231 282 352 408
#     4  12  25  43  72 102 139 180 235 287 344 414
#     4  11  23  43  72  97 141 178 233 281 348 408
#     4  10  21  41  73 100 135 186 230 276 354 415
#
# _framework density 25.369187
#
# number of rings (size 3 to 8) (size 9 to 14) (size 15 to 20)
#    0.000    0.667    6.667    3.500    0.000    0.667 
#    3.000    5.000    0.000    0.000    0.000    0.000 
#    0.000    0.000    0.000    0.000    0.000    0.000 
#
# Total GULP energy -148727.318258 kJ/mol
# GULP energy per Si atom -12393.943188 kJ/mol
# Density = 2.531145 g / cm^3
# Si number density = 25.369187 Si / 1000 Ang^3
#
#
#
# Elastic Constant Matrix: (Units=GPa)
#
#
# Indices 1 2 3 4 5 6 
#
# 1 158.8312 56.8497 28.3963 5.2080 -9.6329 -37.9102
# 2 56.8497 163.8952 37.2595 -11.0891 -22.8801 -33.2011
# 3 28.3963 37.2595 91.4714 -4.2646 -20.0049 -12.5901
# 4 5.2080 -11.0891 -4.2646 34.5317 -6.5767 -6.8893
# 5 -9.6329 -22.8801 -20.0049 -6.5767 53.6595 2.1916
# 6 -37.9102 -33.2011 -12.5901 -6.8893 2.1916 55.3344
#
#
#
# Elastic Compliance Matrix: (Units=1/GPa)
#
#
# Indices 1 2 3 4 5 6 
#
# 1 0.008185 -0.001807 -0.001322 -0.001184 -0.000106 0.004079
# 2 -0.001807 0.008604 -0.001511 0.004241 0.003138 0.003984
# 3 -0.001322 -0.001511 0.013188 0.002421 0.004278 0.001320
# 4 -0.001184 0.004241 0.002421 0.033233 0.006320 0.006172
# 5 -0.000106 0.003138 0.004278 0.006320 0.022215 0.002691
# 6 0.004079 0.003984 0.001320 0.006172 0.002691 0.024220
#
#
# Mechanical properties :
#
#
# Convention : Reuss Voigt Hill
#
# Bulk Modulus (GPa) = 48.31519 73.24543 60.78031
# Shear Modulus (GPa) = 39.73768 48.15128 43.94448
#
# Velocity S-wave (km/s) = 3.96204 4.36136 4.16648
# Velocity P-wave (km/s) = 6.32586 7.36861 6.86706
#
# Compressibility (1/GPa) = 0.02069742
#
# Stress axis : x y z
#
# Youngs Moduli (GPa) = 122.17090 116.22435 75.82366
#
# Poissons Ratio (x) = 0.21004 0.10022
# Poissons Ratio (y) = 0.22079 0.11459
# Poissons Ratio (z) = 0.16148 0.17565
#
# Static dielectric constant tensor:
#      x y z
#    x 5.383740 -0.644260 -0.766410 
#    y -0.644260 4.803700 -0.389430 
#    z -0.766410 -0.389430 4.273860 
# 
# 
# High freq. dielectric constant tensor:
#      x y z
#    x 2.047400 -0.016800 -0.008680 
#    y -0.016800 2.023760 -0.004850 
#    z -0.008680 -0.004850 2.004300 
# 
# From -- ./inp_files/252164.got.cif
#   From: 2010.06.25/outbox.cif.g09.slc.cpg/sg2_127_cif.got.tgz:252164.got - 2010.06.27 13:26:56.
