data_PCOD8014970
_publ_section_title
;
Structure prediction by ZEFSAII (Michael W. Deem and Ramdas Pophale) SiO2 
 PCOD8014970
Probable space group: P -1
;
_chemical_formula_sum "Si O2"
_cell_formula_units_Z 12
_cell_length_a 12.315786
_cell_length_b 17.889492
_cell_length_c 7.124111
_cell_angle_alpha 80.754653
_cell_angle_beta 107.171720
_cell_angle_gamma 157.554871
_cell_volume 544.798923
_symmetry_space_group_name_H-M "P -1"
_symmetry_group_IT_number 2
_symmetry_cell_setting 'triclinic'
loop_
_space_group_symop_operation_xyz
x,y,z
-x,-y,-z
loop_
_atom_site_type_symbol
_atom_site_label
_atom_site_fract_x
_atom_site_fract_y
_atom_site_fract_z
Si Si1 0.316089 0.458980 0.123505
Si Si2 0.633365 0.405864 0.550716
Si Si3 0.692363 0.286239 0.821194
Si Si4 0.271681 0.984465 0.068270
Si Si5 0.819449 0.310280 0.498379
Si Si6 0.306735 0.286555 0.130219
O O1 0.350710 0.521849 0.310970
O O2 0.450680 0.456415 0.207430
O O3 0.952397 0.227771 0.974653
O O4 0.510012 0.625332 0.999070
O O5 0.560896 0.278724 0.650840
O O6 0.354987 0.253375 0.328325
O O7 0.956412 0.612329 0.515076
O O8 0.757227 0.260324 0.709696
O O9 0.451685 0.103375 0.917244
O O10 0.000000 0.500000 0.000000
O O11 0.060067 0.929334 0.010651
O O12 0.494113 0.111787 0.306288
O O13 0.000000 0.500000 0.500000
#
# Coordination Sequence:
#
# PCOD8014970 Si02
#       6
#     2   2   2   2   2   2
#     4   9  22  42  66  89 131 159 205 256 312 354
#     4  11  22  38  69  91 124 168 204 251 311 368
#     4  11  23  41  64  87 129 164 202 261 306 362
#     4  10  21  42  64  91 127 164 199 261 308 364
#     4  10  22  39  60  89 125 165 203 248 308 362
#     4   9  22  41  65  92 128 158 208 257 302 369
#
# _framework density 22.026474
#
# number of rings (size 3 to 8) (size 9 to 14) (size 15 to 20)
#    1.000    1.000    3.333    0.500    2.333    4.000 
#    0.000    7.500    0.000    0.000    0.000    0.000 
#    0.000    0.000    0.000    0.000    0.000    0.000 
#
# Total GULP energy -148714.295431 kJ/mol
# GULP energy per Si atom -12392.857953 kJ/mol
# Density = 2.197634 g / cm^3
# Si number density = 22.026474 Si / 1000 Ang^3
#
#
#
# Elastic Constant Matrix: (Units=GPa)
#
#
# Indices 1 2 3 4 5 6 
#
# 1 57.3175 8.6693 31.6634 -13.8269 -12.7893 27.9103
# 2 8.6693 95.2492 21.7214 -13.2523 -34.5639 34.8297
# 3 31.6634 21.7214 109.2821 -8.5448 -29.8951 28.6615
# 4 -13.8269 -13.2523 -8.5448 36.2242 15.1109 -1.2832
# 5 -12.7893 -34.5639 -29.8951 15.1109 25.4948 -12.8516
# 6 27.9103 34.8297 28.6615 -1.2832 -12.8516 31.6910
#
#
#
# Elastic Compliance Matrix: (Units=1/GPa)
#
#
# Indices 1 2 3 4 5 6 
#
# 1 0.088278 0.070991 0.020829 0.027433 0.076970 -0.142282
# 2 0.070991 0.099855 0.035545 0.013079 0.128385 -0.151820
# 3 0.020829 0.035545 0.028417 -0.000894 0.063571 -0.057366
# 4 0.027433 0.013079 -0.000894 0.050124 -0.021692 -0.044494
# 5 0.076970 0.128385 0.063571 -0.021692 0.257132 -0.162986
# 6 -0.142282 -0.151820 -0.057366 -0.044494 -0.162986 0.307702
#
#
# Mechanical properties :
#
#
# Convention : Reuss Voigt Hill
#
# Bulk Modulus (GPa) = 2.12189 42.88410 22.50300
# Shear Modulus (GPa) = 6.81318 32.00163 19.40740
#
# Velocity S-wave (km/s) = 1.76065 3.81579 2.97154
# Velocity P-wave (km/s) = 2.25801 6.23901 4.69169
#
# Compressibility (1/GPa) = 0.47127871
#
# Stress axis : x y z
#
# Youngs Moduli (GPa) = 11.32783 10.01451 35.19078
#
# Poissons Ratio (x) = -0.71094 -0.73299
# Poissons Ratio (y) = -0.80417 -1.25086
# Poissons Ratio (z) = -0.23595 -0.35597
#
# Static dielectric constant tensor:
#      x y z
#    x 4.197100 0.476630 -0.429730 
#    y 0.476630 4.186740 -0.289870 
#    z -0.429730 -0.289870 4.348340 
# 
# 
# High freq. dielectric constant tensor:
#      x y z
#    x 1.853530 0.024810 -0.008180 
#    y 0.024810 1.856550 -0.011170 
#    z -0.008180 -0.011170 1.869470 
# 
# From -- ./inp_files/100711.got.cif
#   From: 2010.06.25/outbox.cif.g09.slc.cpg/sg2_51_cif.got.tgz:100711.got - 2010.06.27 13:26:56.
