data_PCOD8014884
_publ_section_title
;
Structure prediction by ZEFSAII (Michael W. Deem and Ramdas Pophale) SiO2 
 PCOD8014884
Probable space group: P -1
;
_chemical_formula_sum "Si O2"
_cell_formula_units_Z 16
_cell_length_a 12.237446
_cell_length_b 6.643882
_cell_length_c 11.037283
_cell_angle_alpha 97.639881
_cell_angle_beta 88.366761
_cell_angle_gamma 127.480777
_cell_volume 704.230994
_symmetry_space_group_name_H-M "P -1"
_symmetry_group_IT_number 2
_symmetry_cell_setting 'triclinic'
loop_
_space_group_symop_operation_xyz
x,y,z
-x,-y,-z
loop_
_atom_site_type_symbol
_atom_site_label
_atom_site_fract_x
_atom_site_fract_y
_atom_site_fract_z
Si Si1 0.532702 0.842267 0.810825
Si Si2 0.121708 0.968382 0.887078
Si Si3 0.092711 0.405959 0.482787
Si Si4 0.312199 0.849766 0.944030
Si Si5 0.141133 0.140983 0.647373
Si Si6 0.345750 0.705867 0.322546
Si Si7 0.820121 0.619996 0.912729
Si Si8 0.441039 0.368434 0.619049
O O1 0.411013 0.863452 0.842394
O O2 0.477584 0.564397 0.743413
O O3 0.627257 0.042967 0.716717
O O4 0.612639 0.915273 0.942438
O O5 0.214361 0.874391 0.865602
O O6 0.967017 0.704878 0.868154
O O7 0.151763 0.161960 0.793758
O O8 0.156857 0.124412 0.022546
O O9 0.134763 0.361593 0.609766
O O10 0.235627 0.610566 0.425477
O O11 0.000000 0.500000 0.500000
O O12 0.001858 0.134027 0.397501
O O13 0.232429 0.584624 0.996313
O O14 0.274851 0.168405 0.595638
O O15 0.285287 0.488073 0.204024
O O16 0.489841 0.771691 0.368064
O O17 0.500000 0.500000 0.500000
#
# Coordination Sequence:
#
# PCOD8014884 Si02
#       8
#     2   2   2   2   2   2   2   2
#     4  10  24  40  67  95 131 176 214 269 329 393
#     4  11  21  39  66  96 131 167 214 275 324 388
#     4  11  26  46  68  92 133 178 216 269 322 386
#     4  10  21  42  62  96 131 169 221 264 331 389
#     4  11  25  45  65  99 129 171 222 265 327 390
#     4  11  23  46  66  97 131 172 223 263 329 390
#     4  10  22  39  63  97 129 170 214 266 333 387
#     4  12  25  42  66  96 134 170 219 273 320 387
#
# _framework density 22.719819000000001
#
# number of rings (size 3 to 8) (size 9 to 14) (size 15 to 20)
#    0.000    1.250    2.500    2.625    1.750    3.500 
#    9.000    5.000    0.000    0.000    0.000    0.000 
#    0.000    0.000    0.000    0.000    0.000    0.000 
#
# Total GULP energy -198386.417348 kJ/mol
# GULP energy per Si atom -12399.151084 kJ/mol
# Density = 2.266811 g / cm^3
# Si number density = 22.719819 Si / 1000 Ang^3
#
#
#
# Elastic Constant Matrix: (Units=GPa)
#
#
# Indices 1 2 3 4 5 6 
#
# 1 137.2845 14.2478 10.6505 -14.8936 5.3301 5.6739
# 2 14.2478 47.2831 3.6948 -13.8838 -5.2517 11.1128
# 3 10.6505 3.6948 53.7476 -16.4389 -5.1210 0.1271
# 4 -14.8936 -13.8838 -16.4389 31.6482 1.4692 -6.2686
# 5 5.3301 -5.2517 -5.1210 1.4692 30.3788 -6.0489
# 6 5.6739 11.1128 0.1271 -6.2686 -6.0489 34.5827
#
#
#
# Elastic Compliance Matrix: (Units=1/GPa)
#
#
# Indices 1 2 3 4 5 6 
#
# 1 0.007904 -0.001651 -0.000885 0.002499 -0.002076 -0.000673
# 2 -0.001651 0.026311 0.002105 0.010574 0.003556 -0.005653
# 3 -0.000885 0.002105 0.022918 0.012695 0.004252 0.002430
# 4 0.002499 0.010574 0.012695 0.044825 0.002292 0.004672
# 5 -0.002076 0.003556 0.004252 0.002292 0.035665 0.005836
# 6 -0.000673 -0.005653 0.002430 0.004672 0.005836 0.032702
#
#
# Mechanical properties :
#
#
# Convention : Reuss Voigt Hill
#
# Bulk Modulus (GPa) = 17.77136 32.83348 25.30242
# Shear Modulus (GPa) = 26.32368 33.30343 29.81355
#
# Velocity S-wave (km/s) = 3.40755 3.83277 3.62640
# Velocity P-wave (km/s) = 4.82916 5.83692 5.35679
#
# Compressibility (1/GPa) = 0.05627032
#
# Stress axis : x y z
#
# Youngs Moduli (GPa) = 126.52402 38.00751 43.63305
#
# Poissons Ratio (x) = 0.06276 0.03860
# Poissons Ratio (y) = 0.20892 -0.09183
# Poissons Ratio (z) = 0.11193 -0.07999
#
# Static dielectric constant tensor:
#      x y z
#    x 4.245860 0.295180 0.163180 
#    y 0.295180 4.001010 -0.119120 
#    z 0.163180 -0.119120 4.109620 
# 
# 
# High freq. dielectric constant tensor:
#      x y z
#    x 1.902470 0.016760 0.005980 
#    y 0.016760 1.889810 -0.012540 
#    z 0.005980 -0.012540 1.898540 
# 
# From -- ./inp_files/70314.got.cif
#   From: 2010.06.25/outbox.cif.g09.slc.cpg/sg2_36_cif.got.tgz:70314.got - 2010.06.27 13:26:56.
