data_PCOD8014172
_publ_section_title
;
Structure prediction by ZEFSAII (Michael W. Deem and Ramdas Pophale) SiO2 
 PCOD8014172
Probable space group: P -1
;
_chemical_formula_sum "Si O2"
_cell_formula_units_Z 16
_cell_length_a 9.664589
_cell_length_b 8.390663
_cell_length_c 12.278206
_cell_angle_alpha 77.731407
_cell_angle_beta 130.368396
_cell_angle_gamma 96.550465
_cell_volume 740.899483
_symmetry_space_group_name_H-M "P -1"
_symmetry_group_IT_number 2
_symmetry_cell_setting 'triclinic'
loop_
_space_group_symop_operation_xyz
x,y,z
-x,-y,-z
loop_
_atom_site_type_symbol
_atom_site_label
_atom_site_fract_x
_atom_site_fract_y
_atom_site_fract_z
Si Si1 0.508666 0.342345 0.102100
Si Si2 0.993463 0.835090 0.907787
Si Si3 0.371331 0.157790 0.412210
Si Si4 0.652610 0.355181 0.407124
Si Si5 0.015594 0.167523 0.638485
Si Si6 0.876584 0.809723 0.075252
Si Si7 0.816256 0.690216 0.500139
Si Si8 0.132239 0.792160 0.770222
O O1 0.561685 0.401289 0.239736
O O2 0.657492 0.212616 0.150123
O O3 0.500000 0.500000 0.000000
O O4 0.328731 0.242000 0.026038
O O5 0.792311 0.874577 0.750411
O O6 0.104731 0.728339 0.889918
O O7 0.981096 0.737801 0.030845
O O8 0.111051 0.996036 0.960943
O O9 0.492187 0.305497 0.412512
O O10 0.303298 0.197273 0.494517
O O11 0.500000 0.000000 0.500000
O O12 0.740273 0.512181 0.480688
O O13 0.809162 0.212818 0.490616
O O14 0.039243 0.248569 0.758414
O O15 0.167535 0.231788 0.623446
O O16 0.041474 0.973105 0.685516
O O17 0.022692 0.672105 0.653513
#
# Coordination Sequence:
#
# PCOD8014172 Si02
#       8
#     2   2   2   2   2   2   2   2
#     4  12  26  42  65  97 140 178 220 278 340 396
#     4   9  20  41  65  93 126 176 216 277 327 392
#     4  11  23  42  67 102 132 174 227 278 331 393
#     4  12  24  43  67 100 138 174 222 279 333 402
#     4  11  23  41  71 102 126 182 222 280 336 394
#     4  10  21  41  65  93 133 169 224 263 337 394
#     4  11  23  39  66 100 136 170 221 271 340 394
#     4  10  23  42  67  98 133 172 234 274 331 399
#
# _framework density 21.595372999999999
#
# number of rings (size 3 to 8) (size 9 to 14) (size 15 to 20)
#    0.000    1.250    2.500    4.125    3.500    2.000 
#    0.000    9.375    0.000    0.000    0.000    0.000 
#    0.000    0.000    0.000    0.000    0.000    0.000 
#
# Total GULP energy -198323.474737 kJ/mol
# GULP energy per Si atom -12395.217171 kJ/mol
# Density = 2.154622 g / cm^3
# Si number density = 21.595373 Si / 1000 Ang^3
#
#
#
# Elastic Constant Matrix: (Units=GPa)
#
#
# Indices 1 2 3 4 5 6 
#
# 1 156.9689 46.6695 55.5525 3.4014 -23.1932 31.7545
# 2 46.6695 90.0418 45.8162 16.9208 6.0793 21.0094
# 3 55.5525 45.8162 108.3588 12.7283 -22.1383 15.0715
# 4 3.4014 16.9208 12.7283 28.7654 6.3703 7.0194
# 5 -23.1932 6.0793 -22.1383 6.3703 50.3530 2.1144
# 6 31.7545 21.0094 15.0715 7.0194 2.1144 29.6999
#
#
#
# Elastic Compliance Matrix: (Units=1/GPa)
#
#
# Indices 1 2 3 4 5 6 
#
# 1 0.010410 -0.002948 -0.002346 0.002773 0.004138 -0.008804
# 2 -0.002948 0.018189 -0.005926 -0.005323 -0.005273 -0.005075
# 3 -0.002346 -0.005926 0.014846 -0.004215 0.006709 -0.000315
# 4 0.002773 -0.005323 -0.004215 0.042165 -0.004987 -0.006671
# 5 0.004138 -0.005273 0.006709 -0.004987 0.026184 -0.004784
# 6 -0.008804 -0.005075 -0.000315 -0.006671 -0.004784 0.048750
#
#
# Mechanical properties :
#
#
# Convention : Reuss Voigt Hill
#
# Bulk Modulus (GPa) = 47.60510 72.38286 59.99398
# Shear Modulus (GPa) = 26.31766 35.58575 30.95171
#
# Velocity S-wave (km/s) = 3.49473 4.06377 3.78994
# Velocity P-wave (km/s) = 6.19485 7.45717 6.85513
#
# Compressibility (1/GPa) = 0.02100615
#
# Stress axis : x y z
#
# Youngs Moduli (GPa) = 96.06223 54.97680 67.35621
#
# Poissons Ratio (x) = 0.16208 0.15803
# Poissons Ratio (y) = 0.28320 0.39913
# Poissons Ratio (z) = 0.22537 0.32577
#
# Static dielectric constant tensor:
#      x y z
#    x 4.570460 0.213090 -0.410760 
#    y 0.213090 3.605700 0.232620 
#    z -0.410760 0.232620 4.242730 
# 
# 
# High freq. dielectric constant tensor:
#      x y z
#    x 1.874370 0.019920 -0.017410 
#    y 0.019920 1.828050 0.021830 
#    z -0.017410 0.021830 1.846970 
# 
# From -- ./inp_files/382134.got.cif
#   From: 2010.06.25/outbox.cif.g09.slc.cpg/sg2_192_cif.got.tgz:382134.got - 2010.06.27 13:26:56.
