data_PCOD8014606
_publ_section_title
;
Structure prediction by ZEFSAII (Michael W. Deem and Ramdas Pophale) SiO2 
 PCOD8014606
Probable space group: P -1
;
_chemical_formula_sum "Si O2"
_cell_formula_units_Z 16
_cell_length_a 11.570916
_cell_length_b 8.614946
_cell_length_c 14.057009
_cell_angle_alpha 103.078634
_cell_angle_beta 34.025221
_cell_angle_gamma 93.887346
_cell_volume 745.075893
_symmetry_space_group_name_H-M "P -1"
_symmetry_group_IT_number 2
_symmetry_cell_setting 'triclinic'
loop_
_space_group_symop_operation_xyz
x,y,z
-x,-y,-z
loop_
_atom_site_type_symbol
_atom_site_label
_atom_site_fract_x
_atom_site_fract_y
_atom_site_fract_z
Si Si1 0.275743 0.622700 0.171625
Si Si2 0.355958 0.271129 0.536882
Si Si3 0.836395 0.206944 0.217843
Si Si4 0.169134 0.156422 0.833435
Si Si5 0.951461 0.448391 0.307415
Si Si6 0.671567 0.025740 0.813001
Si Si7 0.575345 0.061689 0.666281
Si Si8 0.914641 0.259011 0.485873
O O1 0.174210 0.637222 0.347136
O O2 0.138879 0.544368 0.178500
O O3 0.273600 0.806038 0.165728
O O4 0.500000 0.500000 0.000000
O O5 0.591078 0.295337 0.399933
O O6 0.225155 0.264788 0.723374
O O7 0.262457 0.428785 0.560287
O O8 0.347714 0.112880 0.459149
O O9 0.977541 0.284618 0.205286
O O10 0.843615 0.022276 0.219916
O O11 0.938498 0.227540 0.047150
O O12 0.345672 0.145798 0.793865
O O13 0.960092 0.395985 0.403674
O O14 0.877803 0.879588 0.650083
O O15 0.564573 0.043309 0.784651
O O16 0.500000 0.000000 0.000000
O O17 0.740672 0.173149 0.544360
#
# Coordination Sequence:
#
# PCOD8014606 Si02
#       8
#     2   2   2   2   2   2   2   2
#     4  11  25  43  63 102 135 171 225 281 334 404
#     4  11  22  43  63  99 132 173 221 278 333 395
#     4  10  23  40  65  95 129 170 228 269 331 406
#     4  10  22  42  66  96 131 168 229 277 319 408
#     4  12  24  40  66  91 136 175 212 272 348 382
#     4  11  24  43  69  99 132 175 231 273 326 411
#     4  10  21  41  69  92 126 173 219 269 338 391
#     4  11  23  42  68  92 134 180 224 271 329 409
#
# _framework density 21.474322000000001
#
# number of rings (size 3 to 8) (size 9 to 14) (size 15 to 20)
#    0.000    1.250    0.000    7.500    5.250    1.500 
#    9.000    0.000    0.000    0.000    0.000    0.000 
#    0.000    0.000    0.000    0.000    0.000    0.000 
#
# Total GULP energy -198367.603753 kJ/mol
# GULP energy per Si atom -12397.975235 kJ/mol
# Density = 2.142545 g / cm^3
# Si number density = 21.474322 Si / 1000 Ang^3
#
#
#
# Elastic Constant Matrix: (Units=GPa)
#
#
# Indices 1 2 3 4 5 6 
#
# 1 95.0748 64.8937 32.8743 -6.0608 -3.0945 13.9695
# 2 64.8937 100.4317 44.4898 -5.0923 -4.1306 1.9765
# 3 32.8743 44.4898 121.5230 0.2444 -5.3001 -3.9924
# 4 -6.0608 -5.0923 0.2444 28.6150 -2.1646 -3.3397
# 5 -3.0945 -4.1306 -5.3001 -2.1646 16.4897 -2.5966
# 6 13.9695 1.9765 -3.9924 -3.3397 -2.5966 50.9164
#
#
#
# Elastic Compliance Matrix: (Units=1/GPa)
#
#
# Indices 1 2 3 4 5 6 
#
# 1 0.020186 -0.012391 -0.001106 0.001468 -0.000275 -0.005062
# 2 -0.012391 0.019700 -0.003693 0.001360 0.002001 0.002536
# 3 -0.001106 -0.003693 0.010020 -0.000658 0.002207 0.001302
# 4 0.001468 0.001360 -0.000658 0.036171 0.005491 0.002145
# 5 -0.000275 0.002001 0.002207 0.005491 0.063114 0.003750
# 6 -0.005062 0.002536 0.001302 0.002145 0.003750 0.021364
#
#
# Mechanical properties :
#
#
# Convention : Reuss Voigt Hill
#
# Bulk Modulus (GPa) = 64.39684 66.83834 65.61759
# Shear Modulus (GPa) = 23.79708 30.85566 27.32637
#
# Velocity S-wave (km/s) = 3.33252 3.79471 3.57110
# Velocity P-wave (km/s) = 6.69780 7.09874 6.90118
#
# Compressibility (1/GPa) = 0.01552871
#
# Stress axis : x y z
#
# Youngs Moduli (GPa) = 49.53939 50.76076 99.79829
#
# Poissons Ratio (x) = 0.62895 0.11035
# Poissons Ratio (y) = 0.61382 0.36851
# Poissons Ratio (z) = 0.05478 0.18744
#
# Static dielectric constant tensor:
#      x y z
#    x 3.899870 0.202470 -0.029280 
#    y 0.202470 4.023980 -0.107910 
#    z -0.029280 -0.107910 3.929550 
# 
# 
# High freq. dielectric constant tensor:
#      x y z
#    x 1.842310 0.015920 -0.001620 
#    y 0.015920 1.854690 -0.005800 
#    z -0.001620 -0.005800 1.845400 
# 
# From -- ./inp_files/515828.got.cif
#   From: 2010.06.25/outbox.cif.g09.slc.cpg/sg2_258_cif.got.tgz:515828.got - 2010.06.27 13:26:56.
