data_PCOD8014383
_publ_section_title
;
Structure prediction by ZEFSAII (Michael W. Deem and Ramdas Pophale) SiO2 
 PCOD8014383
Probable space group: P -1
;
_chemical_formula_sum "Si O2"
_cell_formula_units_Z 16
_cell_length_a 9.577017
_cell_length_b 11.092403
_cell_length_c 11.519883
_cell_angle_alpha 106.483547
_cell_angle_beta 85.786395
_cell_angle_gamma 40.159818
_cell_volume 668.224563
_symmetry_space_group_name_H-M "P -1"
_symmetry_group_IT_number 2
_symmetry_cell_setting 'triclinic'
loop_
_space_group_symop_operation_xyz
x,y,z
-x,-y,-z
loop_
_atom_site_type_symbol
_atom_site_label
_atom_site_fract_x
_atom_site_fract_y
_atom_site_fract_z
Si Si1 0.626036 0.935969 0.709127
Si Si2 0.767873 0.332983 0.899408
Si Si3 0.742535 0.627481 0.044157
Si Si4 0.076930 0.705718 0.370196
Si Si5 0.228425 0.858725 0.770086
Si Si6 0.824676 0.369244 0.398993
Si Si7 0.604362 0.736241 0.832534
Si Si8 0.442742 0.859362 0.549406
O O1 0.548817 0.901837 0.810047
O O2 0.581033 0.888034 0.581654
O O3 0.900206 0.782355 0.667852
O O4 0.437448 0.193612 0.791929
O O5 0.809900 0.300925 0.747805
O O6 0.500000 0.500000 0.000000
O O7 0.816202 0.428574 0.985676
O O8 0.947096 0.098787 0.883347
O O9 0.599239 0.774516 0.977363
O O10 0.000000 0.500000 0.000000
O O11 0.218564 0.635561 0.463259
O O12 0.130282 0.518130 0.291665
O O13 0.782485 0.946023 0.473481
O O14 0.237308 0.706052 0.694555
O O15 0.409695 0.763213 0.837492
O O16 0.306114 0.898122 0.676148
O O17 0.645447 0.609972 0.426139
#
# Coordination Sequence:
#
# PCOD8014383 Si02
#       8
#     2   2   2   2   2   2   2   2
#     4  11  22  39  64  98 129 166 216 277 313 385
#     4  10  22  42  64  96 133 165 220 275 315 384
#     4  11  22  42  68  93 130 169 217 269 326 393
#     4  10  22  40  66  90 128 178 209 259 335 377
#     4  10  21  41  67  87 130 171 213 264 328 387
#     4  12  23  41  64  96 134 167 222 265 318 391
#     4  10  21  42  66  89 128 175 213 259 337 383
#     4  10  22  40  63  93 132 171 211 262 322 382
#
# _framework density 23.944046
#
# number of rings (size 3 to 8) (size 9 to 14) (size 15 to 20)
#    0.000    1.500    2.500    4.875    0.000    2.500 
#    4.500    8.125    0.000    0.000    0.000    0.000 
#    0.000    0.000    0.000    0.000    0.000    0.000 
#
# Total GULP energy -198256.355855 kJ/mol
# GULP energy per Si atom -12391.022241 kJ/mol
# Density = 2.388955 g / cm^3
# Si number density = 23.944046 Si / 1000 Ang^3
#
#
#
# Elastic Constant Matrix: (Units=GPa)
#
#
# Indices 1 2 3 4 5 6 
#
# 1 121.1848 21.5614 52.1400 2.6404 16.6435 -28.5260
# 2 21.5614 102.5367 39.4409 24.1623 14.8223 -16.1374
# 3 52.1400 39.4409 98.9459 38.8868 19.1809 -4.4518
# 4 2.6404 24.1623 38.8868 43.6532 -7.1172 -1.9875
# 5 16.6435 14.8223 19.1809 -7.1172 38.3832 8.2791
# 6 -28.5260 -16.1374 -4.4518 -1.9875 8.2791 31.3935
#
#
#
# Elastic Compliance Matrix: (Units=1/GPa)
#
#
# Indices 1 2 3 4 5 6 
#
# 1 0.017225 0.002301 -0.011303 0.007721 -0.004950 0.017026
# 2 0.002301 0.015133 -0.001450 -0.008351 -0.010218 0.011830
# 3 -0.011303 -0.001450 0.029853 -0.027533 -0.013491 -0.004968
# 4 0.007721 -0.008351 -0.027533 0.055446 0.024827 -0.004218
# 5 -0.004950 -0.010218 -0.013491 0.024827 0.048421 -0.022861
# 6 0.017026 0.011830 -0.004968 -0.004218 -0.022861 0.058463
#
#
# Mechanical properties :
#
#
# Convention : Reuss Voigt Hill
#
# Bulk Modulus (GPa) = 24.20834 60.99466 42.60150
# Shear Modulus (GPa) = 19.28907 36.65433 27.97170
#
# Velocity S-wave (km/s) = 2.84137 3.91683 3.42162
# Velocity P-wave (km/s) = 4.57131 6.78119 5.78279
#
# Compressibility (1/GPa) = 0.04130807
#
# Stress axis : x y z
#
# Youngs Moduli (GPa) = 58.05533 66.07998 33.49719
#
# Poissons Ratio (x) = -0.15207 0.37862
# Poissons Ratio (y) = -0.13360 0.04857
# Poissons Ratio (z) = 0.65620 0.09581
#
# Static dielectric constant tensor:
#      x y z
#    x 4.828210 -0.421690 0.587410 
#    y -0.421690 4.746230 0.048050 
#    z 0.587410 0.048050 4.665670 
# 
# 
# High freq. dielectric constant tensor:
#      x y z
#    x 1.941550 -0.010680 0.008750 
#    y -0.010680 1.959080 0.023910 
#    z 0.008750 0.023910 1.941110 
# 
# From -- ./inp_files/500715.got.cif
#   From: 2010.06.25/outbox.cif.g09.slc.cpg/sg2_251_cif.got.tgz:500715.got - 2010.06.27 13:26:56.
