data_PCOD8014122
_publ_section_title
;
Structure prediction by ZEFSAII (Michael W. Deem and Ramdas Pophale) SiO2 
 PCOD8014122
Probable space group: P -1
;
_chemical_formula_sum "Si O2"
_cell_formula_units_Z 16
_cell_length_a 22.476918
_cell_length_b 7.153405
_cell_length_c 14.893128
_cell_angle_alpha 81.669285
_cell_angle_beta 154.631996
_cell_angle_gamma 81.277504
_cell_volume 756.700809
_symmetry_space_group_name_H-M "P -1"
_symmetry_group_IT_number 2
_symmetry_cell_setting 'triclinic'
loop_
_space_group_symop_operation_xyz
x,y,z
-x,-y,-z
loop_
_atom_site_type_symbol
_atom_site_label
_atom_site_fract_x
_atom_site_fract_y
_atom_site_fract_z
Si Si1 0.822949 0.953844 0.328300
Si Si2 0.593598 0.639549 0.295188
Si Si3 0.762081 0.747053 0.862851
Si Si4 0.549720 0.275515 0.313159
Si Si5 0.155679 0.408228 0.503438
Si Si6 0.150280 0.633954 0.664496
Si Si7 0.505333 0.314100 0.456021
Si Si8 0.219388 0.291450 0.312705
O O1 0.861156 0.135436 0.392766
O O2 0.822177 0.833602 0.427467
O O3 0.977533 0.734963 0.485582
O O4 0.620901 0.112337 0.996640
O O5 0.614803 0.394147 0.333636
O O6 0.666543 0.671436 0.301332
O O7 0.708952 0.596701 0.541731
O O8 0.690899 0.622486 0.825090
O O9 0.710121 0.754533 0.688606
O O10 0.653142 0.036099 0.722374
O O11 0.978165 0.590922 0.184273
O O12 0.558217 0.326798 0.426202
O O13 0.695698 0.977271 0.509952
O O14 0.341247 0.404236 0.991066
O O15 0.128728 0.541341 0.549975
O O16 0.500000 0.500000 0.500000
O O17 0.000000 0.500000 0.000000
#
# Coordination Sequence:
#
# PCOD8014122 Si02
#       8
#     2   2   2   2   2   2   2   2
#     4  10  23  41  65  91 124 167 207 253 315 376
#     4  11  24  41  64  93 125 166 212 253 317 374
#     4  10  23  38  60  95 121 157 216 250 309 380
#     4  10  23  41  65  91 125 165 210 257 311 374
#     4  12  23  39  61  94 127 164 204 259 306 372
#     4  10  23  42  64  94 125 163 211 258 312 369
#     4  10  21  41  65  90 122 160 205 267 311 360
#     4  11  22  43  61  87 126 167 204 257 315 371
#
# _framework density 21.14442
#
# number of rings (size 3 to 8) (size 9 to 14) (size 15 to 20)
#    0.000    1.500    1.250    3.000    0.000   10.500 
#    2.250    0.000    0.000    0.000    0.000    0.000 
#    0.000    0.000    0.000    0.000    0.000    0.000 
#
# Total GULP energy -198425.784216 kJ/mol
# GULP energy per Si atom -12401.611514 kJ/mol
# Density = 2.109629 g / cm^3
# Si number density = 21.144420 Si / 1000 Ang^3
#
#
#
# Elastic Constant Matrix: (Units=GPa)
#
#
# Indices 1 2 3 4 5 6 
#
# 1 87.0380 35.6966 27.3682 0.2119 8.6140 20.7740
# 2 35.6966 82.5151 38.1087 -7.8037 7.3199 8.6913
# 3 27.3682 38.1087 134.8739 -4.7563 13.7787 6.7993
# 4 0.2119 -7.8037 -4.7563 30.5980 -2.3616 -0.9542
# 5 8.6140 7.3199 13.7787 -2.3616 36.1601 5.8662
# 6 20.7740 8.6913 6.7993 -0.9542 5.8662 34.5421
#
#
#
# Elastic Compliance Matrix: (Units=1/GPa)
#
#
# Indices 1 2 3 4 5 6 
#
# 1 0.016234 -0.005713 -0.001242 -0.002094 -0.001084 -0.007955
# 2 -0.005713 0.016509 -0.003331 0.003698 -0.000490 0.000123
# 3 -0.001242 -0.003331 0.008854 0.000357 -0.002423 0.000264
# 4 -0.002094 0.003698 0.000357 0.033853 0.001678 0.000909
# 5 -0.001084 -0.000490 -0.002423 0.001678 0.029651 -0.003737
# 6 -0.007955 0.000123 0.000264 0.000909 -0.003737 0.034311
#
#
# Mechanical properties :
#
#
# Convention : Reuss Voigt Hill
#
# Bulk Modulus (GPa) = 47.56274 56.30822 51.93548
# Shear Modulus (GPa) = 29.94111 33.81028 31.87570
#
# Velocity S-wave (km/s) = 3.76710 4.00311 3.88690
# Velocity P-wave (km/s) = 6.43929 6.93214 6.69026
#
# Compressibility (1/GPa) = 0.02102486
#
# Stress axis : x y z
#
# Youngs Moduli (GPa) = 61.59907 60.57177 112.93825
#
# Poissons Ratio (x) = 0.34607 0.14026
# Poissons Ratio (y) = 0.35194 0.37621
# Poissons Ratio (z) = 0.07650 0.20177
#
# Static dielectric constant tensor:
#      x y z
#    x 3.892290 0.148020 0.058310 
#    y 0.148020 3.895940 -0.087990 
#    z 0.058310 -0.087990 3.895390 
# 
# 
# High freq. dielectric constant tensor:
#      x y z
#    x 1.827850 0.008710 0.003740 
#    y 0.008710 1.833830 -0.001210 
#    z 0.003740 -0.001210 1.834960 
# 
# From -- ./inp_files/579537.got.cif
#   From: 2010.06.25/outbox.cif.g09.slc.cpg/sg2_290_cif.got.tgz:579537.got - 2010.06.27 13:26:56.
