data_PCOD8014684
_publ_section_title
;
Structure prediction by ZEFSAII (Michael W. Deem and Ramdas Pophale) SiO2 
 PCOD8014684
Probable space group: P -1
;
_chemical_formula_sum "Si O2"
_cell_formula_units_Z 14
_cell_length_a 18.596568
_cell_length_b 12.267966
_cell_length_c 5.215602
_cell_angle_alpha 83.529118
_cell_angle_beta 81.070933
_cell_angle_gamma 30.977136
_cell_volume 604.527870
_symmetry_space_group_name_H-M "P -1"
_symmetry_group_IT_number 2
_symmetry_cell_setting 'triclinic'
loop_
_space_group_symop_operation_xyz
x,y,z
-x,-y,-z
loop_
_atom_site_type_symbol
_atom_site_label
_atom_site_fract_x
_atom_site_fract_y
_atom_site_fract_z
Si Si1 0.216803 0.274691 0.082558
Si Si2 0.328596 0.937353 0.361620
Si Si3 0.222729 0.847803 0.385479
Si Si4 0.057973 0.109380 0.925782
Si Si5 0.264626 0.462587 0.024692
Si Si6 0.078983 0.318770 0.731430
Si Si7 0.616257 0.582779 0.538210
O O1 0.284371 0.306965 0.017582
O O2 0.085089 0.443737 0.320761
O O3 0.340765 0.025995 0.137821
O O4 0.146503 0.335329 0.834201
O O5 0.324649 0.820985 0.271208
O O6 0.447634 0.790569 0.551325
O O7 0.171372 0.157371 0.491231
O O8 0.323449 0.614277 0.389342
O O9 0.109478 0.979137 0.185640
O O10 0.147316 0.954834 0.672761
O O11 0.071094 0.222253 0.949522
O O12 0.895257 0.291436 0.915250
O O13 0.351482 0.380334 0.252084
O O14 0.325764 0.444593 0.750602
#
# Coordination Sequence:
#
# PCOD8014684 Si02
#       7
#     2   2   2   2   2   2   2
#     4  10  21  41  70  93 128 161 219 274 322 375
#     4  11  24  41  68  95 129 170 215 270 322 380
#     4  11  23  43  70  97 122 172 221 276 313 365
#     4  10  21  42  71  97 127 160 224 274 323 363
#     4  11  27  44  64  99 131 177 209 261 325 395
#     4   9  20  39  67 102 120 160 216 282 323 363
#     4  12  28  44  62  93 142 176 214 249 320 403
#
# _framework density 23.158567000000001
#
# number of rings (size 3 to 8) (size 9 to 14) (size 15 to 20)
#    0.000    1.429    1.429    2.571    4.000    4.571 
#    0.000    3.571    0.000    0.000    0.000    0.000 
#    0.000    0.000    0.000    0.000    0.000    0.000 
#
# Total GULP energy -173564.789575 kJ/mol
# GULP energy per Si atom -12397.484970 kJ/mol
# Density = 2.310586 g / cm^3
# Si number density = 23.158567 Si / 1000 Ang^3
#
#
#
# Elastic Constant Matrix: (Units=GPa)
#
#
# Indices 1 2 3 4 5 6 
#
# 1 129.4951 19.2509 53.7319 -23.1758 -16.8066 42.7735
# 2 19.2509 50.2533 18.9914 -16.0494 -12.9370 11.4052
# 3 53.7319 18.9914 109.5551 -20.2327 3.4358 18.9958
# 4 -23.1758 -16.0494 -20.2327 30.6017 2.5697 1.2815
# 5 -16.8066 -12.9370 3.4358 2.5697 37.5467 -15.0520
# 6 42.7735 11.4052 18.9958 1.2815 -15.0520 49.4420
#
#
#
# Elastic Compliance Matrix: (Units=1/GPa)
#
#
# Indices 1 2 3 4 5 6 
#
# 1 0.014946 0.002260 -0.003946 0.010159 0.002556 -0.011421
# 2 0.002260 0.027724 -0.002621 0.014098 0.007687 -0.005369
# 3 -0.003946 -0.002621 0.013047 0.004821 -0.005287 -0.002729
# 4 0.010159 0.014098 0.004821 0.051666 -0.000773 -0.015468
# 5 0.002556 0.007687 -0.005287 -0.000773 0.034384 0.008535
# 6 -0.011421 -0.005369 -0.002729 -0.015468 0.008535 0.035392
#
#
# Mechanical properties :
#
#
# Convention : Reuss Voigt Hill
#
# Bulk Modulus (GPa) = 21.22982 52.58355 36.90668
# Shear Modulus (GPa) = 24.81719 36.67338 30.74528
#
# Velocity S-wave (km/s) = 3.27711 3.98374 3.64758
# Velocity P-wave (km/s) = 4.84833 6.62687 5.80610
#
# Compressibility (1/GPa) = 0.04710356
#
# Stress axis : x y z
#
# Youngs Moduli (GPa) = 66.90826 36.07014 76.64691
#
# Poissons Ratio (x) = -0.08153 0.30244
# Poissons Ratio (y) = -0.15124 0.20089
# Poissons Ratio (z) = 0.26401 0.09454
#
# Static dielectric constant tensor:
#      x y z
#    x 4.309470 0.205270 -0.244860 
#    y 0.205270 4.386030 -0.220640 
#    z -0.244860 -0.220640 3.831990 
# 
# 
# High freq. dielectric constant tensor:
#      x y z
#    x 1.919050 0.013430 -0.002280 
#    y 0.013430 1.925140 -0.016000 
#    z -0.002280 -0.016000 1.908760 
# 
# From -- ./inp_files/31303.got.cif
#   From: 2010.06.25/outbox.cif.g09.slc.cpg/sg2_16_cif.got.tgz:31303.got - 2010.06.27 13:26:56.
