data_PCOD8014795
_publ_section_title
;
Structure prediction by ZEFSAII (Michael W. Deem and Ramdas Pophale) SiO2 
 PCOD8014795
Probable space group: P -1
;
_chemical_formula_sum "Si O2"
_cell_formula_units_Z 14
_cell_length_a 13.111262
_cell_length_b 8.166924
_cell_length_c 7.587869
_cell_angle_alpha 110.812816
_cell_angle_beta 102.454073
_cell_angle_gamma 48.440344
_cell_volume 568.059120
_symmetry_space_group_name_H-M "P -1"
_symmetry_group_IT_number 2
_symmetry_cell_setting 'triclinic'
loop_
_space_group_symop_operation_xyz
x,y,z
-x,-y,-z
loop_
_atom_site_type_symbol
_atom_site_label
_atom_site_fract_x
_atom_site_fract_y
_atom_site_fract_z
Si Si1 0.841993 0.554576 0.626135
Si Si2 0.065675 0.780973 0.165528
Si Si3 0.499484 0.666561 0.939489
Si Si4 0.712497 0.227297 0.670608
Si Si5 0.894933 0.528482 0.242920
Si Si6 0.224255 0.979879 0.749309
Si Si7 0.577240 0.021538 0.686647
O O1 0.889537 0.335845 0.669437
O O2 0.835524 0.519612 0.401234
O O3 0.945484 0.602264 0.721959
O O4 0.692252 0.773038 0.717663
O O5 0.141524 0.888292 0.222269
O O6 0.122438 0.597751 0.961624
O O7 0.902105 0.971379 0.172256
O O8 0.614377 0.503644 0.773277
O O9 0.350755 0.859736 0.879593
O O10 0.500000 0.500000 0.000000
O O11 0.526751 0.807398 0.129743
O O12 0.733135 0.196412 0.457949
O O13 0.651292 0.112492 0.671012
O O14 0.815066 0.788697 0.253939
O O15 0.500000 0.000000 0.500000
#
# Coordination Sequence:
#
# PCOD8014795 Si02
#       7
#     2   2   2   2   2   2   2
#     4  10  21  42  70 100 134 175 234 274 337 408
#     4  11  24  42  71 106 138 176 227 287 348 399
#     4  10  24  43  66  98 137 178 230 278 339 408
#     4  11  25  44  66 100 141 179 221 284 349 401
#     4  10  21  41  73  98 136 179 226 283 339 401
#     4  11  21  45  70  98 139 180 225 278 343 413
#     4  11  24  45  69  96 133 181 234 281 338 411
#
# _framework density 24.645323000000001
#
# number of rings (size 3 to 8) (size 9 to 14) (size 15 to 20)
#    0.000    1.429    1.429    4.286    2.000    3.429 
#    2.571    5.714    0.000    0.000    0.000    0.000 
#    0.000    0.000    0.000    0.000    0.000    0.000 
#
# Total GULP energy -173566.467491 kJ/mol
# GULP energy per Si atom -12397.604821 kJ/mol
# Density = 2.458923 g / cm^3
# Si number density = 24.645323 Si / 1000 Ang^3
#
#
#
# Elastic Constant Matrix: (Units=GPa)
#
#
# Indices 1 2 3 4 5 6 
#
# 1 73.1826 3.6787 43.7698 11.5552 13.5609 5.7172
# 2 3.6787 79.3291 49.9350 0.7557 -5.9650 -16.5430
# 3 43.7698 49.9350 179.6510 21.8007 12.9349 -3.3512
# 4 11.5552 0.7557 21.8007 44.0283 -4.1078 -6.7802
# 5 13.5609 -5.9650 12.9349 -4.1078 34.7051 1.5180
# 6 5.7172 -16.5430 -3.3512 -6.7802 1.5180 23.9737
#
#
#
# Elastic Compliance Matrix: (Units=1/GPa)
#
#
# Indices 1 2 3 4 5 6 
#
# 1 0.018033 -0.000323 -0.003428 -0.004506 -0.006100 -0.005890
# 2 -0.000323 0.019937 -0.006307 0.005601 0.005947 0.014161
# 3 -0.003428 -0.006307 0.008847 -0.004193 -0.003395 -0.003269
# 4 -0.004506 0.005601 -0.004193 0.028377 0.007123 0.011928
# 5 -0.006100 0.005947 -0.003395 0.007123 0.034112 0.004938
# 6 -0.005890 0.014161 -0.003269 0.011928 0.004938 0.055492
#
#
# Mechanical properties :
#
#
# Convention : Reuss Voigt Hill
#
# Bulk Modulus (GPa) = 37.44968 58.54776 47.99872
# Shear Modulus (GPa) = 25.79800 36.19337 30.99569
#
# Velocity S-wave (km/s) = 3.23889 3.83635 3.55021
# Velocity P-wave (km/s) = 5.40515 6.59023 6.02689
#
# Compressibility (1/GPa) = 0.02670250
#
# Stress axis : x y z
#
# Youngs Moduli (GPa) = 55.45484 50.15698 113.03637
#
# Poissons Ratio (x) = 0.01619 0.38744
# Poissons Ratio (y) = 0.01790 0.71289
# Poissons Ratio (z) = 0.19008 0.31633
#
# Static dielectric constant tensor:
#      x y z
#    x 4.486510 -0.446970 -0.210590 
#    y -0.446970 4.199280 0.311460 
#    z -0.210590 0.311460 4.870820 
# 
# 
# High freq. dielectric constant tensor:
#      x y z
#    x 1.967730 -0.014700 0.000840 
#    y -0.014700 1.976860 0.010180 
#    z 0.000840 0.010180 2.000120 
# 
# From -- ./inp_files/296175.got.cif
#   From: 2010.06.25/outbox.cif.g09.slc.cpg/sg2_149_cif.got.tgz:296175.got - 2010.06.27 13:26:56.
