data_PCOD8014676
_publ_section_title
;
Structure prediction by ZEFSAII (Michael W. Deem and Ramdas Pophale) SiO2 
 PCOD8014676
Probable space group: P -1
;
_chemical_formula_sum "Si O2"
_cell_formula_units_Z 14
_cell_length_a 4.866837
_cell_length_b 13.789335
_cell_length_c 9.399416
_cell_angle_alpha 78.330783
_cell_angle_beta 95.625048
_cell_angle_gamma 120.719805
_cell_volume 531.063952
_symmetry_space_group_name_H-M "P -1"
_symmetry_group_IT_number 2
_symmetry_cell_setting 'triclinic'
loop_
_space_group_symop_operation_xyz
x,y,z
-x,-y,-z
loop_
_atom_site_type_symbol
_atom_site_label
_atom_site_fract_x
_atom_site_fract_y
_atom_site_fract_z
Si Si1 0.025005 0.794455 0.579751
Si Si2 0.057217 0.626401 0.124581
Si Si3 0.082861 0.618234 0.799356
Si Si4 0.596257 0.019196 0.834683
Si Si5 0.302863 0.095907 0.572124
Si Si6 0.786424 0.771709 0.135549
Si Si7 0.261582 0.171710 0.186096
O O1 0.770108 0.796985 0.452384
O O2 0.011576 0.865398 0.696949
O O3 0.924293 0.665944 0.663953
O O4 0.384461 0.863989 0.520303
O O5 0.414597 0.731112 0.147388
O O6 0.004494 0.507649 0.219398
O O7 0.826229 0.660057 0.186339
O O8 0.963303 0.613239 0.956853
O O9 0.462037 0.701438 0.792987
O O10 0.353692 0.055302 0.740761
O O11 0.959499 0.122407 0.787718
O O12 0.583150 0.909278 0.793531
O O13 0.500000 0.000000 0.000000
O O14 0.000000 0.000000 0.500000
O O15 0.903316 0.824673 0.968259
#
# Coordination Sequence:
#
# PCOD8014676 Si02
#       7
#     2   2   2   2   2   2   2
#     4  12  25  44  72 107 150 183 240 307 370 426
#     4  10  23  38  71 105 144 187 245 301 359 423
#     4  10  21  41  70 108 145 183 243 308 365 413
#     4  12  29  50  76 104 152 199 241 299 367 448
#     4  12  30  47  72 105 146 196 247 299 362 439
#     4  11  24  44  65 104 147 190 241 290 364 434
#     4  11  24  42  74 112 144 194 239 307 365 432
#
# _framework density 26.362172999999999
#
# number of rings (size 3 to 8) (size 9 to 14) (size 15 to 20)
#    0.000    0.857    2.857    3.429    6.000    4.000 
#    0.000    0.000    0.000    5.143    0.000    0.000 
#    0.000    0.000    0.000    0.000    0.000    0.000 
#
# Total GULP energy -173508.237852 kJ/mol
# GULP energy per Si atom -12393.445561 kJ/mol
# Density = 2.630217 g / cm^3
# Si number density = 26.362173 Si / 1000 Ang^3
#
#
#
# Elastic Constant Matrix: (Units=GPa)
#
#
# Indices 1 2 3 4 5 6 
#
# 1 141.3527 17.9847 41.7349 -13.1204 10.6100 -7.4415
# 2 17.9847 98.0304 37.8471 -24.4070 13.6760 8.2825
# 3 41.7349 37.8471 160.3195 -41.0650 27.1882 -0.3964
# 4 -13.1204 -24.4070 -41.0650 36.9276 -8.3576 15.2190
# 5 10.6100 13.6760 27.1882 -8.3576 49.5327 1.1903
# 6 -7.4415 8.2825 -0.3964 15.2190 1.1903 29.2258
#
#
#
# Elastic Compliance Matrix: (Units=1/GPa)
#
#
# Indices 1 2 3 4 5 6 
#
# 1 0.007917 -0.001331 -0.002157 -0.002007 -0.000566 0.003432
# 2 -0.001331 0.015224 0.000956 0.015529 -0.001519 -0.012665
# 3 -0.002157 0.000956 0.010793 0.014510 -0.003083 -0.008104
# 4 -0.002007 0.015529 0.014510 0.069960 0.000972 -0.041185
# 5 -0.000566 -0.001519 -0.003083 0.000972 0.022614 -0.001183
# 6 0.003432 -0.012665 -0.008104 -0.041185 -0.001183 0.060065
#
#
# Mechanical properties :
#
#
# Convention : Reuss Voigt Hill
#
# Bulk Modulus (GPa) = 34.63580 66.09289 50.36434
# Shear Modulus (GPa) = 24.84370 43.27961 34.06166
#
# Velocity S-wave (km/s) = 3.07318 4.05622 3.59843
# Velocity P-wave (km/s) = 5.07539 6.86023 6.03417
#
# Compressibility (1/GPa) = 0.02887186
#
# Stress axis : x y z
#
# Youngs Moduli (GPa) = 126.30389 65.68584 92.65573
#
# Poissons Ratio (x) = 0.08741 0.19983
# Poissons Ratio (y) = 0.16807 -0.08860
# Poissons Ratio (z) = 0.27239 -0.06281
#
# Static dielectric constant tensor:
#      x y z
#    x 4.953980 -0.082640 0.430340 
#    y -0.082640 4.635260 -0.462030 
#    z 0.430340 -0.462030 5.422160 
# 
# 
# High freq. dielectric constant tensor:
#      x y z
#    x 2.072330 -0.001600 0.016520 
#    y -0.001600 2.034520 -0.026840 
#    z 0.016520 -0.026840 2.061320 
# 
# From -- ./inp_files/367641.got.cif
#   From: 2010.06.25/outbox.cif.g09.slc.cpg/sg2_184_cif.got.tgz:367641.got - 2010.06.27 13:26:56.
