data_PCOD8014128
_publ_section_title
;
Structure prediction by ZEFSAII (Michael W. Deem and Ramdas Pophale) SiO2 
 PCOD8014128
Probable space group: P -1
;
_chemical_formula_sum "Si O2"
_cell_formula_units_Z 16
_cell_length_a 11.137114
_cell_length_b 9.982318
_cell_length_c 12.599993
_cell_angle_alpha 76.239635
_cell_angle_beta 124.388709
_cell_angle_gamma 60.142510
_cell_volume 690.241586
_symmetry_space_group_name_H-M "P -1"
_symmetry_group_IT_number 2
_symmetry_cell_setting 'triclinic'
loop_
_space_group_symop_operation_xyz
x,y,z
-x,-y,-z
loop_
_atom_site_type_symbol
_atom_site_label
_atom_site_fract_x
_atom_site_fract_y
_atom_site_fract_z
Si Si1 0.763219 0.351765 0.549357
Si Si2 0.144876 0.239014 0.847746
Si Si3 0.625098 0.189090 0.618658
Si Si4 0.330667 0.496867 0.930449
Si Si5 0.024471 0.696334 0.944036
Si Si6 0.210973 0.369511 0.273773
Si Si7 0.584398 0.028201 0.167511
Si Si8 0.007131 0.830235 0.524894
O O1 0.700404 0.240439 0.555757
O O2 0.536254 0.617993 0.408967
O O3 0.982171 0.223079 0.763935
O O4 0.836264 0.324125 0.470225
O O5 0.968199 0.497948 0.739318
O O6 0.257139 0.173755 0.799862
O O7 0.363607 0.087913 0.072128
O O8 0.479556 0.179022 0.484831
O O9 0.864036 0.951479 0.835635
O O10 0.233903 0.565356 0.989354
O O11 0.110409 0.680561 0.707655
O O12 0.500000 0.500000 0.000000
O O13 0.471267 0.252084 0.017999
O O14 0.831495 0.729380 0.801652
O O15 0.142951 0.560547 0.138462
O O16 0.743809 0.959058 0.358860
O O17 0.000000 0.000000 0.500000
#
# Coordination Sequence:
#
# PCOD8014128 Si02
#       8
#     2   2   2   2   2   2   2   2
#     4   9  21  40  65  94 128 166 212 260 316 375
#     4   9  19  42  65  87 129 166 204 258 319 368
#     4  10  21  41  65  91 127 167 206 268 310 374
#     4  12  25  39  63  97 128 161 210 264 309 383
#     4  11  24  40  63  95 124 169 215 254 322 375
#     4  10  22  42  64  91 128 166 213 264 309 381
#     4  10  21  41  65  90 127 169 203 259 317 374
#     4  11  22  39  63  95 126 164 206 257 319 372
#
# _framework density 23.180289999999999
#
# number of rings (size 3 to 8) (size 9 to 14) (size 15 to 20)
#    0.000    1.750    2.500    1.125    3.500    2.000 
#    2.250   11.250    0.000    0.000    0.000    0.000 
#    0.000    0.000    0.000    0.000    0.000    0.000 
#
# Total GULP energy -198247.584385 kJ/mol
# GULP energy per Si atom -12390.474024 kJ/mol
# Density = 2.312753 g / cm^3
# Si number density = 23.180290 Si / 1000 Ang^3
#
#
#
# Elastic Constant Matrix: (Units=GPa)
#
#
# Indices 1 2 3 4 5 6 
#
# 1 56.5377 14.5108 15.5919 -7.4990 12.7323 -6.0961
# 2 14.5108 77.6891 17.1781 -8.7044 -2.9935 -1.5163
# 3 15.5919 17.1781 101.4487 -4.7071 9.9995 0.8107
# 4 -7.4990 -8.7044 -4.7071 31.9867 10.4397 6.0465
# 5 12.7323 -2.9935 9.9995 10.4397 43.8623 -0.9126
# 6 -6.0961 -1.5163 0.8107 6.0465 -0.9126 21.9391
#
#
#
# Elastic Compliance Matrix: (Units=1/GPa)
#
#
# Indices 1 2 3 4 5 6 
#
# 1 0.021886 -0.003254 -0.001854 0.005620 -0.007405 0.004068
# 2 -0.003254 0.014237 -0.001979 0.002307 0.001810 -0.000407
# 3 -0.001854 -0.001979 0.010819 0.001749 -0.002514 -0.001638
# 4 0.005620 0.002307 0.001749 0.038976 -0.011348 -0.009558
# 5 -0.007405 0.001810 -0.002514 -0.011348 0.028397 0.002469
# 6 0.004068 -0.000407 -0.001638 -0.009558 0.002469 0.049480
#
#
# Mechanical properties :
#
#
# Convention : Reuss Voigt Hill
#
# Bulk Modulus (GPa) = 30.51773 36.69301 33.60537
# Shear Modulus (GPa) = 26.46999 32.11727 29.29363
#
# Velocity S-wave (km/s) = 3.38289 3.72633 3.55875
# Velocity P-wave (km/s) = 5.33410 5.86326 5.60492
#
# Compressibility (1/GPa) = 0.03276784
#
# Stress axis : x y z
#
# Youngs Moduli (GPa) = 45.69202 70.23778 92.42753
#
# Poissons Ratio (x) = 0.22855 0.17140
# Poissons Ratio (y) = 0.14868 0.18289
# Poissons Ratio (z) = 0.08473 0.13899
#
# Static dielectric constant tensor:
#      x y z
#    x 4.118950 0.041880 0.452430 
#    y 0.041880 4.226630 0.021980 
#    z 0.452430 0.021980 4.296940 
# 
# 
# High freq. dielectric constant tensor:
#      x y z
#    x 1.900440 -0.001150 0.036570 
#    y -0.001150 1.925450 -0.001910 
#    z 0.036570 -0.001910 1.910440 
# 
# From -- ./inp_files/428218.got.cif
#   From: 2010.06.25/outbox.cif.g09.slc.cpg/sg2_215_cif.got.tgz:428218.got - 2010.06.27 13:26:56.
