data_PCOD8014608
_publ_section_title
;
Structure prediction by ZEFSAII (Michael W. Deem and Ramdas Pophale) SiO2 
 PCOD8014608
Probable space group: P -1
;
_chemical_formula_sum "Si O2"
_cell_formula_units_Z 16
_cell_length_a 8.961213
_cell_length_b 15.292182
_cell_length_c 8.344832
_cell_angle_alpha 125.937793
_cell_angle_beta 109.681542
_cell_angle_gamma 100.230258
_cell_volume 758.849813
_symmetry_space_group_name_H-M "P -1"
_symmetry_group_IT_number 2
_symmetry_cell_setting 'triclinic'
loop_
_space_group_symop_operation_xyz
x,y,z
-x,-y,-z
loop_
_atom_site_type_symbol
_atom_site_label
_atom_site_fract_x
_atom_site_fract_y
_atom_site_fract_z
Si Si1 0.789729 0.827328 0.881439
Si Si2 0.254439 0.777789 0.313313
Si Si3 0.796158 0.041290 0.727115
Si Si4 0.866720 0.633565 0.154184
Si Si5 0.569651 0.600389 0.771029
Si Si6 0.359208 0.606965 0.996881
Si Si7 0.265071 0.227803 0.553992
Si Si8 0.570871 0.949991 0.832056
O O1 0.659187 0.733846 0.865524
O O2 0.782091 0.766438 0.641384
O O3 0.725890 0.927920 0.942779
O O4 0.992652 0.890469 0.086189
O O5 0.239935 0.896277 0.372948
O O6 0.301438 0.712955 0.113642
O O7 0.407815 0.825159 0.558907
O O8 0.066708 0.671902 0.205914
O O9 0.729389 0.895352 0.519917
O O10 0.676172 0.051551 0.839969
O O11 0.880369 0.756405 0.373975
O O12 0.722951 0.585607 0.905843
O O13 0.804152 0.523372 0.141731
O O14 0.500000 0.500000 0.500000
O O15 0.405822 0.591620 0.813307
O O16 0.541285 0.649058 0.212824
O O17 0.500000 0.000000 0.000000
#
# Coordination Sequence:
#
# PCOD8014608 Si02
#       8
#     2   2   2   2   2   2   2   2
#     4  11  22  43  65 101 131 169 224 273 325 394
#     4  12  25  44  66 100 138 175 213 276 332 403
#     4  11  24  43  66  98 138 170 225 266 334 395
#     4  11  24  42  67  97 128 179 227 267 331 395
#     4  11  23  42  70  96 127 172 231 274 321 396
#     4  11  23  44  66  93 133 178 218 270 337 388
#     4  10  21  41  69  92 130 176 217 275 323 394
#     4  11  26  41  67  97 138 177 212 271 335 394
#
# _framework density 21.084541999999999
#
# number of rings (size 3 to 8) (size 9 to 14) (size 15 to 20)
#    0.000    1.000    3.750    5.250    5.250    1.500 
#    0.000    0.625    0.000    0.000    0.000    0.000 
#    0.000    0.000    0.000    0.000    0.000    0.000 
#
# Total GULP energy -198386.859454 kJ/mol
# GULP energy per Si atom -12399.178716 kJ/mol
# Density = 2.103655 g / cm^3
# Si number density = 21.084542 Si / 1000 Ang^3
#
#
#
# Elastic Constant Matrix: (Units=GPa)
#
#
# Indices 1 2 3 4 5 6 
#
# 1 112.1685 22.2400 34.9687 -2.2372 -17.7499 17.5421
# 2 22.2400 87.7785 30.0866 7.6831 3.0562 18.3650
# 3 34.9687 30.0866 64.1400 0.3692 -29.0355 10.7135
# 4 -2.2372 7.6831 0.3692 27.4625 5.6589 5.8527
# 5 -17.7499 3.0562 -29.0355 5.6589 36.8032 0.9203
# 6 17.5421 18.3650 10.7135 5.8527 0.9203 36.9843
#
#
#
# Elastic Compliance Matrix: (Units=1/GPa)
#
#
# Indices 1 2 3 4 5 6 
#
# 1 0.011392 -0.000800 -0.004219 0.001653 0.002081 -0.004097
# 2 -0.000800 0.016955 -0.011617 -0.001579 -0.010612 -0.004161
# 3 -0.004219 -0.011617 0.036751 -0.002776 0.028430 -0.003145
# 4 0.001653 -0.001579 -0.002776 0.039643 -0.007225 -0.005290
# 5 0.002081 -0.010612 0.028430 -0.007225 0.052700 -0.004121
# 6 -0.004097 -0.004161 -0.003145 -0.005290 -0.004121 0.032898
#
#
# Mechanical properties :
#
#
# Convention : Reuss Voigt Hill
#
# Bulk Modulus (GPa) = 31.42009 48.74196 40.08103
# Shear Modulus (GPa) = 21.34746 32.03613 26.69179
#
# Velocity S-wave (km/s) = 3.18538 3.90219 3.56187
# Velocity P-wave (km/s) = 5.33509 6.59321 5.99723
#
# Compressibility (1/GPa) = 0.03182677
#
# Stress axis : x y z
#
# Youngs Moduli (GPa) = 87.78073 58.97976 27.20992
#
# Poissons Ratio (x) = 0.04720 0.11479
# Poissons Ratio (y) = 0.07025 0.31609
# Poissons Ratio (z) = 0.37032 0.68516
#
# Static dielectric constant tensor:
#      x y z
#    x 4.077600 0.207360 -0.053130 
#    y 0.207360 3.926060 0.175220 
#    z -0.053130 0.175220 4.016510 
# 
# 
# High freq. dielectric constant tensor:
#      x y z
#    x 1.839090 0.012420 -0.000720 
#    y 0.012420 1.821390 0.004940 
#    z -0.000720 0.004940 1.820920 
# 
# From -- ./inp_files/176725.got.cif
#   From: 2010.06.25/outbox.cif.g09.slc.cpg/sg2_89_cif.got.tgz:176725.got - 2010.06.27 13:26:56.
