data_PCOD8014272
_publ_section_title
;
Structure prediction by ZEFSAII (Michael W. Deem and Ramdas Pophale) SiO2 
 PCOD8014272
Probable space group: P -1
;
_chemical_formula_sum "Si O2"
_cell_formula_units_Z 16
_cell_length_a 17.941881
_cell_length_b 13.364987
_cell_length_c 10.753176
_cell_angle_alpha 147.204942
_cell_angle_beta 145.044705
_cell_angle_gamma 34.868705
_cell_volume 724.787674
_symmetry_space_group_name_H-M "P -1"
_symmetry_group_IT_number 2
_symmetry_cell_setting 'triclinic'
loop_
_space_group_symop_operation_xyz
x,y,z
-x,-y,-z
loop_
_atom_site_type_symbol
_atom_site_label
_atom_site_fract_x
_atom_site_fract_y
_atom_site_fract_z
Si Si1 0.332386 0.453265 0.949183
Si Si2 0.413138 0.819808 0.143294
Si Si3 0.291662 0.220751 0.254833
Si Si4 0.073502 0.270468 0.817857
Si Si5 0.184493 0.688565 0.620475
Si Si6 0.214440 0.207123 0.677083
Si Si7 0.947085 0.221616 0.213966
Si Si8 0.422951 0.788989 0.420855
O O1 0.420981 0.299895 0.798287
O O2 0.313974 0.323485 0.903252
O O3 0.173604 0.605991 0.850811
O O4 0.417715 0.582679 0.248313
O O5 0.397007 0.793124 0.239775
O O6 0.355025 0.061581 0.288705
O O7 0.329046 0.721091 0.837227
O O8 0.213449 0.452732 0.437999
O O9 0.423933 0.210642 0.339296
O O10 0.185809 0.151294 0.956641
O O11 0.165752 0.242890 0.790325
O O12 0.937758 0.211849 0.551110
O O13 0.000000 0.500000 0.000000
O O14 0.114254 0.812967 0.776512
O O15 0.076421 0.288643 0.482408
O O16 0.301922 0.969043 0.518922
O O17 0.000000 0.000000 0.000000
#
# Coordination Sequence:
#
# PCOD8014272 Si02
#       8
#     2   2   2   2   2   2   2   2
#     4  12  23  39  62  97 134 167 204 258 321 383
#     4  12  23  38  67 102 128 169 209 251 330 385
#     4  11  23  41  67  91 127 174 213 259 311 376
#     4   9  23  48  66  88 124 171 222 263 310 372
#     4  10  21  41  66  91 127 165 212 264 304 377
#     4  11  24  42  65  94 126 170 215 261 320 374
#     4  11  21  40  60  92 134 167 201 261 323 377
#     4  12  23  39  64 100 136 162 208 258 324 385
#
# _framework density 22.075429
#
# number of rings (size 3 to 8) (size 9 to 14) (size 15 to 20)
#    0.000    1.000    5.000    1.875    1.750    1.000 
#    9.000    3.125    0.000    0.000    0.000    0.000 
#    0.000    0.000    0.000    0.000    0.000    0.000 
#
# Total GULP energy -198267.221551 kJ/mol
# GULP energy per Si atom -12391.701347 kJ/mol
# Density = 2.202518 g / cm^3
# Si number density = 22.075429 Si / 1000 Ang^3
#
#
#
# Elastic Constant Matrix: (Units=GPa)
#
#
# Indices 1 2 3 4 5 6 
#
# 1 77.2293 22.1419 18.0173 15.4511 -8.2235 -24.5767
# 2 22.1419 98.8811 31.4097 7.1504 -10.0577 -18.8095
# 3 18.0173 31.4097 78.1819 0.4379 7.3040 -8.5953
# 4 15.4511 7.1504 0.4379 35.5978 -3.9653 4.6011
# 5 -8.2235 -10.0577 7.3040 -3.9653 38.5969 9.1796
# 6 -24.5767 -18.8095 -8.5953 4.6011 9.1796 32.2650
#
#
#
# Elastic Compliance Matrix: (Units=1/GPa)
#
#
# Indices 1 2 3 4 5 6 
#
# 1 0.021397 0.000310 -0.003077 -0.011562 -0.000088 0.017334
# 2 0.000310 0.013342 -0.004952 -0.003293 0.002614 0.006421
# 3 -0.003077 -0.004952 0.015952 0.001572 -0.004844 0.000173
# 4 -0.011562 -0.003293 0.001572 0.036359 0.004077 -0.016653
# 5 -0.000088 0.002614 -0.004844 0.004077 0.030038 -0.008961
# 6 0.017334 0.006421 0.000173 -0.016653 -0.008961 0.052910
#
#
# Mechanical properties :
#
#
# Convention : Reuss Voigt Hill
#
# Bulk Modulus (GPa) = 28.36499 44.15889 36.26194
# Shear Modulus (GPa) = 25.35672 33.47350 29.41511
#
# Velocity S-wave (km/s) = 3.39284 3.89823 3.65428
# Velocity P-wave (km/s) = 5.31276 6.34891 5.85381
#
# Compressibility (1/GPa) = 0.03525473
#
# Stress axis : x y z
#
# Youngs Moduli (GPa) = 46.73484 74.95150 62.68841
#
# Poissons Ratio (x) = -0.02327 0.19290
# Poissons Ratio (y) = -0.01451 0.31041
# Poissons Ratio (z) = 0.14381 0.37113
#
# Static dielectric constant tensor:
#      x y z
#    x 3.817490 -0.377350 0.307150 
#    y -0.377350 4.253430 -0.389370 
#    z 0.307150 -0.389370 4.735040 
# 
# 
# High freq. dielectric constant tensor:
#      x y z
#    x 1.842830 -0.034400 0.013990 
#    y -0.034400 1.870780 0.000240 
#    z 0.013990 0.000240 1.880100 
# 
# From -- ./inp_files/433480.got.cif
#   From: 2010.06.25/outbox.cif.g09.slc.cpg/sg2_217_cif.got.tgz:433480.got - 2010.06.27 13:26:56.
