data_PCOD8014680
_publ_section_title
;
Structure prediction by ZEFSAII (Michael W. Deem and Ramdas Pophale) SiO2 
 PCOD8014680
Probable space group: P -1
;
_chemical_formula_sum "Si O2"
_cell_formula_units_Z 16
_cell_length_a 13.857365
_cell_length_b 27.023107
_cell_length_c 9.285016
_cell_angle_alpha 140.951669
_cell_angle_beta 130.313599
_cell_angle_gamma 20.914587
_cell_volume 732.765476
_symmetry_space_group_name_H-M "P -1"
_symmetry_group_IT_number 2
_symmetry_cell_setting 'triclinic'
loop_
_space_group_symop_operation_xyz
x,y,z
-x,-y,-z
loop_
_atom_site_type_symbol
_atom_site_label
_atom_site_fract_x
_atom_site_fract_y
_atom_site_fract_z
Si Si1 0.102708 0.274854 0.767285
Si Si2 0.355949 0.460604 0.852449
Si Si3 0.345705 0.300796 0.390772
Si Si4 0.168520 0.077494 0.501089
Si Si5 0.538667 0.774234 0.995713
Si Si6 0.436098 0.115326 0.281798
Si Si7 0.827868 0.449095 0.608343
Si Si8 0.491241 0.471419 0.733652
O O1 0.262280 0.102050 0.551622
O O2 0.292883 0.241784 0.826194
O O3 0.860601 0.402716 0.698873
O O4 0.956997 0.376516 0.009407
O O5 0.486502 0.301377 0.595800
O O6 0.303230 0.530716 0.805586
O O7 0.555176 0.408030 0.023415
O O8 0.442751 0.176864 0.304634
O O9 0.000000 0.500000 0.500000
O O10 0.490289 0.210578 0.169633
O O11 0.827176 0.266738 0.624330
O O12 0.240305 0.957596 0.208127
O O13 0.322908 0.996066 0.620633
O O14 0.688154 0.613193 0.836154
O O15 0.128782 0.281639 0.437385
O O16 0.500000 0.000000 0.000000
O O17 0.612633 0.503035 0.460972
#
# Coordination Sequence:
#
# PCOD8014680 Si02
#       8
#     2   2   2   2   2   2   2   2
#     4  11  23  41  71  99 131 177 225 282 330 397
#     4  10  21  41  70  91 130 177 229 266 324 402
#     4  12  22  41  71 102 130 176 231 275 334 396
#     4  11  27  44  65 100 143 176 216 282 345 386
#     4  12  23  41  69 101 139 169 221 289 334 392
#     4  12  27  42  70 105 136 172 227 287 332 392
#     4  12  25  43  71 100 131 184 228 265 340 407
#     4  10  24  46  69  94 138 185 222 272 334 406
#
# _framework density 21.835092
#
# number of rings (size 3 to 8) (size 9 to 14) (size 15 to 20)
#    0.000    0.750    5.000    1.500   10.500    2.500 
#    0.000    1.875    2.750    0.000    0.000    0.000 
#    0.000    0.000    0.000    0.000    0.000    0.000 
#
# Total GULP energy -198338.593965 kJ/mol
# GULP energy per Si atom -12396.162123 kJ/mol
# Density = 2.178539 g / cm^3
# Si number density = 21.835092 Si / 1000 Ang^3
#
#
#
# Elastic Constant Matrix: (Units=GPa)
#
#
# Indices 1 2 3 4 5 6 
#
# 1 61.8954 26.2684 46.2726 2.8626 15.8631 26.9139
# 2 26.2684 115.9648 62.1820 -11.0961 10.8672 22.7400
# 3 46.2726 62.1820 181.2749 -8.7148 14.6701 14.6454
# 4 2.8626 -11.0961 -8.7148 18.0597 -1.6984 4.0912
# 5 15.8631 10.8672 14.6701 -1.6984 47.5127 3.2957
# 6 26.9139 22.7400 14.6454 4.0912 3.2957 37.8356
#
#
#
# Elastic Compliance Matrix: (Units=1/GPa)
#
#
# Indices 1 2 3 4 5 6 
#
# 1 0.030690 0.000195 -0.006011 -0.004132 -0.007297 -0.018539
# 2 0.000195 0.012607 -0.003338 0.007615 -0.001150 -0.007147
# 3 -0.006011 -0.003338 0.008050 0.002140 0.000159 0.002921
# 4 -0.004132 0.007615 0.002140 0.064087 0.001931 -0.009564
# 5 -0.007297 -0.001150 0.000159 0.001931 0.023519 0.003563
# 6 -0.018539 -0.007147 0.002921 -0.009564 0.003563 0.043506
#
#
# Mechanical properties :
#
#
# Convention : Reuss Voigt Hill
#
# Bulk Modulus (GPa) = 30.26715 69.84232 50.05473
# Shear Modulus (GPa) = 23.60952 35.64241 29.62597
#
# Velocity S-wave (km/s) = 3.29183 4.04461 3.68748
# Velocity P-wave (km/s) = 5.32353 7.33945 6.41122
#
# Compressibility (1/GPa) = 0.03303912
#
# Stress axis : x y z
#
# Youngs Moduli (GPa) = 32.58402 79.32284 124.22541
#
# Poissons Ratio (x) = -0.01549 0.74675
# Poissons Ratio (y) = -0.00636 0.41462
# Poissons Ratio (z) = 0.19587 0.26475
#
# Static dielectric constant tensor:
#      x y z
#    x 4.026670 0.050510 0.081970 
#    y 0.050510 3.733580 -0.133570 
#    z 0.081970 -0.133570 4.371330 
# 
# 
# High freq. dielectric constant tensor:
#      x y z
#    x 1.863150 0.005750 -0.001170 
#    y 0.005750 1.830780 -0.012200 
#    z -0.001170 -0.012200 1.885610 
# 
# From -- ./inp_files/320760.got.cif
#   From: 2010.06.25/outbox.cif.g09.slc.cpg/sg2_161_cif.got.tgz:320760.got - 2010.06.27 13:26:56.
