data_PCOD8014764
_publ_section_title
;
Structure prediction by ZEFSAII (Michael W. Deem and Ramdas Pophale) SiO2 
 PCOD8014764
Probable space group: P -1
;
_chemical_formula_sum "Si O2"
_cell_formula_units_Z 8
_cell_length_a 7.617822
_cell_length_b 7.452530
_cell_length_c 9.584875
_cell_angle_alpha 72.275110
_cell_angle_beta 90.261854
_cell_angle_gamma 40.719955
_cell_volume 312.951285
_symmetry_space_group_name_H-M "P -1"
_symmetry_group_IT_number 2
_symmetry_cell_setting 'triclinic'
loop_
_space_group_symop_operation_xyz
x,y,z
-x,-y,-z
loop_
_atom_site_type_symbol
_atom_site_label
_atom_site_fract_x
_atom_site_fract_y
_atom_site_fract_z
Si Si1 0.838692 0.747194 0.063722
Si Si2 0.387366 0.696954 0.815193
Si Si3 0.224037 0.889328 0.208805
Si Si4 0.639859 0.856612 0.683476
O O1 0.029098 0.511428 0.252150
O O2 0.000000 0.500000 0.000000
O O3 0.500000 0.000000 0.000000
O O4 0.882739 0.932502 0.985705
O O5 0.531347 0.477561 0.730856
O O6 0.459057 0.859002 0.776882
O O7 0.500000 0.500000 0.000000
O O8 0.040105 0.972558 0.737679
O O9 0.367321 0.938599 0.284571
O O10 0.500000 0.000000 0.500000
#
# Coordination Sequence:
#
# PCOD8014764 Si02
#       4
#     2   2   2   2
#     4  10  21  41  72 101 135 190 241 289 350 430
#     4  12  26  45  78 109 140 197 256 296 364 446
#     4  11  25  46  75 106 147 189 255 304 350 446
#     4  11  27  48  75 113 154 194 240 311 383 430
#
# _framework density 25.563085000000001
#
# number of rings (size 3 to 8) (size 9 to 14) (size 15 to 20)
#    0.000    1.000    2.500    3.750    3.500    4.000 
#    0.000   17.500    0.000    0.000    0.000    0.000 
#    0.000    0.000    0.000    0.000    0.000    0.000 
#
# Total GULP energy -99131.506890 kJ/mol
# GULP energy per Si atom -12391.438361 kJ/mol
# Density = 2.550490 g / cm^3
# Si number density = 25.563085 Si / 1000 Ang^3
#
#
#
# Elastic Constant Matrix: (Units=GPa)
#
#
# Indices 1 2 3 4 5 6 
#
# 1 205.3286 96.2309 36.2171 3.1100 -2.0082 -17.9311
# 2 96.2309 202.5727 24.0107 -6.2412 18.0491 -21.6394
# 3 36.2171 24.0107 134.6981 -20.2125 13.2039 -16.1822
# 4 3.1100 -6.2412 -20.2125 24.7119 -5.4116 6.5196
# 5 -2.0082 18.0491 13.2039 -5.4116 27.9573 6.0213
# 6 -17.9311 -21.6394 -16.1822 6.5196 6.0213 60.3610
#
#
#
# Elastic Compliance Matrix: (Units=1/GPa)
#
#
# Indices 1 2 3 4 5 6 
#
# 1 0.006877 -0.003354 -0.001910 -0.002711 0.002966 0.000326
# 2 -0.003354 0.007211 0.000551 0.000926 -0.005447 0.002180
# 3 -0.001910 0.000551 0.009472 0.006752 -0.004057 0.001845
# 4 -0.002711 0.000926 0.006752 0.049219 0.006543 -0.004632
# 5 0.002966 -0.005447 -0.004057 0.006543 0.044249 -0.007280
# 6 0.000326 0.002180 0.001845 -0.004632 -0.007280 0.019166
#
#
# Mechanical properties :
#
#
# Convention : Reuss Voigt Hill
#
# Bulk Modulus (GPa) = 70.74445 95.05743 82.90094
# Shear Modulus (GPa) = 33.26001 48.34875 40.80438
#
# Velocity S-wave (km/s) = 3.61098 4.35368 3.99961
# Velocity P-wave (km/s) = 6.71715 7.90815 7.33686
#
# Compressibility (1/GPa) = 0.01413538
#
# Stress axis : x y z
#
# Youngs Moduli (GPa) = 145.40378 138.67587 105.57743
#
# Poissons Ratio (x) = 0.46508 0.20163
# Poissons Ratio (y) = 0.48765 -0.05819
# Poissons Ratio (z) = 0.27769 -0.07643
#
# Static dielectric constant tensor:
#      x y z
#    x 5.102320 -0.094240 -0.009990 
#    y -0.094240 5.793310 -0.473210 
#    z -0.009990 -0.473210 4.774000 
# 
# 
# High freq. dielectric constant tensor:
#      x y z
#    x 2.045880 0.004920 0.002950 
#    y 0.004920 2.046710 -0.002030 
#    z 0.002950 -0.002030 1.972300 
# 
# From -- ./inp_files/15425.got.cif
#   From: 2010.06.25/outbox.cif.g09.slc.cpg/sg2_8_cif.got.tgz:15425.got - 2010.06.27 13:26:56.
