data_PCOD8014619
_publ_section_title
;
Structure prediction by ZEFSAII (Michael W. Deem and Ramdas Pophale) SiO2 
 PCOD8014619
Probable space group: P -1
;
_chemical_formula_sum "Si O2"
_cell_formula_units_Z 16
_cell_length_a 18.403000
_cell_length_b 9.688224
_cell_length_c 9.367527
_cell_angle_alpha 95.412598
_cell_angle_beta 96.245902
_cell_angle_gamma 27.414473
_cell_volume 764.407404
_symmetry_space_group_name_H-M "P -1"
_symmetry_group_IT_number 2
_symmetry_cell_setting 'triclinic'
loop_
_space_group_symop_operation_xyz
x,y,z
-x,-y,-z
loop_
_atom_site_type_symbol
_atom_site_label
_atom_site_fract_x
_atom_site_fract_y
_atom_site_fract_z
Si Si1 0.307523 0.059277 0.174785
Si Si2 0.388505 0.593230 0.888806
Si Si3 0.783164 0.866128 0.145683
Si Si4 0.190631 0.694289 0.001711
Si Si5 0.048483 0.493177 0.365094
Si Si6 0.700425 0.714527 0.234435
Si Si7 0.886139 0.322694 0.511069
Si Si8 0.660946 0.686131 0.746076
O O1 0.227747 0.155595 0.320572
O O2 0.285035 0.260550 0.165665
O O3 0.493954 0.709841 0.196834
O O4 0.222979 0.127793 0.027807
O O5 0.248811 0.743496 0.954923
O O6 0.305689 0.843779 0.791103
O O7 0.500000 0.500000 0.000000
O O8 0.703964 0.865576 0.196389
O O9 0.957622 0.588177 0.217063
O O10 0.266229 0.443610 0.903294
O O11 0.270398 0.550247 0.160695
O O12 0.000000 0.000000 0.000000
O O13 0.022632 0.701283 0.400124
O O14 0.000000 0.500000 0.500000
O O15 0.831060 0.461948 0.356582
O O16 0.525600 0.995189 0.285476
O O17 0.733229 0.539395 0.591308
O O18 0.000000 0.000000 0.500000
#
# Coordination Sequence:
#
# PCOD8014619 Si02
#       8
#     2   2   2   2   2   2   2   2
#     4  10  21  41  69  94 127 174 213 269 327 393
#     4  10  23  42  64 101 139 165 219 278 334 394
#     4  11  23  41  67  98 130 170 212 273 333 392
#     4  12  25  40  69 104 133 172 227 280 331 394
#     4  11  24  44  64  91 133 172 219 265 329 399
#     4  12  23  43  68  94 133 176 223 269 331 402
#     4  11  26  45  64  94 132 173 223 277 330 390
#     4  11  22  42  70  93 130 175 222 269 330 393
#
# _framework density 20.931246000000002
#
# number of rings (size 3 to 8) (size 9 to 14) (size 15 to 20)
#    0.000    1.000    3.750    3.375    5.250    2.000 
#    6.750    0.625    0.000    0.000    0.000    0.000 
#    0.000    0.000    0.000    0.000    0.000    0.000 
#
# Total GULP energy -198296.898287 kJ/mol
# GULP energy per Si atom -12393.556143 kJ/mol
# Density = 2.088361 g / cm^3
# Si number density = 20.931246 Si / 1000 Ang^3
#
#
#
# Elastic Constant Matrix: (Units=GPa)
#
#
# Indices 1 2 3 4 5 6 
#
# 1 127.2301 54.4658 36.3730 10.0376 -18.1747 -1.3998
# 2 54.4658 124.4517 32.8068 13.9437 -21.6564 3.3162
# 3 36.3730 32.8068 81.1389 5.3138 -19.6977 5.7752
# 4 10.0376 13.9437 5.3138 33.6970 -3.9382 -6.0007
# 5 -18.1747 -21.6564 -19.6977 -3.9382 33.4943 -4.1289
# 6 -1.3998 3.3162 5.7752 -6.0007 -4.1289 38.1210
#
#
#
# Elastic Compliance Matrix: (Units=1/GPa)
#
#
# Indices 1 2 3 4 5 6 
#
# 1 0.010506 -0.003458 -0.002904 -0.000817 0.001808 0.001194
# 2 -0.003458 0.011018 -0.001732 -0.002972 0.003771 -0.000883
# 3 -0.002904 -0.001732 0.016056 -0.000509 0.006469 -0.001768
# 4 -0.000817 -0.002972 -0.000509 0.032445 0.001842 0.005612
# 5 0.001808 0.003771 0.006469 0.001842 0.037682 0.003130
# 6 0.001194 -0.000883 -0.001768 0.005612 0.003130 0.027843
#
#
# Mechanical properties :
#
#
# Convention : Reuss Voigt Hill
#
# Bulk Modulus (GPa) = 46.74526 64.45689 55.60108
# Shear Modulus (GPa) = 31.47253 35.00746 33.24000
#
# Velocity S-wave (km/s) = 3.88185 4.09406 3.98937
# Velocity P-wave (km/s) = 6.51713 7.29451 6.91675
#
# Compressibility (1/GPa) = 0.02139254
#
# Stress axis : x y z
#
# Youngs Moduli (GPa) = 95.18139 90.76141 62.28107
#
# Poissons Ratio (x) = 0.31386 0.18087
# Poissons Ratio (y) = 0.32915 0.10786
# Poissons Ratio (z) = 0.27641 0.15718
#
# Static dielectric constant tensor:
#      x y z
#    x 4.112760 0.152880 -0.086500 
#    y 0.152880 4.379460 0.007060 
#    z -0.086500 0.007060 3.684450 
# 
# 
# High freq. dielectric constant tensor:
#      x y z
#    x 1.831720 0.000880 -0.003860 
#    y 0.000880 1.825510 0.004240 
#    z -0.003860 0.004240 1.805770 
# 
# From -- ./inp_files/223609.got.cif
#   From: 2010.06.25/outbox.cif.g09.slc.cpg/sg2_112_cif.got.tgz:223609.got - 2010.06.27 13:26:56.
