data_PCOD8014132
_publ_section_title
;
Structure prediction by ZEFSAII (Michael W. Deem and Ramdas Pophale) SiO2 
 PCOD8014132
Probable space group: P -1
;
_chemical_formula_sum "Si O2"
_cell_formula_units_Z 16
_cell_length_a 8.718202
_cell_length_b 14.693101
_cell_length_c 20.032090
_cell_angle_alpha 22.116248
_cell_angle_beta 130.400778
_cell_angle_gamma 126.151901
_cell_volume 735.209562
_symmetry_space_group_name_H-M "P -1"
_symmetry_group_IT_number 2
_symmetry_cell_setting 'triclinic'
loop_
_space_group_symop_operation_xyz
x,y,z
-x,-y,-z
loop_
_atom_site_type_symbol
_atom_site_label
_atom_site_fract_x
_atom_site_fract_y
_atom_site_fract_z
Si Si1 0.713831 0.467108 0.549219
Si Si2 0.745454 0.918928 0.891205
Si Si3 0.184196 0.828745 0.576444
Si Si4 0.534965 0.713454 0.211378
Si Si5 0.574544 0.541576 0.194378
Si Si6 0.891532 0.447581 0.748949
Si Si7 0.812253 0.673425 0.819774
Si Si8 0.551443 0.762273 0.812215
O O1 0.500000 0.500000 0.500000
O O2 0.706875 0.647906 0.360432
O O3 0.876692 0.521525 0.615597
O O4 0.766563 0.194435 0.728401
O O5 0.633499 0.920434 0.787679
O O6 0.605939 0.786037 0.995388
O O7 0.968569 0.793755 0.036882
O O8 0.284188 0.675227 0.647736
O O9 0.346882 0.881960 0.643377
O O10 0.000640 0.675580 0.658672
O O11 0.104533 0.088032 0.353198
O O12 0.621827 0.596744 0.247141
O O13 0.324666 0.592095 0.252732
O O14 0.500000 0.000000 0.000000
O O15 0.345003 0.464525 0.176585
O O16 0.722158 0.747924 0.814643
O O17 0.000000 0.500000 0.000000
O O18 0.500000 0.500000 0.000000
#
# Coordination Sequence:
#
# PCOD8014132 Si02
#       8
#     2   2   2   2   2   2   2   2
#     4  10  23  41  64  93 126 169 213 262 325 380
#     4  11  22  41  72  93 129 174 213 266 316 392
#     4  10  23  43  66  92 134 172 214 261 316 396
#     4  11  25  43  66  95 129 167 216 273 327 383
#     4  10  21  41  65  90 131 172 211 266 324 368
#     4  10  22  45  66  94 130 166 219 266 322 384
#     4  11  25  39  63  97 137 168 214 269 313 382
#     4  11  20  43  67  97 129 175 215 253 329 384
#
# _framework density 21.762502999999999
#
# number of rings (size 3 to 8) (size 9 to 14) (size 15 to 20)
#    0.000    1.500    3.750    3.375    5.250    4.000 
#    0.000    4.375    0.000    0.000    0.000    0.000 
#    0.000    0.000    0.000    0.000    0.000    0.000 
#
# Total GULP energy -198369.666816 kJ/mol
# GULP energy per Si atom -12398.104176 kJ/mol
# Density = 2.171297 g / cm^3
# Si number density = 21.762503 Si / 1000 Ang^3
#
#
#
# Elastic Constant Matrix: (Units=GPa)
#
#
# Indices 1 2 3 4 5 6 
#
# 1 43.2381 25.5616 13.0205 10.7886 -13.7348 1.9561
# 2 25.5616 96.5044 16.1317 30.3334 -0.6636 -10.7900
# 3 13.0205 16.1317 141.2447 18.2286 -3.4441 6.4183
# 4 10.7886 30.3334 18.2286 27.0347 2.0236 -10.1218
# 5 -13.7348 -0.6636 -3.4441 2.0236 23.5391 6.1252
# 6 1.9561 -10.7900 6.4183 -10.1218 6.1252 39.0916
#
#
#
# Elastic Compliance Matrix: (Units=1/GPa)
#
#
# Indices 1 2 3 4 5 6 
#
# 1 0.040495 -0.007281 0.000257 -0.014862 0.027940 -0.012304
# 2 -0.007281 0.017494 0.000694 -0.016554 -0.002541 0.001191
# 3 0.000257 0.000694 0.008265 -0.008086 0.003050 -0.003750
# 4 -0.014862 -0.016554 -0.008086 0.076394 -0.022295 0.020776
# 5 0.027940 -0.002541 0.003050 -0.022295 0.065944 -0.018706
# 6 -0.012304 0.001191 -0.003750 0.020776 -0.018706 0.035451
#
#
# Mechanical properties :
#
#
# Convention : Reuss Voigt Hill
#
# Bulk Modulus (GPa) = 18.65907 43.37940 31.01923
# Shear Modulus (GPa) = 18.21030 33.01798 25.61414
#
# Velocity S-wave (km/s) = 2.89584 3.89935 3.43444
# Velocity P-wave (km/s) = 4.44677 6.34425 5.47829
#
# Compressibility (1/GPa) = 0.05359325
#
# Stress axis : x y z
#
# Youngs Moduli (GPa) = 24.69419 57.16233 120.98712
#
# Poissons Ratio (x) = 0.41622 -0.03110
# Poissons Ratio (y) = 0.17981 -0.08392
# Poissons Ratio (z) = -0.00635 -0.03965
#
# Static dielectric constant tensor:
#      x y z
#    x 3.409300 0.648480 0.155810 
#    y 0.648480 3.511090 -0.227490 
#    z 0.155810 -0.227490 3.750920 
# 
# 
# High freq. dielectric constant tensor:
#      x y z
#    x 1.843360 -0.002660 -0.004490 
#    y -0.002660 1.864130 0.008160 
#    z -0.004490 0.008160 1.860980 
# 
# From -- ./inp_files/222645.got.cif
#   From: 2010.06.25/outbox.cif.g09.slc.cpg/sg2_112_cif.got.tgz:222645.got - 2010.06.27 13:26:56.
