data_PCOD8014027
_publ_section_title
;
Structure prediction by ZEFSAII (Michael W. Deem and Ramdas Pophale) SiO2 
 PCOD8014027
Probable space group: P -1
;
_chemical_formula_sum "Si O2"
_cell_formula_units_Z 14
_cell_length_a 11.629998
_cell_length_b 11.991740
_cell_length_c 14.774775
_cell_angle_alpha 29.686625
_cell_angle_beta 47.191658
_cell_angle_gamma 36.839855
_cell_volume 611.012629
_symmetry_space_group_name_H-M "P -1"
_symmetry_group_IT_number 2
_symmetry_cell_setting 'triclinic'
loop_
_space_group_symop_operation_xyz
x,y,z
-x,-y,-z
loop_
_atom_site_type_symbol
_atom_site_label
_atom_site_fract_x
_atom_site_fract_y
_atom_site_fract_z
Si Si1 0.683626 0.306485 0.214428
Si Si2 0.558374 0.828383 0.198562
Si Si3 0.381774 0.756508 0.182532
Si Si4 0.165794 0.220498 0.378991
Si Si5 0.784856 0.537867 0.455017
Si Si6 0.847821 0.631563 0.909404
Si Si7 0.448340 0.937554 0.666978
O O1 0.481295 0.566748 0.175393
O O2 0.647284 0.221771 0.194969
O O3 0.762683 0.079668 0.412033
O O4 0.828623 0.388349 0.060679
O O5 0.538736 0.661128 0.246878
O O6 0.644881 0.637965 0.373495
O O7 0.347640 0.101565 0.137100
O O8 0.694467 0.928883 0.024916
O O9 0.213193 0.720813 0.325360
O O10 0.084655 0.279459 0.277783
O O11 0.348207 0.242983 0.261340
O O12 0.998043 0.438531 0.383374
O O13 0.707825 0.783483 0.393979
O O14 0.000000 0.500000 0.000000
O O15 0.500000 0.000000 0.500000
#
# Coordination Sequence:
#
# PCOD8014027 Si02
#       7
#     2   2   2   2   2   2   2
#     4  10  23  45  70  93 134 180 216 276 334 379
#     4  10  23  41  64  93 137 175 221 271 330 395
#     4  10  21  41  64  93 127 179 215 269 333 385
#     4  11  25  41  68 102 131 172 225 269 328 397
#     4  12  23  41  68  98 133 174 218 275 333 388
#     4  11  25  44  66  98 138 174 222 274 329 397
#     4  10  21  47  67  95 136 172 228 267 326 398
#
# _framework density 22.912783000000001
#
# number of rings (size 3 to 8) (size 9 to 14) (size 15 to 20)
#    0.000    1.429    4.286    0.429    8.000    3.429 
#    0.000    0.714    0.000    0.000    0.000    0.000 
#    0.000    0.000    0.000    0.000    0.000    0.000 
#
# Total GULP energy -173502.095966 kJ/mol
# GULP energy per Si atom -12393.006855 kJ/mol
# Density = 2.286063 g / cm^3
# Si number density = 22.912783 Si / 1000 Ang^3
#
#
#
# Elastic Constant Matrix: (Units=GPa)
#
#
# Indices 1 2 3 4 5 6 
#
# 1 73.3473 29.0434 27.2800 -4.4265 -13.5989 3.6775
# 2 29.0434 94.5968 19.5553 8.2830 -17.0861 1.0452
# 3 27.2800 19.5553 76.9242 8.4896 -8.7359 -4.9463
# 4 -4.4265 8.2830 8.4896 24.8447 5.1388 1.1832
# 5 -13.5989 -17.0861 -8.7359 5.1388 41.4519 -1.2887
# 6 3.6775 1.0452 -4.9463 1.1832 -1.2887 37.1011
#
#
#
# Elastic Compliance Matrix: (Units=1/GPa)
#
#
# Indices 1 2 3 4 5 6 
#
# 1 0.018662 -0.004659 -0.006116 0.006682 0.002001 -0.002677
# 2 -0.004659 0.013494 -0.000545 -0.006130 0.004690 0.000367
# 3 -0.006116 -0.000545 0.016556 -0.007179 0.002245 0.003136
# 4 0.006682 -0.006130 -0.007179 0.047719 -0.007864 -0.003242
# 5 0.002001 0.004690 0.002245 -0.007864 0.028200 0.001199
# 6 -0.002677 0.000367 0.003136 -0.003242 0.001199 0.027772
#
#
# Mechanical properties :
#
#
# Convention : Reuss Voigt Hill
#
# Bulk Modulus (GPa) = 38.35638 44.06954 41.21296
# Shear Modulus (GPa) = 27.21325 31.94549 29.57937
#
# Velocity S-wave (km/s) = 3.45002 3.73798 3.59688
# Velocity P-wave (km/s) = 5.71373 6.15673 5.93936
#
# Compressibility (1/GPa) = 0.02607128
#
# Stress axis : x y z
#
# Youngs Moduli (GPa) = 53.58477 74.10549 60.39986
#
# Poissons Ratio (x) = 0.34528 0.36941
# Poissons Ratio (y) = 0.24967 0.03293
# Poissons Ratio (z) = 0.32773 0.04041
#
# Static dielectric constant tensor:
#      x y z
#    x 4.908190 0.230620 -0.155020 
#    y 0.230620 4.198130 0.030420 
#    z -0.155020 0.030420 4.310020 
# 
# 
# High freq. dielectric constant tensor:
#      x y z
#    x 1.894530 0.014520 0.000250 
#    y 0.014520 1.901050 0.009580 
#    z 0.000250 0.009580 1.904060 
# 
# From -- ./inp_files/514149.got.cif
#   From: 2010.06.25/outbox.cif.g09.slc.cpg/sg2_258_cif.got.tgz:514149.got - 2010.06.27 13:26:56.
