data_PCOD8014406
_publ_section_title
;
Structure prediction by ZEFSAII (Michael W. Deem and Ramdas Pophale) SiO2 
 PCOD8014406
Probable space group: P -1
;
_chemical_formula_sum "Si O2"
_cell_formula_units_Z 16
_cell_length_a 10.418374
_cell_length_b 8.711383
_cell_length_c 12.553745
_cell_angle_alpha 76.264237
_cell_angle_beta 43.930369
_cell_angle_gamma 75.150655
_cell_volume 761.690114
_symmetry_space_group_name_H-M "P -1"
_symmetry_group_IT_number 2
_symmetry_cell_setting 'triclinic'
loop_
_space_group_symop_operation_xyz
x,y,z
-x,-y,-z
loop_
_atom_site_type_symbol
_atom_site_label
_atom_site_fract_x
_atom_site_fract_y
_atom_site_fract_z
Si Si1 0.107705 0.305270 0.671573
Si Si2 0.754624 0.973730 0.212760
Si Si3 0.988772 0.655558 0.736597
Si Si4 0.097110 0.113497 0.077478
Si Si5 0.390765 0.163384 0.357765
Si Si6 0.575862 0.664768 0.900012
Si Si7 0.179985 0.889188 0.442386
Si Si8 0.760845 0.168508 0.818689
O O1 0.213314 0.187163 0.713379
O O2 0.101831 0.480110 0.695338
O O3 0.230784 0.275959 0.496809
O O4 0.893688 0.283983 0.776477
O O5 0.567416 0.090445 0.335299
O O6 0.744429 0.920256 0.102621
O O7 0.914960 0.079340 0.128669
O O8 0.131889 0.763882 0.580028
O O9 0.942549 0.708588 0.878556
O O10 0.794838 0.662633 0.788469
O O11 0.151062 0.008139 0.168588
O O12 0.460443 0.281040 0.208796
O O13 0.323019 0.002069 0.381470
O O14 0.500000 0.500000 0.000000
O O15 0.452830 0.797808 0.021670
O O16 0.252547 0.802094 0.304432
O O17 0.000000 0.000000 0.500000
#
# Coordination Sequence:
#
# PCOD8014406 Si02
#       8
#     2   2   2   2   2   2   2   2
#     4  11  24  42  64  90 134 172 208 264 322 372
#     4  10  23  43  68  91 119 175 225 262 305 374
#     4  12  25  42  64  99 132 168 208 266 329 375
#     4  10  21  41  67  92 125 168 220 265 311 375
#     4  12  24  44  68  96 127 170 220 257 313 390
#     4  12  25  38  66 102 133 163 208 267 325 385
#     4  12  22  40  66  96 129 170 209 257 320 386
#     4  11  21  40  63  95 130 168 213 258 320 382
#
# _framework density 21.00592
#
# number of rings (size 3 to 8) (size 9 to 14) (size 15 to 20)
#    0.000    0.750    6.250    1.125    3.500    2.500 
#    0.000    2.500    0.000    0.000    0.000    0.000 
#    0.000    0.000    0.000    0.000    0.000    0.000 
#
# Total GULP energy -198319.406107 kJ/mol
# GULP energy per Si atom -12394.962882 kJ/mol
# Density = 2.095811 g / cm^3
# Si number density = 21.005920 Si / 1000 Ang^3
#
#
#
# Elastic Constant Matrix: (Units=GPa)
#
#
# Indices 1 2 3 4 5 6 
#
# 1 57.1349 29.0022 17.6101 10.6485 -1.3888 -3.5503
# 2 29.0022 119.1610 32.3469 6.8297 0.5607 6.6725
# 3 17.6101 32.3469 95.3035 6.7499 3.0062 -0.0351
# 4 10.6485 6.8297 6.7499 33.9448 5.7781 -5.0093
# 5 -1.3888 0.5607 3.0062 5.7781 29.2400 12.9318
# 6 -3.5503 6.6725 -0.0351 -5.0093 12.9318 22.3635
#
#
#
# Elastic Compliance Matrix: (Units=1/GPa)
#
#
# Indices 1 2 3 4 5 6 
#
# 1 0.021655 -0.004577 -0.002112 -0.005171 0.001000 0.003064
# 2 -0.004577 0.010651 -0.002753 -0.001483 0.002728 -0.005818
# 3 -0.002112 -0.002753 0.011919 -0.000654 -0.001750 0.001370
# 4 -0.005171 -0.001483 -0.000654 0.036353 -0.014467 0.016129
# 5 0.001000 0.002728 -0.001750 -0.014467 0.052344 -0.034167
# 6 0.003064 -0.005818 0.001370 0.016129 -0.034167 0.070310
#
#
# Mechanical properties :
#
#
# Convention : Reuss Voigt Hill
#
# Bulk Modulus (GPa) = 39.46007 47.72421 43.59214
# Shear Modulus (GPa) = 21.68601 29.95235 25.81918
#
# Velocity S-wave (km/s) = 3.21655 3.78021 3.50971
# Velocity P-wave (km/s) = 5.71147 6.46699 6.10094
#
# Compressibility (1/GPa) = 0.02534208
#
# Stress axis : x y z
#
# Youngs Moduli (GPa) = 46.17836 93.88653 83.89756
#
# Poissons Ratio (x) = 0.42973 0.17720
# Poissons Ratio (y) = 0.21137 0.23093
# Poissons Ratio (z) = 0.09753 0.25842
#
# Static dielectric constant tensor:
#      x y z
#    x 3.514210 -0.048030 -0.146330 
#    y -0.048030 3.736060 0.182050 
#    z -0.146330 0.182050 3.112060 
# 
# 
# High freq. dielectric constant tensor:
#      x y z
#    x 1.812810 -0.003270 -0.001080 
#    y -0.003270 1.814360 0.011520 
#    z -0.001080 0.011520 1.837280 
# 
# From -- ./inp_files/205934.got.cif
#   From: 2010.06.25/outbox.cif.g09.slc.cpg/sg2_103_cif.got.tgz:205934.got - 2010.06.27 13:26:56.
