data_PCOD8014366
_publ_section_title
;
Structure prediction by ZEFSAII (Michael W. Deem and Ramdas Pophale) SiO2 
 PCOD8014366
Probable space group: P -1
;
_chemical_formula_sum "Si O2"
_cell_formula_units_Z 16
_cell_length_a 11.305393
_cell_length_b 14.335996
_cell_length_c 14.060651
_cell_angle_alpha 31.070428
_cell_angle_beta 118.762483
_cell_angle_gamma 136.913313
_cell_volume 732.953080
_symmetry_space_group_name_H-M "P -1"
_symmetry_group_IT_number 2
_symmetry_cell_setting 'triclinic'
loop_
_space_group_symop_operation_xyz
x,y,z
-x,-y,-z
loop_
_atom_site_type_symbol
_atom_site_label
_atom_site_fract_x
_atom_site_fract_y
_atom_site_fract_z
Si Si1 0.927255 0.975219 0.771153
Si Si2 0.182398 0.209523 0.322018
Si Si3 0.929049 0.658955 0.180640
Si Si4 0.428069 0.549726 0.680128
Si Si5 0.872807 0.497230 0.673573
Si Si6 0.445699 0.868007 0.265534
Si Si7 0.169014 0.581781 0.057582
Si Si8 0.251419 0.028648 0.121100
O O1 0.763171 0.912395 0.828016
O O2 0.095620 0.277619 0.557899
O O3 0.847701 0.844421 0.753354
O O4 0.004234 0.866399 0.946719
O O5 0.351977 0.233763 0.393535
O O6 0.250030 0.480002 0.126620
O O7 0.000000 0.000000 0.500000
O O8 0.704712 0.474790 0.271980
O O9 0.966942 0.489793 0.312653
O O10 0.038239 0.807586 0.190973
O O11 0.412756 0.639651 0.496110
O O12 0.362662 0.279842 0.879468
O O13 0.663362 0.231197 0.791979
O O14 0.902666 0.543375 0.757004
O O15 0.357053 0.936783 0.240272
O O16 0.669160 0.115803 0.126540
O O17 0.000000 0.500000 0.000000
#
# Coordination Sequence:
#
# PCOD8014366 Si02
#       8
#     2   2   2   2   2   2   2   2
#     4  11  22  40  67  96 131 177 212 272 330 386
#     4  12  25  45  64  91 136 178 225 268 324 394
#     4  10  22  40  68 103 132 166 215 276 337 390
#     4  11  22  41  65  96 134 171 213 271 330 390
#     4  11  23  43  69  99 131 173 225 272 326 395
#     4  11  23  42  69  99 131 175 219 275 333 387
#     4  12  25  46  67  92 136 181 222 276 326 388
#     4  10  21  41  67 101 135 165 216 276 331 395
#
# _framework density 21.829501
#
# number of rings (size 3 to 8) (size 9 to 14) (size 15 to 20)
#    0.000    1.000    2.500    5.625    0.000    4.000 
#    2.250    1.875    0.000    0.000    0.000    0.000 
#    0.000    0.000    0.000    0.000    0.000    0.000 
#
# Total GULP energy -198390.257163 kJ/mol
# GULP energy per Si atom -12399.391073 kJ/mol
# Density = 2.177982 g / cm^3
# Si number density = 21.829501 Si / 1000 Ang^3
#
#
#
# Elastic Constant Matrix: (Units=GPa)
#
#
# Indices 1 2 3 4 5 6 
#
# 1 86.6556 61.0515 22.1042 -0.1281 -0.9312 5.3291
# 2 61.0515 122.9627 31.6011 6.5204 -6.3355 4.0768
# 3 22.1042 31.6011 108.0266 4.5782 0.4794 6.5080
# 4 -0.1281 6.5204 4.5782 34.2418 0.3170 -4.2866
# 5 -0.9312 -6.3355 0.4794 0.3170 31.3582 -4.3913
# 6 5.3291 4.0768 6.5080 -4.2866 -4.3913 42.8513
#
#
#
# Elastic Compliance Matrix: (Units=1/GPa)
#
#
# Indices 1 2 3 4 5 6 
#
# 1 0.018107 -0.008829 -0.001118 0.001760 -0.001416 -0.001211
# 2 -0.008829 0.013275 -0.002001 -0.002296 0.002497 0.000165
# 3 -0.001118 -0.002001 0.010209 -0.001158 -0.000780 -0.001417
# 4 0.001760 -0.002296 -0.001158 0.030202 -0.000255 0.003171
# 5 -0.001416 0.002497 -0.000780 -0.000255 0.032842 0.003397
# 6 -0.001211 0.000165 -0.001417 0.003171 0.003397 0.024352
#
#
# Mechanical properties :
#
#
# Convention : Reuss Voigt Hill
#
# Bulk Modulus (GPa) = 56.50776 60.79538 58.65157
# Shear Modulus (GPa) = 31.48981 35.21614 33.35297
#
# Velocity S-wave (km/s) = 3.80219 4.02087 3.91306
# Velocity P-wave (km/s) = 6.72441 7.03328 6.88058
#
# Compressibility (1/GPa) = 0.01769668
#
# Stress axis : x y z
#
# Youngs Moduli (GPa) = 55.22604 75.32728 97.95472
#
# Poissons Ratio (x) = 0.66509 0.10947
# Poissons Ratio (y) = 0.48761 0.19596
# Poissons Ratio (z) = 0.06172 0.15070
#
# Static dielectric constant tensor:
#      x y z
#    x 3.853800 0.030280 0.145260 
#    y 0.030280 3.848520 0.020900 
#    z 0.145260 0.020900 4.084370 
# 
# 
# High freq. dielectric constant tensor:
#      x y z
#    x 1.851310 0.002370 0.010410 
#    y 0.002370 1.851630 0.003820 
#    z 0.010410 0.003820 1.869060 
# 
# From -- ./inp_files/398876.got.cif
#   From: 2010.06.25/outbox.cif.g09.slc.cpg/sg2_200_cif.got.tgz:398876.got - 2010.06.27 13:26:56.
