data_PCOD8014792
_publ_section_title
;
Structure prediction by ZEFSAII (Michael W. Deem and Ramdas Pophale) SiO2 
 PCOD8014792
Probable space group: P -1
;
_chemical_formula_sum "Si O2"
_cell_formula_units_Z 16
_cell_length_a 9.624302
_cell_length_b 22.192353
_cell_length_c 18.372597
_cell_angle_alpha 18.442532
_cell_angle_beta 142.557652
_cell_angle_gamma 143.567038
_cell_volume 727.319982
_symmetry_space_group_name_H-M "P -1"
_symmetry_group_IT_number 2
_symmetry_cell_setting 'triclinic'
loop_
_space_group_symop_operation_xyz
x,y,z
-x,-y,-z
loop_
_atom_site_type_symbol
_atom_site_label
_atom_site_fract_x
_atom_site_fract_y
_atom_site_fract_z
Si Si1 0.085598 0.519733 0.931642
Si Si2 0.796240 0.828293 0.970611
Si Si3 0.760496 0.438637 0.752613
Si Si4 0.375806 0.925618 0.606106
Si Si5 0.545223 0.659943 0.771549
Si Si6 0.066323 0.734890 0.438561
Si Si7 0.730470 0.183002 0.890178
Si Si8 0.720469 0.552849 0.387347
O O1 0.147783 0.757381 0.676835
O O2 0.903055 0.415864 0.911539
O O3 0.298859 0.414574 0.137765
O O4 0.000000 0.500000 0.000000
O O5 0.543162 0.814534 0.845324
O O6 0.866177 0.031259 0.811997
O O7 0.747454 0.633414 0.224211
O O8 0.011376 0.852124 0.975734
O O9 0.758759 0.276673 0.875342
O O10 0.491063 0.399637 0.709548
O O11 0.875328 0.654044 0.517061
O O12 0.500000 0.000000 0.500000
O O13 0.322571 0.112795 0.410902
O O14 0.292028 0.652298 0.641488
O O15 0.500000 0.500000 0.000000
O O16 0.968079 0.653761 0.413061
O O17 0.684675 0.318607 0.648459
O O18 0.500000 0.000000 0.000000
#
# Coordination Sequence:
#
# PCOD8014792 Si02
#       8
#     2   2   2   2   2   2   2   2
#     4  12  26  45  69 102 145 182 232 304 356 407
#     4  11  23  41  65 102 136 172 231 291 349 416
#     4  11  23  44  65  97 138 184 227 287 348 422
#     4  11  24  41  75 100 134 188 240 286 353 427
#     4  11  22  44  72 104 133 181 244 290 349 427
#     4  10  21  41  73  94 132 181 230 283 345 424
#     4  11  24  42  69 102 135 184 236 281 348 433
#     4  11  23  41  66  97 141 177 223 290 358 402
#
# _framework density 21.998569
#
# number of rings (size 3 to 8) (size 9 to 14) (size 15 to 20)
#    0.000    1.000    2.500    5.250    5.250    0.500 
#    2.250    0.000    0.000    0.000    0.000    0.000 
#    0.000    0.000    0.000    0.000    0.000    0.000 
#
# Total GULP energy -198234.195551 kJ/mol
# GULP energy per Si atom -12389.637222 kJ/mol
# Density = 2.194850 g / cm^3
# Si number density = 21.998569 Si / 1000 Ang^3
#
#
#
# Elastic Constant Matrix: (Units=GPa)
#
#
# Indices 1 2 3 4 5 6 
#
# 1 114.0929 26.3104 40.9553 -2.8111 5.9199 -5.4805
# 2 26.3104 111.1238 54.5259 -11.2227 -0.8329 -10.2238
# 3 40.9553 54.5259 117.7337 -9.8323 -1.5387 -5.0165
# 4 -2.8111 -11.2227 -9.8323 30.2858 -0.6412 -4.4243
# 5 5.9199 -0.8329 -1.5387 -0.6412 41.4943 7.9685
# 6 -5.4805 -10.2238 -5.0165 -4.4243 7.9685 27.7981
#
#
#
# Elastic Compliance Matrix: (Units=1/GPa)
#
#
# Indices 1 2 3 4 5 6 
#
# 1 0.010259 -0.000735 -0.003193 -0.000148 -0.001926 0.001705
# 2 -0.000735 0.012367 -0.005008 0.003494 -0.000590 0.004225
# 3 -0.003193 -0.005008 0.012070 0.001746 0.000881 -0.000268
# 4 -0.000148 0.003494 0.001746 0.035947 -0.000729 0.007501
# 5 -0.001926 -0.000590 0.000881 -0.000729 0.025917 -0.007983
# 6 0.001705 0.004225 -0.000268 0.007501 -0.007983 0.041298
#
#
# Mechanical properties :
#
#
# Convention : Reuss Voigt Hill
#
# Bulk Modulus (GPa) = 59.43938 65.17040 62.30489
# Shear Modulus (GPa) = 30.99097 34.65956 32.82527
#
# Velocity S-wave (km/s) = 3.75743 3.97361 3.86703
# Velocity P-wave (km/s) = 6.77515 7.12334 6.95143
#
# Compressibility (1/GPa) = 0.01682386
#
# Stress axis : x y z
#
# Youngs Moduli (GPa) = 97.47853 80.85778 82.85090
#
# Poissons Ratio (x) = 0.05940 0.26457
# Poissons Ratio (y) = 0.07161 0.41492
# Poissons Ratio (z) = 0.31128 0.40494
#
# Static dielectric constant tensor:
#      x y z
#    x 3.964950 0.201480 0.043370 
#    y 0.201480 4.376820 0.099040 
#    z 0.043370 0.099040 4.085050 
# 
# 
# High freq. dielectric constant tensor:
#      x y z
#    x 1.861220 0.004160 0.001380 
#    y 0.004160 1.876610 -0.001800 
#    z 0.001380 -0.001800 1.868900 
# 
# From -- ./inp_files/562901.got.cif
#   From: 2010.06.25/outbox.cif.g09.slc.cpg/sg2_282_cif.got.tgz:562901.got - 2010.06.27 13:26:56.
