data_PCOD8014542
_publ_section_title
;
Structure prediction by ZEFSAII (Michael W. Deem and Ramdas Pophale) SiO2 
 PCOD8014542
Probable space group: P -1
;
_chemical_formula_sum "Si O2"
_cell_formula_units_Z 16
_cell_length_a 9.407632
_cell_length_b 9.030838
_cell_length_c 10.810602
_cell_angle_alpha 92.884851
_cell_angle_beta 86.559358
_cell_angle_gamma 132.339136
_cell_volume 677.611271
_symmetry_space_group_name_H-M "P -1"
_symmetry_group_IT_number 2
_symmetry_cell_setting 'triclinic'
loop_
_space_group_symop_operation_xyz
x,y,z
-x,-y,-z
loop_
_atom_site_type_symbol
_atom_site_label
_atom_site_fract_x
_atom_site_fract_y
_atom_site_fract_z
Si Si1 0.204187 0.779886 0.814962
Si Si2 0.174958 0.464374 0.304136
Si Si3 0.239551 0.071812 0.406662
Si Si4 0.686087 0.708037 0.837197
Si Si5 0.263086 0.478724 0.815097
Si Si6 0.375057 0.908137 0.261157
Si Si7 0.193405 0.318474 0.550726
Si Si8 0.122664 0.892705 0.068238
O O1 0.224378 0.623713 0.847655
O O2 0.056662 0.693183 0.704865
O O3 0.408945 0.991271 0.775102
O O4 0.118230 0.812617 0.933283
O O5 0.263905 0.430991 0.183407
O O6 0.251060 0.683005 0.298989
O O7 0.233867 0.446859 0.434440
O O8 0.240267 0.173489 0.290374
O O9 0.284571 0.215641 0.524134
O O10 0.386269 0.037271 0.378505
O O11 0.032125 0.851973 0.422176
O O12 0.460959 0.570651 0.875124
O O13 0.810872 0.887529 0.939974
O O14 0.295423 0.468057 0.667317
O O15 0.090452 0.261338 0.869573
O O16 0.276579 0.916220 0.148348
#
# Coordination Sequence:
#
# PCOD8014542 Si02
#       8
#     2   2   2   2   2   2   2   2
#     4  12  25  42  70  98 128 179 219 267 333 382
#     4  11  26  43  63 101 145 163 209 279 337 379
#     4   9  18  40  66  89 127 173 216 259 310 384
#     4  10  23  43  65 101 130 168 224 270 314 395
#     4  12  22  41  75  97 119 181 228 255 329 386
#     4  11  22  43  64  99 132 170 220 270 322 391
#     4  10  21  41  68  94 136 171 212 274 319 389
#     4  11  23  44  73  93 129 170 232 271 308 396
#
# _framework density 23.612356999999999
#
# number of rings (size 3 to 8) (size 9 to 14) (size 15 to 20)
#    0.000    1.250    6.250    0.750    0.000    5.500 
#    2.250    2.500    0.000    0.000    0.000    0.000 
#    0.000    0.000    0.000    0.000    0.000    0.000 
#
# Total GULP energy -198387.340277 kJ/mol
# GULP energy per Si atom -12399.208767 kJ/mol
# Density = 2.355861 g / cm^3
# Si number density = 23.612357 Si / 1000 Ang^3
#
#
#
# Elastic Constant Matrix: (Units=GPa)
#
#
# Indices 1 2 3 4 5 6 
#
# 1 49.6146 6.3975 22.1776 -0.9030 -13.7443 4.0377
# 2 6.3975 80.1892 34.5961 14.5562 0.7908 5.7237
# 3 22.1776 34.5961 82.3944 15.3664 -24.6139 -0.0323
# 4 -0.9030 14.5562 15.3664 25.0021 -3.8393 -11.6861
# 5 -13.7443 0.7908 -24.6139 -3.8393 22.9833 10.0426
# 6 4.0377 5.7237 -0.0323 -11.6861 10.0426 45.9791
#
#
#
# Elastic Compliance Matrix: (Units=1/GPa)
#
#
# Indices 1 2 3 4 5 6 
#
# 1 0.026244 -0.001555 -0.002321 0.003530 0.015900 -0.004688
# 2 -0.001555 0.018301 -0.009665 -0.007288 -0.012581 -0.001253
# 3 -0.002321 -0.009665 0.027929 -0.010648 0.030551 -0.007953
# 4 0.003530 -0.007288 -0.010648 0.057696 -0.006709 0.016719
# 5 0.015900 -0.012581 0.030551 -0.006709 0.094754 -0.022210
# 6 -0.004688 -0.001253 -0.007953 0.016719 -0.022210 0.031411
#
#
# Mechanical properties :
#
#
# Convention : Reuss Voigt Hill
#
# Bulk Modulus (GPa) = 22.03099 37.61563 29.82331
# Shear Modulus (GPa) = 16.74768 28.72802 22.73785
#
# Velocity S-wave (km/s) = 2.66611 3.49184 3.10653
# Velocity P-wave (km/s) = 4.33913 5.67647 5.05225
#
# Compressibility (1/GPa) = 0.04539061
#
# Stress axis : x y z
#
# Youngs Moduli (GPa) = 38.10408 54.64204 35.80487
#
# Poissons Ratio (x) = 0.08498 0.08311
# Poissons Ratio (y) = 0.05926 0.34606
# Poissons Ratio (z) = 0.08845 0.52812
#
# Static dielectric constant tensor:
#      x y z
#    x 4.329970 -0.156890 -0.408910 
#    y -0.156890 4.415550 0.301790 
#    z -0.408910 0.301790 4.286030 
# 
# 
# High freq. dielectric constant tensor:
#      x y z
#    x 1.930070 0.000620 -0.027040 
#    y 0.000620 1.949720 0.012300 
#    z -0.027040 0.012300 1.922270 
# 
# From -- ./inp_files/382608.got.cif
#   From: 2010.06.25/outbox.cif.g09.slc.cpg/sg2_192_cif.got.tgz:382608.got - 2010.06.27 13:26:56.
