data_PCOD8014646
_publ_section_title
;
Structure prediction by ZEFSAII (Michael W. Deem and Ramdas Pophale) SiO2 
 PCOD8014646
Probable space group: P -1
;
_chemical_formula_sum "Si O2"
_cell_formula_units_Z 16
_cell_length_a 13.389713
_cell_length_b 8.988228
_cell_length_c 11.799204
_cell_angle_alpha 129.346237
_cell_angle_beta 48.089460
_cell_angle_gamma 125.648352
_cell_volume 785.295037
_symmetry_space_group_name_H-M "P -1"
_symmetry_group_IT_number 2
_symmetry_cell_setting 'triclinic'
loop_
_space_group_symop_operation_xyz
x,y,z
-x,-y,-z
loop_
_atom_site_type_symbol
_atom_site_label
_atom_site_fract_x
_atom_site_fract_y
_atom_site_fract_z
Si Si1 0.810443 0.670827 0.593936
Si Si2 0.734105 0.180340 0.640145
Si Si3 0.931790 0.630737 0.037465
Si Si4 0.613717 0.553448 0.270717
Si Si5 0.441952 0.564276 0.191733
Si Si6 0.969054 0.556220 0.721626
Si Si7 0.375264 0.235216 0.401756
Si Si8 0.018839 0.923863 0.706311
O O1 0.684363 0.616828 0.753397
O O2 0.752117 0.692966 0.523206
O O3 0.892378 0.499558 0.453429
O O4 0.920685 0.880435 0.647602
O O5 0.613101 0.241874 0.693397
O O6 0.831293 0.370845 0.723975
O O7 0.823780 0.080325 0.440403
O O8 0.657827 0.004950 0.701225
O O9 0.766857 0.536173 0.122929
O O10 0.980293 0.862328 0.145119
O O11 0.992088 0.619025 0.862983
O O12 0.000000 0.500000 0.000000
O O13 0.560218 0.626087 0.228894
O O14 0.518173 0.334559 0.274406
O O15 0.610227 0.706944 0.448808
O O16 0.500000 0.500000 0.000000
O O17 0.948954 0.745186 0.759663
#
# Coordination Sequence:
#
# PCOD8014646 Si02
#       8
#     2   2   2   2   2   2   2   2
#     4  10  21  41  69  98 127 174 217 270 327 388
#     4  11  21  41  69  99 125 172 221 265 329 383
#     4  12  26  43  64  98 135 174 216 274 332 380
#     4  10  23  44  61  94 133 171 218 266 323 388
#     4  11  22  42  67  94 132 171 216 270 324 388
#     4  11  22  40  67  96 138 166 222 272 323 388
#     4  10  22  41  67  92 133 171 220 266 321 394
#     4  11  22  42  67  98 132 169 224 267 324 391
#
# _framework density 20.374507000000001
#
# number of rings (size 3 to 8) (size 9 to 14) (size 15 to 20)
#    0.000    1.250    3.750    2.625    1.750    1.500 
#    2.250    1.875    0.000    0.000    0.000    0.000 
#    0.000    0.000    0.000    0.000    0.000    0.000 
#
# Total GULP energy -198409.021264 kJ/mol
# GULP energy per Si atom -12400.563829 kJ/mol
# Density = 2.032813 g / cm^3
# Si number density = 20.374507 Si / 1000 Ang^3
#
#
#
# Elastic Constant Matrix: (Units=GPa)
#
#
# Indices 1 2 3 4 5 6 
#
# 1 158.4288 55.6525 59.2806 6.0906 -2.5968 -3.2746
# 2 55.6525 137.3939 43.5361 20.6061 -3.3981 3.8762
# 3 59.2806 43.5361 110.5104 1.8310 9.6080 3.2774
# 4 6.0906 20.6061 1.8310 31.7142 0.2382 -5.5105
# 5 -2.5968 -3.3981 9.6080 0.2382 37.3492 -4.2498
# 6 -3.2746 3.8762 3.2774 -5.5105 -4.2498 26.8091
#
#
#
# Elastic Compliance Matrix: (Units=1/GPa)
#
#
# Indices 1 2 3 4 5 6 
#
# 1 0.008669 -0.002356 -0.003940 0.000470 0.001654 0.002240
# 2 -0.002356 0.010140 -0.002652 -0.006437 0.001190 -0.002564
# 3 -0.003940 -0.002652 0.012589 0.001440 -0.003987 -0.001973
# 4 0.000470 -0.006437 0.001440 0.036999 -0.000205 0.008385
# 5 0.001654 0.001190 -0.003987 -0.000205 0.028595 0.005008
# 6 0.002240 -0.002564 -0.001973 0.008385 0.005008 0.040704
#
#
# Mechanical properties :
#
#
# Convention : Reuss Voigt Hill
#
# Bulk Modulus (GPa) = 74.06251 80.36349 77.21300
# Shear Modulus (GPa) = 31.23201 35.69874 33.46537
#
# Velocity S-wave (km/s) = 3.91947 4.19038 4.05719
# Velocity P-wave (km/s) = 7.54404 7.93355 7.74124
#
# Compressibility (1/GPa) = 0.01350211
#
# Stress axis : x y z
#
# Youngs Moduli (GPa) = 115.35038 98.61829 79.43657
#
# Poissons Ratio (x) = 0.23232 0.31301
# Poissons Ratio (y) = 0.27174 0.21065
# Poissons Ratio (z) = 0.45452 0.26152
#
# Static dielectric constant tensor:
#      x y z
#    x 3.922530 0.016150 -0.034490 
#    y 0.016150 3.788580 -0.087820 
#    z -0.034490 -0.087820 3.512230 
# 
# 
# High freq. dielectric constant tensor:
#      x y z
#    x 1.810330 0.000930 0.000430 
#    y 0.000930 1.800480 -0.009280 
#    z 0.000430 -0.009280 1.781060 
# 
# From -- ./inp_files/202542.got.cif
#   From: 2010.06.25/outbox.cif.g09.slc.cpg/sg2_102_cif.got.tgz:202542.got - 2010.06.27 13:26:56.
