data_PCOD8014294
_publ_section_title
;
Structure prediction by ZEFSAII (Michael W. Deem and Ramdas Pophale) SiO2 
 PCOD8014294
Probable space group: P -1
;
_chemical_formula_sum "Si O2"
_cell_formula_units_Z 16
_cell_length_a 8.965514
_cell_length_b 17.336274
_cell_length_c 6.266894
_cell_angle_alpha 96.920403
_cell_angle_beta 129.867472
_cell_angle_gamma 93.811404
_cell_volume 728.848297
_symmetry_space_group_name_H-M "P -1"
_symmetry_group_IT_number 2
_symmetry_cell_setting 'triclinic'
loop_
_space_group_symop_operation_xyz
x,y,z
-x,-y,-z
loop_
_atom_site_type_symbol
_atom_site_label
_atom_site_fract_x
_atom_site_fract_y
_atom_site_fract_z
Si Si1 0.690260 0.850451 0.073424
Si Si2 0.775823 0.592466 0.304833
Si Si3 0.347133 0.810257 0.074528
Si Si4 0.093368 0.275300 0.857611
Si Si5 0.559873 0.075517 0.434335
Si Si6 0.114673 0.875345 0.556460
Si Si7 0.407689 0.540127 0.229953
Si Si8 0.108107 0.645589 0.938686
O O1 0.741425 0.778293 0.949368
O O2 0.896210 0.896072 0.386037
O O3 0.539023 0.813383 0.105291
O O4 0.615654 0.916573 0.886836
O O5 0.814664 0.674177 0.242678
O O6 0.587715 0.591574 0.283783
O O7 0.971461 0.588433 0.624524
O O8 0.728471 0.522152 0.068357
O O9 0.213576 0.870608 0.876100
O O10 0.230546 0.720716 0.952881
O O11 0.403410 0.843659 0.371283
O O12 0.897046 0.213875 0.582798
O O13 0.043777 0.328741 0.022697
O O14 0.749824 0.065151 0.463120
O O15 0.500000 0.000000 0.500000
O O16 0.500000 0.500000 0.500000
O O17 0.259228 0.598462 0.183629
#
# Coordination Sequence:
#
# PCOD8014294 Si02
#       8
#     2   2   2   2   2   2   2   2
#     4   9  22  40  62  94 128 162 211 265 311 379
#     4  11  24  44  65  94 129 169 215 263 319 381
#     4  11  21  40  68  93 122 170 215 260 319 376
#     4  10  21  41  66  94 124 159 217 265 313 363
#     4  11  24  41  64  97 134 170 208 259 320 382
#     4   9  21  43  60  95 128 160 213 266 308 378
#     4  11  27  45  62  97 132 169 212 259 325 385
#     4  12  23  41  70  92 124 172 211 267 318 376
#
# _framework density 21.952442999999999
#
# number of rings (size 3 to 8) (size 9 to 14) (size 15 to 20)
#    0.750    0.750    2.500    1.875    0.000   11.500 
#    0.000    1.250    0.000    0.000    0.000    0.000 
#    0.000    0.000    0.000    0.000    0.000    0.000 
#
# Total GULP energy -198285.658266 kJ/mol
# GULP energy per Si atom -12392.853642 kJ/mol
# Density = 2.190248 g / cm^3
# Si number density = 21.952443 Si / 1000 Ang^3
#
#
#
# Elastic Constant Matrix: (Units=GPa)
#
#
# Indices 1 2 3 4 5 6 
#
# 1 117.3590 32.2227 39.9723 -24.7463 15.8149 5.8652
# 2 32.2227 63.1507 13.2993 -24.3279 7.8291 17.6893
# 3 39.9723 13.2993 78.2199 -16.0602 15.9702 2.0413
# 4 -24.7463 -24.3279 -16.0602 31.3176 1.0788 -4.0767
# 5 15.8149 7.8291 15.9702 1.0788 33.6965 -0.5185
# 6 5.8652 17.6893 2.0413 -4.0767 -0.5185 37.8030
#
#
#
# Elastic Compliance Matrix: (Units=1/GPa)
#
#
# Indices 1 2 3 4 5 6 
#
# 1 0.012291 -0.002953 -0.003958 0.005535 -0.003380 0.000239
# 2 -0.002953 0.028419 0.002512 0.019856 -0.007211 -0.010933
# 3 -0.003958 0.002512 0.017525 0.007964 -0.007298 -0.000749
# 4 0.005535 0.019856 0.007964 0.055636 -0.012840 -0.004756
# 5 -0.003380 -0.007211 -0.007298 -0.012840 0.036861 0.003414
# 6 0.000239 -0.010933 -0.000749 -0.004756 0.003414 0.031106
#
#
# Mechanical properties :
#
#
# Convention : Reuss Voigt Hill
#
# Bulk Modulus (GPa) = 20.22881 47.74646 33.98763
# Shear Modulus (GPa) = 24.14105 32.11241 28.12673
#
# Velocity S-wave (km/s) = 3.31977 3.82883 3.58335
# Velocity P-wave (km/s) = 4.89176 6.42991 5.71284
#
# Compressibility (1/GPa) = 0.04943445
#
# Stress axis : x y z
#
# Youngs Moduli (GPa) = 81.36312 35.18798 57.06088
#
# Poissons Ratio (x) = 0.10392 0.22587
# Poissons Ratio (y) = 0.24030 -0.14332
# Poissons Ratio (z) = 0.32207 -0.08838
#
# Static dielectric constant tensor:
#      x y z
#    x 3.880580 0.198280 0.140860 
#    y 0.198280 3.730840 0.030120 
#    z 0.140860 0.030120 3.997390 
# 
# 
# High freq. dielectric constant tensor:
#      x y z
#    x 1.866450 0.018120 0.009200 
#    y 0.018120 1.856990 -0.002300 
#    z 0.009200 -0.002300 1.861270 
# 
# From -- ./inp_files/44778.got.cif
#   From: 2010.06.25/outbox.cif.g09.slc.cpg/sg2_23_cif.got.tgz:44778.got - 2010.06.27 13:26:56.
