data_PCOD8014175
_publ_section_title
;
Structure prediction by ZEFSAII (Michael W. Deem and Ramdas Pophale) SiO2 
 PCOD8014175
Probable space group: P -1
;
_chemical_formula_sum "Si O2"
_cell_formula_units_Z 14
_cell_length_a 12.796542
_cell_length_b 8.375597
_cell_length_c 7.589522
_cell_angle_alpha 64.266932
_cell_angle_beta 122.584007
_cell_angle_gamma 101.007179
_cell_volume 616.442383
_symmetry_space_group_name_H-M "P -1"
_symmetry_group_IT_number 2
_symmetry_cell_setting 'triclinic'
loop_
_space_group_symop_operation_xyz
x,y,z
-x,-y,-z
loop_
_atom_site_type_symbol
_atom_site_label
_atom_site_fract_x
_atom_site_fract_y
_atom_site_fract_z
Si Si1 0.991911 0.709256 0.410231
Si Si2 0.639246 0.526919 0.423660
Si Si3 0.178752 0.785573 0.258608
Si Si4 0.268740 0.131696 0.802031
Si Si5 0.175692 0.770331 0.845753
Si Si6 0.368337 0.077834 0.276451
Si Si7 0.372759 0.473897 0.185109
O O1 0.054777 0.802657 0.255451
O O2 0.049391 0.762379 0.625175
O O3 0.000000 0.500000 0.500000
O O4 0.850917 0.785312 0.242684
O O5 0.746393 0.390555 0.512077
O O6 0.679919 0.728292 0.355010
O O7 0.509384 0.503441 0.212932
O O8 0.621036 0.468372 0.634793
O O9 0.259585 0.952543 0.293054
O O10 0.145327 0.768921 0.028421
O O11 0.239474 0.951217 0.762227
O O12 0.374868 0.088021 0.065378
O O13 0.267053 0.606231 0.940356
O O14 0.335584 0.272936 0.229574
O O15 0.500000 0.000000 0.500000
#
# Coordination Sequence:
#
# PCOD8014175 Si02
#       7
#     2   2   2   2   2   2   2
#     4  12  24  44  70  97 129 176 225 269 326 385
#     4  10  21  41  65  93 135 168 214 273 322 390
#     4  10  23  44  67  98 135 172 217 273 327 386
#     4  11  25  43  63  98 132 171 224 269 320 391
#     4  10  25  44  64  98 137 171 219 269 327 392
#     4  11  23  42  67  96 131 171 218 271 329 390
#     4  10  22  41  65  96 130 173 212 265 340 384
#
# _framework density 22.710961999999999
#
# number of rings (size 3 to 8) (size 9 to 14) (size 15 to 20)
#    0.000    1.429    2.857    1.286    4.000    5.143 
#    2.571    0.000    0.000    0.000    0.000    0.000 
#    0.000    0.000    0.000    0.000    0.000    0.000 
#
# Total GULP energy -173609.520872 kJ/mol
# GULP energy per Si atom -12400.680062 kJ/mol
# Density = 2.265927 g / cm^3
# Si number density = 22.710962 Si / 1000 Ang^3
#
#
#
# Elastic Constant Matrix: (Units=GPa)
#
#
# Indices 1 2 3 4 5 6 
#
# 1 62.0194 17.1549 19.5690 3.0433 -5.5087 16.2994
# 2 17.1549 152.8627 34.0637 -15.7135 0.4671 8.0802
# 3 19.5690 34.0637 92.2976 6.4262 2.0155 3.3469
# 4 3.0433 -15.7135 6.4262 45.8432 -1.3356 -1.4574
# 5 -5.5087 0.4671 2.0155 -1.3356 22.3900 -7.5127
# 6 16.2994 8.0802 3.3469 -1.4574 -7.5127 34.9617
#
#
#
# Elastic Compliance Matrix: (Units=1/GPa)
#
#
# Indices 1 2 3 4 5 6 
#
# 1 0.019999 -0.001194 -0.003451 -0.001446 0.002397 -0.008262
# 2 -0.001194 0.007648 -0.002742 0.003048 -0.000324 -0.000891
# 3 -0.003451 -0.002742 0.012779 -0.002542 -0.001926 0.000500
# 4 -0.001446 0.003048 -0.002542 0.023410 0.001730 0.001561
# 5 0.002397 -0.000324 -0.001926 0.001730 0.048790 0.009698
# 6 -0.008262 -0.000891 0.000500 0.001561 0.009698 0.034762
#
#
# Mechanical properties :
#
#
# Convention : Reuss Voigt Hill
#
# Bulk Modulus (GPa) = 38.98623 49.86167 44.42395
# Shear Modulus (GPa) = 29.28863 36.39846 32.84354
#
# Velocity S-wave (km/s) = 3.59503 4.00769 3.80696
# Velocity P-wave (km/s) = 5.86821 6.58924 6.23915
#
# Compressibility (1/GPa) = 0.02565008
#
# Stress axis : x y z
#
# Youngs Moduli (GPa) = 50.00320 130.74814 78.25143
#
# Poissons Ratio (x) = 0.15618 0.27008
# Poissons Ratio (y) = 0.05973 0.21459
# Poissons Ratio (z) = 0.17258 0.35855
#
# Static dielectric constant tensor:
#      x y z
#    x 3.858810 0.049240 0.183370 
#    y 0.049240 4.189940 -0.120600 
#    z 0.183370 -0.120600 4.273980 
# 
# 
# High freq. dielectric constant tensor:
#      x y z
#    x 1.875720 0.004870 0.008510 
#    y 0.004870 1.910850 -0.007580 
#    z 0.008510 -0.007580 1.904400 
# 
# From -- ./inp_files/156800.got.cif
#   From: 2010.06.25/outbox.cif.g09.slc.cpg/sg2_79_cif.got.tgz:156800.got - 2010.06.27 13:26:56.
