data_PCOD8014656
_publ_section_title
;
Structure prediction by ZEFSAII (Michael W. Deem and Ramdas Pophale) SiO2 
 PCOD8014656
Probable space group: P -1
;
_chemical_formula_sum "Si O2"
_cell_formula_units_Z 16
_cell_length_a 5.046077
_cell_length_b 22.617813
_cell_length_c 23.937379
_cell_angle_alpha 163.071871
_cell_angle_beta 77.655829
_cell_angle_gamma 108.132822
_cell_volume 720.344202
_symmetry_space_group_name_H-M "P -1"
_symmetry_group_IT_number 2
_symmetry_cell_setting 'triclinic'
loop_
_space_group_symop_operation_xyz
x,y,z
-x,-y,-z
loop_
_atom_site_type_symbol
_atom_site_label
_atom_site_fract_x
_atom_site_fract_y
_atom_site_fract_z
Si Si1 0.596506 0.714933 0.228252
Si Si2 0.601565 0.838324 0.037442
Si Si3 0.138397 0.357688 0.638171
Si Si4 0.940172 0.193099 0.618472
Si Si5 0.788858 0.123174 0.003764
Si Si6 0.785401 0.705207 0.682196
Si Si7 0.920896 0.511359 0.604672
Si Si8 0.377568 0.771246 0.541330
O O1 0.298571 0.746669 0.283044
O O2 0.753384 0.694917 0.260996
O O3 0.829211 0.928097 0.378982
O O4 0.500000 0.500000 0.000000
O O5 0.487428 0.933595 0.075432
O O6 0.915401 0.829464 0.002092
O O7 0.626716 0.993780 0.229808
O O8 0.375468 0.601749 0.850633
O O9 0.311027 0.197164 0.471552
O O10 0.978149 0.292280 0.645012
O O11 0.893475 0.344061 0.591740
O O12 0.731209 0.923652 0.868949
O O13 0.809160 0.337407 0.232204
O O14 0.500000 0.500000 0.500000
O O15 0.864400 0.691847 0.731277
O O16 0.022079 0.676729 0.603031
O O17 0.652240 0.381260 0.540201
#
# Coordination Sequence:
#
# PCOD8014656 Si02
#       8
#     2   2   2   2   2   2   2   2
#     4  10  21  41  69  99 140 180 210 270 323 361
#     4  12  25  43  66  94 124 171 215 266 320 397
#     4  12  25  44  67  98 132 177 219 269 316 383
#     4  10  23  40  65 103 137 170 229 263 310 385
#     4  12  25  43  67  89 124 161 213 265 338 394
#     4  11  26  41  65  93 121 160 215 279 331 401
#     4  11  24  43  62  92 121 162 211 270 332 396
#     4  12  25  43  68  90 131 174 215 268 335 386
#
# _framework density 22.211601999999999
#
# number of rings (size 3 to 8) (size 9 to 14) (size 15 to 20)
#    0.000    0.750    3.750    3.000    5.250    2.500 
#    0.000    0.000    0.000    0.000    0.000    0.000 
#    0.000    0.000    0.000    0.000    0.000    0.000 
#
# Total GULP energy -198413.253012 kJ/mol
# GULP energy per Si atom -12400.828313 kJ/mol
# Density = 2.216105 g / cm^3
# Si number density = 22.211602 Si / 1000 Ang^3
#
#
#
# Elastic Constant Matrix: (Units=GPa)
#
#
# Indices 1 2 3 4 5 6 
#
# 1 68.5073 6.2537 6.5258 -2.4487 0.4275 -4.3007
# 2 6.2537 98.6030 31.1628 0.6409 1.3937 -8.7829
# 3 6.5258 31.1628 116.4956 -9.0738 2.5523 -5.7698
# 4 -2.4487 0.6409 -9.0738 19.7495 0.6938 -0.6281
# 5 0.4275 1.3937 2.5523 0.6938 25.9949 2.5343
# 6 -4.3007 -8.7829 -5.7698 -0.6281 2.5343 24.9261
#
#
#
# Elastic Compliance Matrix: (Units=1/GPa)
#
#
# Indices 1 2 3 4 5 6 
#
# 1 0.014905 -0.000612 -0.000407 0.001772 -0.000449 0.002352
# 2 -0.000612 0.011432 -0.002982 -0.001693 -0.000582 0.003249
# 3 -0.000407 -0.002982 0.009859 0.004657 -0.001061 0.001386
# 4 0.001772 -0.001693 0.004657 0.053195 -0.002043 0.002335
# 5 -0.000449 -0.000582 -0.001061 -0.002043 0.039111 -0.004556
# 6 0.002352 0.003249 0.001386 0.002335 -0.004556 0.042512
#
#
# Mechanical properties :
#
#
# Convention : Reuss Voigt Hill
#
# Bulk Modulus (GPa) = 35.46878 41.27672 38.37275
# Shear Modulus (GPa) = 26.53739 30.11168 28.32454
#
# Velocity S-wave (km/s) = 3.46027 3.68594 3.57489
# Velocity P-wave (km/s) = 5.65401 6.06124 5.86116
#
# Compressibility (1/GPa) = 0.02819381
#
# Stress axis : x y z
#
# Youngs Moduli (GPa) = 67.08964 87.47744 101.42876
#
# Poissons Ratio (x) = 0.05357 0.04126
# Poissons Ratio (y) = 0.04109 0.30245
# Poissons Ratio (z) = 0.02729 0.26085
#
# Static dielectric constant tensor:
#      x y z
#    x 4.202690 0.416750 -0.442180 
#    y 0.416750 4.198910 -0.742410 
#    z -0.442180 -0.742410 5.103080 
# 
# 
# High freq. dielectric constant tensor:
#      x y z
#    x 1.878730 0.000110 0.005700 
#    y 0.000110 1.862890 -0.000810 
#    z 0.005700 -0.000810 1.886770 
# 
# From -- ./inp_files/120430.got.cif
#   From: 2010.06.25/outbox.cif.g09.slc.cpg/sg2_61_cif.got.tgz:120430.got - 2010.06.27 13:26:56.
