data_PCOD8014595
_publ_section_title
;
Structure prediction by ZEFSAII (Michael W. Deem and Ramdas Pophale) SiO2 
 PCOD8014595
Probable space group: P -1
;
_chemical_formula_sum "Si O2"
_cell_formula_units_Z 16
_cell_length_a 8.176618
_cell_length_b 12.096974
_cell_length_c 14.246456
_cell_angle_alpha 118.918346
_cell_angle_beta 141.099093
_cell_angle_gamma 80.910405
_cell_volume 710.839801
_symmetry_space_group_name_H-M "P -1"
_symmetry_group_IT_number 2
_symmetry_cell_setting 'triclinic'
loop_
_space_group_symop_operation_xyz
x,y,z
-x,-y,-z
loop_
_atom_site_type_symbol
_atom_site_label
_atom_site_fract_x
_atom_site_fract_y
_atom_site_fract_z
Si Si1 0.308460 0.588220 0.630743
Si Si2 0.092701 0.021920 0.792038
Si Si3 0.918093 0.860149 0.351044
Si Si4 0.714936 0.241859 0.976701
Si Si5 0.839664 0.513071 0.839470
Si Si6 0.784764 0.995391 0.824001
Si Si7 0.299914 0.704632 0.475658
Si Si8 0.276751 0.807005 0.835995
O O1 0.541553 0.526315 0.734970
O O2 0.305981 0.607408 0.525126
O O3 0.388240 0.732564 0.776760
O O4 0.000000 0.500000 0.500000
O O5 0.961329 0.077178 0.671716
O O6 0.039760 0.859033 0.709740
O O7 0.429901 0.076643 0.949873
O O8 0.967264 0.068536 0.844775
O O9 0.591251 0.750935 0.158917
O O10 0.064781 0.764201 0.417339
O O11 0.000000 0.000000 0.500000
O O12 0.628947 0.088280 0.832590
O O13 0.850653 0.271960 0.155172
O O14 0.946491 0.351738 0.060720
O O15 0.769463 0.380775 0.687063
O O16 0.000000 0.500000 0.000000
O O17 0.590028 0.837987 0.649041
O O18 0.000000 0.000000 0.000000
#
# Coordination Sequence:
#
# PCOD8014595 Si02
#       8
#     2   2   2   2   2   2   2   2
#     4  12  28  48  75 102 145 194 252 303 366 442
#     4  10  22  36  68 101 146 177 237 284 374 428
#     4  11  24  44  68 111 146 186 238 309 370 436
#     4  11  24  44  74 100 151 190 244 304 373 434
#     4  12  31  51  74 108 147 201 254 306 371 442
#     4  12  23  42  74 110 143 192 239 309 369 443
#     4  12  28  48  75 107 151 193 250 305 372 443
#     4  10  21  41  69 104 136 188 235 298 359 442
#
# _framework density 22.508588
#
# number of rings (size 3 to 8) (size 9 to 14) (size 15 to 20)
#    0.000    0.750    2.500    4.125   10.500    2.000 
#    0.000    0.000    0.000    0.000    0.000    0.000 
#    0.000    0.000    0.000    0.000    0.000    0.000 
#
# Total GULP energy -198232.883658 kJ/mol
# GULP energy per Si atom -12389.555229 kJ/mol
# Density = 2.245736 g / cm^3
# Si number density = 22.508588 Si / 1000 Ang^3
#
#
#
# Elastic Constant Matrix: (Units=GPa)
#
#
# Indices 1 2 3 4 5 6 
#
# 1 121.0465 37.3954 41.4808 -10.3816 -7.0835 4.2403
# 2 37.3954 92.6582 46.9780 -16.0446 2.2646 -1.8181
# 3 41.4808 46.9780 106.3521 -0.7599 -5.0059 2.8484
# 4 -10.3816 -16.0446 -0.7599 41.7362 -2.7531 -1.5863
# 5 -7.0835 2.2646 -5.0059 -2.7531 49.8053 1.3367
# 6 4.2403 -1.8181 2.8484 -1.5863 1.3367 53.7775
#
#
#
# Elastic Compliance Matrix: (Units=1/GPa)
#
#
# Indices 1 2 3 4 5 6 
#
# 1 0.010231 -0.002481 -0.002798 0.001604 0.001395 -0.000730
# 2 -0.002481 0.015871 -0.006105 0.005326 -0.001427 0.001248
# 3 -0.002798 -0.006105 0.013243 -0.002761 0.001079 -0.000796
# 4 0.001604 0.005326 -0.002761 0.026468 0.001146 0.000952
# 5 0.001395 -0.001427 0.001079 0.001146 0.020532 -0.000692
# 6 -0.000730 0.001248 -0.000796 0.000952 -0.000692 0.018782
#
#
# Mechanical properties :
#
#
# Convention : Reuss Voigt Hill
#
# Bulk Modulus (GPa) = 60.32602 63.52946 61.92774
# Shear Modulus (GPa) = 37.47503 42.01063 39.74283
#
# Velocity S-wave (km/s) = 4.08477 4.32490 4.20655
# Velocity P-wave (km/s) = 7.00761 7.29558 7.15305
#
# Compressibility (1/GPa) = 0.01657660
#
# Stress axis : x y z
#
# Youngs Moduli (GPa) = 97.73787 63.00887 75.51046
#
# Poissons Ratio (x) = 0.15634 0.21127
# Poissons Ratio (y) = 0.24252 0.46101
# Poissons Ratio (z) = 0.27346 0.38468
#
# Static dielectric constant tensor:
#      x y z
#    x 4.153600 0.151610 -0.126370 
#    y 0.151610 4.187770 -0.176730 
#    z -0.126370 -0.176730 4.152280 
# 
# 
# High freq. dielectric constant tensor:
#      x y z
#    x 1.904110 0.001640 -0.001010 
#    y 0.001640 1.887990 -0.005390 
#    z -0.001010 -0.005390 1.882750 
# 
# From -- ./inp_files/500619.got.cif
#   From: 2010.06.25/outbox.cif.g09.slc.cpg/sg2_251_cif.got.tgz:500619.got - 2010.06.27 13:26:56.
