data_PCOD8014346
_publ_section_title
;
Structure prediction by ZEFSAII (Michael W. Deem and Ramdas Pophale) SiO2 
 PCOD8014346
Probable space group: P -1
;
_chemical_formula_sum "Si O2"
_cell_formula_units_Z 16
_cell_length_a 5.547704
_cell_length_b 12.136959
_cell_length_c 11.921231
_cell_angle_alpha 73.664012
_cell_angle_beta 117.534685
_cell_angle_gamma 99.153374
_cell_volume 682.631408
_symmetry_space_group_name_H-M "P -1"
_symmetry_group_IT_number 2
_symmetry_cell_setting 'triclinic'
loop_
_space_group_symop_operation_xyz
x,y,z
-x,-y,-z
loop_
_atom_site_type_symbol
_atom_site_label
_atom_site_fract_x
_atom_site_fract_y
_atom_site_fract_z
Si Si1 0.330235 0.821115 0.771414
Si Si2 0.121456 0.088839 0.088077
Si Si3 0.426748 0.627966 0.415076
Si Si4 0.569891 0.184730 0.454248
Si Si5 0.056889 0.683799 0.936234
Si Si6 0.113896 0.011218 0.356016
Si Si7 0.153221 0.427078 0.647454
Si Si8 0.421073 0.486903 0.115071
O O1 0.583418 0.856793 0.896713
O O2 0.418543 0.772312 0.683923
O O3 0.164178 0.715200 0.824811
O O4 0.175675 0.940146 0.686068
O O5 0.158232 0.021001 0.230378
O O6 0.926079 0.196426 0.026731
O O7 0.000000 0.000000 0.000000
O O8 0.500000 0.500000 0.500000
O O9 0.499098 0.709762 0.511473
O O10 0.625944 0.655894 0.342177
O O11 0.097589 0.638020 0.319930
O O12 0.329221 0.091003 0.447677
O O13 0.851841 0.122404 0.565384
O O14 0.748423 0.632858 0.869212
O O15 0.231191 0.594513 0.069211
O O16 0.318639 0.507620 0.748709
O O17 0.000000 0.500000 0.500000
O O18 0.500000 0.500000 0.000000
#
# Coordination Sequence:
#
# PCOD8014346 Si02
#       8
#     2   2   2   2   2   2   2   2
#     4  10  21  41  67 100 130 184 240 288 363 429
#     4  10  22  42  62  98 135 179 229 295 360 427
#     4  10  24  44  65 104 143 189 228 291 363 434
#     4  10  21  41  66  98 139 182 234 294 355 437
#     4  10  24  42  69 102 131 188 240 299 358 436
#     4   9  21  39  65  98 132 179 237 293 355 427
#     4  10  25  47  69 103 146 187 237 294 368 426
#     4  11  25  47  72 102 141 186 243 301 356 444
#
# _framework density 23.438708999999999
#
# number of rings (size 3 to 8) (size 9 to 14) (size 15 to 20)
#    0.000    2.000    0.000    1.125    5.250   11.000 
#   11.250    0.000    0.000    0.000    0.000    0.000 
#    0.000    0.000    0.000    0.000    0.000    0.000 
#
# Total GULP energy -198268.043228 kJ/mol
# GULP energy per Si atom -12391.752702 kJ/mol
# Density = 2.338536 g / cm^3
# Si number density = 23.438709 Si / 1000 Ang^3
#
#
#
# Elastic Constant Matrix: (Units=GPa)
#
#
# Indices 1 2 3 4 5 6 
#
# 1 151.1216 36.7029 36.2359 22.1796 -6.0241 9.0729
# 2 36.7029 137.5097 59.7962 23.2786 -6.3240 -8.8094
# 3 36.2359 59.7962 109.0487 28.1543 10.1479 2.1824
# 4 22.1796 23.2786 28.1543 44.9233 -2.9682 2.7857
# 5 -6.0241 -6.3240 10.1479 -2.9682 32.7363 0.9831
# 6 9.0729 -8.8094 2.1824 2.7857 0.9831 31.0906
#
#
#
# Elastic Compliance Matrix: (Units=1/GPa)
#
#
# Indices 1 2 3 4 5 6 
#
# 1 0.007763 -0.001142 -0.001527 -0.002035 0.001567 -0.002349
# 2 -0.001142 0.010576 -0.005397 -0.001551 0.003253 0.003745
# 3 -0.001527 -0.005397 0.014834 -0.006086 -0.006433 -0.001376
# 4 -0.002035 -0.001551 -0.006086 0.028265 0.003838 -0.002072
# 5 0.001567 0.003253 -0.006433 0.003838 0.033821 -0.000497
# 6 -0.002349 0.003745 -0.001376 -0.002072 -0.000497 0.034209
#
#
# Mechanical properties :
#
#
# Convention : Reuss Voigt Hill
#
# Bulk Modulus (GPa) = 58.67901 73.68332 66.18116
# Shear Modulus (GPa) = 33.05131 39.41304 36.23218
#
# Velocity S-wave (km/s) = 3.75923 4.10510 3.93597
# Velocity P-wave (km/s) = 6.62811 7.34670 6.99664
#
# Compressibility (1/GPa) = 0.01704187
#
# Stress axis : x y z
#
# Youngs Moduli (GPa) = 128.81992 94.55337 67.41073
#
# Poissons Ratio (x) = 0.10798 0.10292
# Poissons Ratio (y) = 0.14711 0.36381
# Poissons Ratio (z) = 0.19668 0.51030
#
# Static dielectric constant tensor:
#      x y z
#    x 4.584030 -0.037670 0.308480 
#    y -0.037670 4.130040 -0.132200 
#    z 0.308480 -0.132200 4.064220 
# 
# 
# High freq. dielectric constant tensor:
#      x y z
#    x 1.944690 -0.011950 0.007410 
#    y -0.011950 1.915270 -0.003730 
#    z 0.007410 -0.003730 1.909720 
# 
# From -- ./inp_files/364395.got.cif
#   From: 2010.06.25/outbox.cif.g09.slc.cpg/sg2_183_cif.got.tgz:364395.got - 2010.06.27 13:26:56.
