data_PCOD8014234
_publ_section_title
;
Structure prediction by ZEFSAII (Michael W. Deem and Ramdas Pophale) SiO2 
 PCOD8014234
Probable space group: P -1
;
_chemical_formula_sum "Si O2"
_cell_formula_units_Z 12
_cell_length_a 7.087924
_cell_length_b 13.962899
_cell_length_c 9.035001
_cell_angle_alpha 138.502689
_cell_angle_beta 74.377087
_cell_angle_gamma 109.274451
_cell_volume 558.910197
_symmetry_space_group_name_H-M "P -1"
_symmetry_group_IT_number 2
_symmetry_cell_setting 'triclinic'
loop_
_space_group_symop_operation_xyz
x,y,z
-x,-y,-z
loop_
_atom_site_type_symbol
_atom_site_label
_atom_site_fract_x
_atom_site_fract_y
_atom_site_fract_z
Si Si1 0.205608 0.942895 0.779695
Si Si2 0.882765 0.290267 0.963603
Si Si3 0.120577 0.217948 0.568246
Si Si4 0.072048 0.229118 0.141572
Si Si5 0.706949 0.553854 0.432482
Si Si6 0.606332 0.985751 0.615818
O O1 0.425752 0.911552 0.675026
O O2 0.046878 0.884378 0.615392
O O3 0.136269 0.864933 0.859301
O O4 0.230059 0.120724 0.990715
O O5 0.002096 0.313218 0.809078
O O6 0.709851 0.146453 0.833130
O O7 0.776299 0.423417 0.179441
O O8 0.047535 0.278251 0.037570
O O9 0.288441 0.321010 0.550478
O O10 0.230076 0.117898 0.535650
O O11 0.136897 0.377182 0.394660
O O12 0.500000 0.500000 0.500000
O O13 0.500000 0.000000 0.500000
#
# Coordination Sequence:
#
# PCOD8014234 Si02
#       6
#     2   2   2   2   2   2
#     4  10  21  41  66 101 131 172 218 276 325 390
#     4  12  23  43  69  97 136 175 216 277 333 388
#     4  11  24  45  68  98 136 172 221 277 333 383
#     4  10  22  41  66  95 139 171 217 272 333 386
#     4  11  26  45  65  97 135 180 225 264 329 405
#     4  12  23  39  72 101 130 167 228 270 328 392
#
# _framework density 21.470352999999999
#
# number of rings (size 3 to 8) (size 9 to 14) (size 15 to 20)
#    0.000    1.000    3.333    3.500    2.333    0.667 
#    0.000    1.667    0.000    0.000    0.000    0.000 
#    0.000    0.000    0.000    0.000    0.000    0.000 
#
# Total GULP energy -148750.002979 kJ/mol
# GULP energy per Si atom -12395.833582 kJ/mol
# Density = 2.142149 g / cm^3
# Si number density = 21.470353 Si / 1000 Ang^3
#
#
#
# Elastic Constant Matrix: (Units=GPa)
#
#
# Indices 1 2 3 4 5 6 
#
# 1 80.8017 36.6313 35.6909 2.6987 -10.1226 11.7682
# 2 36.6313 94.1465 37.6766 -6.4773 1.7243 11.7853
# 3 35.6909 37.6766 135.7676 3.6887 -8.5055 0.6120
# 4 2.6987 -6.4773 3.6887 41.2234 2.8587 -3.1215
# 5 -10.1226 1.7243 -8.5055 2.8587 33.0496 -13.7710
# 6 11.7682 11.7853 0.6120 -3.1215 -13.7710 28.1950
#
#
#
# Elastic Compliance Matrix: (Units=1/GPa)
#
#
# Indices 1 2 3 4 5 6 
#
# 1 0.016988 -0.005345 -0.002681 -0.002211 0.003618 -0.003275
# 2 -0.005345 0.015178 -0.003255 0.002951 -0.006366 -0.006825
# 3 -0.002681 -0.003255 0.009200 -0.001106 0.003404 0.003820
# 4 -0.002211 0.002951 -0.001106 0.025247 -0.002830 0.001126
# 5 0.003618 -0.006366 0.003404 -0.002830 0.041604 0.021083
# 6 -0.003275 -0.006825 0.003820 0.001126 0.021083 0.050027
#
#
# Mechanical properties :
#
#
# Convention : Reuss Voigt Hill
#
# Bulk Modulus (GPa) = 53.18293 58.96816 56.07555
# Shear Modulus (GPa) = 26.72756 33.87471 30.30114
#
# Velocity S-wave (km/s) = 3.53208 3.97639 3.76080
# Velocity P-wave (km/s) = 6.43881 6.97186 6.71063
#
# Compressibility (1/GPa) = 0.01880302
#
# Stress axis : x y z
#
# Youngs Moduli (GPa) = 58.86657 65.88411 108.69971
#
# Poissons Ratio (x) = 0.35216 0.29141
# Poissons Ratio (y) = 0.31465 0.35383
# Poissons Ratio (z) = 0.15781 0.21446
#
# Static dielectric constant tensor:
#      x y z
#    x 3.994040 0.196550 0.006840 
#    y 0.196550 4.018290 -0.120700 
#    z 0.006840 -0.120700 4.132180 
# 
# 
# High freq. dielectric constant tensor:
#      x y z
#    x 1.828300 0.008670 -0.000990 
#    y 0.008670 1.846210 -0.010360 
#    z -0.000990 -0.010360 1.858710 
# 
# From -- ./inp_files/37986.got.cif
#   From: 2010.06.25/outbox.cif.g09.slc.cpg/sg2_19_cif.got.tgz:37986.got - 2010.06.27 13:26:56.
