data_PCOD8014397
_publ_section_title
;
Structure prediction by ZEFSAII (Michael W. Deem and Ramdas Pophale) SiO2 
 PCOD8014397
Probable space group: P -1
;
_chemical_formula_sum "Si O2"
_cell_formula_units_Z 16
_cell_length_a 6.712947
_cell_length_b 16.113283
_cell_length_c 8.932055
_cell_angle_alpha 62.090095
_cell_angle_beta 85.474672
_cell_angle_gamma 62.300538
_cell_volume 743.965856
_symmetry_space_group_name_H-M "P -1"
_symmetry_group_IT_number 2
_symmetry_cell_setting 'triclinic'
loop_
_space_group_symop_operation_xyz
x,y,z
-x,-y,-z
loop_
_atom_site_type_symbol
_atom_site_label
_atom_site_fract_x
_atom_site_fract_y
_atom_site_fract_z
Si Si1 0.528824 0.564969 0.077740
Si Si2 0.138411 0.807752 0.556296
Si Si3 0.725461 0.981815 0.930563
Si Si4 0.304338 0.084580 0.336592
Si Si5 0.699377 0.392533 0.647350
Si Si6 0.851094 0.159080 0.797915
Si Si7 0.062002 0.617839 0.640312
Si Si8 0.400050 0.268973 0.256114
O O1 0.314534 0.594266 0.181417
O O2 0.767682 0.500893 0.207618
O O3 0.500000 0.500000 0.000000
O O4 0.534129 0.668360 0.923740
O O5 0.050702 0.867831 0.352902
O O6 0.160598 0.690230 0.646731
O O7 0.380050 0.798083 0.595769
O O8 0.946723 0.883056 0.618834
O O9 0.690347 0.973587 0.766183
O O10 0.731934 0.087771 0.895005
O O11 0.942762 0.873438 0.069390
O O12 0.500000 0.000000 0.000000
O O13 0.336448 0.189857 0.234580
O O14 0.500000 0.000000 0.500000
O O15 0.500000 0.500000 0.500000
O O16 0.672282 0.286421 0.712525
O O17 0.923900 0.376187 0.550610
O O18 0.805828 0.654847 0.682059
#
# Coordination Sequence:
#
# PCOD8014397 Si02
#       8
#     2   2   2   2   2   2   2   2
#     4  11  21  38  68  96 131 171 219 277 330 388
#     4  10  21  41  67  91 128 172 219 266 329 391
#     4  11  25  41  64  96 131 170 219 271 329 386
#     4  11  25  42  64  99 131 170 222 272 327 401
#     4   9  21  40  67  92 130 174 215 268 332 397
#     4  10  23  42  67  90 131 172 215 271 329 390
#     4   9  20  42  61  93 133 173 219 265 327 402
#     4  11  23  37  71  96 132 173 219 275 333 387
#
# _framework density 21.506364000000001
#
# number of rings (size 3 to 8) (size 9 to 14) (size 15 to 20)
#    0.000    1.750    1.250    1.875    3.500    5.000 
#    0.000    0.625    5.500    0.000    0.000    0.000 
#    0.000    0.000    0.000    0.000    0.000    0.000 
#
# Total GULP energy -198255.506322 kJ/mol
# GULP energy per Si atom -12390.969145 kJ/mol
# Density = 2.145741 g / cm^3
# Si number density = 21.506364 Si / 1000 Ang^3
#
#
#
# Elastic Constant Matrix: (Units=GPa)
#
#
# Indices 1 2 3 4 5 6 
#
# 1 102.9947 39.9611 45.4155 5.6607 7.4446 -13.0650
# 2 39.9611 108.1904 51.1570 7.1147 -0.7920 -11.2874
# 3 45.4155 51.1570 133.3680 12.5736 -0.5117 -8.7227
# 4 5.6607 7.1147 12.5736 50.7522 -0.8453 -6.7837
# 5 7.4446 -0.7920 -0.5117 -0.8453 33.4479 1.6921
# 6 -13.0650 -11.2874 -8.7227 -6.7837 1.6921 30.0578
#
#
#
# Elastic Compliance Matrix: (Units=1/GPa)
#
#
# Indices 1 2 3 4 5 6 
#
# 1 0.012905 -0.002967 -0.003036 0.000188 -0.003178 0.003836
# 2 -0.002967 0.012254 -0.003524 -0.000207 0.000780 0.002199
# 3 -0.003036 -0.003524 0.010033 -0.001661 0.000711 -0.000146
# 4 0.000188 -0.000207 -0.001661 0.020685 0.000239 0.004177
# 5 -0.003178 0.000780 0.000711 0.000239 0.030770 -0.002560
# 6 0.003836 0.002199 -0.000146 0.004177 -0.002560 0.036807
#
#
# Mechanical properties :
#
#
# Convention : Reuss Voigt Hill
#
# Bulk Modulus (GPa) = 61.95898 68.62448 65.29173
# Shear Modulus (GPa) = 33.81012 36.71953 35.26483
#
# Velocity S-wave (km/s) = 3.96927 4.13653 4.05376
# Velocity P-wave (km/s) = 7.06250 7.40221 7.23435
#
# Compressibility (1/GPa) = 0.01613971
#
# Stress axis : x y z
#
# Youngs Moduli (GPa) = 77.49095 81.60886 99.67002
#
# Poissons Ratio (x) = 0.24210 0.30256
# Poissons Ratio (y) = 0.22988 0.35120
# Poissons Ratio (z) = 0.23523 0.28756
#
# Static dielectric constant tensor:
#      x y z
#    x 3.846470 -0.072400 -0.322230 
#    y -0.072400 4.220380 0.031320 
#    z -0.322230 0.031320 4.310250 
# 
# 
# High freq. dielectric constant tensor:
#      x y z
#    x 1.820560 -0.004120 -0.013540 
#    y -0.004120 1.853460 -0.000890 
#    z -0.013540 -0.000890 1.860220 
# 
# From -- ./inp_files/138716.got.cif
#   From: 2010.06.25/outbox.cif.g09.slc.cpg/sg2_70_cif.got.tgz:138716.got - 2010.06.27 13:26:56.
