data_PCOD8014965
_publ_section_title
;
Structure prediction by ZEFSAII (Michael W. Deem and Ramdas Pophale) SiO2 
 PCOD8014965
Probable space group: P -1
;
_chemical_formula_sum "Si O2"
_cell_formula_units_Z 14
_cell_length_a 11.676957
_cell_length_b 11.442765
_cell_length_c 8.324684
_cell_angle_alpha 139.390580
_cell_angle_beta 81.243104
_cell_angle_gamma 81.583420
_cell_volume 653.559623
_symmetry_space_group_name_H-M "P -1"
_symmetry_group_IT_number 2
_symmetry_cell_setting 'triclinic'
loop_
_space_group_symop_operation_xyz
x,y,z
-x,-y,-z
loop_
_atom_site_type_symbol
_atom_site_label
_atom_site_fract_x
_atom_site_fract_y
_atom_site_fract_z
Si Si1 0.293183 0.456348 0.252698
Si Si2 0.438483 0.704420 0.412762
Si Si3 0.771720 0.145831 0.620603
Si Si4 0.935471 0.159080 0.318115
Si Si5 0.728515 0.555373 0.123997
Si Si6 0.363311 0.063999 0.024272
Si Si7 0.170628 0.170289 0.451487
O O1 0.409485 0.526072 0.308028
O O2 0.164902 0.638864 0.527280
O O3 0.317694 0.279262 0.182509
O O4 0.276658 0.390999 0.007335
O O5 0.376788 0.751941 0.296604
O O6 0.586908 0.651242 0.326755
O O7 0.362584 0.906137 0.732263
O O8 0.862865 0.074745 0.370937
O O9 0.799362 0.965766 0.541374
O O10 0.793996 0.320308 0.890127
O O11 0.033157 0.218375 0.460198
O O12 0.000000 0.000000 0.000000
O O13 0.817257 0.632713 0.286806
O O14 0.270884 0.059019 0.178275
O O15 0.500000 0.000000 0.000000
#
# Coordination Sequence:
#
# PCOD8014965 Si02
#       7
#     2   2   2   2   2   2   2
#     4  10  24  43  65  91 129 175 215 262 320 385
#     4  10  21  42  64  90 135 172 211 260 323 383
#     4  10  23  41  68  95 126 170 213 265 321 379
#     4  10  23  47  70  92 126 175 219 260 325 382
#     4  10  22  38  65  98 125 171 213 260 328 376
#     4  12  26  39  61 102 131 168 218 260 325 379
#     4  12  24  40  65  97 132 166 213 272 310 380
#
# _framework density 21.421151999999999
#
# number of rings (size 3 to 8) (size 9 to 14) (size 15 to 20)
#    0.000    1.714    1.429    4.714    4.000    6.857 
#    0.000    4.286    0.000    0.000    0.000    0.000 
#    0.000    0.000    0.000    0.000    0.000    0.000 
#
# Total GULP energy -173595.689414 kJ/mol
# GULP energy per Si atom -12399.692101 kJ/mol
# Density = 2.137240 g / cm^3
# Si number density = 21.421152 Si / 1000 Ang^3
#
#
#
# Elastic Constant Matrix: (Units=GPa)
#
#
# Indices 1 2 3 4 5 6 
#
# 1 88.1084 10.3984 3.7562 -4.9518 8.6447 9.2517
# 2 10.3984 73.2033 37.4464 -8.1687 0.1105 12.9865
# 3 3.7562 37.4464 115.5616 -3.7803 5.5734 13.0281
# 4 -4.9518 -8.1687 -3.7803 13.6666 8.6075 0.7684
# 5 8.6447 0.1105 5.5734 8.6075 41.8850 0.3469
# 6 9.2517 12.9865 13.0281 0.7684 0.3469 15.9076
#
#
#
# Elastic Compliance Matrix: (Units=1/GPa)
#
#
# Indices 1 2 3 4 5 6 
#
# 1 0.013145 0.000142 0.001027 0.008478 -0.004519 -0.008912
# 2 0.000142 0.019597 -0.004378 0.012525 -0.001964 -0.013057
# 3 0.001027 -0.004378 0.010898 0.002431 -0.002100 -0.006020
# 4 0.008478 0.012525 0.002431 0.099733 -0.022424 -0.021475
# 5 -0.004519 -0.001964 -0.002100 -0.022424 0.029647 0.006388
# 6 -0.008912 -0.013057 -0.006020 -0.021475 0.006388 0.084534
#
#
# Mechanical properties :
#
#
# Convention : Reuss Voigt Hill
#
# Bulk Modulus (GPa) = 26.86697 42.23059 34.54878
# Shear Modulus (GPa) = 18.09095 29.30999 23.70047
#
# Velocity S-wave (km/s) = 2.90924 3.70303 3.32988
# Velocity P-wave (km/s) = 4.88410 6.16770 5.56304
#
# Compressibility (1/GPa) = 0.03722043
#
# Stress axis : x y z
#
# Youngs Moduli (GPa) = 76.07544 51.02776 91.75763
#
# Poissons Ratio (x) = -0.00722 -0.09423
# Poissons Ratio (y) = -0.01077 0.40175
# Poissons Ratio (z) = -0.07812 0.22342
#
# Static dielectric constant tensor:
#      x y z
#    x 3.974360 0.050970 0.151670 
#    y 0.050970 3.686750 0.045640 
#    z 0.151670 0.045640 4.083110 
# 
# 
# High freq. dielectric constant tensor:
#      x y z
#    x 1.850950 0.005920 0.004430 
#    y 0.005920 1.823170 -0.002140 
#    z 0.004430 -0.002140 1.854950 
# 
# From -- ./inp_files/257304.got.cif
#   From: 2010.06.25/outbox.cif.g09.slc.cpg/sg2_129_cif.got.tgz:257304.got - 2010.06.27 13:26:56.
