data_PCOD8014105
_publ_section_title
;
Structure prediction by ZEFSAII (Michael W. Deem and Ramdas Pophale) SiO2 
 PCOD8014105
Probable space group: P -1
;
_chemical_formula_sum "Si O2"
_cell_formula_units_Z 16
_cell_length_a 9.414087
_cell_length_b 20.202138
_cell_length_c 10.769474
_cell_angle_alpha 52.565980
_cell_angle_beta 102.400965
_cell_angle_gamma 143.596947
_cell_volume 784.559449
_symmetry_space_group_name_H-M "P -1"
_symmetry_group_IT_number 2
_symmetry_cell_setting 'triclinic'
loop_
_space_group_symop_operation_xyz
x,y,z
-x,-y,-z
loop_
_atom_site_type_symbol
_atom_site_label
_atom_site_fract_x
_atom_site_fract_y
_atom_site_fract_z
Si Si1 0.295734 0.617167 0.860844
Si Si2 0.315892 0.891770 0.744248
Si Si3 0.193253 0.254143 0.504391
Si Si4 0.725365 0.067853 0.831559
Si Si5 0.721177 0.565613 0.877774
Si Si6 0.745371 0.420740 0.395850
Si Si7 0.285656 0.761450 0.254529
Si Si8 0.283690 0.022983 0.437745
O O1 0.255194 0.578160 0.753442
O O2 0.552258 0.809620 0.714231
O O3 0.397901 0.586811 0.992092
O O4 0.000000 0.500000 0.000000
O O5 0.586585 0.984767 0.616837
O O6 0.021136 0.700802 0.858625
O O7 0.410133 0.926759 0.863978
O O8 0.277650 0.973130 0.626046
O O9 0.246607 0.372434 0.318949
O O10 0.494286 0.357073 0.477172
O O11 0.994389 0.163851 0.693394
O O12 0.037260 0.120630 0.518902
O O13 0.835748 0.211553 0.742719
O O14 0.614975 0.944545 0.052605
O O15 0.500000 0.500000 0.000000
O O16 0.687850 0.297215 0.569515
O O17 0.059018 0.613267 0.278249
#
# Coordination Sequence:
#
# PCOD8014105 Si02
#       8
#     2   2   2   2   2   2   2   2
#     4  12  23  36  64  93 125 160 201 239 303 376
#     4   9  17  35  60  81 124 154 193 237 298 361
#     4  10  23  40  63  87 128 156 197 255 307 355
#     4  10  21  41  65  88 110 165 209 246 297 361
#     4  11  21  37  56  96 127 161 190 247 313 362
#     4  11  24  43  60  90 124 157 201 262 296 348
#     4  10  24  42  65  85 117 163 213 247 297 356
#     4   9  19  34  56  91 117 159 190 235 298 372
#
# _framework density 20.393611
#
# number of rings (size 3 to 8) (size 9 to 14) (size 15 to 20)
#    0.000    1.750    2.500    2.250    3.500    1.500 
#    2.250    0.000    0.000    0.000    0.000    0.000 
#    0.000    0.000    0.000    0.000    0.000    0.000 
#
# Total GULP energy -198257.840734 kJ/mol
# GULP energy per Si atom -12391.115046 kJ/mol
# Density = 2.034719 g / cm^3
# Si number density = 20.393611 Si / 1000 Ang^3
#
#
#
# Elastic Constant Matrix: (Units=GPa)
#
#
# Indices 1 2 3 4 5 6 
#
# 1 96.8975 12.4489 54.0018 -6.0623 12.2421 -4.4749
# 2 12.4489 40.2495 13.6905 -4.1386 12.7871 -3.9913
# 3 54.0018 13.6905 117.6199 0.4198 16.3936 -6.1675
# 4 -6.0623 -4.1386 0.4198 20.1512 -11.6641 -0.1960
# 5 12.2421 12.7871 16.3936 -11.6641 48.9090 -7.9715
# 6 -4.4749 -3.9913 -6.1675 -0.1960 -7.9715 24.6017
#
#
#
# Elastic Compliance Matrix: (Units=1/GPa)
#
#
# Indices 1 2 3 4 5 6 
#
# 1 0.014396 -0.001814 -0.006391 0.004180 0.000141 0.000801
# 2 -0.001814 0.028117 -0.001567 0.002074 -0.005542 0.002060
# 3 -0.006391 -0.001567 0.012075 -0.004189 -0.002935 0.000626
# 4 0.004180 0.002074 -0.004189 0.060155 0.015041 0.005400
# 5 0.000141 -0.005542 -0.002935 0.015041 0.027648 0.007469
# 6 0.000801 0.002060 0.000626 0.005400 0.007469 0.043748
#
#
# Mechanical properties :
#
#
# Convention : Reuss Voigt Hill
#
# Bulk Modulus (GPa) = 28.53499 46.11657 37.32578
# Shear Modulus (GPa) = 23.00297 30.37410 26.68854
#
# Velocity S-wave (km/s) = 3.36214 3.86345 3.62148
# Velocity P-wave (km/s) = 5.39393 6.52411 5.98575
#
# Compressibility (1/GPa) = 0.03504469
#
# Stress axis : x y z
#
# Youngs Moduli (GPa) = 69.46564 35.56558 82.81365
#
# Poissons Ratio (x) = 0.06452 0.52924
# Poissons Ratio (y) = 0.12602 0.12976
# Poissons Ratio (z) = 0.44393 0.05573
#
# Static dielectric constant tensor:
#      x y z
#    x 3.800930 0.261740 0.191010 
#    y 0.261740 3.887510 0.062200 
#    z 0.191010 0.062200 3.829260 
# 
# 
# High freq. dielectric constant tensor:
#      x y z
#    x 1.788600 -0.000770 0.010620 
#    y -0.000770 1.780650 -0.006180 
#    z 0.010620 -0.006180 1.813280 
# 
# From -- ./inp_files/186902.got.cif
#   From: 2010.06.25/outbox.cif.g09.slc.cpg/sg2_94_cif.got.tgz:186902.got - 2010.06.27 13:26:56.
