data_PCOD8014655
_publ_section_title
;
Structure prediction by ZEFSAII (Michael W. Deem and Ramdas Pophale) SiO2 
 PCOD8014655
Probable space group: P -1
;
_chemical_formula_sum "Si O2"
_cell_formula_units_Z 16
_cell_length_a 8.764573
_cell_length_b 11.114619
_cell_length_c 10.080752
_cell_angle_alpha 90.459992
_cell_angle_beta 122.667162
_cell_angle_gamma 114.127897
_cell_volume 720.264783
_symmetry_space_group_name_H-M "P -1"
_symmetry_group_IT_number 2
_symmetry_cell_setting 'triclinic'
loop_
_space_group_symop_operation_xyz
x,y,z
-x,-y,-z
loop_
_atom_site_type_symbol
_atom_site_label
_atom_site_fract_x
_atom_site_fract_y
_atom_site_fract_z
Si Si1 0.614207 0.855974 0.235079
Si Si2 0.201594 0.664012 0.450055
Si Si3 0.935825 0.951505 0.170191
Si Si4 0.106735 0.643288 0.703910
Si Si5 0.623946 0.433034 0.994361
Si Si6 0.024399 0.291798 0.893142
Si Si7 0.597714 0.900010 0.533193
Si Si8 0.778708 0.145577 0.022588
O O1 0.838572 0.933429 0.271096
O O2 0.643531 0.887550 0.402666
O O3 0.515314 0.691732 0.169232
O O4 0.469786 0.911172 0.095953
O O5 0.161056 0.698271 0.580038
O O6 0.445607 0.751259 0.527747
O O7 0.115291 0.499114 0.394148
O O8 0.083532 0.717556 0.298427
O O9 0.865700 0.802969 0.069166
O O10 0.838697 0.025608 0.034195
O O11 0.184930 0.037849 0.287562
O O12 0.288447 0.617213 0.843899
O O13 0.103258 0.763327 0.791429
O O14 0.807906 0.550668 0.993586
O O15 0.500000 0.500000 0.000000
O O16 0.856319 0.243309 0.930480
O O17 0.500000 0.000000 0.500000
#
# Coordination Sequence:
#
# PCOD8014655 Si02
#       8
#     2   2   2   2   2   2   2   2
#     4  11  24  44  68 100 131 183 222 274 339 396
#     4  10  21  44  65  93 132 172 225 258 341 390
#     4  12  25  42  63 102 139 174 222 274 334 401
#     4   9  23  40  69  96 128 177 215 282 328 395
#     4  10  21  41  69  99 128 170 226 280 335 394
#     4  11  22  42  72  94 130 177 224 278 331 400
#     4  12  25  42  68  99 135 181 222 271 332 404
#     4  11  24  43  67 101 132 172 226 280 335 392
#
# _framework density 22.214053
#
# number of rings (size 3 to 8) (size 9 to 14) (size 15 to 20)
#    0.000    1.250    3.750    1.125    3.500    3.500 
#    6.750    0.625    0.000    0.000    0.000    0.000 
#    0.000    0.000    0.000    0.000    0.000    0.000 
#
# Total GULP energy -198435.952607 kJ/mol
# GULP energy per Si atom -12402.247038 kJ/mol
# Density = 2.216349 g / cm^3
# Si number density = 22.214053 Si / 1000 Ang^3
#
#
#
# Elastic Constant Matrix: (Units=GPa)
#
#
# Indices 1 2 3 4 5 6 
#
# 1 81.2283 20.5865 10.5167 -1.9671 8.5160 8.2498
# 2 20.5865 79.5948 21.8803 -4.1421 9.2013 6.3396
# 3 10.5167 21.8803 63.7470 -1.7465 -15.7386 1.5759
# 4 -1.9671 -4.1421 -1.7465 22.8207 6.1440 -2.3736
# 5 8.5160 9.2013 -15.7386 6.1440 42.1229 -4.2989
# 6 8.2498 6.3396 1.5759 -2.3736 -4.2989 47.7649
#
#
#
# Elastic Compliance Matrix: (Units=1/GPa)
#
#
# Indices 1 2 3 4 5 6 
#
# 1 0.013823 -0.002284 -0.002287 0.001329 -0.003575 -0.002265
# 2 -0.002284 0.015997 -0.006494 0.003679 -0.006189 -0.001889
# 3 -0.002287 -0.006494 0.020687 -0.002369 0.010095 0.001365
# 4 0.001329 0.003679 -0.002369 0.046857 -0.008700 0.000906
# 5 -0.003575 -0.006189 0.010095 -0.008700 0.031211 0.003482
# 6 -0.002265 -0.001889 0.001365 0.000906 0.003482 0.021891
#
#
# Mechanical properties :
#
#
# Convention : Reuss Voigt Hill
#
# Bulk Modulus (GPa) = 35.23974 36.72634 35.98304
# Shear Modulus (GPa) = 27.46417 33.98080 30.72249
#
# Velocity S-wave (km/s) = 3.51998 3.91538 3.72293
# Velocity P-wave (km/s) = 5.69372 6.08351 5.89184
#
# Compressibility (1/GPa) = 0.02837705
#
# Stress axis : x y z
#
# Youngs Moduli (GPa) = 72.34403 62.51215 48.33908
#
# Poissons Ratio (x) = 0.14276 0.11055
# Poissons Ratio (y) = 0.16521 0.31393
# Poissons Ratio (z) = 0.16544 0.40598
#
# Static dielectric constant tensor:
#      x y z
#    x 4.112370 0.195440 -0.099680 
#    y 0.195440 4.505840 0.211760 
#    z -0.099680 0.211760 3.944080 
# 
# 
# High freq. dielectric constant tensor:
#      x y z
#    x 1.873960 0.009380 -0.009490 
#    y 0.009380 1.888200 0.004360 
#    z -0.009490 0.004360 1.861810 
# 
# From -- ./inp_files/186975.got.cif
#   From: 2010.06.25/outbox.cif.g09.slc.cpg/sg2_94_cif.got.tgz:186975.got - 2010.06.27 13:26:56.
