data_PCOD8014371
_publ_section_title
;
Structure prediction by ZEFSAII (Michael W. Deem and Ramdas Pophale) SiO2 
 PCOD8014371
Probable space group: P -1
;
_chemical_formula_sum "Si O2"
_cell_formula_units_Z 16
_cell_length_a 8.829234
_cell_length_b 14.775612
_cell_length_c 18.586716
_cell_angle_alpha 141.510152
_cell_angle_beta 140.940007
_cell_angle_gamma 28.990153
_cell_volume 696.683485
_symmetry_space_group_name_H-M "P -1"
_symmetry_group_IT_number 2
_symmetry_cell_setting 'triclinic'
loop_
_space_group_symop_operation_xyz
x,y,z
-x,-y,-z
loop_
_atom_site_type_symbol
_atom_site_label
_atom_site_fract_x
_atom_site_fract_y
_atom_site_fract_z
Si Si1 0.216726 0.118702 0.528997
Si Si2 0.467912 0.565510 0.187650
Si Si3 0.627001 0.192327 0.969314
Si Si4 0.285483 0.357971 0.803104
Si Si5 0.585834 0.734392 0.833697
Si Si6 0.296973 0.117246 0.896253
Si Si7 0.444863 0.279184 0.548219
Si Si8 0.184516 0.626725 0.586539
O O1 0.293018 0.198190 0.669779
O O2 0.882295 0.304877 0.479901
O O3 0.500000 0.000000 0.500000
O O4 0.219415 0.954374 0.463468
O O5 0.649879 0.544113 0.169950
O O6 0.615989 0.587720 0.324276
O O7 0.085022 0.757346 0.160391
O O8 0.528837 0.368822 0.093417
O O9 0.571308 0.249199 0.900235
O O10 0.393428 0.151873 0.877941
O O11 0.000000 0.000000 0.000000
O O12 0.941873 0.523989 0.818701
O O13 0.328302 0.709156 0.729455
O O14 0.481192 0.887292 0.826717
O O15 0.575882 0.823929 0.960079
O O16 0.440453 0.384114 0.540206
O O17 0.146456 0.285981 0.439912
#
# Coordination Sequence:
#
# PCOD8014371 Si02
#       8
#     2   2   2   2   2   2   2   2
#     4  10  21  44  66  98 140 188 241 290 355 419
#     4  12  23  46  75  99 146 186 241 292 361 434
#     4  12  28  44  70 110 146 180 239 300 364 429
#     4  12  26  45  69 104 148 187 235 305 358 420
#     4  11  25  44  72 100 148 185 241 296 363 420
#     4  11  26  45  72 106 138 193 238 287 369 442
#     4  10  22  40  73 102 131 190 249 283 356 424
#     4  10  21  41  67 102 135 185 243 293 342 427
#
# _framework density 22.965952999999999
#
# number of rings (size 3 to 8) (size 9 to 14) (size 15 to 20)
#    0.000    1.000    3.750    3.000    7.000    3.500 
#    2.250    0.625    0.000    0.000    0.000    0.000 
#    0.000    0.000    0.000    0.000    0.000    0.000 
#
# Total GULP energy -198380.281871 kJ/mol
# GULP energy per Si atom -12398.767617 kJ/mol
# Density = 2.291368 g / cm^3
# Si number density = 22.965953 Si / 1000 Ang^3
#
#
#
# Elastic Constant Matrix: (Units=GPa)
#
#
# Indices 1 2 3 4 5 6 
#
# 1 61.6441 31.8773 27.5072 0.7507 15.7118 24.7442
# 2 31.8773 159.0262 54.5620 4.1632 -3.4068 37.1404
# 3 27.5072 54.5620 104.5404 -4.0965 15.1055 3.6234
# 4 0.7507 4.1632 -4.0965 38.8925 1.3929 6.5984
# 5 15.7118 -3.4068 15.1055 1.3929 28.8352 4.2898
# 6 24.7442 37.1404 3.6234 6.5984 4.2898 42.4501
#
#
#
# Elastic Compliance Matrix: (Units=1/GPa)
#
#
# Indices 1 2 3 4 5 6 
#
# 1 0.026843 -0.000886 -0.004554 0.001796 -0.010392 -0.013712
# 2 -0.000886 0.010756 -0.005992 -0.000472 0.006245 -0.008940
# 3 -0.004554 -0.005992 0.014715 0.001319 -0.007063 0.007149
# 4 0.001796 -0.000472 0.001319 0.026742 -0.002323 -0.004668
# 5 -0.010392 0.006245 -0.007063 -0.002323 0.045342 -0.003024
# 6 -0.013712 -0.008940 0.007149 -0.004668 -0.003024 0.039793
#
#
# Mechanical properties :
#
#
# Convention : Reuss Voigt Hill
#
# Bulk Modulus (GPa) = 33.95281 61.45597 47.70439
# Shear Modulus (GPa) = 25.39736 36.11983 30.75859
#
# Velocity S-wave (km/s) = 3.32907 3.97010 3.66363
# Velocity P-wave (km/s) = 5.43995 6.91616 6.22199
#
# Compressibility (1/GPa) = 0.02945265
#
# Stress axis : x y z
#
# Youngs Moduli (GPa) = 37.25350 92.97399 67.95583
#
# Poissons Ratio (x) = 0.08234 0.30944
# Poissons Ratio (y) = 0.03299 0.40716
# Poissons Ratio (z) = 0.16964 0.55706
#
# Static dielectric constant tensor:
#      x y z
#    x 4.601180 0.293890 0.052890 
#    y 0.293890 4.918250 -0.009510 
#    z 0.052890 -0.009510 4.156370 
# 
# 
# High freq. dielectric constant tensor:
#      x y z
#    x 1.886800 0.031270 0.014730 
#    y 0.031270 1.921210 -0.003600 
#    z 0.014730 -0.003600 1.909940 
# 
# From -- ./inp_files/561394.got.cif
#   From: 2010.06.25/outbox.cif.g09.slc.cpg/sg2_281_cif.got.tgz:561394.got - 2010.06.27 13:26:56.
