data_PCOD8014654
_publ_section_title
;
Structure prediction by ZEFSAII (Michael W. Deem and Ramdas Pophale) SiO2 
 PCOD8014654
Probable space group: P -1
;
_chemical_formula_sum "Si O2"
_cell_formula_units_Z 16
_cell_length_a 9.284319
_cell_length_b 7.236388
_cell_length_c 17.939183
_cell_angle_alpha 148.913774
_cell_angle_beta 80.715151
_cell_angle_gamma 99.626565
_cell_volume 613.147807
_symmetry_space_group_name_H-M "P -1"
_symmetry_group_IT_number 2
_symmetry_cell_setting 'triclinic'
loop_
_space_group_symop_operation_xyz
x,y,z
-x,-y,-z
loop_
_atom_site_type_symbol
_atom_site_label
_atom_site_fract_x
_atom_site_fract_y
_atom_site_fract_z
Si Si1 0.749450 0.974309 0.203992
Si Si2 0.933320 0.722804 0.710618
Si Si3 0.125543 0.927095 0.021316
Si Si4 0.665890 0.286258 0.742109
Si Si5 0.532179 0.681971 0.638887
Si Si6 0.869650 0.441205 0.900762
Si Si7 0.282831 0.864715 0.478509
Si Si8 0.351435 0.430614 0.785074
O O1 0.715729 0.862247 0.252647
O O2 0.612551 0.193459 0.263755
O O3 0.761817 0.622373 0.030326
O O4 0.893050 0.247057 0.281748
O O5 0.878305 0.320437 0.551048
O O6 0.875836 0.013531 0.758684
O O7 0.843741 0.774211 0.814073
O O8 0.273624 0.804978 0.928365
O O9 0.037590 0.588358 0.953856
O O10 0.000000 0.000000 0.000000
O O11 0.803831 0.531633 0.852458
O O12 0.704379 0.072779 0.590171
O O13 0.523962 0.509060 0.812614
O O14 0.636496 0.027976 0.727069
O O15 0.500000 0.500000 0.500000
O O16 0.600481 0.411423 0.597568
O O17 0.312316 0.251937 0.646628
#
# Coordination Sequence:
#
# PCOD8014654 Si02
#       8
#     2   2   2   2   2   2   2   2
#     4  10  21  41  69  99 127 175 233 268 331 395
#     4  11  22  42  70  96 133 179 222 275 332 399
#     4  11  23  44  66  97 134 173 224 278 337 388
#     4  11  25  42  66  99 139 174 223 275 329 397
#     4  11  23  42  69  95 131 184 217 271 337 392
#     4  11  21  42  68  98 130 177 226 278 325 401
#     4  12  25  45  66 102 139 177 220 277 334 398
#     4  11  23  43  69  98 133 178 221 278 334 397
#
# _framework density 26.094846
#
# number of rings (size 3 to 8) (size 9 to 14) (size 15 to 20)
#    0.000    1.000    6.250    1.875    0.000    5.500 
#    2.250    3.125    0.000    0.000    0.000    0.000 
#    0.000    0.000    0.000    0.000    0.000    0.000 
#
# Total GULP energy -198351.303414 kJ/mol
# GULP energy per Si atom -12396.956463 kJ/mol
# Density = 2.603545 g / cm^3
# Si number density = 26.094846 Si / 1000 Ang^3
#
#
#
# Elastic Constant Matrix: (Units=GPa)
#
#
# Indices 1 2 3 4 5 6 
#
# 1 91.3750 2.3718 31.1802 -12.8837 13.9289 6.4626
# 2 2.3718 54.2556 5.6231 -15.0117 -2.2511 -6.0252
# 3 31.1802 5.6231 72.0635 -18.6029 10.1399 2.9445
# 4 -12.8837 -15.0117 -18.6029 35.0311 -0.9909 2.7168
# 5 13.9289 -2.2511 10.1399 -0.9909 41.2048 -3.3289
# 6 6.4626 -6.0252 2.9445 2.7168 -3.3289 32.6634
#
#
#
# Elastic Compliance Matrix: (Units=1/GPa)
#
#
# Indices 1 2 3 4 5 6 
#
# 1 0.013650 0.000180 -0.004571 0.002789 -0.003643 -0.002859
# 2 0.000180 0.021354 0.000270 0.009149 0.001524 0.003273
# 3 -0.004571 0.000270 0.018451 0.008282 -0.002919 -0.001696
# 4 0.002789 0.009149 0.008282 0.038069 -0.001805 -0.002961
# 5 -0.003643 0.001524 -0.002919 -0.001805 0.026592 0.004125
# 6 -0.002859 0.003273 -0.001696 -0.002961 0.004125 0.032604
#
#
# Mechanical properties :
#
#
# Convention : Reuss Voigt Hill
#
# Bulk Modulus (GPa) = 22.11794 32.89383 27.50588
# Shear Modulus (GPa) = 28.73030 33.68112 31.20571
#
# Velocity S-wave (km/s) = 3.32172 3.59656 3.46187
# Velocity P-wave (km/s) = 4.81728 5.46624 5.15199
#
# Compressibility (1/GPa) = 0.04521217
#
# Stress axis : x y z
#
# Youngs Moduli (GPa) = 73.26193 46.83043 54.19753
#
# Poissons Ratio (x) = -0.00843 0.24771
# Poissons Ratio (y) = -0.01318 -0.01461
# Poissons Ratio (z) = 0.33485 -0.01262
#
# Static dielectric constant tensor:
#      x y z
#    x 1.270100 -5.316630 -2.653670 
#    y -5.316630 -3.134640 -3.988590 
#    z -2.653670 -3.988590 2.581970 
# 
# 
# High freq. dielectric constant tensor:
#      x y z
#    x 2.054610 0.002210 0.015640 
#    y 0.002210 2.069780 0.000870 
#    z 0.015640 0.000870 2.026080 
# 
# From -- ./inp_files/588274.got.cif
#   From: 2010.06.25/outbox.cif.g09.slc.cpg/sg2_295_cif.got.tgz:588274.got - 2010.06.27 13:26:56.
