data_PCOD8014208
_publ_section_title
;
Structure prediction by ZEFSAII (Michael W. Deem and Ramdas Pophale) SiO2 
 PCOD8014208
Probable space group: P -1
;
_chemical_formula_sum "Si O2"
_cell_formula_units_Z 16
_cell_length_a 6.769763
_cell_length_b 11.289629
_cell_length_c 14.951935
_cell_angle_alpha 58.932167
_cell_angle_beta 60.830293
_cell_angle_gamma 96.797988
_cell_volume 742.853621
_symmetry_space_group_name_H-M "P -1"
_symmetry_group_IT_number 2
_symmetry_cell_setting 'triclinic'
loop_
_space_group_symop_operation_xyz
x,y,z
-x,-y,-z
loop_
_atom_site_type_symbol
_atom_site_label
_atom_site_fract_x
_atom_site_fract_y
_atom_site_fract_z
Si Si1 0.735333 0.783560 0.206107
Si Si2 0.984143 0.678487 0.668295
Si Si3 0.551503 0.355365 0.200032
Si Si4 0.278550 0.048569 0.035004
Si Si5 0.566644 0.116822 0.651056
Si Si6 0.930590 0.586691 0.160353
Si Si7 0.690653 0.111841 0.342474
Si Si8 0.517396 0.179174 0.106034
O O1 0.492289 0.760684 0.329165
O O2 0.729320 0.618006 0.251113
O O3 0.709307 0.849132 0.091749
O O4 0.994828 0.895446 0.161004
O O5 0.180813 0.780472 0.505795
O O6 0.004118 0.523463 0.748119
O O7 0.035370 0.778719 0.711165
O O8 0.695848 0.629694 0.719821
O O9 0.807866 0.511226 0.119685
O O10 0.546812 0.206249 0.305332
O O11 0.541647 0.323133 0.107927
O O12 0.332726 0.156106 0.070914
O O13 0.500000 0.000000 0.000000
O O14 0.307618 0.998709 0.695400
O O15 0.604648 0.996071 0.754613
O O16 0.185800 0.757334 0.018081
O O17 0.500000 0.000000 0.500000
#
# Coordination Sequence:
#
# PCOD8014208 Si02
#       8
#     2   2   2   2   2   2   2   2
#     4  11  23  39  65  91 130 165 205 264 318 362
#     4  10  23  43  61  91 133 169 210 250 313 378
#     4  10  23  40  64  93 129 172 201 257 318 372
#     4  11  21  41  62  97 126 158 211 272 313 362
#     4  10  21  41  65  96 123 163 214 263 306 374
#     4  11  24  43  60  92 137 166 206 258 307 380
#     4   8  18  37  60  89 124 156 206 263 300 358
#     4  11  22  41  70  95 121 160 218 263 315 369
#
# _framework density 21.538565999999999
#
# number of rings (size 3 to 8) (size 9 to 14) (size 15 to 20)
#    0.000    1.750    2.500    1.125    3.500    5.500 
#    6.750    0.625    0.000    0.000    0.000    0.000 
#    0.000    0.000    0.000    0.000    0.000    0.000 
#
# Total GULP energy -198238.359548 kJ/mol
# GULP energy per Si atom -12389.897472 kJ/mol
# Density = 2.148954 g / cm^3
# Si number density = 21.538566 Si / 1000 Ang^3
#
#
#
# Elastic Constant Matrix: (Units=GPa)
#
#
# Indices 1 2 3 4 5 6 
#
# 1 104.0941 34.4733 32.9903 3.1304 0.1767 21.7095
# 2 34.4733 103.9487 22.2548 17.8420 7.2306 9.3710
# 3 32.9903 22.2548 67.3991 4.2607 2.1786 3.3899
# 4 3.1304 17.8420 4.2607 29.8543 -0.8509 4.3161
# 5 0.1767 7.2306 2.1786 -0.8509 20.0289 7.1518
# 6 21.7095 9.3710 3.3899 4.3161 7.1518 35.0341
#
#
#
# Elastic Compliance Matrix: (Units=1/GPa)
#
#
# Indices 1 2 3 4 5 6 
#
# 1 0.014344 -0.003580 -0.005742 0.002865 0.005039 -0.008757
# 2 -0.003580 0.012714 -0.001873 -0.007229 -0.004986 0.000907
# 3 -0.005742 -0.001873 0.018282 -0.001381 -0.002372 0.002945
# 4 0.002865 -0.007229 -0.001381 0.038735 0.006450 -0.005797
# 5 0.005039 -0.004986 -0.002372 0.006450 0.057227 -0.014036
# 6 -0.008757 0.000907 0.002945 -0.005797 -0.014036 0.037022
#
#
# Mechanical properties :
#
#
# Convention : Reuss Voigt Hill
#
# Bulk Modulus (GPa) = 43.57576 50.54210 47.05893
# Shear Modulus (GPa) = 23.99629 29.36504 26.68066
#
# Velocity S-wave (km/s) = 3.34145 3.69639 3.52339
# Velocity P-wave (km/s) = 5.92979 6.46023 6.20069
#
# Compressibility (1/GPa) = 0.02294854
#
# Stress axis : x y z
#
# Youngs Moduli (GPa) = 69.71599 78.65102 54.69833
#
# Poissons Ratio (x) = 0.28160 0.31410
# Poissons Ratio (y) = 0.24961 0.10246
# Poissons Ratio (z) = 0.40033 0.14733
#
# Static dielectric constant tensor:
#      x y z
#    x 3.693590 -0.071940 0.116140 
#    y -0.071940 3.843010 0.127800 
#    z 0.116140 0.127800 3.632770 
# 
# 
# High freq. dielectric constant tensor:
#      x y z
#    x 1.848620 0.010830 0.009470 
#    y 0.010830 1.852440 0.009520 
#    z 0.009470 0.009520 1.823090 
# 
# From -- ./inp_files/93346.got.cif
#   From: 2010.06.25/outbox.cif.g09.slc.cpg/sg2_47_cif.got.tgz:93346.got - 2010.06.27 13:26:56.
