data_PCOD8014768
_publ_section_title
;
Structure prediction by ZEFSAII (Michael W. Deem and Ramdas Pophale) SiO2 
 PCOD8014768
Probable space group: P -1
;
_chemical_formula_sum "Si O2"
_cell_formula_units_Z 16
_cell_length_a 5.428840
_cell_length_b 14.914308
_cell_length_c 18.026130
_cell_angle_alpha 31.659215
_cell_angle_beta 69.970026
_cell_angle_gamma 84.567399
_cell_volume 659.877681
_symmetry_space_group_name_H-M "P -1"
_symmetry_group_IT_number 2
_symmetry_cell_setting 'triclinic'
loop_
_space_group_symop_operation_xyz
x,y,z
-x,-y,-z
loop_
_atom_site_type_symbol
_atom_site_label
_atom_site_fract_x
_atom_site_fract_y
_atom_site_fract_z
Si Si1 0.363978 0.297981 0.693721
Si Si2 0.558708 0.938054 0.401117
Si Si3 0.048792 0.314858 0.127825
Si Si4 0.375981 0.963432 0.833399
Si Si5 0.725390 0.740109 0.006383
Si Si6 0.283853 0.381691 0.363160
Si Si7 0.124836 0.598578 0.340162
Si Si8 0.988042 0.797685 0.633073
O O1 0.500000 0.500000 0.500000
O O2 0.531947 0.293027 0.756426
O O3 0.029987 0.263931 0.766190
O O4 0.392431 0.146314 0.743961
O O5 0.711880 0.796873 0.468037
O O6 0.313521 0.826601 0.563597
O O7 0.450149 0.979277 0.303134
O O8 0.757610 0.130900 0.282277
O O9 0.267266 0.315022 0.041636
O O10 0.165523 0.315931 0.198041
O O11 0.000000 0.500000 0.000000
O O12 0.523507 0.857269 0.944602
O O13 0.043670 0.844738 0.931648
O O14 0.586230 0.558434 0.199962
O O15 0.071559 0.446639 0.387292
O O16 0.188774 0.321473 0.332373
O O17 0.000000 0.500000 0.500000
O O18 0.000000 0.000000 0.500000
#
# Coordination Sequence:
#
# PCOD8014768 Si02
#       8
#     2   2   2   2   2   2   2   2
#     4  10  21  41  72 104 137 179 235 292 354 426
#     4  11  25  43  71 103 142 188 249 302 359 429
#     4  11  25  46  69 102 148 194 241 301 367 436
#     4  11  25  48  75 106 148 190 243 295 367 440
#     4  11  28  48  70 106 148 199 236 295 375 433
#     4  12  28  45  73 105 147 188 247 303 359 437
#     4  10  23  41  71 107 138 183 235 296 362 417
#     4  12  26  43  70 106 140 188 251 306 356 421
#
# _framework density 24.246918000000001
#
# number of rings (size 3 to 8) (size 9 to 14) (size 15 to 20)
#    0.000    1.000    1.250    4.125   14.000    0.500 
#    0.000    3.750    0.000    0.000    0.000    0.000 
#    0.000    0.000    0.000    0.000    0.000    0.000 
#
# Total GULP energy -198296.103587 kJ/mol
# GULP energy per Si atom -12393.506474 kJ/mol
# Density = 2.419173 g / cm^3
# Si number density = 24.246918 Si / 1000 Ang^3
#
#
#
# Elastic Constant Matrix: (Units=GPa)
#
#
# Indices 1 2 3 4 5 6 
#
# 1 135.5911 31.2029 17.0282 -14.2286 15.1954 -6.3010
# 2 31.2029 140.9922 26.7515 -29.4049 -1.7240 1.0242
# 3 17.0282 26.7515 97.8681 -21.8662 6.1359 -2.5021
# 4 -14.2286 -29.4049 -21.8662 29.6722 -8.7531 7.7933
# 5 15.1954 -1.7240 6.1359 -8.7531 30.2461 1.1971
# 6 -6.3010 1.0242 -2.5021 7.7933 1.1971 38.8617
#
#
#
# Elastic Compliance Matrix: (Units=1/GPa)
#
#
# Indices 1 2 3 4 5 6 
#
# 1 0.008421 -0.001763 -0.000638 0.000197 -0.004202 0.001461
# 2 -0.001763 0.009897 -0.000341 0.010883 0.004784 -0.002899
# 3 -0.000638 -0.000341 0.012349 0.008861 0.000404 -0.001089
# 4 0.000197 0.010883 0.008861 0.059080 0.016298 -0.012034
# 5 -0.004202 0.004784 0.000404 0.016298 0.040290 -0.005291
# 6 0.001461 -0.002899 -0.001089 -0.012034 -0.005291 0.028552
#
#
# Mechanical properties :
#
#
# Convention : Reuss Voigt Hill
#
# Bulk Modulus (GPa) = 39.71240 58.26851 48.99045
# Shear Modulus (GPa) = 28.99110 39.72058 34.35584
#
# Velocity S-wave (km/s) = 3.46158 4.05182 3.76828
# Velocity P-wave (km/s) = 5.69128 6.78035 6.25954
#
# Compressibility (1/GPa) = 0.02518105
#
# Stress axis : x y z
#
# Youngs Moduli (GPa) = 118.75703 101.04207 80.97980
#
# Poissons Ratio (x) = 0.17818 0.05169
# Poissons Ratio (y) = 0.20942 0.02760
# Poissons Ratio (z) = 0.07581 0.03443
#
# Static dielectric constant tensor:
#      x y z
#    x 4.714160 -0.080460 0.027700 
#    y -0.080460 4.602670 -0.039460 
#    z 0.027700 -0.039460 4.274820 
# 
# 
# High freq. dielectric constant tensor:
#      x y z
#    x 1.960550 -0.000940 0.004000 
#    y -0.000940 1.984830 -0.006660 
#    z 0.004000 -0.006660 1.952870 
# 
# From -- ./inp_files/37932.got.cif
#   From: 2010.06.25/outbox.cif.g09.slc.cpg/sg2_19_cif.got.tgz:37932.got - 2010.06.27 13:26:56.
