data_PCOD8014192
_publ_section_title
;
Structure prediction by ZEFSAII (Michael W. Deem and Ramdas Pophale) SiO2 
 PCOD8014192
Probable space group: P -1
;
_chemical_formula_sum "Si O2"
_cell_formula_units_Z 12
_cell_length_a 16.676193
_cell_length_b 11.378095
_cell_length_c 8.680580
_cell_angle_alpha 58.189825
_cell_angle_beta 59.578438
_cell_angle_gamma 22.501909
_cell_volume 534.728706
_symmetry_space_group_name_H-M "P -1"
_symmetry_group_IT_number 2
_symmetry_cell_setting 'triclinic'
loop_
_space_group_symop_operation_xyz
x,y,z
-x,-y,-z
loop_
_atom_site_type_symbol
_atom_site_label
_atom_site_fract_x
_atom_site_fract_y
_atom_site_fract_z
Si Si1 0.106343 0.908750 0.305833
Si Si2 0.672962 0.927284 0.113960
Si Si3 0.936055 0.879554 0.352006
Si Si4 0.359070 0.158345 0.378206
Si Si5 0.909666 0.791047 0.762563
Si Si6 0.411481 0.801425 0.686961
O O1 0.354466 0.559434 0.319525
O O2 0.010131 0.941939 0.239280
O O3 0.057335 0.138123 0.181531
O O4 0.000000 0.000000 0.500000
O O5 0.878851 0.575001 0.218905
O O6 0.484042 0.067514 0.179058
O O7 0.611135 0.122892 0.166777
O O8 0.723472 0.935403 0.897456
O O9 0.847360 0.950668 0.555775
O O10 0.127836 0.527386 0.357684
O O11 0.747836 0.113238 0.250937
O O12 0.500000 0.000000 0.500000
O O13 0.349792 0.004516 0.482511
#
# Coordination Sequence:
#
# PCOD8014192 Si02
#       6
#     2   2   2   2   2   2
#     4  10  21  38  59  86 117 151 188 238 287 336
#     4  10  20  38  61  84 115 153 187 237 288 335
#     4  11  20  37  64  86 110 152 198 234 277 342
#     4  10  16  34  60  84 107 151 194 229 273 338
#     4  10  21  36  59  86 119 149 185 238 294 331
#     4  11  21  36  65  86 110 151 201 233 276 343
#
# _framework density 22.441286000000002
#
# number of rings (size 3 to 8) (size 9 to 14) (size 15 to 20)
#    0.000    1.667    6.667    1.500    0.000    3.333 
#    0.000    1.667    7.333    0.000    0.000    0.000 
#    0.000    0.000    0.000    0.000    0.000    0.000 
#
# Total GULP energy -148719.842996 kJ/mol
# GULP energy per Si atom -12393.320250 kJ/mol
# Density = 2.239021 g / cm^3
# Si number density = 22.441286 Si / 1000 Ang^3
#
#
#
# Elastic Constant Matrix: (Units=GPa)
#
#
# Indices 1 2 3 4 5 6 
#
# 1 74.6461 27.3164 -13.9219 4.7890 -12.2698 -17.8193
# 2 27.3164 121.3411 8.2575 30.0302 3.1587 -8.5932
# 3 -13.9219 8.2575 45.2095 22.3157 -15.2980 -5.9985
# 4 4.7890 30.0302 22.3157 23.9313 -6.3809 -7.9175
# 5 -12.2698 3.1587 -15.2980 -6.3809 23.9700 2.3087
# 6 -17.8193 -8.5932 -5.9985 -7.9175 2.3087 35.5309
#
#
#
# Elastic Compliance Matrix: (Units=1/GPa)
#
#
# Indices 1 2 3 4 5 6 
#
# 1 0.029210 -0.004777 0.028351 -0.014282 0.028599 0.013239
# 2 -0.004777 0.015747 0.006444 -0.027885 -0.007520 -0.003225
# 3 0.028351 0.006444 0.084716 -0.077159 0.046238 0.009881
# 4 -0.014282 -0.027885 -0.077159 0.150446 -0.013551 0.007472
# 5 0.028599 -0.007520 0.046238 -0.013551 0.082098 0.011976
# 6 0.013239 -0.003225 0.009881 0.007472 0.011976 0.036559
#
#
# Mechanical properties :
#
#
# Convention : Reuss Voigt Hill
#
# Bulk Modulus (GPa) = 5.27123 31.61119 18.44121
# Shear Modulus (GPa) = 12.43854 31.32274 21.88064
#
# Velocity S-wave (km/s) = 2.35685 3.74005 3.12591
# Velocity P-wave (km/s) = 3.12415 5.72428 4.61127
#
# Compressibility (1/GPa) = 0.18970900
#
# Stress axis : x y z
#
# Youngs Moduli (GPa) = 34.23481 63.50511 11.80413
#
# Poissons Ratio (x) = 0.30339 -0.33466
# Poissons Ratio (y) = 0.16355 -0.07607
# Poissons Ratio (z) = -0.97059 -0.40926
#
# Static dielectric constant tensor:
#      x y z
#    x 5.024340 0.369840 -0.794070 
#    y 0.369840 4.109110 0.348620 
#    z -0.794070 0.348620 4.030880 
# 
# 
# High freq. dielectric constant tensor:
#      x y z
#    x 1.882240 0.009010 -0.033060 
#    y 0.009010 1.887490 0.031340 
#    z -0.033060 0.031340 1.851240 
# 
# From -- ./inp_files/159883.got.cif
#   From: 2010.06.25/outbox.cif.g09.slc.cpg/sg2_80_cif.got.tgz:159883.got - 2010.06.27 13:26:56.
