data_PCOD8014700
_publ_section_title
;
Structure prediction by ZEFSAII (Michael W. Deem and Ramdas Pophale) SiO2 
 PCOD8014700
Probable space group: P -1
;
_chemical_formula_sum "Si O2"
_cell_formula_units_Z 14
_cell_length_a 18.951112
_cell_length_b 5.356513
_cell_length_c 8.536907
_cell_angle_alpha 97.738997
_cell_angle_beta 134.006180
_cell_angle_gamma 76.566579
_cell_volume 605.816665
_symmetry_space_group_name_H-M "P -1"
_symmetry_group_IT_number 2
_symmetry_cell_setting 'triclinic'
loop_
_space_group_symop_operation_xyz
x,y,z
-x,-y,-z
loop_
_atom_site_type_symbol
_atom_site_label
_atom_site_fract_x
_atom_site_fract_y
_atom_site_fract_z
Si Si1 0.909539 0.223831 0.832564
Si Si2 0.178072 0.410964 0.517108
Si Si3 0.740114 0.959568 0.654387
Si Si4 0.845703 0.577149 0.018554
Si Si5 0.259886 0.699682 0.934045
Si Si6 0.909539 0.866629 0.396055
Si Si7 0.435233 0.782383 0.402850
O O1 0.897039 0.329396 0.642780
O O2 0.919113 0.462331 0.980035
O O3 0.804600 0.154487 0.706258
O O4 0.000000 0.000000 0.000000
O O5 0.251136 0.269040 0.481216
O O6 0.251136 0.479824 0.772193
O O7 0.102961 0.226435 0.451662
O O8 0.777656 0.839590 0.871515
O O9 0.629814 0.124256 0.532367
O O10 0.777656 0.382754 0.961452
O O11 0.919113 0.618556 0.277305
O O12 0.195400 0.959087 0.792459
O O13 0.370186 0.754070 0.142925
O O14 0.000000 0.000000 0.500000
O O15 0.500000 0.500000 0.500000
O O16 0.500000 0.000000 0.500000
#
# Coordination Sequence:
#
# PCOD8014700 Si02
#       7
#     2   2   2   2   2   2   2
#     4  11  24  42  69 105 148 198 249 297 378 454
#     4  10  26  43  71 102 154 193 244 310 379 432
#     4  11  23  45  71 106 147 189 246 314 370 454
#     4  10  21  41  70  96 148 196 246 299 369 442
#     4  11  23  45  71 106 147 189 246 314 370 454
#     4  11  24  42  69 105 148 198 249 297 378 454
#     4  12  27  48  83 114 144 201 262 321 396 454
#
# _framework density 23.109300000000001
#
# number of rings (size 3 to 8) (size 9 to 14) (size 15 to 20)
#    0.000    1.143    2.857    1.714    4.000   11.429 
#    0.000    5.714    0.000    0.000    0.000    0.000 
#    0.000    0.000    0.000    0.000    0.000    0.000 
#
# Total GULP energy -173505.791335 kJ/mol
# GULP energy per Si atom -12393.270810 kJ/mol
# Density = 2.305670 g / cm^3
# Si number density = 23.109300 Si / 1000 Ang^3
#
#
#
# Elastic Constant Matrix: (Units=GPa)
#
#
# Indices 1 2 3 4 5 6 
#
# 1 136.1485 60.3871 62.6605 -10.3528 1.0022 9.2566
# 2 60.3871 118.1981 55.3806 -21.0065 9.8039 15.2544
# 3 62.6605 55.3806 132.4519 -5.3065 2.3855 8.5030
# 4 -10.3528 -21.0065 -5.3065 49.5673 3.6522 -3.9588
# 5 1.0022 9.8039 2.3855 3.6522 41.2716 -1.7457
# 6 9.2566 15.2544 8.5030 -3.9588 -1.7457 53.5445
#
#
#
# Elastic Compliance Matrix: (Units=1/GPa)
#
#
# Indices 1 2 3 4 5 6 
#
# 1 0.010648 -0.003859 -0.003423 0.000148 0.000836 -0.000160
# 2 -0.003859 0.013425 -0.003389 0.004581 -0.003406 -0.002392
# 3 -0.003423 -0.003389 0.010549 -0.001064 0.000365 -0.000185
# 4 0.000148 0.004581 -0.001064 0.022284 -0.002986 0.000389
# 5 0.000836 -0.003406 0.000365 -0.002986 0.025320 0.001373
# 6 -0.000160 -0.002392 -0.000185 0.000389 0.001373 0.019488
#
#
# Mechanical properties :
#
#
# Convention : Reuss Voigt Hill
#
# Bulk Modulus (GPa) = 75.30029 82.62833 78.96431
# Shear Modulus (GPa) = 39.22145 42.76803 40.99474
#
# Velocity S-wave (km/s) = 4.12420 4.30663 4.21640
# Velocity P-wave (km/s) = 7.43867 7.78219 7.61237
#
# Compressibility (1/GPa) = 0.01328016
#
# Stress axis : x y z
#
# Youngs Moduli (GPa) = 93.91835 74.48741 94.79587
#
# Poissons Ratio (x) = 0.28742 0.32446
# Poissons Ratio (y) = 0.36239 0.32131
# Poissons Ratio (z) = 0.32145 0.25247
#
# Static dielectric constant tensor:
#      x y z
#    x 4.242880 -0.068640 -0.368790 
#    y -0.068640 4.537280 0.155700 
#    z -0.368790 0.155700 4.251960 
# 
# 
# High freq. dielectric constant tensor:
#      x y z
#    x 1.898370 -0.000460 -0.026290 
#    y -0.000460 1.948010 0.010710 
#    z -0.026290 0.010710 1.898360 
# 
# From -- ./inp_files/339808.got.cif
#   From: 2010.06.25/outbox.cif.g09.slc.cpg/sg2_170_cif.got.tgz:339808.got - 2010.06.27 13:26:56.
