data_PCOD8014146
_publ_section_title
;
Structure prediction by ZEFSAII (Michael W. Deem and Ramdas Pophale) SiO2 
 PCOD8014146
Probable space group: P -1
;
_chemical_formula_sum "Si O2"
_cell_formula_units_Z 12
_cell_length_a 11.704389
_cell_length_b 9.598139
_cell_length_c 10.198316
_cell_angle_alpha 40.435812
_cell_angle_beta 103.919208
_cell_angle_gamma 125.840512
_cell_volume 554.653975
_symmetry_space_group_name_H-M "P -1"
_symmetry_group_IT_number 2
_symmetry_cell_setting 'triclinic'
loop_
_space_group_symop_operation_xyz
x,y,z
-x,-y,-z
loop_
_atom_site_type_symbol
_atom_site_label
_atom_site_fract_x
_atom_site_fract_y
_atom_site_fract_z
Si Si1 0.957291 0.741254 0.753860
Si Si2 0.408480 0.192904 0.251738
Si Si3 0.201372 0.255126 0.768508
Si Si4 0.778688 0.139699 0.103490
Si Si5 0.499914 0.846155 0.416998
Si Si6 0.130362 0.098324 0.150935
O O1 0.116349 0.810693 0.781197
O O2 0.867099 0.701322 0.889985
O O3 0.845690 0.449060 0.852081
O O4 0.000000 0.000000 0.500000
O O5 0.427545 0.199744 0.408563
O O6 0.472421 0.059032 0.294171
O O7 0.228063 0.014051 0.296956
O O8 0.500000 0.500000 0.000000
O O9 0.341539 0.553675 0.536218
O O10 0.044837 0.178582 0.725303
O O11 0.214664 0.020871 0.898690
O O12 0.207070 0.276695 0.911723
O O13 0.606933 0.961016 0.236902
#
# Coordination Sequence:
#
# PCOD8014146 Si02
#       6
#     2   2   2   2   2   2
#     4  10  21  41  65  92 119 168 211 255 309 371
#     4  11  22  39  63  94 124 166 214 255 303 373
#     4  10  22  42  63  95 129 165 203 261 320 363
#     4  10  22  40  63  90 130 160 207 261 309 371
#     4  11  23  39  66  93 127 168 207 257 316 368
#     4  10  21  42  65  89 129 161 212 257 303 377
#
# _framework density 21.635110000000001
#
# number of rings (size 3 to 8) (size 9 to 14) (size 15 to 20)
#    0.000    1.667    1.667    2.500    2.333    0.667 
#   12.000    0.833    0.000    0.000    0.000    0.000 
#    0.000    0.000    0.000    0.000    0.000    0.000 
#
# Total GULP energy -148821.170079 kJ/mol
# GULP energy per Si atom -12401.764173 kJ/mol
# Density = 2.158587 g / cm^3
# Si number density = 21.635110 Si / 1000 Ang^3
#
#
#
# Elastic Constant Matrix: (Units=GPa)
#
#
# Indices 1 2 3 4 5 6 
#
# 1 120.6180 37.3696 46.5612 -3.5234 -7.9733 11.0765
# 2 37.3696 91.4760 49.3835 -17.7421 -2.8144 -7.4046
# 3 46.5612 49.3835 117.3250 -32.9379 1.5032 -3.0855
# 4 -3.5234 -17.7421 -32.9379 32.3313 4.4043 0.2702
# 5 -7.9733 -2.8144 1.5032 4.4043 36.9723 3.8829
# 6 11.0765 -7.4046 -3.0855 0.2702 3.8829 43.6988
#
#
#
# Elastic Compliance Matrix: (Units=1/GPa)
#
#
# Indices 1 2 3 4 5 6 
#
# 1 0.011816 -0.003506 -0.005157 -0.006358 0.003694 -0.004242
# 2 -0.003506 0.015525 -0.003877 0.004196 -0.000257 0.003242
# 3 -0.005157 -0.003877 0.016390 0.014538 -0.004024 0.002075
# 4 -0.006358 0.004196 0.014538 0.048382 -0.007799 0.003743
# 5 0.003694 -0.000257 -0.004024 -0.007799 0.029318 -0.003821
# 6 -0.004242 0.003242 0.002075 0.003743 -0.003821 0.024971
#
#
# Mechanical properties :
#
#
# Convention : Reuss Voigt Hill
#
# Bulk Modulus (GPa) = 53.61823 66.22750 59.92286
# Shear Modulus (GPa) = 28.13750 35.67413 31.90581
#
# Velocity S-wave (km/s) = 3.61022 4.06507 3.84438
# Velocity P-wave (km/s) = 6.49731 7.26021 6.88933
#
# Compressibility (1/GPa) = 0.01865037
#
# Stress axis : x y z
#
# Youngs Moduli (GPa) = 84.63395 64.41095 61.01423
#
# Poissons Ratio (x) = 0.22579 0.31468
# Poissons Ratio (y) = 0.29669 0.23656
# Poissons Ratio (z) = 0.43649 0.24973
#
# Static dielectric constant tensor:
#      x y z
#    x 4.250180 0.048160 -0.002420 
#    y 0.048160 3.958510 -0.036090 
#    z -0.002420 -0.036090 3.663500 
# 
# 
# High freq. dielectric constant tensor:
#      x y z
#    x 1.866730 0.000680 -0.008330 
#    y 0.000680 1.845710 -0.008810 
#    z -0.008330 -0.008810 1.832620 
# 
# From -- ./inp_files/65760.got.cif
#   From: 2010.06.25/outbox.cif.g09.slc.cpg/sg2_33_cif.got.tgz:65760.got - 2010.06.27 13:26:56.
