data_PCOD8014352
_publ_section_title
;
Structure prediction by ZEFSAII (Michael W. Deem and Ramdas Pophale) SiO2 
 PCOD8014352
Probable space group: P -1
;
_chemical_formula_sum "Si O2"
_cell_formula_units_Z 14
_cell_length_a 9.894136
_cell_length_b 11.908355
_cell_length_c 18.534660
_cell_angle_alpha 26.551237
_cell_angle_beta 41.872140
_cell_angle_gamma 36.409481
_cell_volume 576.880132
_symmetry_space_group_name_H-M "P -1"
_symmetry_group_IT_number 2
_symmetry_cell_setting 'triclinic'
loop_
_space_group_symop_operation_xyz
x,y,z
-x,-y,-z
loop_
_atom_site_type_symbol
_atom_site_label
_atom_site_fract_x
_atom_site_fract_y
_atom_site_fract_z
Si Si1 0.699591 0.736050 0.930500
Si Si2 0.190648 0.442758 0.855024
Si Si3 0.320135 0.788255 0.809855
Si Si4 0.475352 0.637532 0.352116
Si Si5 0.816619 0.482194 0.768360
Si Si6 0.000717 0.708308 0.442409
Si Si7 0.933448 0.924456 0.976987
O O1 0.947494 0.703257 0.825774
O O2 0.520868 0.065851 0.803062
O O3 0.667508 0.657610 0.070271
O O4 0.650784 0.529716 0.017376
O O5 0.314965 0.532392 0.690314
O O6 0.163309 0.164873 0.002246
O O7 0.578061 0.742603 0.741034
O O8 0.166725 0.943070 0.851796
O O9 0.186767 0.970581 0.687677
O O10 0.500000 0.500000 0.500000
O O11 0.249816 0.683168 0.371676
O O12 0.924571 0.630714 0.591197
O O13 0.002886 0.323732 0.847035
O O14 0.762712 0.242442 0.888791
O O15 0.000000 0.500000 0.500000
#
# Coordination Sequence:
#
# PCOD8014352 Si02
#       7
#     2   2   2   2   2   2   2
#     4  10  23  42  71  99 123 171 230 272 321 401
#     4  10  21  42  69  95 129 169 221 277 324 384
#     4  11  23  44  69  94 130 175 225 268 329 390
#     4  12  26  45  68  98 136 176 218 278 341 388
#     4  11  23  40  65  95 135 178 210 266 339 387
#     4  12  26  44  63  97 138 173 221 268 326 404
#     4  10  21  41  66  99 132 164 222 276 319 398
#
# _framework density 24.268471999999999
#
# number of rings (size 3 to 8) (size 9 to 14) (size 15 to 20)
#    0.000    1.143    1.429    5.571    2.000    1.714 
#    7.714    0.000    0.000    0.000    0.000    0.000 
#    0.000    0.000    0.000    0.000    0.000    0.000 
#
# Total GULP energy -173500.919014 kJ/mol
# GULP energy per Si atom -12392.922787 kJ/mol
# Density = 2.421324 g / cm^3
# Si number density = 24.268472 Si / 1000 Ang^3
#
#
#
# Elastic Constant Matrix: (Units=GPa)
#
#
# Indices 1 2 3 4 5 6 
#
# 1 38.7040 -1.2306 -6.5989 -5.6504 -1.4801 0.5449
# 2 -1.2306 120.1464 34.2862 20.7912 18.1984 -13.8115
# 3 -6.5989 34.2862 117.0237 19.5200 26.9104 -0.7810
# 4 -5.6504 20.7912 19.5200 48.4244 8.1335 1.2425
# 5 -1.4801 18.1984 26.9104 8.1335 33.6548 -0.7779
# 6 0.5449 -13.8115 -0.7810 1.2425 -0.7779 30.8268
#
#
#
# Elastic Compliance Matrix: (Units=1/GPa)
#
#
# Indices 1 2 3 4 5 6 
#
# 1 0.026459 -0.000656 0.001236 0.002926 -0.000196 -0.000853
# 2 -0.000656 0.010451 -0.001722 -0.003425 -0.003367 0.004704
# 3 0.001236 -0.001722 0.011219 -0.002376 -0.007425 -0.000601
# 4 0.002926 -0.003425 -0.002376 0.023814 -0.001936 -0.002655
# 5 -0.000196 -0.003367 -0.007425 -0.001936 0.037915 -0.000658
# 6 -0.000853 0.004704 -0.000601 -0.002655 -0.000658 0.034637
#
#
# Mechanical properties :
#
#
# Convention : Reuss Voigt Hill
#
# Bulk Modulus (GPa) = 21.81334 36.53195 29.17265
# Shear Modulus (GPa) = 30.85246 39.20903 35.03074
#
# Velocity S-wave (km/s) = 3.56939 4.02386 3.80342
# Velocity P-wave (km/s) = 5.09856 6.05595 5.59776
#
# Compressibility (1/GPa) = 0.04584350
#
# Stress axis : x y z
#
# Youngs Moduli (GPa) = 37.79492 95.68247 89.13185
#
# Poissons Ratio (x) = 0.06280 -0.11014
# Poissons Ratio (y) = 0.02480 0.15350
# Poissons Ratio (z) = -0.04670 0.16478
#
# Static dielectric constant tensor:
#      x y z
#    x 4.108830 -0.072450 0.040530 
#    y -0.072450 4.883460 0.128700 
#    z 0.040530 0.128700 4.339990 
# 
# 
# High freq. dielectric constant tensor:
#      x y z
#    x 1.947230 -0.003410 0.005250 
#    y -0.003410 1.984410 0.015460 
#    z 0.005250 0.015460 1.954700 
# 
# From -- ./inp_files/357090.got.cif
#   From: 2010.06.25/outbox.cif.g09.slc.cpg/sg2_179_cif.got.tgz:357090.got - 2010.06.27 13:26:56.
