data_PCOD8014319
_publ_section_title
;
Structure prediction by ZEFSAII (Michael W. Deem and Ramdas Pophale) SiO2 
 PCOD8014319
Probable space group: P -1
;
_chemical_formula_sum "Si O2"
_cell_formula_units_Z 14
_cell_length_a 5.488545
_cell_length_b 12.163918
_cell_length_c 13.597640
_cell_angle_alpha 134.499383
_cell_angle_beta 68.754025
_cell_angle_gamma 108.251821
_cell_volume 601.094931
_symmetry_space_group_name_H-M "P -1"
_symmetry_group_IT_number 2
_symmetry_cell_setting 'triclinic'
loop_
_space_group_symop_operation_xyz
x,y,z
-x,-y,-z
loop_
_atom_site_type_symbol
_atom_site_label
_atom_site_fract_x
_atom_site_fract_y
_atom_site_fract_z
Si Si1 0.270298 0.170138 0.416970
Si Si2 0.330215 0.323434 0.806104
Si Si3 0.264412 0.981190 0.652755
Si Si4 0.552347 0.767240 0.912020
Si Si5 0.226308 0.418308 0.080890
Si Si6 0.264898 0.473997 0.706645
Si Si7 0.823094 0.978543 0.856985
O O1 0.476818 0.109859 0.427454
O O2 0.293856 0.357382 0.538795
O O3 0.348908 0.117876 0.263267
O O4 0.961412 0.107852 0.440339
O O5 0.609662 0.415033 0.845538
O O6 0.220830 0.372064 0.748573
O O7 0.361638 0.141051 0.686109
O O8 0.135848 0.364530 0.950138
O O9 0.126875 0.004832 0.794992
O O10 0.613775 0.719252 0.984350
O O11 0.508634 0.604702 0.756060
O O12 0.791352 0.876198 0.896848
O O13 0.288384 0.855855 0.007226
O O14 0.993486 0.434556 0.202765
#
# Coordination Sequence:
#
# PCOD8014319 Si02
#       7
#     2   2   2   2   2   2   2
#     4  10  25  42  66  95 134 166 219 254 330 370
#     4  10  22  38  65  90 132 165 220 256 329 366
#     4  10  23  43  65  93 132 171 210 267 310 386
#     4  10  21  41  66  96 123 166 219 260 328 373
#     4  10  22  38  63  96 127 170 210 271 313 390
#     4  11  24  39  62  94 130 171 210 268 315 390
#     4   9  22  41  67  95 127 168 213 271 315 385
#
# _framework density 23.290828000000001
#
# number of rings (size 3 to 8) (size 9 to 14) (size 15 to 20)
#    0.857    1.143    0.000    2.143    6.000    4.000 
#    0.000    5.000    0.000    0.000    0.000    0.000 
#    0.000    0.000    0.000    0.000    0.000    0.000 
#
# Total GULP energy -173481.422012 kJ/mol
# GULP energy per Si atom -12391.530144 kJ/mol
# Density = 2.323782 g / cm^3
# Si number density = 23.290828 Si / 1000 Ang^3
#
#
#
# Elastic Constant Matrix: (Units=GPa)
#
#
# Indices 1 2 3 4 5 6 
#
# 1 81.0831 10.4408 2.3346 6.8189 -2.8230 -0.7178
# 2 10.4408 102.0627 13.0906 19.4642 -1.8796 -2.7378
# 3 2.3346 13.0906 94.0644 22.4482 7.0675 -4.8937
# 4 6.8189 19.4642 22.4482 27.4228 -0.8608 -2.0158
# 5 -2.8230 -1.8796 7.0675 -0.8608 27.9891 3.0087
# 6 -0.7178 -2.7378 -4.8937 -2.0158 3.0087 18.1032
#
#
#
# Elastic Compliance Matrix: (Units=1/GPa)
#
#
# Indices 1 2 3 4 5 6 
#
# 1 0.012702 -0.000778 0.000409 -0.002909 0.001036 0.000001
# 2 -0.000778 0.011410 0.000407 -0.008168 0.000242 0.000855
# 3 0.000409 0.000407 0.013805 -0.011585 -0.004118 0.003204
# 4 -0.002909 -0.008168 -0.011585 0.052641 0.003619 0.000778
# 5 0.001036 0.000242 -0.004118 0.003619 0.037742 -0.006905
# 6 0.000001 0.000855 0.003204 0.000778 -0.006905 0.057469
#
#
# Mechanical properties :
#
#
# Convention : Reuss Voigt Hill
#
# Bulk Modulus (GPa) = 26.31983 36.54913 31.43448
# Shear Modulus (GPa) = 25.20696 31.45931 28.33314
#
# Velocity S-wave (km/s) = 3.29336 3.67920 3.49161
# Velocity P-wave (km/s) = 5.07805 5.81165 5.45719
#
# Compressibility (1/GPa) = 0.03799417
#
# Stress axis : x y z
#
# Youngs Moduli (GPa) = 78.72699 87.63927 72.43718
#
# Poissons Ratio (x) = 0.06819 -0.02966
# Poissons Ratio (y) = 0.06126 -0.02948
# Poissons Ratio (z) = -0.03223 -0.03567
#
# Static dielectric constant tensor:
#      x y z
#    x 3.878990 0.002540 0.042300 
#    y 0.002540 3.965640 0.136650 
#    z 0.042300 0.136650 4.080160 
# 
# 
# High freq. dielectric constant tensor:
#      x y z
#    x 1.901440 0.000880 0.005410 
#    y 0.000880 1.909790 0.018390 
#    z 0.005410 0.018390 1.919470 
# 
# From -- ./inp_files/124275.got.cif
#   From: 2010.06.25/outbox.cif.g09.slc.cpg/sg2_63_cif.got.tgz:124275.got - 2010.06.27 13:26:56.
