data_PCOD8014435
_publ_section_title
;
Structure prediction by ZEFSAII (Michael W. Deem and Ramdas Pophale) SiO2 
 PCOD8014435
Probable space group: P -1
;
_chemical_formula_sum "Si O2"
_cell_formula_units_Z 16
_cell_length_a 8.743860
_cell_length_b 8.137153
_cell_length_c 14.562231
_cell_angle_alpha 96.002252
_cell_angle_beta 70.311496
_cell_angle_gamma 133.678363
_cell_volume 692.934844
_symmetry_space_group_name_H-M "P -1"
_symmetry_group_IT_number 2
_symmetry_cell_setting 'triclinic'
loop_
_space_group_symop_operation_xyz
x,y,z
-x,-y,-z
loop_
_atom_site_type_symbol
_atom_site_label
_atom_site_fract_x
_atom_site_fract_y
_atom_site_fract_z
Si Si1 0.581826 0.426363 0.551574
Si Si2 0.013481 0.031182 0.164883
Si Si3 0.723946 0.037338 0.331644
Si Si4 0.523844 0.818376 0.877850
Si Si5 0.352555 0.461097 0.743955
Si Si6 0.694070 0.508386 0.942510
Si Si7 0.395477 0.801609 0.213644
Si Si8 0.095071 0.472305 0.641239
O O1 0.500000 0.500000 0.500000
O O2 0.442630 0.505291 0.339200
O O3 0.834586 0.548409 0.475629
O O4 0.425766 0.149439 0.567289
O O5 0.947048 0.079635 0.276070
O O6 0.235138 0.076983 0.131482
O O7 0.067844 0.217371 0.090451
O O8 0.800078 0.759183 0.167621
O O9 0.783903 0.266132 0.355233
O O10 0.596609 0.929511 0.252758
O O11 0.465574 0.692201 0.786000
O O12 0.535399 0.020847 0.869987
O O13 0.321781 0.639935 0.982483
O O14 0.183668 0.409576 0.697052
O O15 0.658974 0.405959 0.841947
O O16 0.500000 0.500000 0.000000
O O17 0.175028 0.706471 0.309347
#
# Coordination Sequence:
#
# PCOD8014435 Si02
#       8
#     2   2   2   2   2   2   2   2
#     4   9  22  40  66  96 129 166 211 264 316 385
#     4  10  22  40  63  95 126 171 207 269 316 373
#     4  11  23  40  69  93 129 171 209 263 323 379
#     4  11  23  43  66  91 132 171 217 266 315 381
#     4  10  21  41  67  95 129 171 215 257 327 379
#     4  10  24  42  63  96 131 167 214 273 316 375
#     4  12  24  43  66  97 131 167 219 263 318 379
#     4  11  21  43  64  95 133 166 213 264 323 372
#
# _framework density 23.090192999999999
#
# number of rings (size 3 to 8) (size 9 to 14) (size 15 to 20)
#    0.000    1.500    3.750    0.750    7.000    1.000 
#    2.250    4.375    0.000    0.000    0.000    0.000 
#    0.000    0.000    0.000    0.000    0.000    0.000 
#
# Total GULP energy -198236.437326 kJ/mol
# GULP energy per Si atom -12389.777333 kJ/mol
# Density = 2.303764 g / cm^3
# Si number density = 23.090193 Si / 1000 Ang^3
#
#
#
# Elastic Constant Matrix: (Units=GPa)
#
#
# Indices 1 2 3 4 5 6 
#
# 1 52.6371 12.6657 6.5958 -7.7449 -0.8741 -16.5915
# 2 12.6657 68.1898 12.2958 -15.1800 11.9105 -27.2515
# 3 6.5958 12.2958 68.2389 -24.7690 2.3833 -11.0407
# 4 -7.7449 -15.1800 -24.7690 46.0788 -10.7805 7.9401
# 5 -0.8741 11.9105 2.3833 -10.7805 34.5321 -3.5233
# 6 -16.5915 -27.2515 -11.0407 7.9401 -3.5233 28.1296
#
#
#
# Elastic Compliance Matrix: (Units=1/GPa)
#
#
# Indices 1 2 3 4 5 6 
#
# 1 0.023869 0.001957 0.000891 0.002979 0.002408 0.015785
# 2 0.001957 0.025789 0.000694 0.003721 -0.005211 0.024707
# 3 0.000891 0.000694 0.019006 0.010067 0.002236 0.006096
# 4 0.002979 0.003721 0.010067 0.030358 0.007749 0.001715
# 5 0.002408 -0.005211 0.002236 0.007749 0.033000 -0.000804
# 6 0.015785 0.024707 0.006096 0.001715 -0.000804 0.070604
#
#
# Mechanical properties :
#
#
# Convention : Reuss Voigt Hill
#
# Bulk Modulus (GPa) = 13.20158 28.02003 20.61081
# Shear Modulus (GPa) = 22.64592 32.24868 27.44730
#
# Velocity S-wave (km/s) = 3.13511 3.74122 3.45149
# Velocity P-wave (km/s) = 4.33993 5.55191 4.98290
#
# Compressibility (1/GPa) = 0.07574852
#
# Stress axis : x y z
#
# Youngs Moduli (GPa) = 41.89485 38.77614 52.61605
#
# Poissons Ratio (x) = -0.07587 -0.04691
# Poissons Ratio (y) = -0.08197 -0.03653
# Poissons Ratio (z) = -0.03735 -0.02692
#
# Static dielectric constant tensor:
#      x y z
#    x 4.165350 -0.419160 -0.133180 
#    y -0.419160 4.375660 -0.755270 
#    z -0.133180 -0.755270 4.892340 
# 
# 
# High freq. dielectric constant tensor:
#      x y z
#    x 1.907030 -0.034050 -0.016420 
#    y -0.034050 1.904790 -0.031300 
#    z -0.016420 -0.031300 1.916240 
# 
# From -- ./inp_files/495056.got.cif
#   From: 2010.06.25/outbox.cif.g09.slc.cpg/sg2_248_cif.got.tgz:495056.got - 2010.06.27 13:26:56.
