data_PCOD8014153
_publ_section_title
;
Structure prediction by ZEFSAII (Michael W. Deem and Ramdas Pophale) SiO2 
 PCOD8014153
Probable space group: P -1
;
_chemical_formula_sum "Si O2"
_cell_formula_units_Z 16
_cell_length_a 12.541727
_cell_length_b 11.593884
_cell_length_c 11.899612
_cell_angle_alpha 44.757672
_cell_angle_beta 108.637651
_cell_angle_gamma 72.756602
_cell_volume 715.986028
_symmetry_space_group_name_H-M "P -1"
_symmetry_group_IT_number 2
_symmetry_cell_setting 'triclinic'
loop_
_space_group_symop_operation_xyz
x,y,z
-x,-y,-z
loop_
_atom_site_type_symbol
_atom_site_label
_atom_site_fract_x
_atom_site_fract_y
_atom_site_fract_z
Si Si1 0.780822 0.731758 0.517259
Si Si2 0.774881 0.054392 0.165208
Si Si3 0.196188 0.585014 0.640858
Si Si4 0.454836 0.578113 0.802653
Si Si5 0.210984 0.939984 0.093369
Si Si6 0.806845 0.728706 0.017500
Si Si7 0.209105 0.587098 0.385541
Si Si8 0.325429 0.090865 0.391403
O O1 0.693338 0.989581 0.248837
O O2 0.694691 0.661162 0.488739
O O3 0.768789 0.752706 0.632534
O O4 0.989378 0.498111 0.711381
O O5 0.981888 0.860418 0.402827
O O6 0.641159 0.353875 0.949052
O O7 0.754626 0.046673 0.031847
O O8 0.300121 0.629864 0.676605
O O9 0.228061 0.508014 0.574654
O O10 0.278297 0.339822 0.910598
O O11 0.371796 0.849190 0.568790
O O12 0.500000 0.500000 0.000000
O O13 0.303402 0.657804 0.348580
O O14 0.292625 0.992579 0.162738
O O15 0.999101 0.161463 0.896648
O O16 0.804710 0.719947 0.888115
O O17 0.500000 0.000000 0.500000
#
# Coordination Sequence:
#
# PCOD8014153 Si02
#       8
#     2   2   2   2   2   2   2   2
#     4  10  21  41  65  92 127 169 211 258 316 378
#     4  10  22  42  67  98 124 169 210 259 324 370
#     4  10  22  43  69  96 127 167 209 263 319 375
#     4  12  25  45  64  93 132 165 216 264 309 382
#     4   9  18  36  64  97 127 158 208 265 313 375
#     4  10  21  41  66  93 126 166 213 258 316 380
#     4   9  18  36  65  96 126 162 208 261 316 374
#     4  12  26  43  59  91 133 168 210 263 315 372
#
# _framework density 22.346803000000001
#
# number of rings (size 3 to 8) (size 9 to 14) (size 15 to 20)
#    0.000    1.750    1.250    2.625    1.750    4.500 
#    4.500    2.500    0.000    0.000    0.000    0.000 
#    0.000    0.000    0.000    0.000    0.000    0.000 
#
# Total GULP energy -198397.613230 kJ/mol
# GULP energy per Si atom -12399.850827 kJ/mol
# Density = 2.229594 g / cm^3
# Si number density = 22.346803 Si / 1000 Ang^3
#
#
#
# Elastic Constant Matrix: (Units=GPa)
#
#
# Indices 1 2 3 4 5 6 
#
# 1 113.1666 51.6329 35.1296 -4.2203 -23.2964 18.4457
# 2 51.6329 151.7151 39.0468 3.0837 -14.9343 10.8276
# 3 35.1296 39.0468 61.9366 3.3603 -27.7327 2.3250
# 4 -4.2203 3.0837 3.3603 32.4320 -4.7810 -14.3249
# 5 -23.2964 -14.9343 -27.7327 -4.7810 38.3623 -2.0482
# 6 18.4457 10.8276 2.3250 -14.3249 -2.0482 32.4673
#
#
#
# Elastic Compliance Matrix: (Units=1/GPa)
#
#
# Indices 1 2 3 4 5 6 
#
# 1 0.012971 -0.002660 -0.003751 0.000325 0.003859 -0.005827
# 2 -0.002660 0.008685 -0.004660 -0.001855 -0.001941 -0.001992
# 3 -0.003751 -0.004660 0.028594 0.000830 0.016846 0.003067
# 4 0.000325 -0.001855 0.000830 0.039982 0.006040 0.018396
# 5 0.003859 -0.001941 0.016846 0.006040 0.040719 0.002482
# 6 -0.005827 -0.001992 0.003067 0.018396 0.002482 0.042829
#
#
# Mechanical properties :
#
#
# Convention : Reuss Voigt Hill
#
# Bulk Modulus (GPa) = 35.57768 64.27077 49.92423
# Shear Modulus (GPa) = 24.35583 34.05292 29.20437
#
# Velocity S-wave (km/s) = 3.30495 3.90787 3.61899
# Velocity P-wave (km/s) = 5.52439 7.01320 6.31284
#
# Compressibility (1/GPa) = 0.02810751
#
# Stress axis : x y z
#
# Youngs Moduli (GPa) = 77.09664 115.14469 34.97281
#
# Poissons Ratio (x) = 0.30626 0.13118
# Poissons Ratio (y) = 0.20506 0.16297
# Poissons Ratio (z) = 0.28919 0.53658
#
# Static dielectric constant tensor:
#      x y z
#    x 4.176350 0.114630 -0.358500 
#    y 0.114630 4.147240 -0.002530 
#    z -0.358500 -0.002530 4.430030 
# 
# 
# High freq. dielectric constant tensor:
#      x y z
#    x 1.881050 0.004310 -0.016850 
#    y 0.004310 1.886710 0.003080 
#    z -0.016850 0.003080 1.874580 
# 
# From -- ./inp_files/207738.got.cif
#   From: 2010.06.25/outbox.cif.g09.slc.cpg/sg2_104_cif.got.tgz:207738.got - 2010.06.27 13:26:56.
