data_PCOD8014695
_publ_section_title
;
Structure prediction by ZEFSAII (Michael W. Deem and Ramdas Pophale) SiO2 
 PCOD8014695
Probable space group: P -1
;
_chemical_formula_sum "Si O2"
_cell_formula_units_Z 16
_cell_length_a 14.419895
_cell_length_b 5.195461
_cell_length_c 17.320790
_cell_angle_alpha 117.400792
_cell_angle_beta 42.999956
_cell_angle_gamma 95.328559
_cell_volume 719.242685
_symmetry_space_group_name_H-M "P -1"
_symmetry_group_IT_number 2
_symmetry_cell_setting 'triclinic'
loop_
_space_group_symop_operation_xyz
x,y,z
-x,-y,-z
loop_
_atom_site_type_symbol
_atom_site_label
_atom_site_fract_x
_atom_site_fract_y
_atom_site_fract_z
Si Si1 0.686544 0.481843 0.460166
Si Si2 0.612850 0.589159 0.178870
Si Si3 0.159251 0.833850 0.129810
Si Si4 0.594676 0.032059 0.377891
Si Si5 0.953746 0.364560 0.584753
Si Si6 0.431696 0.194945 0.278476
Si Si7 0.343144 0.100471 0.153285
Si Si8 0.022200 0.489466 0.720039
O O1 0.717836 0.136491 0.356516
O O2 0.516603 0.702801 0.574344
O O3 0.687142 0.510147 0.558108
O O4 0.813968 0.571542 0.356247
O O5 0.559660 0.306494 0.188170
O O6 0.666667 0.703829 0.240720
O O7 0.485043 0.885645 0.257005
O O8 0.750895 0.460492 0.019616
O O9 0.033175 0.746679 0.234325
O O10 0.265539 0.872236 0.137967
O O11 0.089928 0.139642 0.158315
O O12 0.500000 0.000000 0.500000
O O13 0.777571 0.540104 0.738257
O O14 0.000000 0.500000 0.500000
O O15 0.049224 0.408498 0.602356
O O16 0.000000 0.000000 0.500000
O O17 0.364616 0.085148 0.230272
O O18 0.500000 0.000000 0.000000
#
# Coordination Sequence:
#
# PCOD8014695 Si02
#       8
#     2   2   2   2   2   2   2   2
#     4  10  23  41  66 101 125 167 217 273 339 400
#     4  11  23  41  65  95 132 167 214 278 334 386
#     4  11  25  44  62  95 137 180 217 265 326 390
#     4  10  21  41  70  96 127 157 215 289 338 381
#     4  11  24  44  63  94 137 182 225 278 331 395
#     4  11  23  39  67  99 129 169 220 278 331 383
#     4  11  24  43  69 102 135 185 234 280 326 392
#     4  11  25  43  66  90 136 181 214 262 331 411
#
# _framework density 22.245619999999999
#
# number of rings (size 3 to 8) (size 9 to 14) (size 15 to 20)
#    0.000    1.250    2.500    3.000    3.500    5.500 
#    0.000    1.250    0.000    0.000    0.000    0.000 
#    0.000    0.000    0.000    0.000    0.000    0.000 
#
# Total GULP energy -198243.423577 kJ/mol
# GULP energy per Si atom -12390.213974 kJ/mol
# Density = 2.219499 g / cm^3
# Si number density = 22.245620 Si / 1000 Ang^3
#
#
#
# Elastic Constant Matrix: (Units=GPa)
#
#
# Indices 1 2 3 4 5 6 
#
# 1 71.4221 18.6266 63.3593 0.7839 16.9551 24.1371
# 2 18.6266 103.6913 40.3246 -6.5564 0.8276 12.9031
# 3 63.3593 40.3246 125.0130 6.5485 18.0089 28.4428
# 4 0.7839 -6.5564 6.5485 40.6704 8.5148 -2.7745
# 5 16.9551 0.8276 18.0089 8.5148 44.3631 -2.7095
# 6 24.1371 12.9031 28.4428 -2.7745 -2.7095 33.6377
#
#
#
# Elastic Compliance Matrix: (Units=1/GPa)
#
#
# Indices 1 2 3 4 5 6 
#
# 1 0.030359 0.000901 -0.011758 0.002277 -0.008056 -0.012649
# 2 0.000901 0.011347 -0.003998 0.002245 0.000551 -0.001389
# 3 -0.011758 -0.003998 0.016724 -0.003021 -0.001920 -0.004574
# 4 0.002277 0.002245 -0.003021 0.026495 -0.004657 0.001869
# 5 -0.008056 0.000551 -0.001920 -0.004657 0.027836 0.009051
# 6 -0.012649 -0.001389 -0.004574 0.001869 0.009051 0.044089
#
#
# Mechanical properties :
#
#
# Convention : Reuss Voigt Hill
#
# Bulk Modulus (GPa) = 34.81838 60.52748 47.67293
# Shear Modulus (GPa) = 25.49289 35.58864 30.54077
#
# Velocity S-wave (km/s) = 3.38890 4.00409 3.70927
# Velocity P-wave (km/s) = 5.56764 6.97458 6.31044
#
# Compressibility (1/GPa) = 0.02872047
#
# Stress axis : x y z
#
# Youngs Moduli (GPa) = 32.93871 88.12641 59.79588
#
# Poissons Ratio (x) = -0.07944 0.70310
# Poissons Ratio (y) = -0.02969 0.23906
# Poissons Ratio (z) = 0.38731 0.35232
#
# Static dielectric constant tensor:
#      x y z
#    x 9.451440 -1.172120 0.154220 
#    y -1.172120 2.638160 0.156870 
#    z 0.154220 0.156870 4.126230 
# 
# 
# High freq. dielectric constant tensor:
#      x y z
#    x 1.874070 0.014910 0.019950 
#    y 0.014910 1.872050 0.002410 
#    z 0.019950 0.002410 1.875060 
# 
# From -- ./inp_files/84163.got.cif
#   From: 2010.06.25/outbox.cif.g09.slc.cpg/sg2_43_cif.got.tgz:84163.got - 2010.06.27 13:26:56.
