data_PCOD8014299
_publ_section_title
;
Structure prediction by ZEFSAII (Michael W. Deem and Ramdas Pophale) SiO2 
 PCOD8014299
Probable space group: P -1
;
_chemical_formula_sum "Si O2"
_cell_formula_units_Z 16
_cell_length_a 9.485756
_cell_length_b 27.044204
_cell_length_c 5.169594
_cell_angle_alpha 116.248057
_cell_angle_beta 77.128033
_cell_angle_gamma 142.556658
_cell_volume 702.827261
_symmetry_space_group_name_H-M "P -1"
_symmetry_group_IT_number 2
_symmetry_cell_setting 'triclinic'
loop_
_space_group_symop_operation_xyz
x,y,z
-x,-y,-z
loop_
_atom_site_type_symbol
_atom_site_label
_atom_site_fract_x
_atom_site_fract_y
_atom_site_fract_z
Si Si1 0.254331 0.753255 0.544736
Si Si2 0.037823 0.939474 0.582481
Si Si3 0.811547 0.694284 0.505651
Si Si4 0.851523 0.341882 0.124874
Si Si5 0.749954 0.743002 0.161219
Si Si6 0.636230 0.496603 0.603449
Si Si7 0.774388 0.429471 0.112982
Si Si8 0.733376 0.957373 0.773193
O O1 0.291923 0.728831 0.215687
O O2 0.458642 0.861276 0.723764
O O3 0.003902 0.708217 0.544834
O O4 0.264814 0.715069 0.695001
O O5 0.860686 0.836478 0.355280
O O6 0.879377 0.945547 0.676980
O O7 0.235861 0.002621 0.420745
O O8 0.173431 0.973690 0.879037
O O9 0.879823 0.743787 0.322635
O O10 0.556199 0.586838 0.312349
O O11 0.787856 0.731571 0.831072
O O12 0.823116 0.399705 0.253662
O O13 0.130509 0.407740 0.129303
O O14 0.467646 0.661372 0.148643
O O15 0.500000 0.500000 0.500000
O O16 0.746339 0.482649 0.347238
O O17 0.000000 0.500000 0.000000
#
# Coordination Sequence:
#
# PCOD8014299 Si02
#       8
#     2   2   2   2   2   2   2   2
#     4  12  25  43  68  98 135 172 228 274 344 387
#     4  10  21  41  66  94 127 168 217 267 347 394
#     4  11  25  43  64  95 134 178 226 270 325 420
#     4  12  25  42  70  98 136 180 229 279 333 397
#     4  11  24  44  68  95 135 180 220 272 340 399
#     4  11  24  44  66  97 139 184 223 273 339 405
#     4  11  25  44  68 104 139 175 234 285 332 393
#     4  10  22  40  66  97 128 163 216 284 328 403
#
# _framework density 22.765193
#
# number of rings (size 3 to 8) (size 9 to 14) (size 15 to 20)
#    0.000    1.000    1.250    4.875    1.750    8.500 
#    0.000    3.750    0.000    0.000    0.000    0.000 
#    0.000    0.000    0.000    0.000    0.000    0.000 
#
# Total GULP energy -198447.445819 kJ/mol
# GULP energy per Si atom -12402.965364 kJ/mol
# Density = 2.271338 g / cm^3
# Si number density = 22.765193 Si / 1000 Ang^3
#
#
#
# Elastic Constant Matrix: (Units=GPa)
#
#
# Indices 1 2 3 4 5 6 
#
# 1 94.3394 25.7525 14.2467 -9.5764 7.2359 -7.7923
# 2 25.7525 129.7928 39.0253 0.3957 5.0287 -6.3727
# 3 14.2467 39.0253 85.9601 1.0168 19.0476 -9.4221
# 4 -9.5764 0.3957 1.0168 37.9663 -8.4510 6.5883
# 5 7.2359 5.0287 19.0476 -8.4510 20.6906 -4.4552
# 6 -7.7923 -6.3727 -9.4221 6.5883 -4.4552 37.2005
#
#
#
# Elastic Compliance Matrix: (Units=1/GPa)
#
#
# Indices 1 2 3 4 5 6 
#
# 1 0.011726 -0.002054 -0.000462 0.002327 -0.001936 0.001343
# 2 -0.002054 0.009368 -0.004457 0.000028 0.002633 0.000356
# 3 -0.000462 -0.004457 0.017693 -0.004624 -0.016399 0.002476
# 4 0.002327 0.000028 -0.004624 0.031201 0.015237 -0.004380
# 5 -0.001936 0.002633 -0.016399 0.015237 0.070028 0.001580
# 6 0.001343 0.000356 0.002476 -0.004380 0.001580 0.028816
#
#
# Mechanical properties :
#
#
# Convention : Reuss Voigt Hill
#
# Bulk Modulus (GPa) = 40.25663 52.01570 46.13617
# Shear Modulus (GPa) = 26.16989 34.57602 30.37295
#
# Velocity S-wave (km/s) = 3.39419 3.90142 3.65661
# Velocity P-wave (km/s) = 5.75174 6.57215 6.17558
#
# Compressibility (1/GPa) = 0.02484063
#
# Stress axis : x y z
#
# Youngs Moduli (GPa) = 85.27922 106.75079 56.51873
#
# Poissons Ratio (x) = 0.21924 0.02613
# Poissons Ratio (y) = 0.17514 0.25191
# Poissons Ratio (z) = 0.03943 0.47581
#
# Static dielectric constant tensor:
#      x y z
#    x 4.115470 -0.026470 0.135610 
#    y -0.026470 4.208950 0.135400 
#    z 0.135610 0.135400 4.227540 
# 
# 
# High freq. dielectric constant tensor:
#      x y z
#    x 1.893320 -0.004290 0.005410 
#    y -0.004290 1.902880 0.004430 
#    z 0.005410 0.004430 1.904980 
# 
# From -- ./inp_files/56534.got.cif
#   From: 2010.06.25/outbox.cif.g09.slc.cpg/sg2_29_cif.got.tgz:56534.got - 2010.06.27 13:26:56.
