data_PCOD8014116
_publ_section_title
;
Structure prediction by ZEFSAII (Michael W. Deem and Ramdas Pophale) SiO2 
 PCOD8014116
Probable space group: P -1
;
_chemical_formula_sum "Si O2"
_cell_formula_units_Z 16
_cell_length_a 8.416317
_cell_length_b 13.353366
_cell_length_c 11.044997
_cell_angle_alpha 73.254893
_cell_angle_beta 40.964047
_cell_angle_gamma 90.079339
_cell_volume 730.344881
_symmetry_space_group_name_H-M "P -1"
_symmetry_group_IT_number 2
_symmetry_cell_setting 'triclinic'
loop_
_space_group_symop_operation_xyz
x,y,z
-x,-y,-z
loop_
_atom_site_type_symbol
_atom_site_label
_atom_site_fract_x
_atom_site_fract_y
_atom_site_fract_z
Si Si1 0.277050 0.707003 0.514867
Si Si2 0.691119 0.164541 0.035145
Si Si3 0.908120 0.236629 0.641368
Si Si4 0.973247 0.473326 0.883126
Si Si5 0.572259 0.677645 0.808550
Si Si6 0.200553 0.010494 0.276319
Si Si7 0.168410 0.274041 0.848226
Si Si8 0.867379 0.773519 0.840853
O O1 0.264022 0.732033 0.371230
O O2 0.114548 0.579732 0.683265
O O3 0.575886 0.729002 0.365514
O O4 0.165407 0.788575 0.628460
O O5 0.807381 0.252764 0.826059
O O6 0.932797 0.161990 0.978828
O O7 0.518570 0.216698 0.197232
O O8 0.497822 0.043779 0.143245
O O9 0.207350 0.312543 0.421861
O O10 0.872789 0.105604 0.708700
O O11 0.098193 0.380668 0.809527
O O12 0.000000 0.500000 0.000000
O O13 0.670025 0.435034 0.033991
O O14 0.692124 0.687870 0.871219
O O15 0.181690 0.109473 0.166528
O O16 0.000000 0.000000 0.500000
O O17 0.201489 0.281833 0.970166
#
# Coordination Sequence:
#
# PCOD8014116 Si02
#       8
#     2   2   2   2   2   2   2   2
#     4  11  22  40  62  90 120 166 202 248 308 357
#     4  10  22  38  63  93 122 162 202 250 308 362
#     4  11  22  40  69  89 122 162 210 252 299 365
#     4  11  23  41  64  90 126 163 204 254 310 362
#     4   9  21  40  63  89 121 158 211 250 304 355
#     4  11  19  42  67  91 120 161 208 254 300 361
#     4  11  24  42  61  90 134 158 199 254 310 365
#     4  10  21  41  65  89 124 162 202 257 299 366
#
# _framework density 21.907457999999998
#
# number of rings (size 3 to 8) (size 9 to 14) (size 15 to 20)
#    0.000    1.500    5.000    2.250    1.750    2.000 
#    0.000    6.250    0.000    0.000    0.000    0.000 
#    0.000    0.000    0.000    0.000    0.000    0.000 
#
# Total GULP energy -198312.239962 kJ/mol
# GULP energy per Si atom -12394.514998 kJ/mol
# Density = 2.185760 g / cm^3
# Si number density = 21.907458 Si / 1000 Ang^3
#
#
#
# Elastic Constant Matrix: (Units=GPa)
#
#
# Indices 1 2 3 4 5 6 
#
# 1 88.3345 35.3585 53.8515 -8.4927 -17.4611 -5.0677
# 2 35.3585 58.4655 10.8519 -2.6299 -10.4887 -11.7900
# 3 53.8515 10.8519 107.3564 0.6805 -27.1988 1.6785
# 4 -8.4927 -2.6299 0.6805 30.5959 -7.0766 -1.5958
# 5 -17.4611 -10.4887 -27.1988 -7.0766 50.4434 3.3463
# 6 -5.0677 -11.7900 1.6785 -1.5958 3.3463 24.3279
#
#
#
# Elastic Compliance Matrix: (Units=1/GPa)
#
#
# Indices 1 2 3 4 5 6 
#
# 1 0.022804 -0.011472 -0.010099 0.005776 0.000863 0.000147
# 2 -0.011472 0.025764 0.003703 0.000081 0.002766 0.009465
# 3 -0.010099 0.003703 0.015451 -0.001669 0.005519 -0.002244
# 4 0.005776 0.000081 -0.001669 0.035860 0.005955 0.002891
# 5 0.000863 0.002766 0.005519 0.005955 0.024633 -0.001858
# 6 0.000147 0.009465 -0.002244 0.002891 -0.001858 0.046323
#
#
# Mechanical properties :
#
#
# Convention : Reuss Voigt Hill
#
# Bulk Modulus (GPa) = 35.36068 50.47557 42.91812
# Shear Modulus (GPa) = 23.14829 31.34641 27.24735
#
# Velocity S-wave (km/s) = 3.25413 3.78677 3.53051
# Velocity P-wave (km/s) = 5.50410 6.49691 6.02100
#
# Compressibility (1/GPa) = 0.02828000
#
# Stress axis : x y z
#
# Youngs Moduli (GPa) = 43.85184 38.81429 64.72267
#
# Poissons Ratio (x) = 0.44529 0.65366
# Poissons Ratio (y) = 0.50309 -0.23965
# Poissons Ratio (z) = 0.44288 -0.14372
#
# Static dielectric constant tensor:
#      x y z
#    x 4.088140 -0.299920 -0.312130 
#    y -0.299920 5.751720 0.409600 
#    z -0.312130 0.409600 4.232170 
# 
# 
# High freq. dielectric constant tensor:
#      x y z
#    x 1.855200 -0.006780 -0.014090 
#    y -0.006780 1.839660 0.013820 
#    z -0.014090 0.013820 1.873390 
# 
# From -- ./inp_files/398893.got.cif
#   From: 2010.06.25/outbox.cif.g09.slc.cpg/sg2_200_cif.got.tgz:398893.got - 2010.06.27 13:26:56.
