data_PCOD8014998
_publ_section_title
;
Structure prediction by ZEFSAII (Michael W. Deem and Ramdas Pophale) SiO2 
 PCOD8014998
Probable space group: P -1
;
_chemical_formula_sum "Si O2"
_cell_formula_units_Z 16
_cell_length_a 18.198572
_cell_length_b 8.412483
_cell_length_c 8.845543
_cell_angle_alpha 98.098875
_cell_angle_beta 47.147134
_cell_angle_gamma 71.233515
_cell_volume 803.952393
_symmetry_space_group_name_H-M "P -1"
_symmetry_group_IT_number 2
_symmetry_cell_setting 'triclinic'
loop_
_space_group_symop_operation_xyz
x,y,z
-x,-y,-z
loop_
_atom_site_type_symbol
_atom_site_label
_atom_site_fract_x
_atom_site_fract_y
_atom_site_fract_z
Si Si1 0.166855 0.566302 0.920330
Si Si2 0.878241 0.710119 0.909115
Si Si3 0.767379 0.018601 0.854862
Si Si4 0.736346 0.047896 0.396536
Si Si5 0.080264 0.093254 0.650148
Si Si6 0.640983 0.353709 0.320855
Si Si7 0.634539 0.943510 0.795353
Si Si8 0.130881 0.423341 0.638202
O O1 0.158093 0.444811 0.051835
O O2 0.300260 0.523901 0.724705
O O3 0.133310 0.507905 0.805782
O O4 0.065573 0.803601 0.120274
O O5 0.804896 0.867322 0.162986
O O6 0.025543 0.601588 0.706082
O O7 0.839186 0.812004 0.814929
O O8 0.866620 0.007359 0.600689
O O9 0.656207 0.044401 0.918216
O O10 0.712375 0.202622 0.064891
O O11 0.651670 0.247926 0.448590
O O12 0.836814 0.061851 0.353130
O O13 0.650377 0.023112 0.625023
O O14 0.097919 0.266794 0.682329
O O15 0.500000 0.500000 0.500000
O O16 0.731651 0.704858 0.641544
O O17 0.500000 0.000000 0.000000
#
# Coordination Sequence:
#
# PCOD8014998 Si02
#       8
#     2   2   2   2   2   2   2   2
#     4  11  19  33  62  86 114 145 191 226 275 347
#     4  10  16  35  64  89 110 138 186 245 287 315
#     4   9  22  38  56  84 120 143 179 241 290 322
#     4   9  18  39  59  79 111 148 185 233 283 323
#     4   9  17  36  63  84 113 139 185 244 286 317
#     4  11  26  39  53  79 119 160 185 225 276 339
#     4  10  21  36  63  84 110 151 195 227 273 334
#     4   9  17  32  59  92 110 136 186 242 272 322
#
# _framework density 19.901675999999998
#
# number of rings (size 3 to 8) (size 9 to 14) (size 15 to 20)
#    0.000    2.500    3.750    0.750    1.750    6.500 
#    0.000    5.000   11.000    0.000    0.000    0.000 
#    0.000    0.000    0.000    0.000    0.000    0.000 
#
# Total GULP energy -198276.768977 kJ/mol
# GULP energy per Si atom -12392.298061 kJ/mol
# Density = 1.985638 g / cm^3
# Si number density = 19.901676 Si / 1000 Ang^3
#
#
#
# Elastic Constant Matrix: (Units=GPa)
#
#
# Indices 1 2 3 4 5 6 
#
# 1 77.7244 37.5622 42.5958 -2.6536 -11.3852 -21.8251
# 2 37.5622 75.7690 32.2136 7.2183 -6.5383 -26.8798
# 3 42.5958 32.2136 89.0431 2.2364 -14.9094 -11.6997
# 4 -2.6536 7.2183 2.2364 20.5112 -5.7636 -0.0125
# 5 -11.3852 -6.5383 -14.9094 -5.7636 44.6784 2.2602
# 6 -21.8251 -26.8798 -11.6997 -0.0125 2.2602 28.0546
#
#
#
# Elastic Compliance Matrix: (Units=1/GPa)
#
#
# Indices 1 2 3 4 5 6 
#
# 1 0.022705 -0.005093 -0.007453 0.006362 0.002896 0.009446
# 2 -0.005093 0.024620 -0.004064 -0.009192 -0.001148 0.018021
# 3 -0.007453 -0.004064 0.016384 -0.000459 0.003071 -0.003107
# 4 0.006362 -0.009192 -0.000459 0.054951 0.007446 -0.004625
# 5 0.002896 -0.001148 0.003071 0.007446 0.024916 0.000430
# 6 0.009446 0.018021 -0.003107 -0.004625 0.000430 0.058927
#
#
# Mechanical properties :
#
#
# Convention : Reuss Voigt Hill
#
# Bulk Modulus (GPa) = 32.79826 51.91996 42.35911
# Shear Modulus (GPa) = 20.33453 27.32648 23.83051
#
# Velocity S-wave (km/s) = 3.19995 3.70952 3.46412
# Velocity P-wave (km/s) = 5.49262 6.67025 6.10987
#
# Compressibility (1/GPa) = 0.03048942
#
# Stress axis : x y z
#
# Youngs Moduli (GPa) = 44.04224 40.61664 61.03618
#
# Poissons Ratio (x) = 0.20685 0.45490
# Poissons Ratio (y) = 0.22429 0.24808
# Poissons Ratio (z) = 0.32825 0.16508
#
# Static dielectric constant tensor:
#      x y z
#    x 3.679390 -0.359570 -0.081860 
#    y -0.359570 3.609110 0.143030 
#    z -0.081860 0.143030 3.796680 
# 
# 
# High freq. dielectric constant tensor:
#      x y z
#    x 1.775080 -0.019300 0.006050 
#    y -0.019300 1.750230 0.008430 
#    z 0.006050 0.008430 1.777260 
# 
# From -- ./inp_files/251713.got.cif
#   From: 2010.06.25/outbox.cif.g09.slc.cpg/sg2_126_cif.got.tgz:251713.got - 2010.06.27 13:26:56.
