data_PCOD8014119
_publ_section_title
;
Structure prediction by ZEFSAII (Michael W. Deem and Ramdas Pophale) SiO2 
 PCOD8014119
Probable space group: P -1
;
_chemical_formula_sum "Si O2"
_cell_formula_units_Z 12
_cell_length_a 9.852606
_cell_length_b 8.812873
_cell_length_c 14.984799
_cell_angle_alpha 29.587293
_cell_angle_beta 77.832828
_cell_angle_gamma 86.202440
_cell_volume 609.252103
_symmetry_space_group_name_H-M "P -1"
_symmetry_group_IT_number 2
_symmetry_cell_setting 'triclinic'
loop_
_space_group_symop_operation_xyz
x,y,z
-x,-y,-z
loop_
_atom_site_type_symbol
_atom_site_label
_atom_site_fract_x
_atom_site_fract_y
_atom_site_fract_z
Si Si1 0.385404 0.042295 0.423150
Si Si2 0.071786 0.705718 0.643351
Si Si3 0.578222 0.228394 0.634085
Si Si4 0.891170 0.578545 0.406416
Si Si5 0.398380 0.620091 0.020273
Si Si6 0.090314 0.679051 0.978920
O O1 0.377104 0.409001 0.221683
O O2 0.500000 0.000000 0.500000
O O3 0.234654 0.838398 0.584142
O O4 0.428419 0.924555 0.383592
O O5 0.066869 0.529311 0.640374
O O6 0.000000 0.000000 0.500000
O O7 0.995069 0.441720 0.858013
O O8 0.500000 0.500000 0.500000
O O9 0.740567 0.364958 0.571479
O O10 0.486950 0.978995 0.846177
O O11 0.000000 0.500000 0.500000
O O12 0.891408 0.946220 0.221513
O O13 0.500000 0.500000 0.000000
O O14 0.246219 0.604490 0.001359
O O15 0.000000 0.500000 0.000000
#
# Coordination Sequence:
#
# PCOD8014119 Si02
#       6
#     2   2   2   2   2   2
#     4  10  23  39  64  92 125 166 209 262 320 377
#     4  11  23  42  64  94 134 167 216 265 319 386
#     4  10  21  41  65  89 126 165 209 263 315 381
#     4  11  25  42  65  97 130 170 216 266 322 381
#     4  10  22  41  64  91 129 161 217 256 317 385
#     4  12  25  41  69  95 128 176 216 266 327 376
#
# _framework density 19.696279000000001
#
# number of rings (size 3 to 8) (size 9 to 14) (size 15 to 20)
#    0.000    1.333    3.333    1.500    9.333    1.333 
#    0.000    0.833    0.000    0.000    0.000    0.000 
#    0.000    0.000    0.000    0.000    0.000    0.000 
#
# Total GULP energy -148746.665982 kJ/mol
# GULP energy per Si atom -12395.555499 kJ/mol
# Density = 1.965145 g / cm^3
# Si number density = 19.696279 Si / 1000 Ang^3
#
#
#
# Elastic Constant Matrix: (Units=GPa)
#
#
# Indices 1 2 3 4 5 6 
#
# 1 194.3114 64.0591 85.2433 1.9855 0.7733 20.3301
# 2 64.0591 64.1943 42.5653 -14.5197 -6.3243 7.8725
# 3 85.2433 42.5653 162.4220 -12.3289 -6.1731 15.0603
# 4 1.9855 -14.5197 -12.3289 30.7914 -5.9368 1.1769
# 5 0.7733 -6.3243 -6.1731 -5.9368 42.1000 -0.7114
# 6 20.3301 7.8725 15.0603 1.1769 -0.7114 34.7611
#
#
#
# Elastic Compliance Matrix: (Units=1/GPa)
#
#
# Indices 1 2 3 4 5 6 
#
# 1 0.009959 -0.009410 -0.003201 -0.006872 -0.003071 -0.002137
# 2 -0.009410 0.030258 -0.001447 0.015629 0.006691 -0.001114
# 3 -0.003201 -0.001447 0.008683 0.003365 0.001561 -0.001644
# 4 -0.006872 0.015629 0.003365 0.043470 0.009059 -0.002265
# 5 -0.003071 0.006691 0.001561 0.009059 0.026318 -0.000164
# 6 -0.002137 -0.001114 -0.001644 -0.002265 -0.000164 0.031056
#
#
# Mechanical properties :
#
#
# Convention : Reuss Voigt Hill
#
# Bulk Modulus (GPa) = 48.11338 89.40701 68.76019
# Shear Modulus (GPa) = 27.05806 36.80116 31.92961
#
# Velocity S-wave (km/s) = 3.71045 4.32723 4.03065
# Velocity P-wave (km/s) = 6.54502 8.39392 7.52646
#
# Compressibility (1/GPa) = 0.02078424
#
# Stress axis : x y z
#
# Youngs Moduli (GPa) = 100.41339 33.04866 115.16718
#
# Poissons Ratio (x) = 0.31100 0.36862
# Poissons Ratio (y) = 0.94492 0.16665
# Poissons Ratio (z) = 0.32140 0.04782
#
# Static dielectric constant tensor:
#      x y z
#    x 3.283260 -0.252130 0.019370 
#    y -0.252130 3.460640 -0.122500 
#    z 0.019370 -0.122500 4.445930 
# 
# 
# High freq. dielectric constant tensor:
#      x y z
#    x 1.788860 -0.010820 -0.007190 
#    y -0.010820 1.746720 -0.011660 
#    z -0.007190 -0.011660 1.793860 
# 
# From -- ./inp_files/144592.got.cif
#   From: 2010.06.25/outbox.cif.g09.slc.cpg/sg2_73_cif.got.tgz:144592.got - 2010.06.27 13:26:56.
