data_PCOD8014420
_publ_section_title
;
Structure prediction by ZEFSAII (Michael W. Deem and Ramdas Pophale) SiO2 
 PCOD8014420
Probable space group: P -1
;
_chemical_formula_sum "Si O2"
_cell_formula_units_Z 16
_cell_length_a 8.713817
_cell_length_b 12.123478
_cell_length_c 14.507733
_cell_angle_alpha 149.910630
_cell_angle_beta 102.370329
_cell_angle_gamma 84.218524
_cell_volume 739.249841
_symmetry_space_group_name_H-M "P -1"
_symmetry_group_IT_number 2
_symmetry_cell_setting 'triclinic'
loop_
_space_group_symop_operation_xyz
x,y,z
-x,-y,-z
loop_
_atom_site_type_symbol
_atom_site_label
_atom_site_fract_x
_atom_site_fract_y
_atom_site_fract_z
Si Si1 0.184329 0.004396 0.525757
Si Si2 0.964119 0.695630 0.569640
Si Si3 0.818040 0.571955 0.268681
Si Si4 0.778341 0.915982 0.200514
Si Si5 0.327726 0.209945 0.303561
Si Si6 0.446181 0.792103 0.973622
Si Si7 0.147918 0.522782 0.187065
Si Si8 0.588998 0.504711 0.647229
O O1 0.251232 0.204946 0.609859
O O2 0.245317 0.042586 0.665332
O O3 0.215064 0.761298 0.317950
O O4 0.000000 0.000000 0.500000
O O5 0.870969 0.578288 0.385602
O O6 0.847510 0.838562 0.709583
O O7 0.000000 0.500000 0.500000
O O8 0.117090 0.871246 0.682787
O O9 0.664642 0.380875 0.098922
O O10 0.964902 0.519542 0.189033
O O11 0.606196 0.888341 0.115867
O O12 0.850100 0.687526 0.031371
O O13 0.465269 0.274061 0.446376
O O14 0.334311 0.415453 0.382939
O O15 0.351649 0.995456 0.091588
O O16 0.484321 0.680161 0.801838
O O17 0.262771 0.519898 0.287397
#
# Coordination Sequence:
#
# PCOD8014420 Si02
#       8
#     2   2   2   2   2   2   2   2
#     4  10  21  41  68  93 132 167 213 270 317 375
#     4  12  25  42  67  97 131 169 216 263 319 388
#     4  11  23  43  64  96 134 167 214 269 317 377
#     4  11  24  43  68  98 125 174 216 262 325 380
#     4  11  23  38  66  90 129 177 209 258 330 373
#     4  11  24  42  64  95 135 163 218 269 314 386
#     4  10  21  41  67  94 127 168 217 264 320 374
#     4  10  22  40  62  95 127 168 215 265 319 382
#
# _framework density 21.643561999999999
#
# number of rings (size 3 to 8) (size 9 to 14) (size 15 to 20)
#    0.000    1.250    3.750    2.625    3.500    4.500 
#    2.250    6.875    0.000    0.000    0.000    0.000 
#    0.000    0.000    0.000    0.000    0.000    0.000 
#
# Total GULP energy -198313.137488 kJ/mol
# GULP energy per Si atom -12394.571093 kJ/mol
# Density = 2.159430 g / cm^3
# Si number density = 21.643562 Si / 1000 Ang^3
#
#
#
# Elastic Constant Matrix: (Units=GPa)
#
#
# Indices 1 2 3 4 5 6 
#
# 1 84.5980 13.1643 23.7630 12.8070 9.8049 6.4138
# 2 13.1643 90.7460 33.6267 19.9116 8.9445 7.9721
# 3 23.7630 33.6267 99.3170 22.2414 -1.3093 0.8975
# 4 12.8070 19.9116 22.2414 35.1382 -0.1219 -2.6820
# 5 9.8049 8.9445 -1.3093 -0.1219 47.3118 5.2574
# 6 6.4138 7.9721 0.8975 -2.6820 5.2574 16.4730
#
#
#
# Elastic Compliance Matrix: (Units=1/GPa)
#
#
# Indices 1 2 3 4 5 6 
#
# 1 0.013766 0.000570 -0.002540 -0.004153 -0.002442 -0.005394
# 2 0.000570 0.014616 -0.003511 -0.006849 -0.002159 -0.007530
# 3 -0.002540 -0.003511 0.013066 -0.005300 0.001466 0.000646
# 4 -0.004153 -0.006849 -0.005300 0.038062 0.000869 0.011140
# 5 -0.002442 -0.002159 0.001466 0.000869 0.022669 -0.005177
# 6 -0.005394 -0.007530 0.000646 0.011140 -0.005177 0.069881
#
#
# Mechanical properties :
#
#
# Convention : Reuss Voigt Hill
#
# Bulk Modulus (GPa) = 32.80371 46.19655 39.50013
# Shear Modulus (GPa) = 25.88207 33.39174 29.63691
#
# Velocity S-wave (km/s) = 3.46183 3.93211 3.70444
# Velocity P-wave (km/s) = 5.58286 6.48120 6.04873
#
# Compressibility (1/GPa) = 0.03048436
#
# Stress axis : x y z
#
# Youngs Moduli (GPa) = 72.64216 68.42040 76.53490
#
# Poissons Ratio (x) = -0.03901 0.19442
# Poissons Ratio (y) = -0.04141 0.26875
# Poissons Ratio (z) = 0.18453 0.24026
#
# Static dielectric constant tensor:
#      x y z
#    x 3.969380 -0.087800 -0.038930 
#    y -0.087800 3.853880 0.360110 
#    z -0.038930 0.360110 4.303610 
# 
# 
# High freq. dielectric constant tensor:
#      x y z
#    x 1.850100 -0.008430 0.000250 
#    y -0.008430 1.840630 0.009220 
#    z 0.000250 0.009220 1.861740 
# 
# From -- ./inp_files/495417.got.cif
#   From: 2010.06.25/outbox.cif.g09.slc.cpg/sg2_248_cif.got.tgz:495417.got - 2010.06.27 13:26:56.
