data_PCOD8014426
_publ_section_title
;
Structure prediction by ZEFSAII (Michael W. Deem and Ramdas Pophale) SiO2 
 PCOD8014426
Probable space group: P -1
;
_chemical_formula_sum "Si O2"
_cell_formula_units_Z 16
_cell_length_a 15.333864
_cell_length_b 9.612652
_cell_length_c 9.704181
_cell_angle_alpha 45.232382
_cell_angle_beta 96.977733
_cell_angle_gamma 65.487835
_cell_volume 709.704906
_symmetry_space_group_name_H-M "P -1"
_symmetry_group_IT_number 2
_symmetry_cell_setting 'triclinic'
loop_
_space_group_symop_operation_xyz
x,y,z
-x,-y,-z
loop_
_atom_site_type_symbol
_atom_site_label
_atom_site_fract_x
_atom_site_fract_y
_atom_site_fract_z
Si Si1 0.618717 0.570847 0.912724
Si Si2 0.272359 0.360459 0.340363
Si Si3 0.074773 0.575780 0.937530
Si Si4 0.147600 0.927038 0.035544
Si Si5 0.390318 0.835668 0.863505
Si Si6 0.248130 0.380532 0.874909
Si Si7 0.058935 0.886468 0.310457
Si Si8 0.393160 0.796149 0.195461
O O1 0.615425 0.710559 0.675973
O O2 0.481534 0.733634 0.823204
O O3 0.679483 0.263023 0.099349
O O4 0.695788 0.540752 0.072329
O O5 0.200450 0.629723 0.227740
O O6 0.299978 0.161746 0.603996
O O7 0.190877 0.380854 0.197718
O O8 0.129070 0.475285 0.863235
O O9 0.998614 0.899615 0.721017
O O10 0.000000 0.500000 0.000000
O O11 0.086072 0.013656 0.114252
O O12 0.258472 0.908828 0.066708
O O13 0.039010 0.123302 0.760705
O O14 0.451403 0.749063 0.088591
O O15 0.188861 0.574820 0.592786
O O16 0.359692 0.049987 0.092378
O O17 0.500000 0.500000 0.500000
#
# Coordination Sequence:
#
# PCOD8014426 Si02
#       8
#     2   2   2   2   2   2   2   2
#     4  10  24  42  64 101 135 174 237 281 331 414
#     4  10  21  41  67  94 135 179 225 279 337 413
#     4  10  22  39  64 102 135 172 221 289 346 399
#     4  10  22  43  66  95 141 177 228 286 339 408
#     4  11  24  42  70  94 130 197 221 274 351 406
#     4  11  25  42  68 103 136 179 227 291 345 406
#     4  10  22  41  69  96 133 184 226 284 347 402
#     4  12  28  44  67 103 140 183 233 286 343 412
#
# _framework density 22.544581999999998
#
# number of rings (size 3 to 8) (size 9 to 14) (size 15 to 20)
#    0.000    1.500    1.250    2.250    5.250    6.000 
#    0.000    0.000    0.000    0.000    0.000    0.000 
#    0.000    0.000    0.000    0.000    0.000    0.000 
#
# Total GULP energy -198247.588034 kJ/mol
# GULP energy per Si atom -12390.474252 kJ/mol
# Density = 2.249327 g / cm^3
# Si number density = 22.544582 Si / 1000 Ang^3
#
#
#
# Elastic Constant Matrix: (Units=GPa)
#
#
# Indices 1 2 3 4 5 6 
#
# 1 83.1246 21.5950 1.7090 0.9015 -7.5184 14.4680
# 2 21.5950 103.1176 46.2726 3.4605 -9.7114 -3.1242
# 3 1.7090 46.2726 126.4196 -10.1122 -8.1647 17.9908
# 4 0.9015 3.4605 -10.1122 24.3158 -3.3021 4.9832
# 5 -7.5184 -9.7114 -8.1647 -3.3021 29.4149 0.7708
# 6 14.4680 -3.1242 17.9908 4.9832 0.7708 26.9257
#
#
#
# Elastic Compliance Matrix: (Units=1/GPa)
#
#
# Indices 1 2 3 4 5 6 
#
# 1 0.016030 -0.005498 0.004406 0.005354 0.004455 -0.013314
# 2 -0.005498 0.014803 -0.007464 -0.007216 0.000312 0.010986
# 3 0.004406 -0.007464 0.013688 0.010072 0.003968 -0.014357
# 4 0.005354 -0.007216 0.010072 0.051376 0.008078 -0.020184
# 5 0.004455 0.000312 0.003968 0.008078 0.037445 -0.007576
# 6 -0.013314 0.010986 -0.014357 -0.020184 -0.007576 0.059113
#
#
# Mechanical properties :
#
#
# Convention : Reuss Voigt Hill
#
# Bulk Modulus (GPa) = 36.48402 50.20166 43.34284
# Shear Modulus (GPa) = 22.86203 32.33696 27.59949
#
# Velocity S-wave (km/s) = 3.18792 3.79140 3.50268
# Velocity P-wave (km/s) = 5.45606 6.44068 5.96871
#
# Compressibility (1/GPa) = 0.02740926
#
# Stress axis : x y z
#
# Youngs Moduli (GPa) = 62.38303 67.55431 73.05743
#
# Poissons Ratio (x) = 0.37140 -0.32191
# Poissons Ratio (y) = 0.34297 0.54532
# Poissons Ratio (z) = -0.27488 0.50425
#
# Static dielectric constant tensor:
#      x y z
#    x 4.419090 -0.010000 0.016260 
#    y -0.010000 4.371750 0.101580 
#    z 0.016260 0.101580 4.206560 
# 
# 
# High freq. dielectric constant tensor:
#      x y z
#    x 1.886190 -0.005050 -0.007290 
#    y -0.005050 1.904940 0.005950 
#    z -0.007290 0.005950 1.873070 
# 
# From -- ./inp_files/297479.got.cif
#   From: 2010.06.25/outbox.cif.g09.slc.cpg/sg2_149_cif.got.tgz:297479.got - 2010.06.27 13:26:56.
