data_PCOD8014648
_publ_section_title
;
Structure prediction by ZEFSAII (Michael W. Deem and Ramdas Pophale) SiO2 
 PCOD8014648
Probable space group: P -1
;
_chemical_formula_sum "Si O2"
_cell_formula_units_Z 12
_cell_length_a 12.705986
_cell_length_b 5.185898
_cell_length_c 8.858988
_cell_angle_alpha 106.077450
_cell_angle_beta 75.547366
_cell_angle_gamma 82.876762
_cell_volume 531.327215
_symmetry_space_group_name_H-M "P -1"
_symmetry_group_IT_number 2
_symmetry_cell_setting 'triclinic'
loop_
_space_group_symop_operation_xyz
x,y,z
-x,-y,-z
loop_
_atom_site_type_symbol
_atom_site_label
_atom_site_fract_x
_atom_site_fract_y
_atom_site_fract_z
Si Si1 0.974059 0.822560 0.841193
Si Si2 0.622020 0.352335 0.976323
Si Si3 0.209148 0.043250 0.306265
Si Si4 0.184304 0.415518 0.978894
Si Si5 0.264029 0.790091 0.799424
Si Si6 0.818237 0.342837 0.478071
O O1 0.069517 0.725399 0.670297
O O2 0.867719 0.002395 0.816591
O O3 0.929792 0.556324 0.879711
O O4 0.000000 0.000000 0.000000
O O5 0.663725 0.085844 0.812379
O O6 0.500000 0.500000 0.000000
O O7 0.710999 0.547793 0.946902
O O8 0.626684 0.273511 0.142125
O O9 0.173815 0.890855 0.438387
O O10 0.198443 0.361718 0.394054
O O11 0.170528 0.632015 0.880198
O O12 0.212586 0.108930 0.851819
O O13 0.284650 0.670029 0.602469
#
# Coordination Sequence:
#
# PCOD8014648 Si02
#       6
#     2   2   2   2   2   2
#     4  12  23  45  71 100 136 191 222 265 328 412
#     4  10  24  47  75  95 128 179 234 285 331 391
#     4  12  26  45  62 107 136 172 228 281 333 404
#     4  10  21  41  69  98 129 163 248 259 315 392
#     4  10  22  44  68  96 133 176 228 268 324 407
#     4  12  26  43  67  98 151 176 208 280 347 392
#
# _framework density 22.584952999999999
#
# number of rings (size 3 to 8) (size 9 to 14) (size 15 to 20)
#    1.000    0.000    3.333    3.000    0.000    4.000 
#    0.000    1.667    0.000    0.000    0.000    0.000 
#    0.000    0.000    0.000    0.000    0.000    0.000 
#
# Total GULP energy -148668.034939 kJ/mol
# GULP energy per Si atom -12389.002912 kJ/mol
# Density = 2.253355 g / cm^3
# Si number density = 22.584953 Si / 1000 Ang^3
#
#
#
# Elastic Constant Matrix: (Units=GPa)
#
#
# Indices 1 2 3 4 5 6 
#
# 1 66.5976 9.2203 31.7430 13.6615 0.3540 -16.3037
# 2 9.2203 105.5199 28.5199 -3.4797 8.9316 -0.2002
# 3 31.7430 28.5199 108.6322 0.6426 18.8672 -15.1901
# 4 13.6615 -3.4797 0.6426 36.0904 -5.5701 -2.0707
# 5 0.3540 8.9316 18.8672 -5.5701 29.0520 3.3848
# 6 -16.3037 -0.2002 -15.1901 -2.0707 3.3848 37.3068
#
#
#
# Elastic Compliance Matrix: (Units=1/GPa)
#
#
# Indices 1 2 3 4 5 6 
#
# 1 0.020588 -0.000750 -0.005077 -0.007231 0.001142 0.006421
# 2 -0.000750 0.010340 -0.002436 0.001068 -0.001256 -0.001091
# 3 -0.005077 -0.002436 0.013305 0.000409 -0.008212 0.003953
# 4 -0.007231 0.001068 0.000409 0.031320 0.005705 -0.001767
# 5 0.001142 -0.001256 -0.008212 0.005705 0.041959 -0.006341
# 6 0.006421 -0.001091 0.003953 -0.001767 -0.006341 0.031692
#
#
# Mechanical properties :
#
#
# Convention : Reuss Voigt Hill
#
# Bulk Modulus (GPa) = 36.09104 46.63513 41.36308
# Shear Modulus (GPa) = 28.57682 34.57428 31.57555
#
# Velocity S-wave (km/s) = 3.56097 3.91686 3.74315
# Velocity P-wave (km/s) = 5.73778 6.41477 6.08570
#
# Compressibility (1/GPa) = 0.02770771
#
# Stress axis : x y z
#
# Youngs Moduli (GPa) = 48.57098 96.70857 75.15876
#
# Poissons Ratio (x) = 0.07251 0.38158
# Poissons Ratio (y) = 0.03642 0.18312
# Poissons Ratio (z) = 0.24659 0.23562
#
# Static dielectric constant tensor:
#      x y z
#    x 3.898320 0.088090 0.333890 
#    y 0.088090 4.244270 -0.147400 
#    z 0.333890 -0.147400 4.262530 
# 
# 
# High freq. dielectric constant tensor:
#      x y z
#    x 1.857850 -0.001270 0.028010 
#    y -0.001270 1.908710 -0.003370 
#    z 0.028010 -0.003370 1.895690 
# 
# From -- ./inp_files/134638.got.cif
#   From: 2010.06.25/outbox.cif.g09.slc.cpg/sg2_68_cif.got.tgz:134638.got - 2010.06.27 13:26:56.
