data_PCOD8014914
_publ_section_title
;
Structure prediction by ZEFSAII (Michael W. Deem and Ramdas Pophale) SiO2 
 PCOD8014914
Probable space group: P -1
;
_chemical_formula_sum "Si O2"
_cell_formula_units_Z 16
_cell_length_a 8.928739
_cell_length_b 11.758396
_cell_length_c 9.609862
_cell_angle_alpha 59.937826
_cell_angle_beta 96.257613
_cell_angle_gamma 117.806236
_cell_volume 762.059028
_symmetry_space_group_name_H-M "P -1"
_symmetry_group_IT_number 2
_symmetry_cell_setting 'triclinic'
loop_
_space_group_symop_operation_xyz
x,y,z
-x,-y,-z
loop_
_atom_site_type_symbol
_atom_site_label
_atom_site_fract_x
_atom_site_fract_y
_atom_site_fract_z
Si Si1 0.521683 0.841775 0.981896
Si Si2 0.889913 0.632325 0.533791
Si Si3 0.909483 0.946952 0.374833
Si Si4 0.695515 0.550148 0.142844
Si Si5 0.238662 0.625942 0.531096
Si Si6 0.877018 0.879752 0.953290
Si Si7 0.667800 0.491492 0.860690
Si Si8 0.444218 0.099475 0.732367
O O1 0.702143 0.885977 0.900166
O O2 0.450706 0.947108 0.850569
O O3 0.371404 0.678950 0.026402
O O4 0.557589 0.840941 0.150486
O O5 0.899160 0.792482 0.413117
O O6 0.765661 0.501638 0.495658
O O7 0.822859 0.581110 0.715006
O O8 0.074247 0.648829 0.509845
O O9 0.718357 0.927319 0.361389
O O10 0.000000 0.000000 0.500000
O O11 0.024207 0.085415 0.202884
O O12 0.737749 0.424237 0.282287
O O13 0.504814 0.505035 0.205425
O O14 0.831362 0.716100 0.108581
O O15 0.720143 0.566016 0.970538
O O16 0.391663 0.784676 0.406891
O O17 0.000000 0.000000 0.000000
#
# Coordination Sequence:
#
# PCOD8014914 Si02
#       8
#     2   2   2   2   2   2   2   2
#     4  10  22  40  66  93 124 167 214 260 318 380
#     4  11  24  41  64  93 132 165 215 264 312 385
#     4  12  26  42  65  96 130 170 212 268 328 380
#     4  10  23  38  64  93 127 164 210 259 322 381
#     4  11  24  41  65  97 125 168 213 268 320 369
#     4  11  21  40  63  93 127 172 213 258 315 386
#     4  10  21  42  63  93 126 167 208 260 320 383
#     4  11  23  41  65  95 125 166 215 267 317 381
#
# _framework density 20.995749
#
# number of rings (size 3 to 8) (size 9 to 14) (size 15 to 20)
#    0.000    1.250    2.500    3.000    1.750    6.500 
#    0.000    1.875    0.000    0.000    0.000    0.000 
#    0.000    0.000    0.000    0.000    0.000    0.000 
#
# Total GULP energy -198379.986272 kJ/mol
# GULP energy per Si atom -12398.749142 kJ/mol
# Density = 2.094796 g / cm^3
# Si number density = 20.995749 Si / 1000 Ang^3
#
#
#
# Elastic Constant Matrix: (Units=GPa)
#
#
# Indices 1 2 3 4 5 6 
#
# 1 92.5046 29.3206 40.6580 -8.9156 -2.0137 6.9595
# 2 29.3206 79.0273 21.9490 -7.3106 8.1373 6.2875
# 3 40.6580 21.9490 95.2153 -4.0458 -3.5112 11.6937
# 4 -8.9156 -7.3106 -4.0458 17.3591 0.7032 2.0265
# 5 -2.0137 8.1373 -3.5112 0.7032 42.8881 -3.9661
# 6 6.9595 6.2875 11.6937 2.0265 -3.9661 28.9176
#
#
#
# Elastic Compliance Matrix: (Units=1/GPa)
#
#
# Indices 1 2 3 4 5 6 
#
# 1 0.014769 -0.003606 -0.005120 0.004951 0.000791 -0.000938
# 2 -0.003606 0.015459 -0.001628 0.004733 -0.003559 -0.002655
# 3 -0.005120 -0.001628 0.013573 0.000259 0.000823 -0.003808
# 4 0.004951 0.004733 0.000259 0.063123 -0.002333 -0.007069
# 5 0.000791 -0.003559 0.000823 -0.002333 0.024483 0.003772
# 6 -0.000938 -0.002655 -0.003808 -0.007069 0.003772 0.037937
#
#
# Mechanical properties :
#
#
# Convention : Reuss Voigt Hill
#
# Bulk Modulus (GPa) = 43.30392 50.06694 46.68543
# Shear Modulus (GPa) = 25.28436 29.48759 27.38597
#
# Velocity S-wave (km/s) = 3.47401 3.75167 3.61551
# Velocity P-wave (km/s) = 6.06313 6.53182 6.30184
#
# Compressibility (1/GPa) = 0.02309260
#
# Stress axis : x y z
#
# Youngs Moduli (GPa) = 67.71042 64.68520 73.67426
#
# Poissons Ratio (x) = 0.23326 0.37724
# Poissons Ratio (y) = 0.24417 0.11993
# Poissons Ratio (z) = 0.34671 0.10530
#
# Static dielectric constant tensor:
#      x y z
#    x 3.751310 -0.029540 -0.054370 
#    y -0.029540 3.870730 0.038540 
#    z -0.054370 0.038540 3.360720 
# 
# 
# High freq. dielectric constant tensor:
#      x y z
#    x 1.821980 0.000610 -0.007970 
#    y 0.000610 1.828840 -0.010960 
#    z -0.007970 -0.010960 1.828160 
# 
# From -- ./inp_files/185145.got.cif
#   From: 2010.06.25/outbox.cif.g09.slc.cpg/sg2_93_cif.got.tgz:185145.got - 2010.06.27 13:26:56.
