data_PCOD8014959
_publ_section_title
;
Structure prediction by ZEFSAII (Michael W. Deem and Ramdas Pophale) SiO2 
 PCOD8014959
Probable space group: P -1
;
_chemical_formula_sum "Si O2"
_cell_formula_units_Z 16
_cell_length_a 13.704248
_cell_length_b 8.561250
_cell_length_c 12.962360
_cell_angle_alpha 129.777770
_cell_angle_beta 52.320231
_cell_angle_gamma 84.755311
_cell_volume 563.245037
_symmetry_space_group_name_H-M "P -1"
_symmetry_group_IT_number 2
_symmetry_cell_setting 'triclinic'
loop_
_space_group_symop_operation_xyz
x,y,z
-x,-y,-z
loop_
_atom_site_type_symbol
_atom_site_label
_atom_site_fract_x
_atom_site_fract_y
_atom_site_fract_z
Si Si1 0.366065 0.552446 0.428455
Si Si2 0.740708 0.511042 0.143457
Si Si3 0.833610 0.792731 0.089127
Si Si4 0.287188 0.340715 0.562429
Si Si5 0.293675 0.731707 0.105389
Si Si6 0.964462 0.207375 0.370417
Si Si7 0.577614 0.680865 0.969024
Si Si8 0.228586 0.160812 0.085127
O O1 0.274958 0.548653 0.582749
O O2 0.610134 0.209836 0.126770
O O3 0.303687 0.866340 0.616248
O O4 0.269685 0.567461 0.392701
O O5 0.842257 0.578416 0.059343
O O6 0.607550 0.738357 0.427677
O O7 0.613685 0.558166 0.156609
O O8 0.921042 0.126796 0.904713
O O9 0.736692 0.871138 0.072595
O O10 0.062444 0.563695 0.828517
O O11 0.414505 0.997681 0.282515
O O12 0.061554 0.091635 0.375168
O O13 0.443941 0.728232 0.993206
O O14 0.289704 0.652569 0.191227
O O15 0.008240 0.363342 0.346940
O O16 0.728521 0.667265 0.821191
#
# Coordination Sequence:
#
# PCOD8014959 Si02
#       8
#     2   2   2   2   2   2   2   2
#     4  11  23  38  61  94 134 164 205 256 317 376
#     4  10  22  38  63  90 125 165 208 258 314 364
#     4  12  20  39  60  90 132 170 200 261 319 365
#     4  11  22  37  64  95 123 167 205 262 312 374
#     4   9  21  44  64  85 130 167 200 272 305 367
#     4  10  21  42  64  89 130 166 204 260 311 363
#     4  10  22  43  66  89 125 165 214 253 320 371
#     4  11  22  38  64  96 120 171 212 252 313 380
#
# _framework density 28.406821999999998
#
# number of rings (size 3 to 8) (size 9 to 14) (size 15 to 20)
#    0.750    0.750    3.750    1.875    0.000    3.000 
#    0.000    3.125    2.750    0.000    0.000    0.000 
#    0.000    0.000    0.000    0.000    0.000    0.000 
#
# Total GULP energy -198361.253688 kJ/mol
# GULP energy per Si atom -12397.578355 kJ/mol
# Density = 2.834217 g / cm^3
# Si number density = 28.406822 Si / 1000 Ang^3
#
#
#
# Elastic Constant Matrix: (Units=GPa)
#
#
# Indices 1 2 3 4 5 6 
#
# 1 193.2477 36.4006 33.6382 -2.5399 5.0641 12.1707
# 2 36.4006 109.4332 11.3069 0.0741 -6.3704 16.3571
# 3 33.6382 11.3069 86.1953 -7.5772 -10.4650 25.0230
# 4 -2.5399 0.0741 -7.5772 25.5517 7.7740 -0.6097
# 5 5.0641 -6.3704 -10.4650 7.7740 31.8598 8.7033
# 6 12.1707 16.3571 25.0230 -0.6097 8.7033 56.4258
#
#
#
# Elastic Compliance Matrix: (Units=1/GPa)
#
#
# Indices 1 2 3 4 5 6 
#
# 1 0.006029 -0.002015 -0.002591 0.000648 -0.002600 0.000841
# 2 -0.002015 0.010494 0.000827 -0.001285 0.003988 -0.003603
# 3 -0.002591 0.000827 0.015859 0.001992 0.007442 -0.007840
# 4 0.000648 -0.001285 0.001992 0.043057 -0.010608 0.001451
# 5 -0.002600 0.003988 0.007442 -0.010608 0.040431 -0.010246
# 6 0.000841 -0.003603 -0.007840 0.001451 -0.010246 0.023659
#
#
# Mechanical properties :
#
#
# Convention : Reuss Voigt Hill
#
# Bulk Modulus (GPa) = 40.28413 61.28529 50.78471
# Shear Modulus (GPa) = 32.18280 43.26948 37.72614
#
# Velocity S-wave (km/s) = 3.36955 3.90706 3.64822
# Velocity P-wave (km/s) = 5.41760 6.47877 5.97180
#
# Compressibility (1/GPa) = 0.02482367
#
# Stress axis : x y z
#
# Youngs Moduli (GPa) = 165.86301 95.28809 63.05535
#
# Poissons Ratio (x) = 0.19203 0.16340
# Poissons Ratio (y) = 0.33425 -0.05216
# Poissons Ratio (z) = 0.42982 -0.07882
#
# Static dielectric constant tensor:
#      x y z
#    x 5.803920 -0.048080 0.156470 
#    y -0.048080 5.093290 0.007360 
#    z 0.156470 0.007360 5.046550 
# 
# 
# High freq. dielectric constant tensor:
#      x y z
#    x 2.185510 0.006490 0.005380 
#    y 0.006490 2.156520 -0.013340 
#    z 0.005380 -0.013340 2.158420 
# 
# From -- ./inp_files/530140.got.cif
#   From: 2010.06.25/outbox.cif.g09.slc.cpg/sg2_266_cif.got.tgz:530140.got - 2010.06.27 13:26:56.
