data_PCOD8014860
_publ_section_title
;
Structure prediction by ZEFSAII (Michael W. Deem and Ramdas Pophale) SiO2 
 PCOD8014860
Probable space group: P -1
;
_chemical_formula_sum "Si O2"
_cell_formula_units_Z 16
_cell_length_a 9.044356
_cell_length_b 6.737632
_cell_length_c 25.825707
_cell_angle_alpha 110.457640
_cell_angle_beta 139.442493
_cell_angle_gamma 51.006639
_cell_volume 769.147756
_symmetry_space_group_name_H-M "P -1"
_symmetry_group_IT_number 2
_symmetry_cell_setting 'triclinic'
loop_
_space_group_symop_operation_xyz
x,y,z
-x,-y,-z
loop_
_atom_site_type_symbol
_atom_site_label
_atom_site_fract_x
_atom_site_fract_y
_atom_site_fract_z
Si Si1 0.070710 0.396758 0.067441
Si Si2 0.480195 0.401649 0.667968
Si Si3 0.555483 0.934005 0.591847
Si Si4 0.380667 0.056591 0.856854
Si Si5 0.744532 0.221020 0.018097
Si Si6 0.005030 0.145622 0.853935
Si Si7 0.903046 0.952162 0.595202
Si Si8 0.856368 0.398838 0.681866
O O1 0.954806 0.632910 0.098333
O O2 0.932322 0.246348 0.029387
O O3 0.414319 0.203510 0.147449
O O4 0.000000 0.500000 0.000000
O O5 0.692468 0.274003 0.761263
O O6 0.611504 0.453463 0.659416
O O7 0.197775 0.676676 0.635442
O O8 0.419944 0.194311 0.614915
O O9 0.764631 0.908693 0.602239
O O10 0.748780 0.673511 0.653426
O O11 0.297805 0.947235 0.499292
O O12 0.240020 0.985487 0.856907
O O13 0.137661 0.300820 0.780257
O O14 0.603031 0.099186 0.942763
O O15 0.500000 0.500000 0.000000
O O16 0.945115 0.040410 0.102496
O O17 0.938838 0.178890 0.640296
#
# Coordination Sequence:
#
# PCOD8014860 Si02
#       8
#     2   2   2   2   2   2   2   2
#     4  12  24  41  61  86 116 159 208 247 297 356
#     4  10  23  39  62  92 123 158 201 250 300 357
#     4  10  22  39  64  91 123 159 200 246 300 365
#     4  11  23  42  60  88 123 156 204 251 296 356
#     4  12  24  40  63  86 118 164 200 247 304 350
#     4  11  24  42  60  87 124 158 201 253 296 352
#     4  10  21  42  62  91 124 158 200 246 302 362
#     4  10  23  40  61  92 123 158 199 251 302 355
#
# _framework density 20.802244999999999
#
# number of rings (size 3 to 8) (size 9 to 14) (size 15 to 20)
#    0.000    1.250    2.500    3.000    1.750    2.500 
#    2.250    0.000    0.000    0.000    0.000    0.000 
#    0.000    0.000    0.000    0.000    0.000    0.000 
#
# Total GULP energy -198436.648162 kJ/mol
# GULP energy per Si atom -12402.290510 kJ/mol
# Density = 2.075490 g / cm^3
# Si number density = 20.802245 Si / 1000 Ang^3
#
#
#
# Elastic Constant Matrix: (Units=GPa)
#
#
# Indices 1 2 3 4 5 6 
#
# 1 82.7161 30.7151 39.9695 -18.1918 6.9303 -2.4983
# 2 30.7151 80.2080 15.1434 -18.1591 -2.0556 -10.2729
# 3 39.9695 15.1434 103.4778 -15.0347 -8.5824 2.6908
# 4 -18.1918 -18.1591 -15.0347 35.3100 -3.5779 -2.6019
# 5 6.9303 -2.0556 -8.5824 -3.5779 30.8859 -12.8639
# 6 -2.4983 -10.2729 2.6908 -2.6019 -12.8639 40.3528
#
#
#
# Elastic Compliance Matrix: (Units=1/GPa)
#
#
# Indices 1 2 3 4 5 6 
#
# 1 0.018403 -0.005535 -0.006348 0.003130 -0.006632 -0.001759
# 2 -0.005535 0.017053 0.001077 0.007476 0.006202 0.006386
# 3 -0.006348 0.001077 0.012929 0.003478 0.005969 0.001146
# 4 0.003130 0.007476 0.003478 0.036542 0.007787 0.006704
# 5 -0.006632 0.006202 0.005969 0.007787 0.043090 0.015009
# 6 -0.001759 0.006386 0.001146 0.006704 0.015009 0.031439
#
#
# Mechanical properties :
#
#
# Convention : Reuss Voigt Hill
#
# Bulk Modulus (GPa) = 37.35136 48.67309 43.01222
# Shear Modulus (GPa) = 26.31680 33.34800 29.83240
#
# Velocity S-wave (km/s) = 3.56067 4.00821 3.79105
# Velocity P-wave (km/s) = 5.90753 6.69849 6.31541
#
# Compressibility (1/GPa) = 0.02677279
#
# Stress axis : x y z
#
# Youngs Moduli (GPa) = 54.33784 58.63936 77.34679
#
# Poissons Ratio (x) = 0.32460 0.49099
# Poissons Ratio (y) = 0.30079 -0.08330
# Poissons Ratio (z) = 0.34493 -0.06315
#
# Static dielectric constant tensor:
#      x y z
#    x 3.525810 0.417450 -0.004540 
#    y 0.417450 2.632180 -0.029530 
#    z -0.004540 -0.029530 3.934730 
# 
# 
# High freq. dielectric constant tensor:
#      x y z
#    x 1.813780 -0.013900 -0.001170 
#    y -0.013900 1.822560 -0.004370 
#    z -0.001170 -0.004370 1.823250 
# 
# From -- ./inp_files/54006.got.cif
#   From: 2010.06.25/outbox.cif.g09.slc.cpg/sg2_28_cif.got.tgz:54006.got - 2010.06.27 13:26:56.
