data_PCOD8014347
_publ_section_title
;
Structure prediction by ZEFSAII (Michael W. Deem and Ramdas Pophale) SiO2 
 PCOD8014347
Probable space group: P -1
;
_chemical_formula_sum "Si O2"
_cell_formula_units_Z 14
_cell_length_a 11.373060
_cell_length_b 7.432973
_cell_length_c 10.870499
_cell_angle_alpha 45.710729
_cell_angle_beta 89.278033
_cell_angle_gamma 75.839999
_cell_volume 621.022533
_symmetry_space_group_name_H-M "P -1"
_symmetry_group_IT_number 2
_symmetry_cell_setting 'triclinic'
loop_
_space_group_symop_operation_xyz
x,y,z
-x,-y,-z
loop_
_atom_site_type_symbol
_atom_site_label
_atom_site_fract_x
_atom_site_fract_y
_atom_site_fract_z
Si Si1 0.527084 0.266127 0.015597
Si Si2 0.280743 0.549326 0.220297
Si Si3 0.668806 0.892898 0.384683
Si Si4 0.037324 0.812229 0.233193
Si Si5 0.892904 0.391340 0.011889
Si Si6 0.133940 0.488692 0.605182
Si Si7 0.718091 0.402204 0.230437
O O1 0.364163 0.716893 0.085590
O O2 0.567854 0.993917 0.226003
O O3 0.500000 0.500000 0.000000
O O4 0.397483 0.318748 0.919019
O O5 0.363842 0.303531 0.422055
O O6 0.174364 0.755178 0.204261
O O7 0.212880 0.436434 0.164992
O O8 0.797817 0.732672 0.392859
O O9 0.674582 0.144276 0.344463
O O10 0.052398 0.752943 0.407823
O O11 0.960244 0.629771 0.262534
O O12 0.956668 0.117555 0.067573
O O13 0.825310 0.356409 0.152087
O O14 0.000000 0.500000 0.000000
O O15 0.228850 0.571920 0.649405
#
# Coordination Sequence:
#
# PCOD8014347 Si02
#       7
#     2   2   2   2   2   2   2
#     4  10  21  43  65  93 132 168 218 267 322 382
#     4  11  22  41  68  93 125 179 211 265 331 374
#     4  10  22  42  67  93 132 170 214 269 321 382
#     4  10  22  41  64  93 137 167 212 273 319 386
#     4  12  24  39  61  99 131 167 218 264 323 389
#     4  10  21  41  66  99 126 175 215 260 334 378
#     4  11  23  41  67  93 130 173 214 266 321 385
#
# _framework density 22.543465000000001
#
# number of rings (size 3 to 8) (size 9 to 14) (size 15 to 20)
#    0.000    1.429    4.286    1.286    2.000    4.571 
#    0.000    2.857    0.000    0.000    0.000    0.000 
#    0.000    0.000    0.000    0.000    0.000    0.000 
#
# Total GULP energy -173494.089702 kJ/mol
# GULP energy per Si atom -12392.434979 kJ/mol
# Density = 2.249216 g / cm^3
# Si number density = 22.543465 Si / 1000 Ang^3
#
#
#
# Elastic Constant Matrix: (Units=GPa)
#
#
# Indices 1 2 3 4 5 6 
#
# 1 66.6511 19.9456 13.3895 -1.7400 9.1764 -0.7585
# 2 19.9456 62.8537 19.1040 6.4602 2.6413 10.1927
# 3 13.3895 19.1040 137.4322 5.8739 17.7161 5.8824
# 4 -1.7400 6.4602 5.8739 20.5429 -0.3061 5.3509
# 5 9.1764 2.6413 17.7161 -0.3061 33.4485 7.5134
# 6 -0.7585 10.1927 5.8824 5.3509 7.5134 32.9522
#
#
#
# Elastic Compliance Matrix: (Units=1/GPa)
#
#
# Indices 1 2 3 4 5 6 
#
# 1 0.017664 -0.006012 -0.000516 0.002681 -0.004748 0.003006
# 2 -0.006012 0.019728 -0.002025 -0.004620 0.002397 -0.005675
# 3 -0.000516 -0.002025 0.008208 -0.001922 -0.004155 0.000409
# 4 0.002681 -0.004620 -0.001922 0.052874 0.002791 -0.007388
# 5 -0.004748 0.002397 -0.004155 0.002791 0.035164 -0.008580
# 6 0.003006 -0.005675 0.000409 -0.007388 -0.008580 0.035255
#
#
# Mechanical properties :
#
#
# Convention : Reuss Voigt Hill
#
# Bulk Modulus (GPa) = 35.09565 41.31282 38.20423
# Shear Modulus (GPa) = 25.57568 31.68858 28.63213
#
# Velocity S-wave (km/s) = 3.37190 3.75329 3.56769
# Velocity P-wave (km/s) = 5.54629 6.09496 5.82709
#
# Compressibility (1/GPa) = 0.02849356
#
# Stress axis : x y z
#
# Youngs Moduli (GPa) = 56.61142 50.68999 121.82530
#
# Poissons Ratio (x) = 0.30475 0.06291
# Poissons Ratio (y) = 0.34034 0.24671
# Poissons Ratio (z) = 0.02923 0.10265
#
# Static dielectric constant tensor:
#      x y z
#    x 5.274460 0.204380 0.454720 
#    y 0.204380 3.862860 0.164500 
#    z 0.454720 0.164500 4.683130 
# 
# 
# High freq. dielectric constant tensor:
#      x y z
#    x 1.888110 -0.014470 0.017010 
#    y -0.014470 1.864140 0.020210 
#    z 0.017010 0.020210 1.899870 
# 
# From -- ./inp_files/409764.got.cif
#   From: 2010.06.25/outbox.cif.g09.slc.cpg/sg2_205_cif.got.tgz:409764.got - 2010.06.27 13:26:56.
