data_PCOD8014418
_publ_section_title
;
Structure prediction by ZEFSAII (Michael W. Deem and Ramdas Pophale) SiO2 
 PCOD8014418
Probable space group: P -1
;
_chemical_formula_sum "Si O2"
_cell_formula_units_Z 16
_cell_length_a 10.296246
_cell_length_b 9.104333
_cell_length_c 12.610711
_cell_angle_alpha 67.100849
_cell_angle_beta 130.415210
_cell_angle_gamma 84.953175
_cell_volume 725.014220
_symmetry_space_group_name_H-M "P -1"
_symmetry_group_IT_number 2
_symmetry_cell_setting 'triclinic'
loop_
_space_group_symop_operation_xyz
x,y,z
-x,-y,-z
loop_
_atom_site_type_symbol
_atom_site_label
_atom_site_fract_x
_atom_site_fract_y
_atom_site_fract_z
Si Si1 0.332779 0.509430 0.485238
Si Si2 0.134448 0.219748 0.159101
Si Si3 0.536238 0.100593 0.334049
Si Si4 0.431220 0.353916 0.020989
Si Si5 0.133538 0.914777 0.350768
Si Si6 0.538168 0.845863 0.225963
Si Si7 0.285598 0.989691 0.865182
Si Si8 0.015077 0.478002 0.833727
O O1 0.500000 0.500000 0.500000
O O2 0.233330 0.704369 0.433789
O O3 0.423750 0.356597 0.668905
O O4 0.173968 0.477024 0.347968
O O5 0.363204 0.160043 0.311432
O O6 0.017615 0.355587 0.154531
O O7 0.102236 0.043164 0.196198
O O8 0.060573 0.304861 0.980203
O O9 0.741468 0.033585 0.517766
O O10 0.541600 0.939819 0.311116
O O11 0.493201 0.277493 0.193452
O O12 0.196512 0.436890 0.863517
O O13 0.500000 0.500000 0.000000
O O14 0.542267 0.196047 0.039377
O O15 0.928308 0.977125 0.281667
O O16 0.699875 0.842961 0.230009
O O17 0.328696 0.968625 0.020982
#
# Coordination Sequence:
#
# PCOD8014418 Si02
#       8
#     2   2   2   2   2   2   2   2
#     4  12  27  41  65 101 135 168 219 278 331 384
#     4  10  21  41  67  93 134 169 222 264 325 402
#     4  10  22  41  65  93 128 176 213 270 323 383
#     4  10  22  40  68  95 131 167 223 271 322 386
#     4  12  25  38  69 100 128 170 222 267 330 382
#     4  10  24  46  66  87 142 171 217 266 328 386
#     4  10  25  43  68  95 127 182 217 266 325 388
#     4  10  23  41  66  97 129 180 213 269 337 382
#
# _framework density 22.068531
#
# number of rings (size 3 to 8) (size 9 to 14) (size 15 to 20)
#    0.000    1.500    0.000    3.375   10.500    4.000 
#    0.000    0.000    0.000    0.000    0.000    0.000 
#    0.000    0.000    0.000    0.000    0.000    0.000 
#
# Total GULP energy -198378.507436 kJ/mol
# GULP energy per Si atom -12398.656715 kJ/mol
# Density = 2.201830 g / cm^3
# Si number density = 22.068531 Si / 1000 Ang^3
#
#
#
# Elastic Constant Matrix: (Units=GPa)
#
#
# Indices 1 2 3 4 5 6 
#
# 1 142.8180 54.2715 54.4088 -11.4510 21.1572 14.9525
# 2 54.2715 101.4718 27.5077 -23.2424 -6.8105 6.9678
# 3 54.4088 27.5077 87.6767 -8.4957 9.4177 11.3098
# 4 -11.4510 -23.2424 -8.4957 40.9702 12.3448 -11.0354
# 5 21.1572 -6.8105 9.4177 12.3448 40.3829 -6.2983
# 6 14.9525 6.9678 11.3098 -11.0354 -6.2983 43.8100
#
#
#
# Elastic Compliance Matrix: (Units=1/GPa)
#
#
# Indices 1 2 3 4 5 6 
#
# 1 0.012211 -0.005357 -0.004718 0.000679 -0.006863 -0.002913
# 2 -0.005357 0.014555 -0.001374 0.005746 0.004123 0.001908
# 3 -0.004718 -0.001374 0.015367 0.001119 -0.002020 -0.002147
# 4 0.000679 0.005746 0.001119 0.032151 -0.008630 0.005424
# 5 -0.006863 0.004123 -0.002020 -0.008630 0.032906 0.004765
# 6 -0.002913 0.001908 -0.002147 0.005424 0.004765 0.026122
#
#
# Mechanical properties :
#
#
# Convention : Reuss Voigt Hill
#
# Bulk Modulus (GPa) = 51.99253 67.14915 59.57084
# Shear Modulus (GPa) = 30.74614 38.08450 34.41532
#
# Velocity S-wave (km/s) = 3.73662 4.15871 3.95330
# Velocity P-wave (km/s) = 6.49825 7.31802 6.92028
#
# Compressibility (1/GPa) = 0.01923353
#
# Stress axis : x y z
#
# Youngs Moduli (GPa) = 81.89169 68.70691 65.07431
#
# Poissons Ratio (x) = 0.36807 0.30705
# Poissons Ratio (y) = 0.43870 0.08942
# Poissons Ratio (z) = 0.38640 0.09441
#
# Static dielectric constant tensor:
#      x y z
#    x 4.092640 0.190230 -0.003320 
#    y 0.190230 4.009430 -0.187110 
#    z -0.003320 -0.187110 4.132920 
# 
# 
# High freq. dielectric constant tensor:
#      x y z
#    x 1.874940 0.010630 0.000110 
#    y 0.010630 1.867390 -0.009680 
#    z 0.000110 -0.009680 1.869180 
# 
# From -- ./inp_files/515245.got.cif
#   From: 2010.06.25/outbox.cif.g09.slc.cpg/sg2_258_cif.got.tgz:515245.got - 2010.06.27 13:26:56.
