data_PCOD8014481
_publ_section_title
;
Structure prediction by ZEFSAII (Michael W. Deem and Ramdas Pophale) SiO2 
 PCOD8014481
Probable space group: P -1
;
_chemical_formula_sum "Si O2"
_cell_formula_units_Z 14
_cell_length_a 18.124881
_cell_length_b 5.342207
_cell_length_c 8.399200
_cell_angle_alpha 124.755848
_cell_angle_beta 119.188981
_cell_angle_gamma 75.759560
_cell_volume 582.742800
_symmetry_space_group_name_H-M "P -1"
_symmetry_group_IT_number 2
_symmetry_cell_setting 'triclinic'
loop_
_space_group_symop_operation_xyz
x,y,z
-x,-y,-z
loop_
_atom_site_type_symbol
_atom_site_label
_atom_site_fract_x
_atom_site_fract_y
_atom_site_fract_z
Si Si1 0.535036 0.202320 0.348624
Si Si2 0.229725 0.004020 0.747587
Si Si3 0.103544 0.355565 0.936076
Si Si4 0.686465 0.848173 0.424704
Si Si5 0.835874 0.605280 0.644649
Si Si6 0.400093 0.770198 0.927324
Si Si7 0.994928 0.251453 0.267879
O O1 0.500000 0.500000 0.500000
O O2 0.556861 0.267518 0.212656
O O3 0.620474 0.105414 0.494654
O O4 0.465173 0.919469 0.178808
O O5 0.173526 0.688844 0.587569
O O6 0.320681 0.986271 0.920179
O O7 0.179522 0.271741 0.869763
O O8 0.242942 0.048025 0.590233
O O9 0.054294 0.616198 0.888411
O O10 0.044242 0.060692 0.813409
O O11 0.144400 0.491644 0.189469
O O12 0.743831 0.762430 0.606154
O O13 0.631603 0.570293 0.182335
O O14 0.912052 0.816939 0.726858
O O15 0.000000 0.500000 0.500000
#
# Coordination Sequence:
#
# PCOD8014481 Si02
#       7
#     2   2   2   2   2   2   2
#     4  10  21  41  67  98 135 176 227 284 347 418
#     4  10  23  42  66  95 138 180 226 287 343 411
#     4  12  27  44  70 104 138 188 234 291 349 413
#     4  10  22  42  70  95 138 185 224 292 348 416
#     4  11  25  43  66  98 138 177 237 284 350 412
#     4   9  21  41  63  99 132 176 228 277 349 412
#     4  12  25  46  73 100 140 187 236 290 351 411
#
# _framework density 24.024319999999999
#
# number of rings (size 3 to 8) (size 9 to 14) (size 15 to 20)
#    0.000    1.429    1.429    2.571    6.000    4.000 
#    0.000    4.286    0.000    0.000    0.000    0.000 
#    0.000    0.000    0.000    0.000    0.000    0.000 
#
# Total GULP energy -173544.433186 kJ/mol
# GULP energy per Si atom -12396.030942 kJ/mol
# Density = 2.396964 g / cm^3
# Si number density = 24.024320 Si / 1000 Ang^3
#
#
#
# Elastic Constant Matrix: (Units=GPa)
#
#
# Indices 1 2 3 4 5 6 
#
# 1 116.7058 32.7292 38.3774 4.5890 17.9101 -25.4469
# 2 32.7292 77.0695 13.0633 -9.0641 11.2380 -15.8281
# 3 38.3774 13.0633 78.6003 -14.8945 1.9783 -26.5461
# 4 4.5890 -9.0641 -14.8945 35.0782 -3.8055 1.3449
# 5 17.9101 11.2380 1.9783 -3.8055 20.4048 3.9572
# 6 -25.4469 -15.8281 -26.5461 1.3449 3.9572 42.4793
#
#
#
# Elastic Compliance Matrix: (Units=1/GPa)
#
#
# Indices 1 2 3 4 5 6 
#
# 1 0.014836 -0.003066 -0.005830 -0.006844 -0.013119 0.005541
# 2 -0.003066 0.016773 0.001778 0.004494 -0.007052 0.006039
# 3 -0.005830 0.001778 0.020184 0.009674 0.002187 0.009273
# 4 -0.006844 0.004494 0.009674 0.035574 0.008907 0.001664
# 5 -0.013119 -0.007052 0.002187 0.008907 0.068925 -0.015823
# 6 0.005541 0.006039 0.009273 0.001664 -0.015823 0.036326
#
#
# Mechanical properties :
#
#
# Convention : Reuss Voigt Hill
#
# Bulk Modulus (GPa) = 26.62658 48.96837 37.79748
# Shear Modulus (GPa) = 22.79224 32.13953 27.46588
#
# Velocity S-wave (km/s) = 3.08346 3.66155 3.38487
# Velocity P-wave (km/s) = 4.87691 6.18894 5.57168
#
# Compressibility (1/GPa) = 0.03755646
#
# Stress axis : x y z
#
# Youngs Moduli (GPa) = 67.40336 59.61942 49.54525
#
# Poissons Ratio (x) = 0.18282 0.28884
# Poissons Ratio (y) = 0.20668 -0.08809
# Poissons Ratio (z) = 0.39294 -0.10600
#
# Static dielectric constant tensor:
#      x y z
#    x 4.542900 -0.040290 0.283940 
#    y -0.040290 4.339780 -0.026910 
#    z 0.283940 -0.026910 4.261450 
# 
# 
# High freq. dielectric constant tensor:
#      x y z
#    x 1.963680 -0.007670 0.020200 
#    y -0.007670 1.953740 0.000350 
#    z 0.020200 0.000350 1.940540 
# 
# From -- ./inp_files/122384.got.cif
#   From: 2010.06.25/outbox.cif.g09.slc.cpg/sg2_62_cif.got.tgz:122384.got - 2010.06.27 13:26:56.
