data_PCOD8014553
_publ_section_title
;
Structure prediction by ZEFSAII (Michael W. Deem and Ramdas Pophale) SiO2 
 PCOD8014553
Probable space group: P -1
;
_chemical_formula_sum "Si O2"
_cell_formula_units_Z 16
_cell_length_a 21.304710
_cell_length_b 14.329301
_cell_length_c 7.728785
_cell_angle_alpha 125.295373
_cell_angle_beta 124.303274
_cell_angle_gamma 22.080820
_cell_volume 720.861290
_symmetry_space_group_name_H-M "P -1"
_symmetry_group_IT_number 2
_symmetry_cell_setting 'triclinic'
loop_
_space_group_symop_operation_xyz
x,y,z
-x,-y,-z
loop_
_atom_site_type_symbol
_atom_site_label
_atom_site_fract_x
_atom_site_fract_y
_atom_site_fract_z
Si Si1 0.404472 0.402179 0.403464
Si Si2 0.292145 0.859397 0.436595
Si Si3 0.502440 0.413256 0.070880
Si Si4 0.000973 0.633709 0.636366
Si Si5 0.182067 0.916366 0.664744
Si Si6 0.762940 0.659079 0.616840
Si Si7 0.853992 0.435157 0.879359
Si Si8 0.505823 0.811735 0.329245
O O1 0.556873 0.259650 0.382201
O O2 0.269539 0.674925 0.557807
O O3 0.302084 0.440294 0.182996
O O4 0.503845 0.209711 0.508600
O O5 0.382047 0.625256 0.256993
O O6 0.161481 0.985365 0.508939
O O7 0.187688 0.062264 0.338761
O O8 0.696962 0.147635 0.141380
O O9 0.500000 0.500000 0.000000
O O10 0.437930 0.373005 0.891586
O O11 0.075235 0.565238 0.491732
O O12 0.000000 0.500000 0.500000
O O13 0.102024 0.550715 0.867389
O O14 0.007948 0.149123 0.747780
O O15 0.806779 0.583574 0.806964
O O16 0.645803 0.718580 0.420232
O O17 0.672928 0.902222 0.710633
#
# Coordination Sequence:
#
# PCOD8014553 Si02
#       8
#     2   2   2   2   2   2   2   2
#     4  10  21  41  68  95 136 181 218 276 342 405
#     4  11  23  42  63 104 137 174 229 278 335 407
#     4  11  20  36  66  99 130 178 224 269 340 399
#     4  12  27  44  70  97 139 178 231 282 339 404
#     4  11  22  39  65 102 140 172 227 280 336 405
#     4  10  24  46  66 102 135 182 230 280 334 405
#     4  11  25  45  68  99 137 181 222 277 350 394
#     4  10  21  42  70  94 141 177 231 281 332 407
#
# _framework density 22.195671999999998
#
# number of rings (size 3 to 8) (size 9 to 14) (size 15 to 20)
#    0.000    1.250    3.750    3.375    1.750    3.500 
#    0.000   11.250    0.000    0.000    0.000    0.000 
#    0.000    0.000    0.000    0.000    0.000    0.000 
#
# Total GULP energy -198292.557178 kJ/mol
# GULP energy per Si atom -12393.284824 kJ/mol
# Density = 2.214515 g / cm^3
# Si number density = 22.195672 Si / 1000 Ang^3
#
#
#
# Elastic Constant Matrix: (Units=GPa)
#
#
# Indices 1 2 3 4 5 6 
#
# 1 75.8115 23.0674 39.8065 7.5253 7.3996 1.3268
# 2 23.0674 111.8647 31.7648 -9.8020 11.7765 16.8282
# 3 39.8065 31.7648 127.5950 -12.3378 22.6140 2.5857
# 4 7.5253 -9.8020 -12.3378 25.8086 4.1876 0.1231
# 5 7.3996 11.7765 22.6140 4.1876 31.2194 0.9710
# 6 1.3268 16.8282 2.5857 0.1231 0.9710 37.2368
#
#
#
# Elastic Compliance Matrix: (Units=1/GPa)
#
#
# Indices 1 2 3 4 5 6 
#
# 1 0.018253 -0.003329 -0.006376 -0.010105 0.002864 0.001256
# 2 -0.003329 0.011400 -0.000478 0.005708 -0.003777 -0.004920
# 3 -0.006376 -0.000478 0.012304 0.008925 -0.008411 -0.000221
# 4 -0.010105 0.005708 0.008925 0.050230 -0.012877 -0.002670
# 5 0.002864 -0.003777 -0.008411 -0.012877 0.040561 0.001174
# 6 0.001256 -0.004920 -0.000221 -0.002670 0.001174 0.029028
#
#
# Mechanical properties :
#
#
# Convention : Reuss Voigt Hill
#
# Bulk Modulus (GPa) = 46.31891 56.06096 51.18993
# Shear Modulus (GPa) = 26.40786 33.56180 29.98483
#
# Velocity S-wave (km/s) = 3.45305 3.89278 3.67949
# Velocity P-wave (km/s) = 6.06728 6.74666 6.41597
#
# Compressibility (1/GPa) = 0.02158946
#
# Stress axis : x y z
#
# Youngs Moduli (GPa) = 54.78559 87.72185 81.27682
#
# Poissons Ratio (x) = 0.29206 0.51821
# Poissons Ratio (y) = 0.18240 0.03886
# Poissons Ratio (z) = 0.34931 0.04195
#
# Static dielectric constant tensor:
#      x y z
#    x 4.249780 0.241840 1.168680 
#    y 0.241840 4.193180 0.107880 
#    z 1.168680 0.107880 6.472980 
# 
# 
# High freq. dielectric constant tensor:
#      x y z
#    x 1.878360 0.011950 0.005750 
#    y 0.011950 1.885670 -0.010160 
#    z 0.005750 -0.010160 1.855360 
# 
# From -- ./inp_files/354590.got.cif
#   From: 2010.06.25/outbox.cif.g09.slc.cpg/sg2_178_cif.got.tgz:354590.got - 2010.06.27 13:26:56.
