data_PCOD8014092
_publ_section_title
;
Structure prediction by ZEFSAII (Michael W. Deem and Ramdas Pophale) SiO2 
 PCOD8014092
Probable space group: P -1
;
_chemical_formula_sum "Si O2"
_cell_formula_units_Z 16
_cell_length_a 24.710309
_cell_length_b 5.047521
_cell_length_c 5.556104
_cell_angle_alpha 86.388288
_cell_angle_beta 109.686359
_cell_angle_gamma 65.503747
_cell_volume 576.903072
_symmetry_space_group_name_H-M "P -1"
_symmetry_group_IT_number 2
_symmetry_cell_setting 'triclinic'
loop_
_space_group_symop_operation_xyz
x,y,z
-x,-y,-z
loop_
_atom_site_type_symbol
_atom_site_label
_atom_site_fract_x
_atom_site_fract_y
_atom_site_fract_z
Si Si1 0.282162 0.871500 0.843983
Si Si2 0.074126 0.427524 0.124219
Si Si3 0.255198 0.272197 0.196605
Si Si4 0.802025 0.121116 0.659480
Si Si5 0.396939 0.714787 0.727889
Si Si6 0.045802 0.653891 0.569311
Si Si7 0.511569 0.792359 0.805546
Si Si8 0.623733 0.679385 0.655664
O O1 0.232521 0.758871 0.656952
O O2 0.327192 0.945110 0.720818
O O3 0.242367 0.178041 0.917299
O O4 0.328034 0.589305 0.088971
O O5 0.119845 0.067381 0.224162
O O6 0.086363 0.573984 0.380596
O O7 0.089938 0.548099 0.887283
O O8 0.000000 0.500000 0.000000
O O9 0.224298 0.124819 0.336284
O O10 0.334721 0.135580 0.347544
O O11 0.220090 0.629771 0.178914
O O12 0.436995 0.851165 0.618863
O O13 0.386241 0.457914 0.596604
O O14 0.445497 0.555486 0.036268
O O15 0.000000 0.500000 0.500000
O O16 0.000000 0.000000 0.500000
O O17 0.551505 0.865150 0.653467
O O18 0.500000 0.000000 0.000000
#
# Coordination Sequence:
#
# PCOD8014092 Si02
#       8
#     2   2   2   2   2   2   2   2
#     4  11  24  46  72 102 145 195 248 309 374 448
#     4  10  25  50  77 117 155 203 252 322 387 463
#     4  12  26  47  70 109 142 199 246 306 373 442
#     4  12  29  47  76 108 152 192 254 307 377 457
#     4  10  21  41  65 100 141 184 246 302 374 442
#     4  10  22  43  76 107 152 195 246 297 377 452
#     4  10  22  37  63 101 138 188 237 304 374 442
#     4  11  23  43  70  98 146 189 247 305 374 443
#
# _framework density 27.734297000000002
#
# number of rings (size 3 to 8) (size 9 to 14) (size 15 to 20)
#    0.000    1.250    2.500    1.500    3.500    6.500 
#    0.000    1.250    0.000    0.000    0.000    0.000 
#    0.000    0.000    0.000    0.000    0.000    0.000 
#
# Total GULP energy -198259.043540 kJ/mol
# GULP energy per Si atom -12391.190221 kJ/mol
# Density = 2.767117 g / cm^3
# Si number density = 27.734297 Si / 1000 Ang^3
#
#
#
# Elastic Constant Matrix: (Units=GPa)
#
#
# Indices 1 2 3 4 5 6 
#
# 1 85.3052 26.1758 19.0868 1.5296 1.9987 -11.4971
# 2 26.1758 136.7174 44.5745 18.5536 4.3893 -33.4964
# 3 19.0868 44.5745 130.9049 8.9191 -15.6628 -25.9960
# 4 1.5296 18.5536 8.9191 55.2828 -12.4326 -0.8360
# 5 1.9987 4.3893 -15.6628 -12.4326 47.1261 -0.5745
# 6 -11.4971 -33.4964 -25.9960 -0.8360 -0.5745 63.0842
#
#
#
# Elastic Compliance Matrix: (Units=1/GPa)
#
#
# Indices 1 2 3 4 5 6 
#
# 1 0.012676 -0.001871 -0.001143 0.000329 -0.000646 0.000844
# 2 -0.001871 0.009952 -0.002412 -0.003403 -0.002500 0.003881
# 3 -0.001143 -0.002412 0.009528 0.000129 0.003504 0.002471
# 4 0.000329 -0.003403 0.000129 0.020469 0.005729 -0.001370
# 5 -0.000646 -0.002500 0.003504 0.005729 0.024160 0.000295
# 6 0.000844 0.003881 0.002471 -0.001370 0.000295 0.019069
#
#
# Mechanical properties :
#
#
# Convention : Reuss Voigt Hill
#
# Bulk Modulus (GPa) = 46.94320 59.17799 53.06059
# Shear Modulus (GPa) = 43.93360 50.63797 47.28578
#
# Velocity S-wave (km/s) = 3.98438 4.27760 4.13359
# Velocity P-wave (km/s) = 6.17494 6.76616 6.47730
#
# Compressibility (1/GPa) = 0.02130234
#
# Stress axis : x y z
#
# Youngs Moduli (GPa) = 78.89192 100.48095 104.94921
#
# Poissons Ratio (x) = 0.18803 0.11997
# Poissons Ratio (y) = 0.14763 0.25318
# Poissons Ratio (z) = 0.09018 0.24240
#
# Static dielectric constant tensor:
#      x y z
#    x 5.686750 -0.313050 -0.547720 
#    y -0.313050 4.862260 -0.102060 
#    z -0.547720 -0.102060 6.380780 
# 
# 
# High freq. dielectric constant tensor:
#      x y z
#    x 2.125580 -0.008570 -0.011160 
#    y -0.008570 2.115930 -0.018590 
#    z -0.011160 -0.018590 2.144550 
# 
# From -- ./inp_files/14961.got.cif
#   From: 2010.06.25/outbox.cif.g09.slc.cpg/sg2_8_cif.got.tgz:14961.got - 2010.06.27 13:26:56.
