data_PCOD8014665
_publ_section_title
;
Structure prediction by ZEFSAII (Michael W. Deem and Ramdas Pophale) SiO2 
 PCOD8014665
Probable space group: P -1
;
_chemical_formula_sum "Si O2"
_cell_formula_units_Z 14
_cell_length_a 20.864467
_cell_length_b 10.154730
_cell_length_c 20.790382
_cell_angle_alpha 156.918880
_cell_angle_beta 20.307897
_cell_angle_gamma 149.046612
_cell_volume 598.904302
_symmetry_space_group_name_H-M "P -1"
_symmetry_group_IT_number 2
_symmetry_cell_setting 'triclinic'
loop_
_space_group_symop_operation_xyz
x,y,z
-x,-y,-z
loop_
_atom_site_type_symbol
_atom_site_label
_atom_site_fract_x
_atom_site_fract_y
_atom_site_fract_z
Si Si1 0.569122 0.207683 0.384593
Si Si2 0.382017 0.731133 0.262270
Si Si3 0.831153 0.776038 0.035966
Si Si4 0.767490 0.097153 0.740648
Si Si5 0.755155 0.453787 0.091296
Si Si6 0.836071 0.786157 0.398237
Si Si7 0.650031 0.787293 0.837029
O O1 0.357354 0.314970 0.649074
O O2 0.679792 0.535546 0.412462
O O3 0.539322 0.985842 0.250170
O O4 0.682310 0.005374 0.241548
O O5 0.294404 0.544640 0.323053
O O6 0.205371 0.889788 0.461597
O O7 0.500000 0.500000 0.000000
O O8 0.728085 0.650782 0.139086
O O9 0.891432 0.428083 0.783847
O O10 0.000000 0.000000 0.000000
O O11 0.834062 0.890451 0.522366
O O12 0.779704 0.843596 0.677406
O O13 0.561010 0.251120 0.001475
O O14 0.968254 0.393678 0.884109
O O15 0.659008 0.098990 0.017145
#
# Coordination Sequence:
#
# PCOD8014665 Si02
#       7
#     2   2   2   2   2   2   2
#     4  12  24  45  70 101 145 182 229 300 343 419
#     4  12  24  46  74 102 137 194 234 284 354 420
#     4  11  22  42  71 106 139 179 237 287 348 410
#     4  10  21  43  71 105 140 181 232 294 343 410
#     4  11  25  43  67 105 144 185 229 287 358 407
#     4  12  25  45  72 104 144 187 237 281 346 426
#     4  10  21  41  70 102 138 181 235 283 356 402
#
# _framework density 23.376021000000001
#
# number of rings (size 3 to 8) (size 9 to 14) (size 15 to 20)
#    0.000    0.857    5.714    0.857    0.000    4.571 
#    2.571    0.000    0.000    0.000    0.000    0.000 
#    0.000    0.000    0.000    0.000    0.000    0.000 
#
# Total GULP energy -173528.853781 kJ/mol
# GULP energy per Si atom -12394.918127 kJ/mol
# Density = 2.332282 g / cm^3
# Si number density = 23.376021 Si / 1000 Ang^3
#
#
#
# Elastic Constant Matrix: (Units=GPa)
#
#
# Indices 1 2 3 4 5 6 
#
# 1 128.0017 49.3255 75.2830 10.1456 -12.3312 -5.2825
# 2 49.3255 114.7381 48.9905 19.8715 11.4430 11.8425
# 3 75.2830 48.9905 122.2545 -15.0949 -9.7529 6.9060
# 4 10.1456 19.8715 -15.0949 22.2294 14.2985 -4.7441
# 5 -12.3312 11.4430 -9.7529 14.2985 40.8303 22.4213
# 6 -5.2825 11.8425 6.9060 -4.7441 22.4213 48.7300
#
#
#
# Elastic Compliance Matrix: (Units=1/GPa)
#
#
# Indices 1 2 3 4 5 6 
#
# 1 0.021661 0.004671 -0.018158 -0.042175 0.021196 -0.010072
# 2 0.004671 0.019644 -0.013968 -0.040672 0.013706 -0.012554
# 3 -0.018158 -0.013968 0.029612 0.057572 -0.021695 0.012817
# 4 -0.042175 -0.040672 0.057572 0.216345 -0.098152 0.063376
# 5 0.021196 0.013706 -0.021695 -0.098152 0.080777 -0.044681
# 6 -0.010072 -0.012554 0.012817 0.063376 -0.044681 0.047392
#
#
# Mechanical properties :
#
#
# Convention : Reuss Voigt Hill
#
# Bulk Modulus (GPa) = 62.46833 79.13247 70.80040
# Shear Modulus (GPa) = 10.51135 35.11764 22.81450
#
# Velocity S-wave (km/s) = 2.12283 3.88015 3.12745
# Velocity P-wave (km/s) = 5.72624 7.34844 6.58746
#
# Compressibility (1/GPa) = 0.01600811
#
# Stress axis : x y z
#
# Youngs Moduli (GPa) = 46.16600 50.90603 33.77017
#
# Poissons Ratio (x) = -0.23778 0.61320
# Poissons Ratio (y) = -0.21564 0.47169
# Poissons Ratio (z) = 0.83828 0.71103
#
# Static dielectric constant tensor:
#      x y z
#    x 4.437500 0.031680 -0.040680 
#    y 0.031680 4.506400 0.387910 
#    z -0.040680 0.387910 4.215100 
# 
# 
# High freq. dielectric constant tensor:
#      x y z
#    x 1.935710 0.007590 -0.011480 
#    y 0.007590 1.928840 0.018790 
#    z -0.011480 0.018790 1.916580 
# 
# From -- ./inp_files/614092.got.cif
#   From: 2010.06.25/outbox.cif.g09.slc.cpg/sg2_308_cif.got.tgz:614092.got - 2010.06.27 13:26:56.
