data_PCOD8014611
_publ_section_title
;
Structure prediction by ZEFSAII (Michael W. Deem and Ramdas Pophale) SiO2 
 PCOD8014611
Probable space group: P -1
;
_chemical_formula_sum "Si O2"
_cell_formula_units_Z 16
_cell_length_a 13.405709
_cell_length_b 8.553721
_cell_length_c 8.768515
_cell_angle_alpha 48.367436
_cell_angle_beta 82.803469
_cell_angle_gamma 81.980595
_cell_volume 743.441170
_symmetry_space_group_name_H-M "P -1"
_symmetry_group_IT_number 2
_symmetry_cell_setting 'triclinic'
loop_
_space_group_symop_operation_xyz
x,y,z
-x,-y,-z
loop_
_atom_site_type_symbol
_atom_site_label
_atom_site_fract_x
_atom_site_fract_y
_atom_site_fract_z
Si Si1 0.256573 0.721475 0.667174
Si Si2 0.083873 0.096632 0.020573
Si Si3 0.575234 0.592256 0.047174
Si Si4 0.763815 0.290180 0.673258
Si Si5 0.103499 0.358031 0.574305
Si Si6 0.539229 0.214262 0.794447
Si Si7 0.426485 0.976305 0.390722
Si Si8 0.058689 0.941782 0.677453
O O1 0.318854 0.541960 0.869768
O O2 0.234956 0.658900 0.539288
O O3 0.321989 0.922745 0.519754
O O4 0.153874 0.777063 0.741108
O O5 0.170446 0.922111 0.163288
O O6 0.128278 0.283560 0.793602
O O7 0.022050 0.176637 0.130130
O O8 0.000000 0.000000 0.000000
O O9 0.526492 0.602915 0.220614
O O10 0.500000 0.500000 0.000000
O O11 0.599011 0.818724 0.836955
O O12 0.809789 0.498339 0.599164
O O13 0.654861 0.253200 0.787434
O O14 0.096839 0.153980 0.604062
O O15 0.000000 0.500000 0.500000
O O16 0.528430 0.208979 0.614557
O O17 0.500000 0.000000 0.000000
O O18 0.500000 0.000000 0.500000
O O19 0.000000 0.000000 0.500000
#
# Coordination Sequence:
#
# PCOD8014611 Si02
#       8
#     2   2   2   2   2   2   2   2
#     4  11  24  43  64  96 134 176 219 278 342 402
#     4  10  21  41  69  92 137 171 219 283 337 400
#     4  11  23  43  65  96 136 171 229 284 333 410
#     4  11  22  43  71  97 133 176 233 277 341 411
#     4  11  22  42  68  99 133 179 232 281 334 409
#     4   9  23  43  70  97 133 179 225 279 353 398
#     4  10  21  44  67  94 137 172 220 285 340 403
#     4  11  22  45  69  96 142 179 219 284 348 404
#
# _framework density 21.521540999999999
#
# number of rings (size 3 to 8) (size 9 to 14) (size 15 to 20)
#    0.000    1.500    5.000    0.000    0.000    8.000 
#    4.500    1.250    0.000    0.000    0.000    0.000 
#    0.000    0.000    0.000    0.000    0.000    0.000 
#
# Total GULP energy -198252.432141 kJ/mol
# GULP energy per Si atom -12390.777009 kJ/mol
# Density = 2.147256 g / cm^3
# Si number density = 21.521541 Si / 1000 Ang^3
#
#
#
# Elastic Constant Matrix: (Units=GPa)
#
#
# Indices 1 2 3 4 5 6 
#
# 1 123.8952 47.6761 52.3665 -4.2182 -1.6844 -11.0195
# 2 47.6761 96.7413 39.1672 7.4857 6.9038 -15.0773
# 3 52.3665 39.1672 134.5267 -6.7209 9.4362 -10.9507
# 4 -4.2182 7.4857 -6.7209 33.6247 3.8654 0.0483
# 5 -1.6844 6.9038 9.4362 3.8654 49.5175 -5.0186
# 6 -11.0195 -15.0773 -10.9507 0.0483 -5.0186 41.4948
#
#
#
# Elastic Compliance Matrix: (Units=1/GPa)
#
#
# Indices 1 2 3 4 5 6 
#
# 1 0.011192 -0.004399 -0.003042 0.001599 0.001525 0.000754
# 2 -0.004399 0.014356 -0.002329 -0.004097 -0.001052 0.003311
# 3 -0.003042 -0.002329 0.009582 0.002248 -0.001713 0.000665
# 4 0.001599 -0.004097 0.002248 0.031573 -0.002348 -0.000791
# 5 0.001525 -0.001052 -0.001713 -0.002348 0.021119 0.002128
# 6 0.000754 0.003311 0.000665 -0.000791 0.002128 0.025936
#
#
# Mechanical properties :
#
#
# Convention : Reuss Voigt Hill
#
# Bulk Modulus (GPa) = 64.13987 70.39811 67.26899
# Shear Modulus (GPa) = 36.10264 39.32428 37.71346
#
# Velocity S-wave (km/s) = 4.10019 4.27922 4.19066
# Velocity P-wave (km/s) = 7.23068 7.56288 7.39864
#
# Compressibility (1/GPa) = 0.01559093
#
# Stress axis : x y z
#
# Youngs Moduli (GPa) = 89.34925 69.65812 104.36256
#
# Poissons Ratio (x) = 0.30645 0.31742
# Poissons Ratio (y) = 0.39308 0.24301
# Poissons Ratio (z) = 0.27176 0.16220
#
# Static dielectric constant tensor:
#      x y z
#    x 3.945420 0.006150 -0.178520 
#    y 0.006150 4.002150 0.164920 
#    z -0.178520 0.164920 4.588200 
# 
# 
# High freq. dielectric constant tensor:
#      x y z
#    x 1.850120 0.006590 -0.003400 
#    y 0.006590 1.837440 0.003700 
#    z -0.003400 0.003700 1.854850 
# 
# From -- ./inp_files/201073.got.cif
#   From: 2010.06.25/outbox.cif.g09.slc.cpg/sg2_101_cif.got.tgz:201073.got - 2010.06.27 13:26:56.
