data_PCOD8014076
_publ_section_title
;
Structure prediction by ZEFSAII (Michael W. Deem and Ramdas Pophale) SiO2 
 PCOD8014076
Probable space group: P -1
;
_chemical_formula_sum "Si O2"
_cell_formula_units_Z 16
_cell_length_a 8.332004
_cell_length_b 18.058549
_cell_length_c 12.963309
_cell_angle_alpha 140.641038
_cell_angle_beta 146.575672
_cell_angle_gamma 41.176918
_cell_volume 648.384604
_symmetry_space_group_name_H-M "P -1"
_symmetry_group_IT_number 2
_symmetry_cell_setting 'triclinic'
loop_
_space_group_symop_operation_xyz
x,y,z
-x,-y,-z
loop_
_atom_site_type_symbol
_atom_site_label
_atom_site_fract_x
_atom_site_fract_y
_atom_site_fract_z
Si Si1 0.890235 0.528590 0.325693
Si Si2 0.230653 0.248987 0.190014
Si Si3 0.400236 0.301828 0.832894
Si Si4 0.214051 0.022458 0.049815
Si Si5 0.881486 0.870399 0.209223
Si Si6 0.444998 0.531382 0.741609
Si Si7 0.160381 0.707943 0.371731
Si Si8 0.779378 0.050092 0.680742
O O1 0.976070 0.381432 0.200285
O O2 0.181919 0.575564 0.559288
O O3 0.716557 0.590716 0.197545
O O4 0.663102 0.558099 0.333680
O O5 0.181875 0.165969 0.170417
O O6 0.567551 0.259728 0.391246
O O7 0.215870 0.188819 0.007308
O O8 0.680430 0.193277 0.819985
O O9 0.127102 0.247087 0.656823
O O10 0.493809 0.353547 0.045987
O O11 0.569238 0.950524 0.182832
O O12 0.078965 0.974731 0.824162
O O13 0.000000 0.000000 0.000000
O O14 0.079767 0.771069 0.286073
O O15 0.102262 0.952159 0.377112
O O16 0.751278 0.440312 0.756001
O O17 0.500000 0.000000 0.500000
#
# Coordination Sequence:
#
# PCOD8014076 Si02
#       8
#     2   2   2   2   2   2   2   2
#     4  10  22  41  68  95 133 183 224 284 343 412
#     4  10  23  43  67  98 138 177 233 277 352 404
#     4  12  24  41  67  98 140 175 233 283 340 406
#     4  11  25  46  70 101 135 183 229 290 346 410
#     4  11  24  45  70  94 140 180 223 288 345 404
#     4  10  21  41  64  96 136 176 230 276 346 399
#     4  11  25  39  68 104 133 183 226 284 339 419
#     4  11  26  45  69 103 133 180 235 282 345 413
#
# _framework density 24.676711999999998
#
# number of rings (size 3 to 8) (size 9 to 14) (size 15 to 20)
#    0.000    1.250    0.000    6.000    5.250    3.500 
#    2.250    0.000    0.000    0.000    0.000    0.000 
#    0.000    0.000    0.000    0.000    0.000    0.000 
#
# Total GULP energy -198359.288163 kJ/mol
# GULP energy per Si atom -12397.455510 kJ/mol
# Density = 2.462055 g / cm^3
# Si number density = 24.676712 Si / 1000 Ang^3
#
#
#
# Elastic Constant Matrix: (Units=GPa)
#
#
# Indices 1 2 3 4 5 6 
#
# 1 85.1549 6.5477 -10.7321 1.1842 23.3906 -12.1559
# 2 6.5477 78.4824 15.7215 -7.4140 -2.1906 -9.1523
# 3 -10.7321 15.7215 75.3051 2.4284 5.4283 -6.4283
# 4 1.1842 -7.4140 2.4284 27.8595 1.3109 11.3537
# 5 23.3906 -2.1906 5.4283 1.3109 41.7268 -6.5436
# 6 -12.1559 -9.1523 -6.4283 11.3537 -6.5436 30.5127
#
#
#
# Elastic Compliance Matrix: (Units=1/GPa)
#
#
# Indices 1 2 3 4 5 6 
#
# 1 0.015550 -0.001937 0.003841 -0.003556 -0.008270 0.005973
# 2 -0.001937 0.014190 -0.003338 0.003159 0.002502 0.002143
# 3 0.003841 -0.003338 0.015291 -0.004060 -0.003482 0.004515
# 4 -0.003556 0.003159 -0.004060 0.044786 -0.001594 -0.018331
# 5 -0.008270 0.002502 -0.003482 -0.001594 0.029817 0.003710
# 6 0.005973 0.002143 0.004515 -0.018331 0.003710 0.044363
#
#
# Mechanical properties :
#
#
# Convention : Reuss Voigt Hill
#
# Bulk Modulus (GPa) = 23.71713 29.11297 26.41505
# Shear Modulus (GPa) = 27.63665 35.18015 31.40840
#
# Velocity S-wave (km/s) = 3.35019 3.77986 3.57150
# Velocity P-wave (km/s) = 4.95954 5.55636 5.26642
#
# Compressibility (1/GPa) = 0.04216363
#
# Stress axis : x y z
#
# Youngs Moduli (GPa) = 64.30862 70.47202 65.39833
#
# Poissons Ratio (x) = 0.13651 -0.25121
# Poissons Ratio (y) = 0.12457 0.21829
# Poissons Ratio (z) = -0.24702 0.23522
#
# Static dielectric constant tensor:
#      x y z
#    x 4.504390 -0.166190 0.163230 
#    y -0.166190 4.468330 -0.141770 
#    z 0.163230 -0.141770 4.584830 
# 
# 
# High freq. dielectric constant tensor:
#      x y z
#    x 1.981050 -0.009180 0.012100 
#    y -0.009180 1.976810 -0.016410 
#    z 0.012100 -0.016410 1.999380 
# 
# From -- ./inp_files/507309.got.cif
#   From: 2010.06.25/outbox.cif.g09.slc.cpg/sg2_254_cif.got.tgz:507309.got - 2010.06.27 13:26:56.
