data_PCOD8014778
_publ_section_title
;
Structure prediction by ZEFSAII (Michael W. Deem and Ramdas Pophale) SiO2 
 PCOD8014778
Probable space group: P -1
;
_chemical_formula_sum "Si O2"
_cell_formula_units_Z 12
_cell_length_a 17.385727
_cell_length_b 9.756393
_cell_length_c 12.112462
_cell_angle_alpha 133.871779
_cell_angle_beta 19.640944
_cell_angle_gamma 133.567594
_cell_volume 492.158956
_symmetry_space_group_name_H-M "P -1"
_symmetry_group_IT_number 2
_symmetry_cell_setting 'triclinic'
loop_
_space_group_symop_operation_xyz
x,y,z
-x,-y,-z
loop_
_atom_site_type_symbol
_atom_site_label
_atom_site_fract_x
_atom_site_fract_y
_atom_site_fract_z
Si Si1 0.839825 0.296997 0.793474
Si Si2 0.465522 0.077840 0.926481
Si Si3 0.053782 0.036838 0.821168
Si Si4 0.726125 0.818580 0.973392
Si Si5 0.750589 0.527050 0.232033
Si Si6 0.483510 0.471239 0.234610
O O1 0.080897 0.282398 0.403971
O O2 0.890447 0.378515 0.895772
O O3 0.716066 0.447691 0.974913
O O4 0.673488 0.092058 0.907120
O O5 0.738658 0.072671 0.562840
O O6 0.390234 0.054400 0.886970
O O7 0.401421 0.278189 0.168879
O O8 0.116744 0.261207 0.844046
O O9 0.826776 0.957893 0.013789
O O10 0.000000 0.000000 0.000000
O O11 0.531404 0.651752 0.189290
O O12 0.500000 0.500000 0.500000
O O13 0.719689 0.487190 0.382849
#
# Coordination Sequence:
#
# PCOD8014778 Si02
#       6
#     2   2   2   2   2   2
#     4  11  22  44  72  97 137 179 225 272 336 403
#     4  12  25  45  70  99 138 177 225 280 331 399
#     4  12  25  45  72  98 137 180 224 277 340 395
#     4  12  27  43  71 105 132 176 231 273 334 405
#     4  10  21  41  72  97 131 183 219 273 338 391
#     4  11  22  44  69  97 140 179 219 278 337 392
#
# _framework density 24.382365
#
# number of rings (size 3 to 8) (size 9 to 14) (size 15 to 20)
#    0.000    0.667    5.000    5.000    2.333    0.667 
#    0.000    1.667    0.000    0.000    0.000    0.000 
#    0.000    0.000    0.000    0.000    0.000    0.000 
#
# Total GULP energy -148870.044895 kJ/mol
# GULP energy per Si atom -12405.837075 kJ/mol
# Density = 2.432687 g / cm^3
# Si number density = 24.382365 Si / 1000 Ang^3
#
#
#
# Elastic Constant Matrix: (Units=GPa)
#
#
# Indices 1 2 3 4 5 6 
#
# 1 90.7435 5.4303 4.4794 -5.8358 16.8987 14.0583
# 2 5.4303 92.1027 20.4704 -15.4027 19.5344 16.2186
# 3 4.4794 20.4704 61.1022 -16.8841 37.1093 1.8713
# 4 -5.8358 -15.4027 -16.8841 26.4518 -10.3792 15.5215
# 5 16.8987 19.5344 37.1093 -10.3792 38.8734 7.0831
# 6 14.0583 16.2186 1.8713 15.5215 7.0831 48.8823
#
#
#
# Elastic Compliance Matrix: (Units=1/GPa)
#
#
# Indices 1 2 3 4 5 6 
#
# 1 0.014067 0.002388 0.007354 0.008588 -0.010900 -0.006267
# 2 0.002388 0.015520 0.002091 0.014650 -0.005132 -0.009825
# 3 0.007354 0.002091 0.046228 0.017911 -0.042856 -0.004056
# 4 0.008588 0.014650 0.017911 0.078330 -0.001322 -0.032697
# 5 -0.010900 -0.005132 -0.042856 -0.001322 0.074305 -0.003869
# 6 -0.006267 -0.009825 -0.004056 -0.032697 -0.003869 0.036617
#
#
# Mechanical properties :
#
#
# Convention : Reuss Voigt Hill
#
# Bulk Modulus (GPa) = 10.05214 33.85652 21.95433
# Shear Modulus (GPa) = 18.21078 37.07940 27.64509
#
# Velocity S-wave (km/s) = 2.73588 3.90391 3.37087
# Velocity P-wave (km/s) = 3.75656 5.85119 4.91671
#
# Compressibility (1/GPa) = 0.09948133
#
# Stress axis : x y z
#
# Youngs Moduli (GPa) = 71.08668 64.43158 21.63202
#
# Poissons Ratio (x) = -0.15385 -0.15908
# Poissons Ratio (y) = -0.16975 -0.04523
# Poissons Ratio (z) = -0.52277 -0.13473
#
# Static dielectric constant tensor:
#      x y z
#    x 4.612420 0.120370 0.359430 
#    y 0.120370 4.225920 0.013740 
#    z 0.359430 0.013740 4.486730 
# 
# 
# High freq. dielectric constant tensor:
#      x y z
#    x 1.983610 0.008850 0.022610 
#    y 0.008850 1.966000 -0.007100 
#    z 0.022610 -0.007100 1.966290 
# 
# From -- ./inp_files/148538.got.cif
#   From: 2010.06.25/outbox.cif.g09.slc.cpg/sg2_75_cif.got.tgz:148538.got - 2010.06.27 13:26:56.
