data_PCOD8014621
_publ_section_title
;
Structure prediction by ZEFSAII (Michael W. Deem and Ramdas Pophale) SiO2 
 PCOD8014621
Probable space group: P -1
;
_chemical_formula_sum "Si O2"
_cell_formula_units_Z 16
_cell_length_a 9.652515
_cell_length_b 15.106181
_cell_length_c 9.869906
_cell_angle_alpha 108.614023
_cell_angle_beta 61.299442
_cell_angle_gamma 143.251735
_cell_volume 749.336263
_symmetry_space_group_name_H-M "P -1"
_symmetry_group_IT_number 2
_symmetry_cell_setting 'triclinic'
loop_
_space_group_symop_operation_xyz
x,y,z
-x,-y,-z
loop_
_atom_site_type_symbol
_atom_site_label
_atom_site_fract_x
_atom_site_fract_y
_atom_site_fract_z
Si Si1 0.867643 0.917006 0.164856
Si Si2 0.741692 0.611956 0.633979
Si Si3 0.660103 0.134922 0.174003
Si Si4 0.845199 0.418430 0.321655
Si Si5 0.245525 0.928814 0.641394
Si Si6 0.659546 0.387789 0.675072
Si Si7 0.862829 0.121525 0.822042
Si Si8 0.256903 0.450697 0.694711
O O1 0.604503 0.741781 0.184377
O O2 0.047341 0.935664 0.183608
O O3 0.779438 0.971277 0.308106
O O4 0.000000 0.000000 0.000000
O O5 0.732958 0.530929 0.716067
O O6 0.501093 0.570038 0.737951
O O7 0.680943 0.531173 0.483906
O O8 0.010021 0.784885 0.594430
O O9 0.786950 0.291338 0.225057
O O10 0.763241 0.105072 0.214972
O O11 0.353946 0.001789 0.247888
O O12 0.753550 0.144559 0.990431
O O13 0.651381 0.344096 0.503040
O O14 0.845334 0.490511 0.229239
O O15 0.125880 0.565209 0.318227
O O16 0.500000 0.000000 0.500000
O O17 0.087183 0.283000 0.727853
#
# Coordination Sequence:
#
# PCOD8014621 Si02
#       8
#     2   2   2   2   2   2   2   2
#     4  12  26  45  66  96 134 180 223 271 341 399
#     4  10  21  42  65  95 132 168 219 281 329 389
#     4  11  24  43  64  93 136 176 222 269 331 395
#     4  10  22  40  68 101 125 170 224 274 334 390
#     4  12  25  43  69 101 130 176 230 278 328 399
#     4  10  21  41  69  94 131 167 225 281 327 395
#     4  11  25  45  62  92 139 179 216 272 331 406
#     4  10  22  40  65  95 134 171 211 273 342 388
#
# _framework density 21.352229000000001
#
# number of rings (size 3 to 8) (size 9 to 14) (size 15 to 20)
#    0.000    1.250    3.750    1.500    7.000    0.500 
#    2.250    3.750    0.000    0.000    0.000    0.000 
#    0.000    0.000    0.000    0.000    0.000    0.000 
#
# Total GULP energy -198242.035830 kJ/mol
# GULP energy per Si atom -12390.127239 kJ/mol
# Density = 2.130363 g / cm^3
# Si number density = 21.352229 Si / 1000 Ang^3
#
#
#
# Elastic Constant Matrix: (Units=GPa)
#
#
# Indices 1 2 3 4 5 6 
#
# 1 155.2172 52.5212 17.6175 -1.0597 -1.6283 -6.7794
# 2 52.5212 112.9388 19.4920 -3.2492 -5.9811 4.1477
# 3 17.6175 19.4920 44.8216 -4.8208 -6.1222 -1.3133
# 4 -1.0597 -3.2492 -4.8208 33.8883 -1.1682 -2.8740
# 5 -1.6283 -5.9811 -6.1222 -1.1682 25.2076 -1.1650
# 6 -6.7794 4.1477 -1.3133 -2.8740 -1.1650 48.1127
#
#
#
# Elastic Compliance Matrix: (Units=1/GPa)
#
#
# Indices 1 2 3 4 5 6 
#
# 1 0.007849 -0.003454 -0.001660 -0.000232 -0.000665 0.001329
# 2 -0.003454 0.011178 -0.003285 0.000426 0.001583 -0.001476
# 3 -0.001660 -0.003285 0.025562 0.003553 0.005537 0.001093
# 4 -0.000232 0.000426 0.003553 0.030293 0.002440 0.001896
# 5 -0.000665 0.001583 0.005537 0.002440 0.041511 0.001072
# 6 0.001329 -0.001476 0.001093 0.001896 0.001072 0.021268
#
#
# Mechanical properties :
#
#
# Convention : Reuss Voigt Hill
#
# Bulk Modulus (GPa) = 35.98214 54.69322 45.33768
# Shear Modulus (GPa) = 30.53954 36.33151 33.43552
#
# Velocity S-wave (km/s) = 3.78600 4.12944 3.96144
# Velocity P-wave (km/s) = 6.00000 6.95749 6.49641
#
# Compressibility (1/GPa) = 0.02779157
#
# Stress axis : x y z
#
# Youngs Moduli (GPa) = 127.39901 89.46140 39.12069
#
# Poissons Ratio (x) = 0.30904 0.06493
# Poissons Ratio (y) = 0.44010 0.12849
# Poissons Ratio (z) = 0.21146 0.29384
#
# Static dielectric constant tensor:
#      x y z
#    x 4.587560 -0.031050 0.083960 
#    y -0.031050 3.761650 -0.090600 
#    z 0.083960 -0.090600 3.611680 
# 
# 
# High freq. dielectric constant tensor:
#      x y z
#    x 1.864070 -0.001100 0.003140 
#    y -0.001100 1.840110 -0.009550 
#    z 0.003140 -0.009550 1.807870 
# 
# From -- ./inp_files/207698.got.cif
#   From: 2010.06.25/outbox.cif.g09.slc.cpg/sg2_104_cif.got.tgz:207698.got - 2010.06.27 13:26:56.
