data_PCOD8014497
_publ_section_title
;
Structure prediction by ZEFSAII (Michael W. Deem and Ramdas Pophale) SiO2 
 PCOD8014497
Probable space group: P -1
;
_chemical_formula_sum "Si O2"
_cell_formula_units_Z 16
_cell_length_a 12.493866
_cell_length_b 9.004824
_cell_length_c 11.018950
_cell_angle_alpha 130.790648
_cell_angle_beta 47.214265
_cell_angle_gamma 119.006739
_cell_volume 686.923287
_symmetry_space_group_name_H-M "P -1"
_symmetry_group_IT_number 2
_symmetry_cell_setting 'triclinic'
loop_
_space_group_symop_operation_xyz
x,y,z
-x,-y,-z
loop_
_atom_site_type_symbol
_atom_site_label
_atom_site_fract_x
_atom_site_fract_y
_atom_site_fract_z
Si Si1 0.965995 0.051095 0.690910
Si Si2 0.729990 0.272041 0.341474
Si Si3 0.801506 0.640412 0.317168
Si Si4 0.413788 0.342171 0.719297
Si Si5 0.680918 0.950070 0.746929
Si Si6 0.516270 0.732113 0.959304
Si Si7 0.259029 0.152842 0.952223
Si Si8 0.977017 0.284695 0.345547
O O1 0.031939 0.272455 0.798589
O O2 0.789195 0.039318 0.818567
O O3 0.000000 0.000000 0.500000
O O4 0.023176 0.882261 0.641494
O O5 0.796919 0.460034 0.316124
O O6 0.558110 0.278210 0.506405
O O7 0.818994 0.267001 0.395145
O O8 0.756120 0.081778 0.137696
O O9 0.700102 0.582894 0.250345
O O10 0.749788 0.835930 0.524153
O O11 0.450670 0.510075 0.880025
O O12 0.331351 0.170912 0.772010
O O13 0.565863 0.797397 0.820475
O O14 0.606681 0.125653 0.829067
O O15 0.645521 0.736182 0.958253
O O16 0.101764 0.244790 0.128285
O O17 0.000000 0.500000 0.500000
#
# Coordination Sequence:
#
# PCOD8014497 Si02
#       8
#     2   2   2   2   2   2   2   2
#     4  10  22  42  69 101 134 176 228 282 338 409
#     4  12  26  45  70 101 142 188 229 284 348 409
#     4  11  24  44  71 101 137 182 233 283 345 410
#     4  12  26  45  71 104 140 182 232 287 347 411
#     4  10  21  41  68 100 131 176 227 283 337 400
#     4  11  23  40  70  97 134 176 228 281 342 403
#     4  12  27  46  68 103 143 182 232 283 347 416
#     4  12  25  47  72  99 141 186 232 285 348 412
#
# _framework density 23.292265
#
# number of rings (size 3 to 8) (size 9 to 14) (size 15 to 20)
#    0.000    0.750    2.500    5.250    3.500    5.000 
#    0.000    1.875    0.000    0.000    0.000    0.000 
#    0.000    0.000    0.000    0.000    0.000    0.000 
#
# Total GULP energy -198405.252057 kJ/mol
# GULP energy per Si atom -12400.328254 kJ/mol
# Density = 2.323925 g / cm^3
# Si number density = 23.292265 Si / 1000 Ang^3
#
#
#
# Elastic Constant Matrix: (Units=GPa)
#
#
# Indices 1 2 3 4 5 6 
#
# 1 109.8573 21.8173 -3.2861 -5.6368 4.4018 7.4385
# 2 21.8173 125.3758 29.4028 -3.3039 -4.0673 2.4558
# 3 -3.2861 29.4028 58.2371 9.5872 0.0278 6.7911
# 4 -5.6368 -3.3039 9.5872 29.0225 3.4826 7.2066
# 5 4.4018 -4.0673 0.0278 3.4826 32.7767 3.9493
# 6 7.4385 2.4558 6.7911 7.2066 3.9493 40.9617
#
#
#
# Elastic Compliance Matrix: (Units=1/GPa)
#
#
# Indices 1 2 3 4 5 6 
#
# 1 0.009851 -0.002028 0.001515 0.001887 -0.001523 -0.002104
# 2 -0.002028 0.009695 -0.005409 0.002311 0.001215 0.000160
# 3 0.001515 -0.005409 0.021380 -0.006825 0.000110 -0.002305
# 4 0.001887 0.002311 -0.006825 0.039220 -0.003415 -0.005921
# 5 -0.001523 0.001215 0.000110 -0.003415 0.031499 -0.002251
# 6 -0.002104 0.000160 -0.002305 -0.005921 -0.002251 0.026426
#
#
# Mechanical properties :
#
#
# Convention : Reuss Voigt Hill
#
# Bulk Modulus (GPa) = 34.38527 43.25980 38.82253
# Shear Modulus (GPa) = 31.32684 36.92127 34.12406
#
# Velocity S-wave (km/s) = 3.67133 3.98569 3.83173
# Velocity P-wave (km/s) = 5.72417 6.30824 6.02329
#
# Compressibility (1/GPa) = 0.02908222
#
# Stress axis : x y z
#
# Youngs Moduli (GPa) = 101.51164 103.15076 46.77325
#
# Poissons Ratio (x) = 0.20919 -0.07087
# Poissons Ratio (y) = 0.20587 0.25298
# Poissons Ratio (z) = -0.15381 0.55791
#
# Static dielectric constant tensor:
#      x y z
#    x 4.725350 0.647200 -0.354130 
#    y 0.647200 4.731920 -0.212830 
#    z -0.354130 -0.212830 4.121130 
# 
# 
# High freq. dielectric constant tensor:
#      x y z
#    x 1.932980 0.009600 -0.002130 
#    y 0.009600 1.934260 -0.000230 
#    z -0.002130 -0.000230 1.909950 
# 
# From -- ./inp_files/333826.got.cif
#   From: 2010.06.25/outbox.cif.g09.slc.cpg/sg2_167_cif.got.tgz:333826.got - 2010.06.27 13:26:56.
