data_PCOD8014289
_publ_section_title
;
Structure prediction by ZEFSAII (Michael W. Deem and Ramdas Pophale) SiO2 
 PCOD8014289
Probable space group: P -1
;
_chemical_formula_sum "Si O2"
_cell_formula_units_Z 16
_cell_length_a 8.772456
_cell_length_b 18.214428
_cell_length_c 9.584274
_cell_angle_alpha 143.270965
_cell_angle_beta 106.991603
_cell_angle_gamma 56.716848
_cell_volume 731.486797
_symmetry_space_group_name_H-M "P -1"
_symmetry_group_IT_number 2
_symmetry_cell_setting 'triclinic'
loop_
_space_group_symop_operation_xyz
x,y,z
-x,-y,-z
loop_
_atom_site_type_symbol
_atom_site_label
_atom_site_fract_x
_atom_site_fract_y
_atom_site_fract_z
Si Si1 0.855107 0.377527 0.148065
Si Si2 0.495232 0.122116 0.591855
Si Si3 0.122326 0.193153 0.485613
Si Si4 0.829613 0.358891 0.417192
Si Si5 0.535723 0.601143 0.916461
Si Si6 0.128365 0.543870 0.018147
Si Si7 0.902772 0.065710 0.931114
Si Si8 0.889086 0.954319 0.304110
O O1 0.870132 0.419097 0.376441
O O2 0.655776 0.391686 0.097622
O O3 0.869742 0.476198 0.180999
O O4 0.032503 0.215543 0.914156
O O5 0.302953 0.206681 0.574798
O O6 0.500000 0.000000 0.500000
O O7 0.665748 0.050578 0.418842
O O8 0.508992 0.235270 0.869727
O O9 0.021055 0.266470 0.421250
O O10 0.199944 0.020183 0.264499
O O11 0.968253 0.284020 0.705602
O O12 0.654790 0.495747 0.658289
O O13 0.767708 0.245151 0.177116
O O14 0.655734 0.544216 0.004760
O O15 0.000000 0.500000 0.000000
O O16 0.077758 0.017722 0.802169
O O17 0.000000 0.000000 0.000000
O O18 0.000000 0.000000 0.500000
#
# Coordination Sequence:
#
# PCOD8014289 Si02
#       8
#     2   2   2   2   2   2   2   2
#     4  11  22  41  65  94 126 166 223 262 313 384
#     4  12  24  38  66 101 131 165 215 269 322 374
#     4  10  21  41  66  93 131 169 209 265 326 375
#     4   9  22  41  68  94 128 172 214 261 321 386
#     4  11  23  41  67  95 130 165 216 265 319 382
#     4  11  22  40  65  95 131 167 208 269 329 373
#     4   9  19  40  65  90 123 166 208 256 313 377
#     4  11  21  37  65  95 121 164 218 261 307 377
#
# _framework density 21.873259000000001
#
# number of rings (size 3 to 8) (size 9 to 14) (size 15 to 20)
#    0.000    1.500    2.500    3.000    1.750    0.000 
#    2.250    8.125    2.750    0.000    0.000    0.000 
#    0.000    0.000    0.000    0.000    0.000    0.000 
#
# Total GULP energy -198262.519186 kJ/mol
# GULP energy per Si atom -12391.407449 kJ/mol
# Density = 2.182347 g / cm^3
# Si number density = 21.873259 Si / 1000 Ang^3
#
#
#
# Elastic Constant Matrix: (Units=GPa)
#
#
# Indices 1 2 3 4 5 6 
#
# 1 100.7524 42.2717 34.9995 -1.7285 -11.3724 3.4222
# 2 42.2717 103.1317 32.8655 -20.1509 -20.1711 23.5393
# 3 34.9995 32.8655 126.0870 4.3646 -17.2470 17.5819
# 4 -1.7285 -20.1509 4.3646 36.5050 -1.2063 -11.2990
# 5 -11.3724 -20.1711 -17.2470 -1.2063 26.3067 -0.3298
# 6 3.4222 23.5393 17.5819 -11.2990 -0.3298 42.1896
#
#
#
# Elastic Compliance Matrix: (Units=1/GPa)
#
#
# Indices 1 2 3 4 5 6 
#
# 1 0.012933 -0.005389 -0.002550 -0.001233 -0.000236 0.002688
# 2 -0.005389 0.017295 -0.000891 0.007674 0.010615 -0.006703
# 3 -0.002550 -0.000891 0.010226 -0.003019 0.004726 -0.004329
# 4 -0.001233 0.007674 -0.003019 0.034026 0.005010 0.006228
# 5 -0.000236 0.010615 0.004726 0.005010 0.049301 -0.006146
# 6 0.002688 -0.006703 -0.004329 0.006228 -0.006146 0.030648
#
#
# Mechanical properties :
#
#
# Convention : Reuss Voigt Hill
#
# Bulk Modulus (GPa) = 43.87203 61.13830 52.50516
# Shear Modulus (GPa) = 27.82634 35.65589 31.74111
#
# Velocity S-wave (km/s) = 3.57061 4.04185 3.81351
# Velocity P-wave (km/s) = 6.09097 7.05648 6.59143
#
# Compressibility (1/GPa) = 0.02279357
#
# Stress axis : x y z
#
# Youngs Moduli (GPa) = 77.32146 57.82139 97.79365
#
# Poissons Ratio (x) = 0.31161 0.24934
# Poissons Ratio (y) = 0.41669 0.08714
# Poissons Ratio (z) = 0.19714 0.05152
#
# Static dielectric constant tensor:
#      x y z
#    x 4.017020 0.274190 0.404850 
#    y 0.274190 4.535610 0.642740 
#    z 0.404850 0.642740 5.914250 
# 
# 
# High freq. dielectric constant tensor:
#      x y z
#    x 1.837220 -0.000880 0.001490 
#    y -0.000880 1.872110 0.000370 
#    z 0.001490 0.000370 1.870900 
# 
# From -- ./inp_files/218918.got.cif
#   From: 2010.06.25/outbox.cif.g09.slc.cpg/sg2_110_cif.got.tgz:218918.got - 2010.06.27 13:26:56.
