data_PCOD8014618
_publ_section_title
;
Structure prediction by ZEFSAII (Michael W. Deem and Ramdas Pophale) SiO2 
 PCOD8014618
Probable space group: P -1
;
_chemical_formula_sum "Si O2"
_cell_formula_units_Z 16
_cell_length_a 12.112672
_cell_length_b 9.126861
_cell_length_c 14.250859
_cell_angle_alpha 83.952272
_cell_angle_beta 148.262348
_cell_angle_gamma 83.537081
_cell_volume 760.086813
_symmetry_space_group_name_H-M "P -1"
_symmetry_group_IT_number 2
_symmetry_cell_setting 'triclinic'
loop_
_space_group_symop_operation_xyz
x,y,z
-x,-y,-z
loop_
_atom_site_type_symbol
_atom_site_label
_atom_site_fract_x
_atom_site_fract_y
_atom_site_fract_z
Si Si1 0.643763 0.556061 0.029219
Si Si2 0.426209 0.508153 0.222109
Si Si3 0.425491 0.218974 0.706447
Si Si4 0.920369 0.746719 0.816905
Si Si5 0.528696 0.652779 0.549691
Si Si6 0.453263 0.842773 0.988302
Si Si7 0.017501 0.778108 0.686976
Si Si8 0.743508 0.043649 0.784945
O O1 0.539418 0.577552 0.848179
O O2 0.500000 0.500000 0.000000
O O3 0.637629 0.721431 0.057860
O O4 0.889303 0.413905 0.216033
O O5 0.591836 0.605157 0.350512
O O6 0.489303 0.360968 0.349612
O O7 0.169502 0.640866 0.044542
O O8 0.515997 0.207976 0.878139
O O9 0.189399 0.190689 0.537278
O O10 0.594396 0.084672 0.768956
O O11 0.781424 0.635549 0.703152
O O12 0.933982 0.844938 0.726349
O O13 0.750402 0.879255 0.755755
O O14 0.500000 0.500000 0.500000
O O15 0.339356 0.813806 0.360562
O O16 0.199909 0.849937 0.776315
O O17 0.500000 0.000000 0.000000
O O18 0.000000 0.000000 0.000000
#
# Coordination Sequence:
#
# PCOD8014618 Si02
#       8
#     2   2   2   2   2   2   2   2
#     4   9  19  42  69  88 126 173 217 269 341 390
#     4  11  21  41  67  98 130 178 224 278 323 395
#     4  12  22  41  71  90 134 176 222 269 341 391
#     4  11  21  42  64  91 139 177 212 272 334 397
#     4  12  23  37  61 101 130 171 235 266 314 407
#     4  11  24  45  67  97 130 165 222 287 333 395
#     4  10  21  41  69  94 125 175 223 263 337 404
#     4  12  23  40  66  95 136 187 214 266 343 391
#
# _framework density 21.050225999999999
#
# number of rings (size 3 to 8) (size 9 to 14) (size 15 to 20)
#    0.000    1.000    7.500    0.750    0.000    2.000 
#    0.000    6.250    0.000    0.000    0.000    0.000 
#    0.000    0.000    0.000    0.000    0.000    0.000 
#
# Total GULP energy -198258.307093 kJ/mol
# GULP energy per Si atom -12391.144193 kJ/mol
# Density = 2.100231 g / cm^3
# Si number density = 21.050226 Si / 1000 Ang^3
#
#
#
# Elastic Constant Matrix: (Units=GPa)
#
#
# Indices 1 2 3 4 5 6 
#
# 1 109.2536 44.8088 33.3301 -0.4116 -9.7658 -15.4393
# 2 44.8088 125.7535 37.2286 13.8442 8.1508 -7.3742
# 3 33.3301 37.2286 120.0873 14.4292 0.7716 9.7235
# 4 -0.4116 13.8442 14.4292 25.9488 11.3153 1.3951
# 5 -9.7658 8.1508 0.7716 11.3153 28.7083 6.6521
# 6 -15.4393 -7.3742 9.7235 1.3951 6.6521 47.4793
#
#
#
# Elastic Compliance Matrix: (Units=1/GPa)
#
#
# Indices 1 2 3 4 5 6 
#
# 1 0.012420 -0.003864 -0.002785 0.001950 0.003837 0.003414
# 2 -0.003864 0.010538 -0.001886 -0.003280 -0.003269 0.001321
# 3 -0.002785 -0.001886 0.010657 -0.005829 0.002422 -0.003549
# 4 0.001950 -0.003280 -0.005829 0.051820 -0.019251 0.002493
# 5 0.003837 -0.003269 0.002422 -0.019251 0.045891 -0.005620
# 6 0.003414 0.001321 -0.003549 0.002493 -0.005620 0.023818
#
#
# Mechanical properties :
#
#
# Convention : Reuss Voigt Hill
#
# Bulk Modulus (GPa) = 60.44187 65.09214 62.76700
# Shear Modulus (GPa) = 28.13250 36.40909 32.27080
#
# Velocity S-wave (km/s) = 3.65971 4.16339 3.91965
# Velocity P-wave (km/s) = 6.82887 7.35535 7.09700
#
# Compressibility (1/GPa) = 0.01654482
#
# Stress axis : x y z
#
# Youngs Moduli (GPa) = 80.51347 94.89581 93.83451
#
# Poissons Ratio (x) = 0.36672 0.26129
# Poissons Ratio (y) = 0.31114 0.17698
# Poissons Ratio (z) = 0.22420 0.17898
#
# Static dielectric constant tensor:
#      x y z
#    x 18.005370 -15.486920 3.038320 
#    y -15.486920 21.788940 -3.489830 
#    z 3.038320 -3.489830 4.608350 
# 
# 
# High freq. dielectric constant tensor:
#      x y z
#    x 1.827100 -0.012760 -0.005430 
#    y -0.012760 1.818600 0.019930 
#    z -0.005430 0.019930 1.818770 
# 
# From -- ./inp_files/515557.got.cif
#   From: 2010.06.25/outbox.cif.g09.slc.cpg/sg2_258_cif.got.tgz:515557.got - 2010.06.27 13:26:56.
