data_PCOD8014223
_publ_section_title
;
Structure prediction by ZEFSAII (Michael W. Deem and Ramdas Pophale) SiO2 
 PCOD8014223
Probable space group: P -1
;
_chemical_formula_sum "Si O2"
_cell_formula_units_Z 16
_cell_length_a 8.722942
_cell_length_b 18.172102
_cell_length_c 19.961506
_cell_angle_alpha 20.379460
_cell_angle_beta 39.492988
_cell_angle_gamma 39.227001
_cell_volume 681.760116
_symmetry_space_group_name_H-M "P -1"
_symmetry_group_IT_number 2
_symmetry_cell_setting 'triclinic'
loop_
_space_group_symop_operation_xyz
x,y,z
-x,-y,-z
loop_
_atom_site_type_symbol
_atom_site_label
_atom_site_fract_x
_atom_site_fract_y
_atom_site_fract_z
Si Si1 0.504110 0.977990 0.801483
Si Si2 0.722236 0.225181 0.412896
Si Si3 0.954082 0.581855 0.081014
Si Si4 0.509145 0.128319 0.955110
Si Si5 0.316251 0.585559 0.188173
Si Si6 0.284703 0.344145 0.277299
Si Si7 0.981854 0.260351 0.723670
Si Si8 0.824642 0.091328 0.346287
O O1 0.715859 0.073624 0.610281
O O2 0.238646 0.098550 0.758443
O O3 0.505127 0.012776 0.851996
O O4 0.528334 0.724642 0.988137
O O5 0.914002 0.376256 0.228664
O O6 0.446225 0.371607 0.368985
O O7 0.811095 0.075564 0.445216
O O8 0.210860 0.497136 0.106804
O O9 0.723740 0.662634 0.140786
O O10 0.963654 0.786792 0.853875
O O11 0.764049 0.206362 0.797971
O O12 0.500000 0.000000 0.000000
O O13 0.199230 0.508412 0.227442
O O14 0.095642 0.745780 0.166527
O O15 0.575536 0.243368 0.269745
O O16 0.136726 0.150021 0.491610
O O17 0.000000 0.500000 0.500000
#
# Coordination Sequence:
#
# PCOD8014223 Si02
#       8
#     2   2   2   2   2   2   2   2
#     4  11  23  43  72  93 138 180 224 271 333 405
#     4  11  23  44  67  99 129 174 227 274 332 403
#     4  12  24  43  68  97 140 172 220 281 341 393
#     4  11  26  44  65 105 138 173 223 280 340 395
#     4  10  21  41  65  98 130 172 223 268 327 401
#     4  10  25  42  68  97 132 171 232 266 344 394
#     4  11  21  43  69  97 132 182 229 267 330 416
#     4  10  25  47  66  98 132 176 227 279 331 404
#
# _framework density 23.468665999999999
#
# number of rings (size 3 to 8) (size 9 to 14) (size 15 to 20)
#    0.000    1.250    3.750    2.250    5.250    6.500 
#    0.000    1.250    0.000    0.000    0.000    0.000 
#    0.000    0.000    0.000    0.000    0.000    0.000 
#
# Total GULP energy -198369.208377 kJ/mol
# GULP energy per Si atom -12398.075524 kJ/mol
# Density = 2.341525 g / cm^3
# Si number density = 23.468666 Si / 1000 Ang^3
#
#
#
# Elastic Constant Matrix: (Units=GPa)
#
#
# Indices 1 2 3 4 5 6 
#
# 1 117.0475 27.8366 46.7481 4.0811 -9.2378 44.2640
# 2 27.8366 76.5336 25.9841 -5.6773 -19.4666 21.6693
# 3 46.7481 25.9841 154.6302 14.0584 -12.4351 36.6569
# 4 4.0811 -5.6773 14.0584 34.4602 3.7671 -7.0359
# 5 -9.2378 -19.4666 -12.4351 3.7671 44.7624 -8.7350
# 6 44.2640 21.6693 36.6569 -7.0359 -8.7350 34.0001
#
#
#
# Elastic Compliance Matrix: (Units=1/GPa)
#
#
# Indices 1 2 3 4 5 6 
#
# 1 0.018813 -0.000237 0.001787 -0.008699 -0.000494 -0.028195
# 2 -0.000237 0.017206 -0.000365 0.000625 0.005582 -0.008700
# 3 0.001787 -0.000365 0.010129 -0.007423 0.000852 -0.014332
# 4 -0.008699 0.000625 -0.007423 0.038779 -0.001673 0.026525
# 5 -0.000494 0.005582 0.000852 -0.001673 0.025506 0.002374
# 6 -0.028195 -0.008700 -0.014332 0.026525 0.002374 0.093214
#
#
# Mechanical properties :
#
#
# Convention : Reuss Voigt Hill
#
# Bulk Modulus (GPa) = 20.61108 61.03876 40.82492
# Shear Modulus (GPa) = 22.99375 39.15403 31.07389
#
# Velocity S-wave (km/s) = 3.13351 4.08898 3.64271
# Velocity P-wave (km/s) = 4.67903 6.95400 5.92669
#
# Compressibility (1/GPa) = 0.04851759
#
# Stress axis : x y z
#
# Youngs Moduli (GPa) = 53.15462 58.12003 98.72597
#
# Poissons Ratio (x) = 0.01380 -0.17647
# Poissons Ratio (y) = 0.01262 0.03605
# Poissons Ratio (z) = -0.09501 0.02122
#
# Static dielectric constant tensor:
#      x y z
#    x 4.188120 -0.254300 -0.322430 
#    y -0.254300 4.232210 -0.121080 
#    z -0.322430 -0.121080 3.847170 
# 
# 
# High freq. dielectric constant tensor:
#      x y z
#    x 1.937250 -0.019370 0.001900 
#    y -0.019370 1.919980 -0.011040 
#    z 0.001900 -0.011040 1.935700 
# 
# From -- ./inp_files/591157.got.cif
#   From: 2010.06.25/outbox.cif.g09.slc.cpg/sg2_296_cif.got.tgz:591157.got - 2010.06.27 13:26:56.
