data_PCOD8014711
_publ_section_title
;
Structure prediction by ZEFSAII (Michael W. Deem and Ramdas Pophale) SiO2 
 PCOD8014711
Probable space group: P -1
;
_chemical_formula_sum "Si O2"
_cell_formula_units_Z 16
_cell_length_a 12.337561
_cell_length_b 8.412687
_cell_length_c 14.770579
_cell_angle_alpha 137.069250
_cell_angle_beta 103.694584
_cell_angle_gamma 49.774826
_cell_volume 710.362597
_symmetry_space_group_name_H-M "P -1"
_symmetry_group_IT_number 2
_symmetry_cell_setting 'triclinic'
loop_
_space_group_symop_operation_xyz
x,y,z
-x,-y,-z
loop_
_atom_site_type_symbol
_atom_site_label
_atom_site_fract_x
_atom_site_fract_y
_atom_site_fract_z
Si Si1 0.905133 0.282191 0.420162
Si Si2 0.525831 0.235876 0.616359
Si Si3 0.591208 0.494501 0.097120
Si Si4 0.766507 0.639898 0.121010
Si Si5 0.931830 0.750491 0.882455
Si Si6 0.878839 0.703040 0.439506
Si Si7 0.651879 0.316036 0.394097
Si Si8 0.084397 0.570176 0.105797
O O1 0.860530 0.563397 0.464371
O O2 0.747012 0.404150 0.485202
O O3 0.025594 0.200248 0.484600
O O4 0.983763 0.955870 0.244486
O O5 0.509859 0.348714 0.764478
O O6 0.394051 0.572959 0.673732
O O7 0.500000 0.000000 0.500000
O O8 0.696630 0.046693 0.526537
O O9 0.619029 0.723402 0.170884
O O10 0.500000 0.500000 0.000000
O O11 0.767461 0.127896 0.990563
O O12 0.941119 0.295013 0.049604
O O13 0.761783 0.923241 0.260822
O O14 0.756985 0.609498 0.997435
O O15 0.882091 0.578947 0.849446
O O16 0.028094 0.568527 0.733344
O O17 0.500000 0.500000 0.500000
O O18 0.000000 0.500000 0.000000
#
# Coordination Sequence:
#
# PCOD8014711 Si02
#       8
#     2   2   2   2   2   2   2   2
#     4  11  24  43  70  98 141 177 238 286 353 408
#     4  12  26  46  72 104 146 190 238 289 364 428
#     4  12  29  46  69 103 148 182 235 303 359 416
#     4  11  24  44  71  97 133 186 236 282 347 426
#     4  11  23  45  73 101 128 186 242 277 349 430
#     4  11  26  43  72 102 142 188 233 292 350 428
#     4  12  24  44  70 104 143 183 235 295 356 424
#     4  10  21  41  70  99 131 171 239 289 338 409
#
# _framework density 22.523709
#
# number of rings (size 3 to 8) (size 9 to 14) (size 15 to 20)
#    0.000    0.750    3.750    4.125    7.000    0.500 
#    2.250    1.250    0.000    0.000    0.000    0.000 
#    0.000    0.000    0.000    0.000    0.000    0.000 
#
# Total GULP energy -198289.447928 kJ/mol
# GULP energy per Si atom -12393.090496 kJ/mol
# Density = 2.247244 g / cm^3
# Si number density = 22.523709 Si / 1000 Ang^3
#
#
#
# Elastic Constant Matrix: (Units=GPa)
#
#
# Indices 1 2 3 4 5 6 
#
# 1 149.2597 40.3505 43.0489 -6.7856 1.1758 -10.5162
# 2 40.3505 81.0342 22.8503 3.6401 8.4318 -10.7958
# 3 43.0489 22.8503 104.5704 -3.2404 -9.9042 -12.6394
# 4 -6.7856 3.6401 -3.2404 34.0825 0.1635 -1.3729
# 5 1.1758 8.4318 -9.9042 0.1635 46.8035 -0.9769
# 6 -10.5162 -10.7958 -12.6394 -1.3729 -0.9769 28.6201
#
#
#
# Elastic Compliance Matrix: (Units=1/GPa)
#
#
# Indices 1 2 3 4 5 6 
#
# 1 0.008534 -0.003481 -0.002617 0.001853 -0.000132 0.000751
# 2 -0.003481 0.015495 -0.001888 -0.002371 -0.003022 0.003515
# 3 -0.002617 -0.001888 0.011810 0.000938 0.002979 0.003689
# 4 0.001853 -0.002371 0.000938 0.030116 0.000509 0.001662
# 5 -0.000132 -0.003022 0.002979 0.000509 0.022561 0.000922
# 6 0.000751 0.003515 0.003689 0.001662 0.000922 0.038283
#
#
# Mechanical properties :
#
#
# Convention : Reuss Voigt Hill
#
# Bulk Modulus (GPa) = 50.33220 60.81820 55.57520
# Shear Modulus (GPa) = 33.46887 37.14221 35.30554
#
# Velocity S-wave (km/s) = 3.85897 4.06523 3.96344
# Velocity P-wave (km/s) = 6.50003 7.00680 6.75817
#
# Compressibility (1/GPa) = 0.01986800
#
# Stress axis : x y z
#
# Youngs Moduli (GPa) = 117.18330 64.53549 84.67624
#
# Poissons Ratio (x) = 0.22464 0.22157
# Poissons Ratio (y) = 0.40789 0.15985
# Poissons Ratio (z) = 0.30664 0.12183
#
# Static dielectric constant tensor:
#      x y z
#    x 4.710790 0.177450 -0.309160 
#    y 0.177450 4.346250 -0.068660 
#    z -0.309160 -0.068660 4.231600 
# 
# 
# High freq. dielectric constant tensor:
#      x y z
#    x 1.901480 0.014480 -0.014020 
#    y 0.014480 1.881440 0.007220 
#    z -0.014020 0.007220 1.882140 
# 
# From -- ./inp_files/516408.got.cif
#   From: 2010.06.25/outbox.cif.g09.slc.cpg/sg2_259_cif.got.tgz:516408.got - 2010.06.27 13:26:56.
