data_PCOD8014393
_publ_section_title
;
Structure prediction by ZEFSAII (Michael W. Deem and Ramdas Pophale) SiO2 
 PCOD8014393
Probable space group: P -1
;
_chemical_formula_sum "Si O2"
_cell_formula_units_Z 14
_cell_length_a 10.424833
_cell_length_b 5.007534
_cell_length_c 15.983530
_cell_angle_alpha 101.890244
_cell_angle_beta 127.748638
_cell_angle_gamma 62.777583
_cell_volume 583.415779
_symmetry_space_group_name_H-M "P -1"
_symmetry_group_IT_number 2
_symmetry_cell_setting 'triclinic'
loop_
_space_group_symop_operation_xyz
x,y,z
-x,-y,-z
loop_
_atom_site_type_symbol
_atom_site_label
_atom_site_fract_x
_atom_site_fract_y
_atom_site_fract_z
Si Si1 0.247357 0.164384 0.287404
Si Si2 0.592479 0.799129 0.295559
Si Si3 0.476879 0.501401 0.090870
Si Si4 0.790018 0.193141 0.426771
Si Si5 0.179516 0.784085 0.374033
Si Si6 0.870710 0.312537 0.104858
Si Si7 0.803167 0.927416 0.187507
O O1 0.426679 0.937652 0.300941
O O2 0.218683 0.032629 0.355484
O O3 0.256553 0.478714 0.330445
O O4 0.079269 0.219961 0.161115
O O5 0.524609 0.742024 0.174984
O O6 0.742274 0.499062 0.377129
O O7 0.686438 0.019059 0.329659
O O8 0.607269 0.168657 0.156077
O O9 0.500000 0.500000 0.000000
O O10 0.262831 0.587497 0.023236
O O11 0.722163 0.266749 0.500741
O O12 0.000000 0.000000 0.500000
O O13 0.964155 0.903241 0.312558
O O14 0.802068 0.601102 0.159236
O O15 0.851421 0.033781 0.124505
#
# Coordination Sequence:
#
# PCOD8014393 Si02
#       7
#     2   2   2   2   2   2   2
#     4  10  22  41  64  97 129 167 214 251 312 380
#     4  12  27  42  64  97 131 163 213 270 304 380
#     4  10  22  40  64  91 126 169 212 260 321 369
#     4  12  27  45  67  96 128 165 210 265 322 371
#     4  10  21  41  67  90 129 173 206 257 315 377
#     4   9  19  35  60  87 120 161 203 254 301 366
#     4   9  18  34  59  90 116 156 213 252 298 367
#
# _framework density 23.996607000000001
#
# number of rings (size 3 to 8) (size 9 to 14) (size 15 to 20)
#    0.000    1.714    0.000    3.429    0.000   14.286 
#    0.000    0.000    0.000   12.000    0.000    0.000 
#    0.000    0.000    0.000    0.000    0.000    0.000 
#
# Total GULP energy -173556.686449 kJ/mol
# GULP energy per Si atom -12396.906175 kJ/mol
# Density = 2.394199 g / cm^3
# Si number density = 23.996607 Si / 1000 Ang^3
#
#
#
# Elastic Constant Matrix: (Units=GPa)
#
#
# Indices 1 2 3 4 5 6 
#
# 1 67.4054 22.0381 25.3351 -1.6310 13.0170 0.3415
# 2 22.0381 93.5952 34.1832 -11.9562 5.6931 0.1081
# 3 25.3351 34.1832 120.2646 12.0300 16.9260 -2.8811
# 4 -1.6310 -11.9562 12.0300 30.6542 2.6323 1.6914
# 5 13.0170 5.6931 16.9260 2.6323 30.3339 -7.3082
# 6 0.3415 0.1081 -2.8811 1.6914 -7.3082 22.1215
#
#
#
# Elastic Compliance Matrix: (Units=1/GPa)
#
#
# Indices 1 2 3 4 5 6 
#
# 1 0.017952 -0.002800 -0.002255 0.001487 -0.006748 -0.002900
# 2 -0.002800 0.013678 -0.004008 0.006815 0.000025 -0.001059
# 3 -0.002255 -0.004008 0.011052 -0.005733 -0.003785 0.000682
# 4 0.001487 0.006815 -0.005733 0.038145 -0.003177 -0.004769
# 5 -0.006748 0.000025 -0.003785 -0.003177 0.041514 0.013569
# 6 -0.002900 -0.001059 0.000682 -0.004769 0.013569 0.050191
#
#
# Mechanical properties :
#
#
# Convention : Reuss Voigt Hill
#
# Bulk Modulus (GPa) = 40.72286 49.37535 45.04910
# Shear Modulus (GPa) = 25.14534 29.93583 27.54059
#
# Velocity S-wave (km/s) = 3.24059 3.53583 3.39143
# Velocity P-wave (km/s) = 5.56858 6.10656 5.84376
#
# Compressibility (1/GPa) = 0.02455623
#
# Stress axis : x y z
#
# Youngs Moduli (GPa) = 55.70337 73.11075 90.48262
#
# Poissons Ratio (x) = 0.20470 0.20400
# Poissons Ratio (y) = 0.15596 0.36270
# Poissons Ratio (z) = 0.12559 0.29306
#
# Static dielectric constant tensor:
#      x y z
#    x 4.080520 -0.035340 0.494550 
#    y -0.035340 4.330150 -0.277090 
#    z 0.494550 -0.277090 4.883450 
# 
# 
# High freq. dielectric constant tensor:
#      x y z
#    x 1.931740 0.007490 0.024540 
#    y 0.007490 1.956440 -0.013350 
#    z 0.024540 -0.013350 1.963070 
# 
# From -- ./inp_files/488729.got.cif
#   From: 2010.06.25/outbox.cif.g09.slc.cpg/sg2_245_cif.got.tgz:488729.got - 2010.06.27 13:26:56.
