data_PCOD8014097
_publ_section_title
;
Structure prediction by ZEFSAII (Michael W. Deem and Ramdas Pophale) SiO2 
 PCOD8014097
Probable space group: P -1
;
_chemical_formula_sum "Si O2"
_cell_formula_units_Z 14
_cell_length_a 13.648260
_cell_length_b 11.419059
_cell_length_c 6.465971
_cell_angle_alpha 79.302992
_cell_angle_beta 135.032466
_cell_angle_gamma 105.302875
_cell_volume 686.912908
_symmetry_space_group_name_H-M "P -1"
_symmetry_group_IT_number 2
_symmetry_cell_setting 'triclinic'
loop_
_space_group_symop_operation_xyz
x,y,z
-x,-y,-z
loop_
_atom_site_type_symbol
_atom_site_label
_atom_site_fract_x
_atom_site_fract_y
_atom_site_fract_z
Si Si1 0.501306 0.464211 0.274038
Si Si2 0.749119 0.722255 0.911473
Si Si3 0.372907 0.101800 0.096561
Si Si4 0.211559 0.617454 0.264434
Si Si5 0.371859 0.835665 0.234116
Si Si6 0.973859 0.575479 0.239213
Si Si7 0.435527 0.271735 0.750847
O O1 0.500000 0.500000 0.500000
O O2 0.356083 0.367327 0.059450
O O3 0.633253 0.402282 0.436680
O O4 0.490160 0.408746 0.885875
O O5 0.750065 0.856175 0.962855
O O6 0.696118 0.717462 0.597227
O O7 0.904001 0.689781 0.163246
O O8 0.522085 0.133015 0.425757
O O9 0.329497 0.957645 0.041032
O O10 0.384463 0.168039 0.872956
O O11 0.229887 0.746042 0.129415
O O12 0.122313 0.626706 0.334843
O O13 0.135394 0.507435 0.046958
O O14 0.437780 0.764817 0.177536
O O15 0.000000 0.500000 0.500000
#
# Coordination Sequence:
#
# PCOD8014097 Si02
#       7
#     2   2   2   2   2   2   2
#     4  10  16  34  59  85 110 143 178 241 292 326
#     4  10  20  38  53  86 118 141 192 239 279 334
#     4  10  21  32  60  85 116 149 188 230 281 336
#     4  11  21  40  58  81 122 149 179 243 287 327
#     4  10  20  38  52  88 119 147 186 234 278 336
#     4  11  25  38  58  85 115 154 189 229 289 346
#     4  10  18  32  57  82 114 147 183 232 287 328
#
# _framework density 20.381042000000001
#
# number of rings (size 3 to 8) (size 9 to 14) (size 15 to 20)
#    0.000    1.714    7.143    0.429    2.000    2.857 
#    0.000    0.714    0.000    1.714    0.000    0.000 
#    0.000    0.000    0.000    0.000    0.000    0.000 
#
# Total GULP energy -173598.325837 kJ/mol
# GULP energy per Si atom -12399.880417 kJ/mol
# Density = 2.033465 g / cm^3
# Si number density = 20.381042 Si / 1000 Ang^3
#
#
#
# Elastic Constant Matrix: (Units=GPa)
#
#
# Indices 1 2 3 4 5 6 
#
# 1 131.8086 55.8453 27.7615 -22.1803 14.0328 0.2419
# 2 55.8453 158.5734 15.7222 -24.2224 4.1198 2.4095
# 3 27.7615 15.7222 33.3745 -23.4296 -2.6620 -1.8824
# 4 -22.1803 -24.2224 -23.4296 30.6907 5.4656 -1.9988
# 5 14.0328 4.1198 -2.6620 5.4656 21.9509 -15.0136
# 6 0.2419 2.4095 -1.8824 -1.9988 -15.0136 35.4103
#
#
#
# Elastic Compliance Matrix: (Units=1/GPa)
#
#
# Indices 1 2 3 4 5 6 
#
# 1 0.012334 -0.002764 -0.009127 0.001671 -0.012797 -0.005713
# 2 -0.002764 0.008095 0.003399 0.007223 -0.001549 -0.000600
# 3 -0.009127 0.003399 0.072970 0.050980 0.008251 0.010086
# 4 0.001671 0.007223 0.050980 0.081365 -0.016690 -0.000277
# 5 -0.012797 -0.001549 0.008251 -0.016690 0.083057 0.034905
# 6 -0.005713 -0.000600 0.010086 -0.000277 0.034905 0.043640
#
#
# Mechanical properties :
#
#
# Convention : Reuss Voigt Hill
#
# Bulk Modulus (GPa) = 13.08647 58.04605 35.56626
# Shear Modulus (GPa) = 14.53835 32.57223 23.55529
#
# Velocity S-wave (km/s) = 2.67372 4.00204 3.40331
# Velocity P-wave (km/s) = 3.99581 7.06381 5.73864
#
# Compressibility (1/GPa) = 0.07641482
#
# Stress axis : x y z
#
# Youngs Moduli (GPa) = 81.07358 123.52594 13.70433
#
# Poissons Ratio (x) = 0.34147 0.12508
# Poissons Ratio (y) = 0.22411 -0.04658
# Poissons Ratio (z) = 0.73998 -0.41989
#
# Static dielectric constant tensor:
#      x y z
#    x 3.809800 -0.043200 -0.204170 
#    y -0.043200 4.215570 -0.089340 
#    z -0.204170 -0.089340 3.423150 
# 
# 
# High freq. dielectric constant tensor:
#      x y z
#    x 1.795550 -0.008630 -0.026150 
#    y -0.008630 1.805500 -0.013140 
#    z -0.026150 -0.013140 1.766600 
# 
# From -- ./inp_files/71558.got.cif
#   From: 2010.06.25/outbox.cif.g09.slc.cpg/sg2_36_cif.got.tgz:71558.got - 2010.06.27 13:26:56.
