data_PCOD8014636
_publ_section_title
;
Structure prediction by ZEFSAII (Michael W. Deem and Ramdas Pophale) SiO2 
 PCOD8014636
Probable space group: P -1
;
_chemical_formula_sum "Si O2"
_cell_formula_units_Z 14
_cell_length_a 13.531800
_cell_length_b 8.947916
_cell_length_c 15.564549
_cell_angle_alpha 135.854452
_cell_angle_beta 139.565418
_cell_angle_gamma 31.450487
_cell_volume 624.645109
_symmetry_space_group_name_H-M "P -1"
_symmetry_group_IT_number 2
_symmetry_cell_setting 'triclinic'
loop_
_space_group_symop_operation_xyz
x,y,z
-x,-y,-z
loop_
_atom_site_type_symbol
_atom_site_label
_atom_site_fract_x
_atom_site_fract_y
_atom_site_fract_z
Si Si1 0.973042 0.233547 0.822106
Si Si2 0.337852 0.479295 0.919414
Si Si3 0.001080 0.114204 0.458090
Si Si4 0.179787 0.353562 0.629786
Si Si5 0.431889 0.264759 0.618155
Si Si6 0.732037 0.368382 0.875963
Si Si7 0.341565 0.158139 0.072347
O O1 0.937246 0.166566 0.867445
O O2 0.206882 0.097171 0.913604
O O3 0.938745 0.096045 0.667819
O O4 0.804837 0.588243 0.846652
O O5 0.157817 0.578999 0.773726
O O6 0.500000 0.500000 0.000000
O O7 0.221000 0.670781 0.007180
O O8 0.458050 0.139548 0.875710
O O9 0.179350 0.127737 0.586377
O O10 0.777988 0.432819 0.431180
O O11 0.000000 0.000000 0.500000
O O12 0.397058 0.201374 0.664217
O O13 0.000000 0.500000 0.500000
O O14 0.606122 0.276456 0.734582
O O15 0.500000 0.000000 0.500000
O O16 0.599908 0.712543 0.906090
#
# Coordination Sequence:
#
# PCOD8014636 Si02
#       7
#     2   2   2   2   2   2   2
#     4   9  21  42  64  96 134 170 222 274 341 383
#     4  12  23  41  69 105 133 171 231 274 340 397
#     4  11  25  41  69  93 130 184 230 274 333 410
#     4  10  25  44  62  95 141 179 214 280 344 401
#     4  11  23  44  66  95 136 179 220 281 347 397
#     4  10  21  41  69  96 131 179 219 282 330 404
#     4   9  22  39  69  93 136 171 220 282 333 398
#
# _framework density 22.412725999999999
#
# number of rings (size 3 to 8) (size 9 to 14) (size 15 to 20)
#    0.857    0.857    1.429    2.143    6.000    1.143 
#    0.000    4.286    0.000    0.000    0.000    0.000 
#    0.000    0.000    0.000    0.000    0.000    0.000 
#
# Total GULP energy -173442.518120 kJ/mol
# GULP energy per Si atom -12388.751294 kJ/mol
# Density = 2.236171 g / cm^3
# Si number density = 22.412726 Si / 1000 Ang^3
#
#
#
# Elastic Constant Matrix: (Units=GPa)
#
#
# Indices 1 2 3 4 5 6 
#
# 1 166.8534 10.8449 83.7397 10.6241 2.6979 23.1696
# 2 10.8449 34.7149 23.6071 8.9903 -7.3353 0.6683
# 3 83.7397 23.6071 196.0139 14.5799 4.7597 9.1609
# 4 10.6241 8.9903 14.5799 25.8821 1.9379 1.6944
# 5 2.6979 -7.3353 4.7597 1.9379 54.3132 3.6019
# 6 23.1696 0.6683 9.1609 1.6944 3.6019 28.3928
#
#
#
# Elastic Compliance Matrix: (Units=1/GPa)
#
#
# Indices 1 2 3 4 5 6 
#
# 1 0.008533 0.000094 -0.003292 -0.001320 0.000313 -0.005864
# 2 0.000094 0.035133 -0.003623 -0.010621 0.005423 0.000211
# 3 -0.003292 -0.003623 0.007033 -0.001328 -0.000941 0.000701
# 4 -0.001320 -0.010621 -0.001328 0.043858 -0.002784 -0.000508
# 5 0.000313 0.005423 -0.000941 -0.002784 0.019468 -0.002383
# 6 -0.005864 0.000211 0.000701 -0.000508 -0.002383 0.040107
#
#
# Mechanical properties :
#
#
# Convention : Reuss Voigt Hill
#
# Bulk Modulus (GPa) = 26.98551 70.44060 48.71305
# Shear Modulus (GPa) = 27.75847 40.34366 34.05107
#
# Velocity S-wave (km/s) = 3.52307 4.24728 3.90201
# Velocity P-wave (km/s) = 5.34937 7.45316 6.48712
#
# Compressibility (1/GPa) = 0.03705692
#
# Stress axis : x y z
#
# Youngs Moduli (GPa) = 117.19791 28.46348 142.18279
#
# Poissons Ratio (x) = -0.00268 0.46805
# Poissons Ratio (y) = -0.01102 0.51512
# Poissons Ratio (z) = 0.38580 0.10312
#
# Static dielectric constant tensor:
#      x y z
#    x 8.393240 2.043450 1.600410 
#    y 2.043450 4.577720 0.905570 
#    z 1.600410 0.905570 4.607530 
# 
# 
# High freq. dielectric constant tensor:
#      x y z
#    x 1.901720 0.009400 0.009020 
#    y 0.009400 1.853020 0.022070 
#    z 0.009020 0.022070 1.893520 
# 
# From -- ./inp_files/530251.got.cif
#   From: 2010.06.25/outbox.cif.g09.slc.cpg/sg2_266_cif.got.tgz:530251.got - 2010.06.27 13:26:56.
