data_PCOD8014438
_publ_section_title
;
Structure prediction by ZEFSAII (Michael W. Deem and Ramdas Pophale) SiO2 
 PCOD8014438
Probable space group: P -1
;
_chemical_formula_sum "Si O2"
_cell_formula_units_Z 14
_cell_length_a 18.259819
_cell_length_b 5.383375
_cell_length_c 8.604124
_cell_angle_alpha 74.884343
_cell_angle_beta 68.609216
_cell_angle_gamma 120.176917
_cell_volume 567.794038
_symmetry_space_group_name_H-M "P -1"
_symmetry_group_IT_number 2
_symmetry_cell_setting 'triclinic'
loop_
_space_group_symop_operation_xyz
x,y,z
-x,-y,-z
loop_
_atom_site_type_symbol
_atom_site_label
_atom_site_fract_x
_atom_site_fract_y
_atom_site_fract_z
Si Si1 0.088473 0.559072 0.823423
Si Si2 0.512784 0.451929 0.678211
Si Si3 0.267196 0.156800 0.403522
Si Si4 0.570796 0.216487 0.260187
Si Si5 0.204986 0.477756 0.993670
Si Si6 0.002412 0.775780 0.368955
Si Si7 0.786833 0.404447 0.710177
O O1 0.153122 0.499905 0.885278
O O2 0.032398 0.289114 0.772554
O O3 0.168394 0.944602 0.631583
O O4 0.000000 0.500000 0.000000
O O5 0.500000 0.500000 0.500000
O O6 0.633054 0.709036 0.594501
O O7 0.453168 0.541367 0.812700
O O8 0.461051 0.056713 0.806154
O O9 0.279605 0.474964 0.280605
O O10 0.249610 0.904736 0.323946
O O11 0.694969 0.459868 0.160351
O O12 0.500000 0.000000 0.500000
O O13 0.236361 0.738868 0.069769
O O14 0.123818 0.122937 0.211886
O O15 0.000000 0.500000 0.500000
O O16 0.912969 0.748089 0.532894
#
# Coordination Sequence:
#
# PCOD8014438 Si02
#       7
#     2   2   2   2   2   2   2
#     4  11  23  38  66 106 137 180 234 286 342 416
#     4  10  21  41  67  95 129 175 226 280 336 399
#     4  11  24  46  70  98 141 184 228 287 351 407
#     4  10  23  41  66 101 135 177 228 286 343 396
#     4  12  24  43  70 101 139 185 235 287 341 411
#     4  11  24  44  69 103 146 185 226 283 349 420
#     4  11  25  45  68 100 138 186 228 281 350 419
#
# _framework density 24.656828999999998
#
# number of rings (size 3 to 8) (size 9 to 14) (size 15 to 20)
#    0.000    1.143    0.000    6.857    0.000   10.286 
#    0.000    4.286    0.000    0.000    0.000    0.000 
#    0.000    0.000    0.000    0.000    0.000    0.000 
#
# Total GULP energy -173497.551587 kJ/mol
# GULP energy per Si atom -12392.682256 kJ/mol
# Density = 2.460071 g / cm^3
# Si number density = 24.656829 Si / 1000 Ang^3
#
#
#
# Elastic Constant Matrix: (Units=GPa)
#
#
# Indices 1 2 3 4 5 6 
#
# 1 154.7646 67.5572 45.8141 15.9295 -26.4292 -2.9159
# 2 67.5572 113.5247 37.2606 -0.8956 -8.7546 -20.9891
# 3 45.8141 37.2606 94.8008 22.3189 -9.6421 6.4066
# 4 15.9295 -0.8956 22.3189 28.3899 2.4454 -0.2106
# 5 -26.4292 -8.7546 -9.6421 2.4454 48.5284 -1.8627
# 6 -2.9159 -20.9891 6.4066 -0.2106 -1.8627 51.3274
#
#
#
# Elastic Compliance Matrix: (Units=1/GPa)
#
#
# Indices 1 2 3 4 5 6 
#
# 1 0.010800 -0.006157 -0.000759 -0.006088 0.004863 -0.001658
# 2 -0.006157 0.015554 -0.005844 0.008753 -0.001892 0.006707
# 3 -0.000759 -0.005844 0.016883 -0.013270 0.002383 -0.004508
# 4 -0.006088 0.008753 -0.013270 0.049962 -0.006705 0.004851
# 5 0.004863 -0.001892 0.002383 -0.006705 0.023726 0.000039
# 6 -0.001658 0.006707 -0.004508 0.004851 0.000039 0.022715
#
#
# Mechanical properties :
#
#
# Convention : Reuss Voigt Hill
#
# Bulk Modulus (GPa) = 56.44481 73.81710 65.13096
# Shear Modulus (GPa) = 29.22820 39.81302 34.52061
#
# Velocity S-wave (km/s) = 3.44670 4.02267 3.74577
# Velocity P-wave (km/s) = 6.22748 7.18183 6.72161
#
# Compressibility (1/GPa) = 0.01771642
#
# Stress axis : x y z
#
# Youngs Moduli (GPa) = 92.59443 64.29158 59.22970
#
# Poissons Ratio (x) = 0.39586 0.04496
# Poissons Ratio (y) = 0.57013 0.34615
# Poissons Ratio (z) = 0.07028 0.37573
#
# Static dielectric constant tensor:
#      x y z
#    x 4.644660 -0.099020 -0.231660 
#    y -0.099020 4.771090 -0.149080 
#    z -0.231660 -0.149080 4.404070 
# 
# 
# High freq. dielectric constant tensor:
#      x y z
#    x 1.991520 0.005790 -0.014560 
#    y 0.005790 1.986960 0.007450 
#    z -0.014560 0.007450 1.979990 
# 
# From -- ./inp_files/323438.got.cif
#   From: 2010.06.25/outbox.cif.g09.slc.cpg/sg2_162_cif.got.tgz:323438.got - 2010.06.27 13:26:56.
