data_PCOD8014423
_publ_section_title
;
Structure prediction by ZEFSAII (Michael W. Deem and Ramdas Pophale) SiO2 
 PCOD8014423
Probable space group: P -1
;
_chemical_formula_sum "Si O2"
_cell_formula_units_Z 14
_cell_length_a 15.041457
_cell_length_b 6.678331
_cell_length_c 10.995210
_cell_angle_alpha 102.998514
_cell_angle_beta 58.758988
_cell_angle_gamma 136.134911
_cell_volume 633.354698
_symmetry_space_group_name_H-M "P -1"
_symmetry_group_IT_number 2
_symmetry_cell_setting 'triclinic'
loop_
_space_group_symop_operation_xyz
x,y,z
-x,-y,-z
loop_
_atom_site_type_symbol
_atom_site_label
_atom_site_fract_x
_atom_site_fract_y
_atom_site_fract_z
Si Si1 0.066067 0.712856 0.865091
Si Si2 0.790498 0.435177 0.856559
Si Si3 0.590472 0.831428 0.020390
Si Si4 0.325281 0.631809 0.313611
Si Si5 0.333073 0.987943 0.557890
Si Si6 0.421251 0.460950 0.400117
Si Si7 0.296340 0.297533 0.896193
O O1 0.946029 0.597794 0.831006
O O2 0.192838 0.750821 0.716236
O O3 0.146086 0.045847 0.887863
O O4 0.000000 0.500000 0.000000
O O5 0.808050 0.528980 0.714897
O O6 0.709721 0.500918 0.997870
O O7 0.682460 0.078730 0.883191
O O8 0.482295 0.848099 0.158206
O O9 0.709760 0.916953 0.045105
O O10 0.500000 0.500000 0.000000
O O11 0.311588 0.395815 0.364328
O O12 0.327738 0.815301 0.433062
O O13 0.318697 0.192351 0.532142
O O14 0.490938 0.220395 0.553733
O O15 0.546848 0.482554 0.260321
#
# Coordination Sequence:
#
# PCOD8014423 Si02
#       7
#     2   2   2   2   2   2   2
#     4  11  24  47  65  91 131 181 220 263 311 391
#     4  12  24  39  67  97 131 174 214 264 329 382
#     4  11  22  38  63  99 134 161 210 268 327 380
#     4  11  23  36  66  98 125 165 209 269 330 378
#     4  10  22  43  64  91 129 172 215 263 323 378
#     4   9  21  41  65  95 130 163 213 272 319 378
#     4  10  21  41  67  94 128 170 218 266 313 382
#
# _framework density 22.104519
#
# number of rings (size 3 to 8) (size 9 to 14) (size 15 to 20)
#    0.000    1.429    2.857    2.143    4.000    0.571 
#   10.286    0.714    0.000    0.000    0.000    0.000 
#    0.000    0.000    0.000    0.000    0.000    0.000 
#
# Total GULP energy -173469.648843 kJ/mol
# GULP energy per Si atom -12390.689203 kJ/mol
# Density = 2.205421 g / cm^3
# Si number density = 22.104519 Si / 1000 Ang^3
#
#
#
# Elastic Constant Matrix: (Units=GPa)
#
#
# Indices 1 2 3 4 5 6 
#
# 1 125.8547 31.3882 30.1081 -9.9524 25.5454 14.8708
# 2 31.3882 97.8614 55.8939 12.5206 -2.1803 5.5083
# 3 30.1081 55.8939 110.7719 11.4273 8.5498 5.6024
# 4 -9.9524 12.5206 11.4273 42.6317 -7.6513 5.4738
# 5 25.5454 -2.1803 8.5498 -7.6513 33.9604 2.7791
# 6 14.8708 5.5083 5.6024 5.4738 2.7791 18.6752
#
#
#
# Elastic Compliance Matrix: (Units=1/GPa)
#
#
# Indices 1 2 3 4 5 6 
#
# 1 0.011754 -0.003467 -0.000852 0.003707 -0.007354 -0.008074
# 2 -0.003467 0.015861 -0.007165 -0.002728 0.004789 0.000319
# 3 -0.000852 -0.007165 0.013405 -0.002359 -0.003727 0.000016
# 4 0.003707 -0.002728 -0.002359 0.027939 0.004771 -0.010339
# 5 -0.007354 0.004789 -0.003727 0.004771 0.037413 -0.001405
# 6 -0.008074 0.000319 0.000016 -0.010339 -0.001405 0.063116
#
#
# Mechanical properties :
#
#
# Convention : Reuss Voigt Hill
#
# Bulk Modulus (GPa) = 55.39804 63.25205 59.32504
# Shear Modulus (GPa) = 25.19234 33.52665 29.35950
#
# Velocity S-wave (km/s) = 3.37959 3.89875 3.64842
# Velocity P-wave (km/s) = 6.35178 6.99601 6.68166
#
# Compressibility (1/GPa) = 0.01805118
#
# Stress axis : x y z
#
# Youngs Moduli (GPa) = 85.07814 63.04859 74.60128
#
# Poissons Ratio (x) = 0.21860 0.06355
# Poissons Ratio (y) = 0.29498 0.53452
# Poissons Ratio (z) = 0.07247 0.45175
#
# Static dielectric constant tensor:
#      x y z
#    x 4.414820 0.076300 0.403930 
#    y 0.076300 3.751040 0.128150 
#    z 0.403930 0.128150 3.969320 
# 
# 
# High freq. dielectric constant tensor:
#      x y z
#    x 1.874700 -0.001610 0.025870 
#    y -0.001610 1.854650 0.016650 
#    z 0.025870 0.016650 1.860310 
# 
# From -- ./inp_files/428330.got.cif
#   From: 2010.06.25/outbox.cif.g09.slc.cpg/sg2_215_cif.got.tgz:428330.got - 2010.06.27 13:26:56.
