data_PCOD8014617
_publ_section_title
;
Structure prediction by ZEFSAII (Michael W. Deem and Ramdas Pophale) SiO2 
 PCOD8014617
Probable space group: P -1
;
_chemical_formula_sum "Si O2"
_cell_formula_units_Z 16
_cell_length_a 15.801312
_cell_length_b 15.439239
_cell_length_c 8.525779
_cell_angle_alpha 131.248678
_cell_angle_beta 47.497041
_cell_angle_gamma 151.044318
_cell_volume 728.721906
_symmetry_space_group_name_H-M "P -1"
_symmetry_group_IT_number 2
_symmetry_cell_setting 'triclinic'
loop_
_space_group_symop_operation_xyz
x,y,z
-x,-y,-z
loop_
_atom_site_type_symbol
_atom_site_label
_atom_site_fract_x
_atom_site_fract_y
_atom_site_fract_z
Si Si1 0.541323 0.666491 0.052844
Si Si2 0.214386 0.780266 0.522739
Si Si3 0.729392 0.994301 0.033958
Si Si4 0.572452 0.141866 0.948477
Si Si5 0.714075 0.460903 0.328656
Si Si6 0.913240 0.815941 0.317447
Si Si7 0.611731 0.674135 0.296246
Si Si8 0.192419 0.528405 0.426621
O O1 0.664860 0.778916 0.191186
O O2 0.338040 0.559479 0.197151
O O3 0.650610 0.807920 0.944117
O O4 0.530367 0.528360 0.839303
O O5 0.305853 0.957898 0.709104
O O6 0.321425 0.841847 0.301915
O O7 0.230793 0.688537 0.516046
O O8 0.009120 0.659083 0.600205
O O9 0.617638 0.955136 0.982977
O O10 0.937941 0.148291 0.908011
O O11 0.711529 0.350056 0.081475
O O12 0.500000 0.000000 0.000000
O O13 0.819676 0.656819 0.368924
O O14 0.502059 0.329486 0.454984
O O15 0.799608 0.481532 0.407896
O O16 0.776270 0.747772 0.271684
O O17 0.000000 0.000000 0.500000
#
# Coordination Sequence:
#
# PCOD8014617 Si02
#       8
#     2   2   2   2   2   2   2   2
#     4  10  21  41  69  94 123 172 221 271 321 395
#     4  11  25  42  68  96 133 170 223 271 321 396
#     4  12  25  41  67  96 135 171 220 271 329 385
#     4  12  27  43  69  99 135 174 218 270 333 392
#     4  11  25  44  69  93 136 176 217 271 333 392
#     4  12  26  42  66 100 137 170 219 274 331 390
#     4  10  22  42  68  92 126 170 223 266 334 383
#     4  10  23  43  67  95 130 174 222 261 330 389
#
# _framework density 21.956251000000002
#
# number of rings (size 3 to 8) (size 9 to 14) (size 15 to 20)
#    0.000    1.000    1.250    4.500    8.750    2.000 
#    0.000    0.000    0.000    0.000    0.000    0.000 
#    0.000    0.000    0.000    0.000    0.000    0.000 
#
# Total GULP energy -198341.702642 kJ/mol
# GULP energy per Si atom -12396.356415 kJ/mol
# Density = 2.190628 g / cm^3
# Si number density = 21.956251 Si / 1000 Ang^3
#
#
#
# Elastic Constant Matrix: (Units=GPa)
#
#
# Indices 1 2 3 4 5 6 
#
# 1 155.4095 47.7606 17.5393 -14.2056 16.7682 -8.4082
# 2 47.7606 80.7349 16.0830 0.6128 12.8415 -14.2958
# 3 17.5393 16.0830 75.3653 9.5782 16.4293 -10.5969
# 4 -14.2056 0.6128 9.5782 37.7571 0.1214 -0.9319
# 5 16.7682 12.8415 16.4293 0.1214 25.5565 0.1384
# 6 -8.4082 -14.2958 -10.5969 -0.9319 0.1384 27.4471
#
#
#
# Elastic Compliance Matrix: (Units=1/GPa)
#
#
# Indices 1 2 3 4 5 6 
#
# 1 0.008524 -0.004429 -0.000850 0.003507 -0.002838 0.000110
# 2 -0.004429 0.017299 -0.000128 -0.001709 -0.005737 0.007575
# 3 -0.000850 -0.000128 0.017221 -0.004499 -0.010461 0.006222
# 4 0.003507 -0.001709 -0.004499 0.028955 0.001316 -0.000577
# 5 -0.002838 -0.005737 -0.010461 0.001316 0.050636 -0.008107
# 6 0.000110 0.007575 0.006222 -0.000577 -0.008107 0.042836
#
#
# Mechanical properties :
#
#
# Convention : Reuss Voigt Hill
#
# Bulk Modulus (GPa) = 31.02768 52.69728 41.86248
# Shear Modulus (GPa) = 26.73385 33.49393 30.11389
#
# Velocity S-wave (km/s) = 3.49319 3.90998 3.70745
# Velocity P-wave (km/s) = 5.51653 6.66612 6.11838
#
# Compressibility (1/GPa) = 0.03222929
#
# Stress axis : x y z
#
# Youngs Moduli (GPa) = 117.30956 57.80824 58.06893
#
# Poissons Ratio (x) = 0.25605 0.04937
# Poissons Ratio (y) = 0.51959 0.00743
# Poissons Ratio (z) = 0.09973 0.00739
#
# Static dielectric constant tensor:
#      x y z
#    x 4.276910 -0.043750 -0.016200 
#    y -0.043750 3.868300 -0.022460 
#    z -0.016200 -0.022460 4.036490 
# 
# 
# High freq. dielectric constant tensor:
#      x y z
#    x 1.886730 -0.005340 0.000170 
#    y -0.005340 1.855890 0.000290 
#    z 0.000170 0.000290 1.872300 
# 
# From -- ./inp_files/315819.got.cif
#   From: 2010.06.25/outbox.cif.g09.slc.cpg/sg2_158_cif.got.tgz:315819.got - 2010.06.27 13:26:56.
