data_PCOD8014660
_publ_section_title
;
Structure prediction by ZEFSAII (Michael W. Deem and Ramdas Pophale) SiO2 
 PCOD8014660
Probable space group: P -1
;
_chemical_formula_sum "Si O2"
_cell_formula_units_Z 14
_cell_length_a 14.958983
_cell_length_b 8.063179
_cell_length_c 15.987034
_cell_angle_alpha 40.376978
_cell_angle_beta 31.060794
_cell_angle_gamma 40.991130
_cell_volume 613.620361
_symmetry_space_group_name_H-M "P -1"
_symmetry_group_IT_number 2
_symmetry_cell_setting 'triclinic'
loop_
_space_group_symop_operation_xyz
x,y,z
-x,-y,-z
loop_
_atom_site_type_symbol
_atom_site_label
_atom_site_fract_x
_atom_site_fract_y
_atom_site_fract_z
Si Si1 0.997210 0.207074 0.137440
Si Si2 0.979806 0.662091 0.649606
Si Si3 0.373892 0.886891 0.483970
Si Si4 0.166826 0.908570 0.279257
Si Si5 0.647099 0.429273 0.531440
Si Si6 0.463406 0.413645 0.255764
Si Si7 0.869925 0.163396 0.969713
O O1 0.793587 0.182099 0.308767
O O2 0.088852 0.107380 0.190350
O O3 0.132912 0.037247 0.024544
O O4 0.000000 0.500000 0.000000
O O5 0.033853 0.738996 0.484314
O O6 0.140538 0.621657 0.604687
O O7 0.938012 0.385804 0.783330
O O8 0.813398 0.906993 0.727329
O O9 0.565974 0.695151 0.438100
O O10 0.372413 0.828203 0.407339
O O11 0.363099 0.191781 0.398716
O O12 0.358160 0.689078 0.184736
O O13 0.544270 0.493430 0.677474
O O14 0.671913 0.305573 0.108280
O O15 0.000000 0.000000 0.000000
#
# Coordination Sequence:
#
# PCOD8014660 Si02
#       7
#     2   2   2   2   2   2   2
#     4  12  26  45  70 102 139 175 237 297 348 419
#     4  10  21  45  71  99 138 182 238 276 350 419
#     4  11  23  41  72 103 136 186 232 288 345 421
#     4  10  23  45  69  98 137 187 230 286 350 421
#     4  10  21  41  70 101 134 185 233 286 339 414
#     4  11  25  44  68 105 144 183 233 283 355 411
#     4  12  26  43  71 104 143 186 227 295 346 410
#
# _framework density 22.815408999999999
#
# number of rings (size 3 to 8) (size 9 to 14) (size 15 to 20)
#    0.000    1.143    1.429    4.714    4.000    3.429 
#    0.000    2.857    0.000    0.000    0.000    0.000 
#    0.000    0.000    0.000    0.000    0.000    0.000 
#
# Total GULP energy -173496.736366 kJ/mol
# GULP energy per Si atom -12392.624026 kJ/mol
# Density = 2.276348 g / cm^3
# Si number density = 22.815409 Si / 1000 Ang^3
#
#
#
# Elastic Constant Matrix: (Units=GPa)
#
#
# Indices 1 2 3 4 5 6 
#
# 1 96.3518 51.2990 52.1210 2.0255 14.4555 7.5245
# 2 51.2990 168.6024 69.5930 2.6267 10.1582 -0.5647
# 3 52.1210 69.5930 103.4153 -5.5021 15.5240 -2.2704
# 4 2.0255 2.6267 -5.5021 50.6724 3.2394 7.3738
# 5 14.4555 10.1582 15.5240 3.2394 27.2036 10.5628
# 6 7.5245 -0.5647 -2.2704 7.3738 10.5628 36.9307
#
#
#
# Elastic Compliance Matrix: (Units=1/GPa)
#
#
# Indices 1 2 3 4 5 6 
#
# 1 0.015367 -0.002002 -0.006053 -0.000607 -0.002887 -0.002587
# 2 -0.002002 0.008529 -0.004880 -0.000970 0.000688 0.000235
# 3 -0.006053 -0.004880 0.017168 0.002245 -0.006424 0.003603
# 4 -0.000607 -0.000970 0.002245 0.020656 -0.001745 -0.003379
# 5 -0.002887 0.000688 -0.006424 -0.001745 0.046906 -0.012864
# 6 -0.002587 0.000235 0.003603 -0.003379 -0.012864 0.032184
#
#
# Mechanical properties :
#
#
# Convention : Reuss Voigt Hill
#
# Bulk Modulus (GPa) = 65.82266 79.37728 72.59997
# Shear Modulus (GPa) = 29.11288 35.98511 32.54900
#
# Velocity S-wave (km/s) = 3.57602 3.97574 3.78116
# Velocity P-wave (km/s) = 6.77962 7.47944 7.13811
#
# Compressibility (1/GPa) = 0.01519234
#
# Stress axis : x y z
#
# Youngs Moduli (GPa) = 65.07433 117.24449 58.24892
#
# Poissons Ratio (x) = 0.23476 0.35259
# Poissons Ratio (y) = 0.13030 0.28427
# Poissons Ratio (z) = 0.39391 0.57219
#
# Static dielectric constant tensor:
#      x y z
#    x 4.157200 0.024280 0.046530 
#    y 0.024280 4.630940 0.022680 
#    z 0.046530 0.022680 3.640660 
# 
# 
# High freq. dielectric constant tensor:
#      x y z
#    x 1.891290 0.003500 0.014280 
#    y 0.003500 1.937070 0.009330 
#    z 0.014280 0.009330 1.877610 
# 
# From -- ./inp_files/529254.got.cif
#   From: 2010.06.25/outbox.cif.g09.slc.cpg/sg2_265_cif.got.tgz:529254.got - 2010.06.27 13:26:56.
