data_PCOD8014932
_publ_section_title
;
Structure prediction by ZEFSAII (Michael W. Deem and Ramdas Pophale) SiO2 
 PCOD8014932
Probable space group: P -1
;
_chemical_formula_sum "Si O2"
_cell_formula_units_Z 16
_cell_length_a 6.974325
_cell_length_b 11.012658
_cell_length_c 10.905050
_cell_angle_alpha 92.948412
_cell_angle_beta 108.824924
_cell_angle_gamma 68.739330
_cell_volume 736.769520
_symmetry_space_group_name_H-M "P -1"
_symmetry_group_IT_number 2
_symmetry_cell_setting 'triclinic'
loop_
_space_group_symop_operation_xyz
x,y,z
-x,-y,-z
loop_
_atom_site_type_symbol
_atom_site_label
_atom_site_fract_x
_atom_site_fract_y
_atom_site_fract_z
Si Si1 0.229411 0.397803 0.681354
Si Si2 0.275224 0.721149 0.179219
Si Si3 0.953439 0.128082 0.073627
Si Si4 0.015538 0.961611 0.296397
Si Si5 0.075758 0.511868 0.152419
Si Si6 0.231784 0.237212 0.268204
Si Si7 0.286554 0.891699 0.564043
Si Si8 0.928672 0.320017 0.436812
O O1 0.480130 0.298239 0.733721
O O2 0.222776 0.529382 0.617010
O O3 0.135656 0.428069 0.801483
O O4 0.094810 0.324083 0.578292
O O5 0.235588 0.590215 0.190487
O O6 0.083870 0.832984 0.219922
O O7 0.241900 0.756596 0.028070
O O8 0.164711 0.169015 0.133234
O O9 0.906093 0.092906 0.199926
O O10 0.000000 0.000000 0.000000
O O11 0.234584 0.948693 0.417546
O O12 0.832817 0.983763 0.364801
O O13 0.234539 0.374485 0.231188
O O14 0.000000 0.500000 0.000000
O O15 0.461965 0.149045 0.362854
O O16 0.056563 0.254512 0.338678
O O17 0.210493 0.766522 0.553810
#
# Coordination Sequence:
#
# PCOD8014932 Si02
#       8
#     2   2   2   2   2   2   2   2
#     4  10  23  39  67  94 123 171 195 255 328 357
#     4  11  22  44  63  89 131 165 205 254 309 367
#     4  10  22  43  60  86 130 164 210 255 291 374
#     4  10  23  42  61  92 125 161 209 260 297 371
#     4  11  23  40  63  97 127 156 211 255 297 386
#     4  11  22  41  67  92 123 167 203 258 320 355
#     4  11  22  40  67  92 124 162 205 264 313 358
#     4  10  21  42  63  96 129 150 215 260 301 386
#
# _framework density 21.716425999999998
#
# number of rings (size 3 to 8) (size 9 to 14) (size 15 to 20)
#    0.000    1.500    2.500    2.250    0.000    2.000 
#   13.500    6.250    0.000    0.000    0.000    0.000 
#    0.000    0.000    0.000    0.000    0.000    0.000 
#
# Total GULP energy -198241.850169 kJ/mol
# GULP energy per Si atom -12390.115636 kJ/mol
# Density = 2.166700 g / cm^3
# Si number density = 21.716426 Si / 1000 Ang^3
#
#
#
# Elastic Constant Matrix: (Units=GPa)
#
#
# Indices 1 2 3 4 5 6 
#
# 1 34.8645 15.6883 16.2408 2.6089 8.6519 13.8667
# 2 15.6883 71.4138 24.1678 11.6576 2.5370 7.0620
# 3 16.2408 24.1678 122.4121 -3.7564 -1.4408 10.8729
# 4 2.6089 11.6576 -3.7564 36.5308 -0.7234 3.7599
# 5 8.6519 2.5370 -1.4408 -0.7234 34.8617 -0.6055
# 6 13.8667 7.0620 10.8729 3.7599 -0.6055 19.9686
#
#
#
# Elastic Compliance Matrix: (Units=1/GPa)
#
#
# Indices 1 2 3 4 5 6 
#
# 1 0.047507 -0.006415 -0.002476 0.001248 -0.011920 -0.029969
# 2 -0.006415 0.017136 -0.002778 -0.005388 0.000135 0.000926
# 3 -0.002476 -0.002778 0.009382 0.002341 0.001204 -0.002811
# 4 0.001248 -0.005388 0.002341 0.029860 0.000697 -0.005837
# 5 -0.011920 0.000135 0.001204 0.000697 0.031844 0.008409
# 6 -0.029969 0.000926 -0.002811 -0.005837 0.008409 0.073447
#
#
# Mechanical properties :
#
#
# Convention : Reuss Voigt Hill
#
# Bulk Modulus (GPa) = 19.72952 37.87602 28.80277
# Shear Modulus (GPa) = 20.04742 29.77846 24.91294
#
# Velocity S-wave (km/s) = 3.04163 3.70704 3.39070
# Velocity P-wave (km/s) = 4.63035 5.98347 5.34986
#
# Compressibility (1/GPa) = 0.05068546
#
# Stress axis : x y z
#
# Youngs Moduli (GPa) = 21.04951 58.35824 106.58944
#
# Poissons Ratio (x) = 0.37437 0.26396
# Poissons Ratio (y) = 0.13503 0.29610
# Poissons Ratio (z) = 0.05213 0.16212
#
# Static dielectric constant tensor:
#      x y z
#    x 3.449590 -0.153240 -0.106720 
#    y -0.153240 3.105740 0.132850 
#    z -0.106720 0.132850 4.516040 
# 
# 
# High freq. dielectric constant tensor:
#      x y z
#    x 1.816590 0.012260 -0.004600 
#    y 0.012260 1.866290 -0.003390 
#    z -0.004600 -0.003390 1.879530 
# 
# From -- ./inp_files/308891.got.cif
#   From: 2010.06.25/outbox.cif.g09.slc.cpg/sg2_155_cif.got.tgz:308891.got - 2010.06.27 13:26:56.
