data_PCOD8014258
_publ_section_title
;
Structure prediction by ZEFSAII (Michael W. Deem and Ramdas Pophale) SiO2 
 PCOD8014258
Probable space group: P -1
;
_chemical_formula_sum "Si O2"
_cell_formula_units_Z 16
_cell_length_a 13.310215
_cell_length_b 17.325473
_cell_length_c 8.247422
_cell_angle_alpha 121.172291
_cell_angle_beta 92.918923
_cell_angle_gamma 39.117234
_cell_volume 780.546051
_symmetry_space_group_name_H-M "P -1"
_symmetry_group_IT_number 2
_symmetry_cell_setting 'triclinic'
loop_
_space_group_symop_operation_xyz
x,y,z
-x,-y,-z
loop_
_atom_site_type_symbol
_atom_site_label
_atom_site_fract_x
_atom_site_fract_y
_atom_site_fract_z
Si Si1 0.177818 0.405965 0.021784
Si Si2 0.012748 0.730337 0.408600
Si Si3 0.585717 0.033994 0.517781
Si Si4 0.971640 0.037539 0.791882
Si Si5 0.622817 0.025083 0.140667
Si Si6 0.876468 0.960299 0.912730
Si Si7 0.212997 0.290293 0.234065
Si Si8 0.744758 0.301942 0.760866
O O1 0.103539 0.559488 0.250399
O O2 0.246528 0.286416 0.044100
O O3 0.389844 0.254381 0.773069
O O4 0.000000 0.500000 0.000000
O O5 0.164062 0.670572 0.240647
O O6 0.776738 0.908244 0.514541
O O7 0.008618 0.776516 0.638180
O O8 0.662242 0.997035 0.304298
O O9 0.500000 0.000000 0.500000
O O10 0.821707 0.075530 0.891535
O O11 0.858424 0.177235 0.792545
O O12 0.192116 0.817841 0.509981
O O13 0.992042 0.094028 0.996929
O O14 0.382612 0.197687 0.268741
O O15 0.674821 0.077756 0.112644
O O16 0.774600 0.827062 0.868919
O O17 0.000000 0.500000 0.500000
O O18 0.500000 0.500000 0.000000
#
# Coordination Sequence:
#
# PCOD8014258 Si02
#       8
#     2   2   2   2   2   2   2   2
#     4  12  23  39  62  90 126 170 216 258 312 371
#     4  11  24  40  64  96 126 169 214 261 315 380
#     4  12  23  41  64  88 127 171 213 263 310 373
#     4   9  21  43  67  93 127 162 204 264 324 371
#     4  11  23  38  59  87 121 161 208 252 313 369
#     4  10  21  41  66  90 126 166 207 261 317 379
#     4  11  23  37  57  85 121 162 202 258 305 366
#     4  10  22  42  69  97 128 160 212 263 315 382
#
# _framework density 20.498472
#
# number of rings (size 3 to 8) (size 9 to 14) (size 15 to 20)
#    0.000    1.250    2.500    3.000    1.750    5.000 
#    0.000   10.625    0.000    0.000    0.000    0.000 
#    0.000    0.000    0.000    0.000    0.000    0.000 
#
# Total GULP energy -198316.066776 kJ/mol
# GULP energy per Si atom -12394.754174 kJ/mol
# Density = 2.045182 g / cm^3
# Si number density = 20.498472 Si / 1000 Ang^3
#
#
#
# Elastic Constant Matrix: (Units=GPa)
#
#
# Indices 1 2 3 4 5 6 
#
# 1 109.8916 25.7697 47.2618 -5.4087 -1.8869 1.8431
# 2 25.7697 72.2369 36.9269 -0.7812 6.3530 -0.2043
# 3 47.2618 36.9269 125.0879 6.8834 2.0256 -13.6501
# 4 -5.4087 -0.7812 6.8834 41.3900 -1.8948 -6.6439
# 5 -1.8869 6.3530 2.0256 -1.8948 37.2259 -6.5576
# 6 1.8431 -0.2043 -13.6501 -6.6439 -6.5576 29.6058
#
#
#
# Elastic Compliance Matrix: (Units=1/GPa)
#
#
# Indices 1 2 3 4 5 6 
#
# 1 0.011472 -0.002086 -0.004051 0.001857 0.000904 -0.001979
# 2 -0.002086 0.017174 -0.004515 0.000256 -0.003216 -0.002488
# 3 -0.004051 -0.004515 0.011518 -0.001636 0.000796 0.005341
# 4 0.001857 0.000256 -0.001636 0.025660 0.002401 0.005422
# 5 0.000904 -0.003216 0.000796 0.002401 0.028806 0.007208
# 6 -0.001979 -0.002488 0.005341 0.005422 0.007208 0.039159
#
#
# Mechanical properties :
#
#
# Convention : Reuss Voigt Hill
#
# Bulk Modulus (GPa) = 53.02737 58.57035 55.79886
# Shear Modulus (GPa) = 30.98258 34.79490 32.88874
#
# Velocity S-wave (km/s) = 3.89197 4.12447 4.00990
# Velocity P-wave (km/s) = 6.79129 7.16357 6.97991
#
# Compressibility (1/GPa) = 0.01885819
#
# Stress axis : x y z
#
# Youngs Moduli (GPa) = 87.17187 58.22622 86.82123
#
# Poissons Ratio (x) = 0.12148 0.35173
# Poissons Ratio (y) = 0.18188 0.39202
# Poissons Ratio (z) = 0.35315 0.26290
#
# Static dielectric constant tensor:
#      x y z
#    x 3.964640 0.215200 -0.017730 
#    y 0.215200 3.326210 -0.010720 
#    z -0.017730 -0.010720 4.030450 
# 
# 
# High freq. dielectric constant tensor:
#      x y z
#    x 1.807970 0.012950 0.002450 
#    y 0.012950 1.795970 -0.017250 
#    z 0.002450 -0.017250 1.811050 
# 
# From -- ./inp_files/99923.got.cif
#   From: 2010.06.25/outbox.cif.g09.slc.cpg/sg2_50_cif.got.tgz:99923.got - 2010.06.27 13:26:56.
