data_PCOD8014348
_publ_section_title
;
Structure prediction by ZEFSAII (Michael W. Deem and Ramdas Pophale) SiO2 
 PCOD8014348
Probable space group: P -1
;
_chemical_formula_sum "Si O2"
_cell_formula_units_Z 16
_cell_length_a 19.299438
_cell_length_b 12.857159
_cell_length_c 15.830810
_cell_angle_alpha 130.139789
_cell_angle_beta 150.690236
_cell_angle_gamma 28.287052
_cell_volume 772.142025
_symmetry_space_group_name_H-M "P -1"
_symmetry_group_IT_number 2
_symmetry_cell_setting 'triclinic'
loop_
_space_group_symop_operation_xyz
x,y,z
-x,-y,-z
loop_
_atom_site_type_symbol
_atom_site_label
_atom_site_fract_x
_atom_site_fract_y
_atom_site_fract_z
Si Si1 0.558776 0.806289 0.997619
Si Si2 0.187583 0.942818 0.112476
Si Si3 0.695961 0.705657 0.801806
Si Si4 0.952747 0.413457 0.081089
Si Si5 0.992686 0.853082 0.441501
Si Si6 0.319856 0.264273 0.717213
Si Si7 0.571098 0.553512 0.172982
Si Si8 0.690487 0.617878 0.578108
O O1 0.843262 0.518597 0.114958
O O2 0.571370 0.789339 0.102669
O O3 0.323585 0.908978 0.761625
O O4 0.500000 0.000000 0.000000
O O5 0.333575 0.737878 0.086691
O O6 0.404360 0.840634 0.347150
O O7 0.029427 0.194646 0.031709
O O8 0.000000 0.000000 0.000000
O O9 0.636556 0.639610 0.632578
O O10 0.476240 0.004211 0.713891
O O11 0.700412 0.646171 0.870855
O O12 0.000000 0.500000 0.000000
O O13 0.196971 0.320521 0.281446
O O14 0.144314 0.708791 0.616147
O O15 0.104632 0.661303 0.387058
O O16 0.000000 0.000000 0.500000
O O17 0.402320 0.319714 0.772769
O O18 0.000000 0.500000 0.500000
O O19 0.500000 0.500000 0.000000
#
# Coordination Sequence:
#
# PCOD8014348 Si02
#       8
#     2   2   2   2   2   2   2   2
#     4  12  22  42  67 102 132 173 228 278 341 412
#     4  11  27  45  66  98 136 181 226 277 349 411
#     4  10  21  41  66  99 129 173 226 284 339 406
#     4  11  23  40  71  94 134 172 225 280 336 407
#     4  11  24  42  68  96 133 180 222 274 344 409
#     4  12  26  40  69 105 138 175 231 292 346 405
#     4  11  26  46  67  98 139 182 226 282 345 414
#     4  10  22  42  69  94 128 175 222 279 341 404
#
# _framework density 20.721575999999999
#
# number of rings (size 3 to 8) (size 9 to 14) (size 15 to 20)
#    0.000    1.000    2.500    4.125    8.750    1.000 
#    0.000    0.625    0.000    0.000    0.000    0.000 
#    0.000    0.000    0.000    0.000    0.000    0.000 
#
# Total GULP energy -198337.126761 kJ/mol
# GULP energy per Si atom -12396.070423 kJ/mol
# Density = 2.067441 g / cm^3
# Si number density = 20.721576 Si / 1000 Ang^3
#
#
#
# Elastic Constant Matrix: (Units=GPa)
#
#
# Indices 1 2 3 4 5 6 
#
# 1 121.4822 37.3539 58.7236 5.7727 -3.0067 3.4281
# 2 37.3539 95.0256 50.8850 0.6591 -2.1600 5.7490
# 3 58.7236 50.8850 128.8934 0.8698 -6.4188 -1.0057
# 4 5.7727 0.6591 0.8698 36.9123 -4.2311 -1.7489
# 5 -3.0067 -2.1600 -6.4188 -4.2311 45.2981 5.1130
# 6 3.4281 5.7490 -1.0057 -1.7489 5.1130 47.2437
#
#
#
# Elastic Compliance Matrix: (Units=1/GPa)
#
#
# Indices 1 2 3 4 5 6 
#
# 1 0.010978 -0.002012 -0.004204 -0.001619 -0.000035 -0.000697
# 2 -0.002012 0.013859 -0.004564 0.000106 0.000076 -0.001642
# 3 -0.004204 -0.004564 0.011533 0.000639 0.001083 0.001012
# 4 -0.001619 0.000106 0.000639 0.027652 0.002472 0.000874
# 5 -0.000035 0.000076 0.001083 0.002472 0.022727 -0.002352
# 6 -0.000697 -0.001642 0.001012 0.000874 -0.002352 0.021726
#
#
# Mechanical properties :
#
#
# Convention : Reuss Voigt Hill
#
# Bulk Modulus (GPa) = 67.52127 71.03627 69.27877
# Shear Modulus (GPa) = 37.04493 39.12005 38.08249
#
# Velocity S-wave (km/s) = 4.23276 4.34970 4.29163
# Velocity P-wave (km/s) = 7.51958 7.71895 7.61992
#
# Compressibility (1/GPa) = 0.01481015
#
# Stress axis : x y z
#
# Youngs Moduli (GPa) = 91.09148 72.15627 86.70784
#
# Poissons Ratio (x) = 0.14516 0.36449
# Poissons Ratio (y) = 0.18326 0.39577
# Poissons Ratio (z) = 0.38291 0.32935
#
# Static dielectric constant tensor:
#      x y z
#    x 4.730100 -0.155030 -0.964130 
#    y -0.155030 3.727900 0.124260 
#    z -0.964130 0.124260 4.253100 
# 
# 
# High freq. dielectric constant tensor:
#      x y z
#    x 1.817210 -0.007990 -0.012400 
#    y -0.007990 1.818320 -0.006140 
#    z -0.012400 -0.006140 1.813590 
# 
# From -- ./inp_files/217001.got.cif
#   From: 2010.06.25/outbox.cif.g09.slc.cpg/sg2_109_cif.got.tgz:217001.got - 2010.06.27 13:26:56.
