data_PCOD8014640
_publ_section_title
;
Structure prediction by ZEFSAII (Michael W. Deem and Ramdas Pophale) SiO2 
 PCOD8014640
Probable space group: P -1
;
_chemical_formula_sum "Si O2"
_cell_formula_units_Z 16
_cell_length_a 15.050931
_cell_length_b 15.902504
_cell_length_c 9.129413
_cell_angle_alpha 60.260312
_cell_angle_beta 80.894361
_cell_angle_gamma 30.344878
_cell_volume 755.705766
_symmetry_space_group_name_H-M "P -1"
_symmetry_group_IT_number 2
_symmetry_cell_setting 'triclinic'
loop_
_space_group_symop_operation_xyz
x,y,z
-x,-y,-z
loop_
_atom_site_type_symbol
_atom_site_label
_atom_site_fract_x
_atom_site_fract_y
_atom_site_fract_z
Si Si1 0.486976 0.112249 0.075148
Si Si2 0.810392 0.947987 0.805055
Si Si3 0.028595 0.825821 0.355109
Si Si4 0.203908 0.567587 0.820579
Si Si5 0.712844 0.244947 0.735361
Si Si6 0.427622 0.181724 0.689970
Si Si7 0.027215 0.289927 0.743675
Si Si8 0.425218 0.661026 0.979709
O O1 0.468696 0.021388 0.222982
O O2 0.740322 0.899146 0.218855
O O3 0.309821 0.356507 0.989729
O O4 0.410093 0.189538 0.861158
O O5 0.958177 0.814864 0.737583
O O6 0.759206 0.098615 0.768564
O O7 0.582836 0.120229 0.661437
O O8 0.944157 0.748356 0.056283
O O9 0.192983 0.616925 0.613294
O O10 0.090943 0.872023 0.244854
O O11 0.029401 0.757719 0.271090
O O12 0.779222 0.080709 0.267692
O O13 0.359673 0.484251 0.944062
O O14 0.500000 0.500000 0.500000
O O15 0.668293 0.275940 0.891437
O O16 0.179470 0.435425 0.469438
O O17 0.500000 0.500000 0.000000
#
# Coordination Sequence:
#
# PCOD8014640 Si02
#       8
#     2   2   2   2   2   2   2   2
#     4  10  21  41  69  97 128 161 220 270 316 383
#     4  11  26  42  63  95 136 166 217 264 317 385
#     4  12  24  41  68  88 132 177 210 261 323 377
#     4  12  25  44  61  99 135 167 214 270 316 381
#     4  12  24  43  64  92 130 173 215 262 315 382
#     4  10  21  42  69  96 124 173 211 265 329 379
#     4  11  21  42  67  96 122 172 217 263 320 385
#     4  12  26  42  63  95 129 169 223 265 313 379
#
# _framework density 21.172262
#
# number of rings (size 3 to 8) (size 9 to 14) (size 15 to 20)
#    0.000    0.750    5.000    3.000    3.500    2.500 
#    0.000    0.625    0.000    0.000    0.000    0.000 
#    0.000    0.000    0.000    0.000    0.000    0.000 
#
# Total GULP energy -198390.060047 kJ/mol
# GULP energy per Si atom -12399.378753 kJ/mol
# Density = 2.112407 g / cm^3
# Si number density = 21.172262 Si / 1000 Ang^3
#
#
#
# Elastic Constant Matrix: (Units=GPa)
#
#
# Indices 1 2 3 4 5 6 
#
# 1 107.6615 31.5578 29.1103 2.7166 -8.2109 11.5019
# 2 31.5578 101.6351 29.3200 -7.6925 -11.4586 9.9032
# 3 29.1103 29.3200 92.4013 -29.4304 1.2292 9.1604
# 4 2.7166 -7.6925 -29.4304 24.4870 3.3864 -1.6403
# 5 -8.2109 -11.4586 1.2292 3.3864 29.1441 -6.5558
# 6 11.5019 9.9032 9.1604 -1.6403 -6.5558 35.2892
#
#
#
# Elastic Compliance Matrix: (Units=1/GPa)
#
#
# Indices 1 2 3 4 5 6 
#
# 1 0.012380 -0.002210 -0.006405 -0.010387 0.003750 -0.001539
# 2 -0.002210 0.011972 -0.003198 -0.000467 0.004030 -0.001082
# 3 -0.006405 -0.003198 0.023466 0.028815 -0.008137 -0.003279
# 4 -0.010387 -0.000467 0.028815 0.078225 -0.014076 -0.002942
# 5 0.003750 0.004030 -0.008137 -0.014076 0.040420 0.006614
# 6 -0.001539 -0.001082 -0.003279 -0.002942 0.006614 0.031085
#
#
# Mechanical properties :
#
#
# Convention : Reuss Voigt Hill
#
# Bulk Modulus (GPa) = 41.33364 53.51936 47.42650
# Shear Modulus (GPa) = 21.81134 31.89804 26.85469
#
# Velocity S-wave (km/s) = 3.21313 3.88570 3.56531
# Velocity P-wave (km/s) = 5.77326 6.74274 6.27674
#
# Compressibility (1/GPa) = 0.02419337
#
# Stress axis : x y z
#
# Youngs Moduli (GPa) = 80.77261 83.52618 42.61518
#
# Poissons Ratio (x) = 0.18458 0.27295
# Poissons Ratio (y) = 0.17850 0.13627
# Poissons Ratio (z) = 0.51734 0.26710
#
# Static dielectric constant tensor:
#      x y z
#    x 4.468280 0.118800 -0.307790 
#    y 0.118800 3.542800 -0.254410 
#    z -0.307790 -0.254410 4.453330 
# 
# 
# High freq. dielectric constant tensor:
#      x y z
#    x 1.840510 0.007780 0.008210 
#    y 0.007780 1.810280 -0.021760 
#    z 0.008210 -0.021760 1.842960 
# 
# From -- ./inp_files/314914.got.cif
#   From: 2010.06.25/outbox.cif.g09.slc.cpg/sg2_158_cif.got.tgz:314914.got - 2010.06.27 13:26:56.
