data_PCOD8014110
_publ_section_title
;
Structure prediction by ZEFSAII (Michael W. Deem and Ramdas Pophale) SiO2 
 PCOD8014110
Probable space group: P -1
;
_chemical_formula_sum "Si O2"
_cell_formula_units_Z 12
_cell_length_a 16.084790
_cell_length_b 11.277592
_cell_length_c 9.689998
_cell_angle_alpha 99.244933
_cell_angle_beta 146.047071
_cell_angle_gamma 55.718853
_cell_volume 606.336724
_symmetry_space_group_name_H-M "P -1"
_symmetry_group_IT_number 2
_symmetry_cell_setting 'triclinic'
loop_
_space_group_symop_operation_xyz
x,y,z
-x,-y,-z
loop_
_atom_site_type_symbol
_atom_site_label
_atom_site_fract_x
_atom_site_fract_y
_atom_site_fract_z
Si Si1 0.311522 0.865123 0.537863
Si Si2 0.185238 0.316790 0.123866
Si Si3 0.179869 0.415117 0.852154
Si Si4 0.599828 0.479328 0.781167
Si Si5 0.926373 0.074351 0.257930
Si Si6 0.725915 0.012803 0.780373
O O1 0.376939 0.680795 0.592255
O O2 0.194978 0.972871 0.250213
O O3 0.555320 0.789590 0.874270
O O4 0.141066 0.002445 0.456280
O O5 0.201628 0.170235 0.166898
O O6 0.447828 0.210381 0.468217
O O7 0.093416 0.385704 0.853454
O O8 0.000000 0.500000 0.000000
O O9 0.000000 0.500000 0.500000
O O10 0.193756 0.546397 0.948171
O O11 0.500000 0.500000 0.500000
O O12 0.698913 0.305520 0.974562
O O13 0.000000 0.000000 0.500000
O O14 0.871695 0.980560 0.098370
#
# Coordination Sequence:
#
# PCOD8014110 Si02
#       6
#     2   2   2   2   2   2
#     4   9  22  40  63  86 124 167 204 257 307 376
#     4  10  22  39  62  89 120 163 204 255 305 374
#     4   9  21  40  61  88 123 162 200 255 317 363
#     4  10  21  41  65  88 123 166 215 242 314 380
#     4  12  25  38  63  97 123 161 209 267 311 363
#     4  10  22  39  60  91 122 156 215 248 303 379
#
# _framework density 19.790984999999999
#
# number of rings (size 3 to 8) (size 9 to 14) (size 15 to 20)
#    1.000    1.000    1.667    0.500    4.667    3.333 
#    0.000    0.833    0.000    0.000    0.000    0.000 
#    0.000    0.000    0.000    0.000    0.000    0.000 
#
# Total GULP energy -148697.623413 kJ/mol
# GULP energy per Si atom -12391.468618 kJ/mol
# Density = 1.974594 g / cm^3
# Si number density = 19.790985 Si / 1000 Ang^3
#
#
#
# Elastic Constant Matrix: (Units=GPa)
#
#
# Indices 1 2 3 4 5 6 
#
# 1 135.5323 48.6503 61.6369 -6.6210 -20.2209 -14.2376
# 2 48.6503 82.6861 50.0928 -11.7695 -8.7742 -1.1382
# 3 61.6369 50.0928 121.4512 14.4699 -34.1416 -9.7819
# 4 -6.6210 -11.7695 14.4699 37.9607 1.6990 -1.9616
# 5 -20.2209 -8.7742 -34.1416 1.6990 36.7272 -2.3512
# 6 -14.2376 -1.1382 -9.7819 -1.9616 -2.3512 26.8636
#
#
#
# Elastic Compliance Matrix: (Units=1/GPa)
#
#
# Indices 1 2 3 4 5 6 
#
# 1 0.011297 -0.004091 -0.003181 0.002062 0.002512 0.005026
# 2 -0.004091 0.021414 -0.010521 0.010021 -0.007702 -0.005034
# 3 -0.003181 -0.010521 0.020516 -0.012040 0.015738 0.005837
# 4 0.002062 0.010021 -0.012040 0.034758 -0.009344 -0.001147
# 5 0.002512 -0.007702 0.015738 -0.009344 0.042458 0.009770
# 6 0.005026 -0.005034 0.005837 -0.001147 0.009770 0.042573
#
#
# Mechanical properties :
#
#
# Convention : Reuss Voigt Hill
#
# Bulk Modulus (GPa) = 56.68083 73.38107 65.03095
# Shear Modulus (GPa) = 23.31210 32.26294 27.78752
#
# Velocity S-wave (km/s) = 3.43580 4.04193 3.75113
# Velocity P-wave (km/s) = 6.66645 7.67734 7.18968
#
# Compressibility (1/GPa) = 0.01764265
#
# Stress axis : x y z
#
# Youngs Moduli (GPa) = 88.52226 46.69777 48.74236
#
# Poissons Ratio (x) = 0.19102 0.15503
# Poissons Ratio (y) = 0.36211 0.51282
# Poissons Ratio (z) = 0.28155 0.49131
#
# Static dielectric constant tensor:
#      x y z
#    x 3.485990 0.137380 0.013070 
#    y 0.137380 3.506460 -0.168260 
#    z 0.013070 -0.168260 3.593650 
# 
# 
# High freq. dielectric constant tensor:
#      x y z
#    x 1.761140 0.009130 -0.002680 
#    y 0.009130 1.761540 -0.009470 
#    z -0.002680 -0.009470 1.773530 
# 
# From -- ./inp_files/303365.got.cif
#   From: 2010.06.25/outbox.cif.g09.slc.cpg/sg2_152_cif.got.tgz:303365.got - 2010.06.27 13:26:56.
