data_PCOD8014143
_publ_section_title
;
Structure prediction by ZEFSAII (Michael W. Deem and Ramdas Pophale) SiO2 
 PCOD8014143
Probable space group: P -1
;
_chemical_formula_sum "Si O2"
_cell_formula_units_Z 16
_cell_length_a 8.565105
_cell_length_b 20.057379
_cell_length_c 16.723003
_cell_angle_alpha 150.777231
_cell_angle_beta 39.628615
_cell_angle_gamma 149.098735
_cell_volume 717.688796
_symmetry_space_group_name_H-M "P -1"
_symmetry_group_IT_number 2
_symmetry_cell_setting 'triclinic'
loop_
_space_group_symop_operation_xyz
x,y,z
-x,-y,-z
loop_
_atom_site_type_symbol
_atom_site_label
_atom_site_fract_x
_atom_site_fract_y
_atom_site_fract_z
Si Si1 0.677040 0.432584 0.277031
Si Si2 0.164761 0.032054 0.052386
Si Si3 0.718367 0.225154 0.313677
Si Si4 0.006079 0.606718 0.178435
Si Si5 0.824845 0.522062 0.483173
Si Si6 0.633733 0.900739 0.439888
Si Si7 0.315971 0.059609 0.717402
Si Si8 0.762333 0.793207 0.419034
O O1 0.912741 0.492682 0.175015
O O2 0.891325 0.515654 0.357188
O O3 0.507455 0.520662 0.423832
O O4 0.441866 0.228226 0.162100
O O5 0.927881 0.964463 0.148745
O O6 0.296657 0.922277 0.882256
O O7 0.000000 0.000000 0.000000
O O8 0.850308 0.383481 0.368792
O O9 0.386005 0.156492 0.403662
O O10 0.935687 0.292300 0.377148
O O11 0.744322 0.631213 0.286466
O O12 0.345705 0.775390 0.227910
O O13 0.000000 0.500000 0.000000
O O14 0.774380 0.923489 0.319544
O O15 0.589785 0.749076 0.353162
O O16 0.334032 0.898803 0.547952
O O17 0.876655 0.055172 0.565345
#
# Coordination Sequence:
#
# PCOD8014143 Si02
#       8
#     2   2   2   2   2   2   2   2
#     4  11  24  43  68 100 132 172 230 272 331 392
#     4  12  24  41  69 105 134 170 221 284 333 387
#     4  11  23  42  69  93 138 175 220 273 338 395
#     4  11  24  43  67  92 132 177 221 270 327 399
#     4  10  24  41  66  95 131 180 217 275 327 404
#     4   9  21  39  66  97 122 170 218 277 318 391
#     4  10  23  41  69  94 130 170 224 264 327 396
#     4  10  21  41  65  91 130 173 221 264 332 396
#
# _framework density 22.293785
#
# number of rings (size 3 to 8) (size 9 to 14) (size 15 to 20)
#    0.000    1.500    2.500    1.500    3.500    4.500 
#    2.250    0.625    0.000    0.000    0.000    0.000 
#    0.000    0.000    0.000    0.000    0.000    0.000 
#
# Total GULP energy -198279.208250 kJ/mol
# GULP energy per Si atom -12392.450516 kJ/mol
# Density = 2.224304 g / cm^3
# Si number density = 22.293785 Si / 1000 Ang^3
#
#
#
# Elastic Constant Matrix: (Units=GPa)
#
#
# Indices 1 2 3 4 5 6 
#
# 1 121.1726 35.1790 56.8728 -5.4806 13.6166 -20.3611
# 2 35.1790 103.2491 51.5552 -19.1080 1.6266 -20.2172
# 3 56.8728 51.5552 136.0942 -19.9317 2.2661 -19.9921
# 4 -5.4806 -19.1080 -19.9317 38.2867 -2.2604 11.1441
# 5 13.6166 1.6266 2.2661 -2.2604 35.0564 -7.5102
# 6 -20.3611 -20.2172 -19.9921 11.1441 -7.5102 31.1065
#
#
#
# Elastic Compliance Matrix: (Units=1/GPa)
#
#
# Indices 1 2 3 4 5 6 
#
# 1 0.011513 -0.001584 -0.003933 -0.002578 -0.003438 0.004072
# 2 -0.001584 0.013378 -0.003231 0.003491 0.001430 0.004675
# 3 -0.003933 -0.003231 0.010877 0.003121 0.001511 0.001563
# 4 -0.002578 0.003491 0.003121 0.031655 0.000847 -0.008549
# 5 -0.003438 0.001430 0.001511 0.000847 0.031227 0.006886
# 6 0.004072 0.004675 0.001563 -0.008549 0.006886 0.043581
#
#
# Mechanical properties :
#
#
# Convention : Reuss Voigt Hill
#
# Bulk Modulus (GPa) = 54.73531 71.96999 63.35265
# Shear Modulus (GPa) = 30.15365 35.35052 32.75209
#
# Velocity S-wave (km/s) = 3.68170 3.98636 3.83706
# Velocity P-wave (km/s) = 6.53287 7.31715 6.93611
#
# Compressibility (1/GPa) = 0.01826974
#
# Stress axis : x y z
#
# Youngs Moduli (GPa) = 86.86146 74.75136 91.93669
#
# Poissons Ratio (x) = 0.11843 0.36159
# Poissons Ratio (y) = 0.13762 0.29708
# Poissons Ratio (z) = 0.34163 0.24155
#
# Static dielectric constant tensor:
#      x y z
#    x 3.955110 -0.304850 -0.158340 
#    y -0.304850 3.812530 -0.017660 
#    z -0.158340 -0.017660 3.986200 
# 
# 
# High freq. dielectric constant tensor:
#      x y z
#    x 1.894270 -0.012960 0.003010 
#    y -0.012960 1.873780 -0.004660 
#    z 0.003010 -0.004660 1.859150 
# 
# From -- ./inp_files/562939.got.cif
#   From: 2010.06.25/outbox.cif.g09.slc.cpg/sg2_282_cif.got.tgz:562939.got - 2010.06.27 13:26:56.
