data_PCOD8014517
_publ_section_title
;
Structure prediction by ZEFSAII (Michael W. Deem and Ramdas Pophale) SiO2 
 PCOD8014517
Probable space group: P -1
;
_chemical_formula_sum "Si O2"
_cell_formula_units_Z 16
_cell_length_a 7.535988
_cell_length_b 9.270405
_cell_length_c 8.441928
_cell_angle_alpha 87.931140
_cell_angle_beta 82.519230
_cell_angle_gamma 87.014462
_cell_volume 583.697632
_symmetry_space_group_name_H-M "P -1"
_symmetry_group_IT_number 2
_symmetry_cell_setting 'triclinic'
loop_
_space_group_symop_operation_xyz
x,y,z
-x,-y,-z
loop_
_atom_site_type_symbol
_atom_site_label
_atom_site_fract_x
_atom_site_fract_y
_atom_site_fract_z
Si Si1 0.737612 0.806808 0.443535
Si Si2 0.691890 0.197254 0.914744
Si Si3 0.756661 0.074510 0.248006
Si Si4 0.463081 0.552957 0.236269
Si Si5 0.792137 0.633729 0.893963
Si Si6 0.844580 0.934223 0.743184
Si Si7 0.031836 0.381808 0.804667
Si Si8 0.372938 0.664192 0.560186
O O1 0.842775 0.894719 0.560422
O O2 0.882270 0.691680 0.357436
O O3 0.575767 0.721097 0.537911
O O4 0.660689 0.931033 0.324980
O O5 0.516609 0.300942 0.878273
O O6 0.865322 0.294771 0.895848
O O7 0.710472 0.070786 0.787796
O O8 0.664265 0.127770 0.093627
O O9 0.756177 0.205616 0.369630
O O10 0.964279 0.023921 0.210729
O O11 0.393130 0.430759 0.135418
O O12 0.323776 0.611548 0.391021
O O13 0.632796 0.476706 0.314439
O O14 0.780022 0.801491 0.856319
O O15 0.954019 0.547228 0.780675
O O16 0.813436 0.610815 0.080418
#
# Coordination Sequence:
#
# PCOD8014517 Si02
#       8
#     2   2   2   2   2   2   2   2
#     4  12  25  44  68 103 140 183 223 280 339 410
#     4  11  23  45  72 103 135 177 229 286 339 396
#     4  12  25  42  72 103 141 177 225 285 338 407
#     4  10  24  49  69  95 139 182 230 279 331 414
#     4  10  21  41  68 103 136 171 228 284 340 398
#     4  12  23  41  72 108 133 177 226 285 346 396
#     4  10  22  41  67 103 138 172 225 287 340 394
#     4  11  26  48  66  99 141 186 226 273 341 409
#
# _framework density 27.411449999999999
#
# number of rings (size 3 to 8) (size 9 to 14) (size 15 to 20)
#    0.000    1.000    3.750    2.625    3.500    3.000 
#    2.250    1.250    0.000    0.000    0.000    0.000 
#    0.000    0.000    0.000    0.000    0.000    0.000 
#
# Total GULP energy -198352.258046 kJ/mol
# GULP energy per Si atom -12397.016128 kJ/mol
# Density = 2.734906 g / cm^3
# Si number density = 27.411450 Si / 1000 Ang^3
#
#
#
# Elastic Constant Matrix: (Units=GPa)
#
#
# Indices 1 2 3 4 5 6 
#
# 1 24.4785 1.6438 -6.6438 -8.0198 7.4145 1.0948
# 2 1.6438 131.9881 25.8918 -4.7687 1.2325 -12.1650
# 3 -6.6438 25.8918 101.0619 0.0765 4.7758 5.4040
# 4 -8.0198 -4.7687 0.0765 66.8528 -3.7958 4.9032
# 5 7.4145 1.2325 4.7758 -3.7958 30.0811 8.0224
# 6 1.0948 -12.1650 5.4040 4.9032 8.0224 31.8888
#
#
#
# Elastic Compliance Matrix: (Units=1/GPa)
#
#
# Indices 1 2 3 4 5 6 
#
# 1 0.047109 -0.001133 0.003955 0.004964 -0.011403 -0.000615
# 2 -0.001133 0.008425 -0.002405 0.000150 -0.000681 0.003809
# 3 0.003955 -0.002405 0.010994 0.000365 -0.001911 -0.002491
# 4 0.004964 0.000150 0.000365 0.015870 0.001514 -0.002996
# 5 -0.011403 -0.000681 -0.001911 0.001514 0.039143 -0.009625
# 6 -0.000615 0.003809 -0.002491 -0.002996 -0.009625 0.036137
#
#
# Mechanical properties :
#
#
# Convention : Reuss Voigt Hill
#
# Bulk Modulus (GPa) = 14.84487 33.25688 24.05087
# Shear Modulus (GPa) = 27.88643 41.54034 34.71338
#
# Velocity S-wave (km/s) = 3.19302 3.89709 3.56249
# Velocity P-wave (km/s) = 4.36132 5.69285 5.07098
#
# Compressibility (1/GPa) = 0.06736335
#
# Stress axis : x y z
#
# Youngs Moduli (GPa) = 21.22720 118.69347 90.95645
#
# Poissons Ratio (x) = 0.13453 -0.35976
# Poissons Ratio (y) = 0.02406 0.21871
# Poissons Ratio (z) = -0.08396 0.28541
#
# Static dielectric constant tensor:
#      x y z
#    x 4.525440 -0.144210 0.137070 
#    y -0.144210 5.388260 -0.029040 
#    z 0.137070 -0.029040 5.002100 
# 
# 
# High freq. dielectric constant tensor:
#      x y z
#    x 2.077410 -0.010540 0.005400 
#    y -0.010540 2.132360 0.007590 
#    z 0.005400 0.007590 2.110530 
# 
# From -- ./inp_files/158734.got.cif
#   From: 2010.06.25/outbox.cif.g09.slc.cpg/sg2_80_cif.got.tgz:158734.got - 2010.06.27 13:26:56.
