data_PCOD8014262
_publ_section_title
;
Structure prediction by ZEFSAII (Michael W. Deem and Ramdas Pophale) SiO2 
 PCOD8014262
Probable space group: P -1
;
_chemical_formula_sum "Si O2"
_cell_formula_units_Z 16
_cell_length_a 9.457144
_cell_length_b 6.493885
_cell_length_c 21.146535
_cell_angle_alpha 73.656493
_cell_angle_beta 121.292725
_cell_angle_gamma 138.137203
_cell_volume 727.828758
_symmetry_space_group_name_H-M "P -1"
_symmetry_group_IT_number 2
_symmetry_cell_setting 'triclinic'
loop_
_space_group_symop_operation_xyz
x,y,z
-x,-y,-z
loop_
_atom_site_type_symbol
_atom_site_label
_atom_site_fract_x
_atom_site_fract_y
_atom_site_fract_z
Si Si1 0.253891 0.897199 0.268556
Si Si2 0.852421 0.697499 0.036460
Si Si3 0.347397 0.241901 0.898836
Si Si4 0.290766 0.468597 0.636006
Si Si5 0.611518 0.429704 0.486506
Si Si6 0.926653 0.519592 0.850572
Si Si7 0.430890 0.467704 0.202622
Si Si8 0.159185 0.745707 0.395000
O O1 0.183971 0.630542 0.231592
O O2 0.084139 0.723413 0.306442
O O3 0.528527 0.158515 0.337710
O O4 0.227980 0.091907 0.203883
O O5 0.801678 0.746054 0.089859
O O6 0.019032 0.644785 0.083963
O O7 0.592962 0.385534 0.974858
O O8 0.000000 0.000000 0.000000
O O9 0.428723 0.449451 0.837126
O O10 0.177427 0.884430 0.869418
O O11 0.284903 0.370017 0.571725
O O12 0.368239 0.343340 0.710736
O O13 0.027980 0.313271 0.598714
O O14 0.500000 0.500000 0.500000
O O15 0.818863 0.490036 0.566483
O O16 0.412993 0.083735 0.443171
O O17 0.717206 0.450623 0.845045
#
# Coordination Sequence:
#
# PCOD8014262 Si02
#       8
#     2   2   2   2   2   2   2   2
#     4   9  23  40  64  94 134 172 213 267 328 380
#     4  11  26  47  70  93 133 170 213 270 327 384
#     4  11  25  43  68  98 127 171 220 261 328 385
#     4   9  22  42  63  93 134 170 216 264 325 385
#     4  10  22  40  65  95 130 170 219 272 323 374
#     4  12  24  41  69  96 132 166 219 266 324 384
#     4  10  25  42  63  97 134 168 215 269 321 386
#     4  10  21  41  66  90 131 174 218 266 322 386
#
# _framework density 21.983191999999999
#
# number of rings (size 3 to 8) (size 9 to 14) (size 15 to 20)
#    0.750    1.000    0.000    3.000    5.250    6.500 
#    2.250    0.000    0.000    0.000    0.000    0.000 
#    0.000    0.000    0.000    0.000    0.000    0.000 
#
# Total GULP energy -198241.718857 kJ/mol
# GULP energy per Si atom -12390.107429 kJ/mol
# Density = 2.193316 g / cm^3
# Si number density = 21.983192 Si / 1000 Ang^3
#
#
#
# Elastic Constant Matrix: (Units=GPa)
#
#
# Indices 1 2 3 4 5 6 
#
# 1 152.5000 32.7176 73.6786 -36.5749 -8.9224 5.0428
# 2 32.7176 63.8772 51.7204 -12.4511 -10.0643 -2.9855
# 3 73.6786 51.7204 118.3455 -29.1622 -18.3241 4.2625
# 4 -36.5749 -12.4511 -29.1622 34.7239 0.5636 -1.7103
# 5 -8.9224 -10.0643 -18.3241 0.5636 51.3219 -6.1041
# 6 5.0428 -2.9855 4.2625 -1.7103 -6.1041 25.3924
#
#
#
# Elastic Compliance Matrix: (Units=1/GPa)
#
#
# Indices 1 2 3 4 5 6 
#
# 1 0.010624 -0.000293 -0.004723 0.007076 -0.000081 -0.000894
# 2 -0.000293 0.024922 -0.010666 -0.000102 0.001644 0.005167
# 3 -0.004723 -0.010666 0.018190 0.006318 0.003256 -0.002161
# 4 0.007076 -0.000102 0.006318 0.041524 0.003138 0.001073
# 5 -0.000081 0.001644 0.003256 0.003138 0.021521 0.005048
# 6 -0.000894 0.005167 -0.002161 0.001073 0.005048 0.041816
#
#
# Mechanical properties :
#
#
# Convention : Reuss Voigt Hill
#
# Bulk Modulus (GPa) = 44.69691 72.32844 58.51267
# Shear Modulus (GPa) = 25.32706 34.06137 29.69422
#
# Velocity S-wave (km/s) = 3.39796 3.94055 3.67927
# Velocity P-wave (km/s) = 5.98091 7.32646 6.68761
#
# Compressibility (1/GPa) = 0.02237291
#
# Stress axis : x y z
#
# Youngs Moduli (GPa) = 94.12722 40.12579 54.97419
#
# Poissons Ratio (x) = 0.01175 0.25964
# Poissons Ratio (y) = 0.02755 0.58635
# Poissons Ratio (z) = 0.44455 0.42798
#
# Static dielectric constant tensor:
#      x y z
#    x 3.844510 0.191690 -0.223340 
#    y 0.191690 3.808260 -0.086830 
#    z -0.223340 -0.086830 4.330980 
# 
# 
# High freq. dielectric constant tensor:
#      x y z
#    x 1.859300 0.012890 -0.005080 
#    y 0.012890 1.840820 0.002540 
#    z -0.005080 0.002540 1.883310 
# 
# From -- ./inp_files/585654.got.cif
#   From: 2010.06.25/outbox.cif.g09.slc.cpg/sg2_293_cif.got.tgz:585654.got - 2010.06.27 13:26:56.
