data_PCOD8014490
_publ_section_title
;
Structure prediction by ZEFSAII (Michael W. Deem and Ramdas Pophale) SiO2 
 PCOD8014490
Probable space group: P -1
;
_chemical_formula_sum "Si O2"
_cell_formula_units_Z 16
_cell_length_a 5.315900
_cell_length_b 6.322289
_cell_length_c 22.706603
_cell_angle_alpha 79.350205
_cell_angle_beta 82.827574
_cell_angle_gamma 107.285151
_cell_volume 702.858924
_symmetry_space_group_name_H-M "P -1"
_symmetry_group_IT_number 2
_symmetry_cell_setting 'triclinic'
loop_
_space_group_symop_operation_xyz
x,y,z
-x,-y,-z
loop_
_atom_site_type_symbol
_atom_site_label
_atom_site_fract_x
_atom_site_fract_y
_atom_site_fract_z
Si Si1 0.614736 0.294954 0.873703
Si Si2 0.825842 0.514511 0.286719
Si Si3 0.220945 0.533182 0.576271
Si Si4 0.928874 0.034122 0.816447
Si Si5 0.963385 0.301997 0.089435
Si Si6 0.185502 0.254465 0.478865
Si Si7 0.719026 0.626142 0.032741
Si Si8 0.309121 0.367040 0.241997
O O1 0.354574 0.196611 0.929568
O O2 0.551881 0.395923 0.808981
O O3 0.794638 0.512508 0.893863
O O4 0.741891 0.097548 0.867943
O O5 0.833101 0.576806 0.351907
O O6 0.524066 0.357558 0.285897
O O7 0.027344 0.371974 0.276804
O O8 0.899235 0.744868 0.235179
O O9 0.224576 0.338859 0.540556
O O10 0.519877 0.723342 0.556838
O O11 0.973268 0.619248 0.563217
O O12 0.744507 0.856008 0.784854
O O13 0.119927 0.925127 0.855022
O O14 0.738586 0.422476 0.085825
O O15 0.023711 0.248009 0.022078
O O16 0.000000 0.000000 0.500000
O O17 0.500000 0.500000 0.000000
#
# Coordination Sequence:
#
# PCOD8014490 Si02
#       8
#     2   2   2   2   2   2   2   2
#     4   9  20  37  59  86 119 162 208 271 329 395
#     4  11  24  44  63  97 135 173 221 272 321 387
#     4  10  22  39  66  98 136 173 217 270 318 377
#     4  10  23  42  64  93 122 176 218 265 336 400
#     4   9  19  39  59  89 121 157 208 272 330 399
#     4  10  21  41  67  99 134 176 217 264 322 376
#     4   9  18  36  61  85 123 154 204 277 332 389
#     4  10  24  42  63  91 132 172 221 276 325 383
#
# _framework density 22.764167
#
# number of rings (size 3 to 8) (size 9 to 14) (size 15 to 20)
#    0.000    2.250    0.000    1.125    5.250    4.500 
#    9.000    5.625    0.000    0.000    0.000    0.000 
#    0.000    0.000    0.000    0.000    0.000    0.000 
#
# Total GULP energy -198251.211005 kJ/mol
# GULP energy per Si atom -12390.700688 kJ/mol
# Density = 2.271235 g / cm^3
# Si number density = 22.764167 Si / 1000 Ang^3
#
#
#
# Elastic Constant Matrix: (Units=GPa)
#
#
# Indices 1 2 3 4 5 6 
#
# 1 129.1882 23.3379 52.9141 9.1507 8.2970 -9.8361
# 2 23.3379 75.2858 41.6238 1.8878 -6.2926 -6.6700
# 3 52.9141 41.6238 133.2065 14.1409 5.3312 -18.3509
# 4 9.1507 1.8878 14.1409 18.5509 3.1292 -2.2226
# 5 8.2970 -6.2926 5.3312 3.1292 30.5807 1.5350
# 6 -9.8361 -6.6700 -18.3509 -2.2226 1.5350 25.9249
#
#
#
# Elastic Compliance Matrix: (Units=1/GPa)
#
#
# Indices 1 2 3 4 5 6 
#
# 1 0.009547 -0.001386 -0.002913 -0.001829 -0.002240 0.001179
# 2 -0.001386 0.016873 -0.005112 0.002114 0.004517 0.000111
# 3 -0.002913 -0.005112 0.011733 -0.005997 -0.001969 0.005487
# 4 -0.001829 0.002114 -0.005997 0.059994 -0.004212 0.000998
# 5 -0.002240 0.004517 -0.001969 -0.004212 0.035189 -0.003526
# 6 0.001179 0.000111 0.005487 0.000998 -0.003526 0.043227
#
#
# Mechanical properties :
#
#
# Convention : Reuss Voigt Hill
#
# Bulk Modulus (GPa) = 51.72908 63.71468 57.72188
# Shear Modulus (GPa) = 24.77341 29.66494 27.21918
#
# Velocity S-wave (km/s) = 3.30246 3.61382 3.46164
# Velocity P-wave (km/s) = 6.10859 6.74261 6.43341
#
# Compressibility (1/GPa) = 0.01933149
#
# Stress axis : x y z
#
# Youngs Moduli (GPa) = 104.74048 59.26668 85.22892
#
# Poissons Ratio (x) = 0.08213 0.24830
# Poissons Ratio (y) = 0.14515 0.43568
# Poissons Ratio (z) = 0.30514 0.30297
#
# Static dielectric constant tensor:
#      x y z
#    x 4.313300 -0.092390 -0.251710 
#    y -0.092390 3.791280 0.297290 
#    z -0.251710 0.297290 4.340850 
# 
# 
# High freq. dielectric constant tensor:
#      x y z
#    x 1.909710 -0.003510 0.007800 
#    y -0.003510 1.880610 0.017880 
#    z 0.007800 0.017880 1.895640 
# 
# From -- ./inp_files/602898.got.cif
#   From: 2010.06.25/outbox.cif.g09.slc.cpg/sg2_302_cif.got.tgz:602898.got - 2010.06.27 13:26:56.
