data_PCOD8014290
_publ_section_title
;
Structure prediction by ZEFSAII (Michael W. Deem and Ramdas Pophale) SiO2 
 PCOD8014290
Probable space group: P -1
;
_chemical_formula_sum "Si O2"
_cell_formula_units_Z 16
_cell_length_a 8.473565
_cell_length_b 12.103807
_cell_length_c 8.513388
_cell_angle_alpha 82.715290
_cell_angle_beta 130.173294
_cell_angle_gamma 83.585212
_cell_volume 639.852386
_symmetry_space_group_name_H-M "P -1"
_symmetry_group_IT_number 2
_symmetry_cell_setting 'triclinic'
loop_
_space_group_symop_operation_xyz
x,y,z
-x,-y,-z
loop_
_atom_site_type_symbol
_atom_site_label
_atom_site_fract_x
_atom_site_fract_y
_atom_site_fract_z
Si Si1 0.438779 0.880455 0.012375
Si Si2 0.746376 0.851309 0.734959
Si Si3 0.934069 0.205535 0.324452
Si Si4 0.868254 0.440149 0.106299
Si Si5 0.372019 0.301323 0.078032
Si Si6 0.755062 0.462596 0.682898
Si Si7 0.815836 0.253584 0.558464
Si Si8 0.680320 0.094825 0.718784
O O1 0.604723 0.773311 0.054097
O O2 0.426563 0.856631 0.193925
O O3 0.205931 0.883983 0.790435
O O4 0.500000 0.000000 0.000000
O O5 0.495243 0.891478 0.533092
O O6 0.859493 0.820055 0.646636
O O7 0.811262 0.960421 0.837664
O O8 0.791678 0.744683 0.905080
O O9 0.811600 0.341150 0.194507
O O10 0.993382 0.194725 0.551002
O O11 0.727722 0.565039 0.048706
O O12 0.123727 0.435384 0.279790
O O13 0.809447 0.409649 0.899270
O O14 0.593596 0.282806 0.315190
O O15 0.500000 0.500000 0.500000
O O16 0.855428 0.370827 0.629325
O O17 0.832445 0.171124 0.736153
#
# Coordination Sequence:
#
# PCOD8014290 Si02
#       8
#     2   2   2   2   2   2   2   2
#     4  11  23  45  68  99 136 178 227 290 349 412
#     4  10  21  41  66  93 131 179 222 282 336 411
#     4  11  26  43  65 103 140 176 236 285 340 419
#     4  11  24  43  70 104 138 185 232 286 350 413
#     4  10  21  43  70  97 140 178 228 284 349 417
#     4  11  22  42  70  99 139 186 232 288 350 413
#     4  10  23  42  64  99 139 184 226 287 348 412
#     4  10  22  41  67  94 130 180 227 274 354 406
#
# _framework density 25.005765
#
# number of rings (size 3 to 8) (size 9 to 14) (size 15 to 20)
#    0.000    1.500    2.500    2.250    3.500    4.500 
#    4.500    0.000    0.000    0.000    0.000    0.000 
#    0.000    0.000    0.000    0.000    0.000    0.000 
#
# Total GULP energy -198307.891559 kJ/mol
# GULP energy per Si atom -12394.243222 kJ/mol
# Density = 2.494885 g / cm^3
# Si number density = 25.005765 Si / 1000 Ang^3
#
#
#
# Elastic Constant Matrix: (Units=GPa)
#
#
# Indices 1 2 3 4 5 6 
#
# 1 134.3451 45.1498 21.2918 11.1491 -42.4688 -8.4505
# 2 45.1498 148.1205 33.3895 18.3027 -20.3450 -5.6053
# 3 21.2918 33.3895 61.7805 20.7409 -15.0323 4.4056
# 4 11.1491 18.3027 20.7409 36.1265 -5.7224 -4.2091
# 5 -42.4688 -20.3450 -15.0323 -5.7224 43.8452 5.7589
# 6 -8.4505 -5.6053 4.4056 -4.2091 5.7589 50.8175
#
#
#
# Elastic Compliance Matrix: (Units=1/GPa)
#
#
# Indices 1 2 3 4 5 6 
#
# 1 0.011337 -0.001936 -0.000252 -0.000756 0.009829 0.000517
# 2 -0.001936 0.008376 -0.003214 -0.001626 0.000609 0.000677
# 3 -0.000252 -0.003214 0.023398 -0.011346 0.005327 -0.003968
# 4 -0.000756 -0.001626 -0.011346 0.035493 -0.001238 0.003759
# 5 0.009829 0.000609 0.005327 -0.001238 0.034642 -0.002788
# 6 0.000517 0.000677 -0.003968 0.003759 -0.002788 0.020810
#
#
# Mechanical properties :
#
#
# Convention : Reuss Voigt Hill
#
# Bulk Modulus (GPa) = 30.95327 60.43425 45.69376
# Shear Modulus (GPa) = 32.12767 42.45217 37.28992
#
# Velocity S-wave (km/s) = 3.58831 4.12478 3.86586
# Velocity P-wave (km/s) = 5.43814 6.84877 6.18381
#
# Compressibility (1/GPa) = 0.03230676
#
# Stress axis : x y z
#
# Youngs Moduli (GPa) = 88.21055 119.39024 42.73779
#
# Poissons Ratio (x) = 0.23109 0.01078
# Poissons Ratio (y) = 0.17074 0.13737
# Poissons Ratio (z) = 0.02225 0.38374
#
# Static dielectric constant tensor:
#      x y z
#    x 4.757020 0.076640 -0.196820 
#    y 0.076640 4.626720 0.238430 
#    z -0.196820 0.238430 4.283800 
# 
# 
# High freq. dielectric constant tensor:
#      x y z
#    x 2.004010 0.001480 -0.005310 
#    y 0.001480 2.004070 0.022710 
#    z -0.005310 0.022710 1.981170 
# 
# From -- ./inp_files/187971.got.cif
#   From: 2010.06.25/outbox.cif.g09.slc.cpg/sg2_94_cif.got.tgz:187971.got - 2010.06.27 13:26:56.
