data_PCOD8014235
_publ_section_title
;
Structure prediction by ZEFSAII (Michael W. Deem and Ramdas Pophale) SiO2 
 PCOD8014235
Probable space group: P -1
;
_chemical_formula_sum "Si O2"
_cell_formula_units_Z 16
_cell_length_a 13.061389
_cell_length_b 5.173823
_cell_length_c 12.950131
_cell_angle_alpha 70.184260
_cell_angle_beta 62.783382
_cell_angle_gamma 69.816791
_cell_volume 713.034926
_symmetry_space_group_name_H-M "P -1"
_symmetry_group_IT_number 2
_symmetry_cell_setting 'triclinic'
loop_
_space_group_symop_operation_xyz
x,y,z
-x,-y,-z
loop_
_atom_site_type_symbol
_atom_site_label
_atom_site_fract_x
_atom_site_fract_y
_atom_site_fract_z
Si Si1 0.133480 0.902515 0.483907
Si Si2 0.622199 0.723699 0.416244
Si Si3 0.483448 0.302701 0.327078
Si Si4 0.909114 0.297227 0.817709
Si Si5 0.888482 0.682755 0.967965
Si Si6 0.286029 0.544231 0.795785
Si Si7 0.837786 0.961957 0.324683
Si Si8 0.235783 0.440171 0.340359
O O1 0.140863 0.858673 0.609379
O O2 0.189033 0.604349 0.445195
O O3 0.198727 0.145258 0.387149
O O4 0.000000 0.000000 0.500000
O O5 0.557609 0.573774 0.554868
O O6 0.688631 0.512345 0.329084
O O7 0.527594 0.967410 0.368026
O O8 0.722810 0.839139 0.416325
O O9 0.589944 0.429298 0.214217
O O10 0.378410 0.376700 0.282441
O O11 0.877739 0.551125 0.878873
O O12 0.815762 0.363567 0.758855
O O13 0.897688 0.003938 0.913383
O O14 0.042947 0.276423 0.719315
O O15 0.768260 0.682411 0.087340
O O16 0.000000 0.500000 0.000000
O O17 0.188367 0.841334 0.793256
#
# Coordination Sequence:
#
# PCOD8014235 Si02
#       8
#     2   2   2   2   2   2   2   2
#     4  12  25  41  67 103 142 184 219 265 344 422
#     4  10  21  41  66 101 136 174 230 273 342 406
#     4  10  23  40  66 102 133 185 218 279 338 414
#     4  12  27  44  69 101 136 178 231 276 346 400
#     4  12  26  47  71 100 131 178 234 293 337 389
#     4  11  24  40  71  94 136 176 232 290 339 392
#     4  11  23  38  67 104 135 175 219 283 344 413
#     4  12  26  45  67  99 149 181 219 279 337 415
#
# _framework density 22.439294
#
# number of rings (size 3 to 8) (size 9 to 14) (size 15 to 20)
#    0.000    0.750    3.750    3.375    5.250    0.000 
#    0.000    1.250    0.000    0.000    0.000    0.000 
#    0.000    0.000    0.000    0.000    0.000    0.000 
#
# Total GULP energy -198409.905535 kJ/mol
# GULP energy per Si atom -12400.619096 kJ/mol
# Density = 2.238822 g / cm^3
# Si number density = 22.439294 Si / 1000 Ang^3
#
#
#
# Elastic Constant Matrix: (Units=GPa)
#
#
# Indices 1 2 3 4 5 6 
#
# 1 156.4336 20.9300 26.4191 -1.0832 -0.2146 -35.2849
# 2 20.9300 49.6469 1.1652 0.8781 5.3370 -7.5718
# 3 26.4191 1.1652 67.9333 1.9279 -12.3268 -9.7908
# 4 -1.0832 0.8781 1.9279 30.4150 3.1337 8.9648
# 5 -0.2146 5.3370 -12.3268 3.1337 33.3914 -0.9432
# 6 -35.2849 -7.5718 -9.7908 8.9648 -0.9432 36.3012
#
#
#
# Elastic Compliance Matrix: (Units=1/GPa)
#
#
# Indices 1 2 3 4 5 6 
#
# 1 0.008879 -0.002446 -0.002204 -0.001828 0.000031 0.007978
# 2 -0.002446 0.021909 0.000388 -0.001152 -0.003196 0.002499
# 3 -0.002204 0.000388 0.017379 -0.002921 0.006713 0.003522
# 4 -0.001828 -0.001152 -0.002921 0.037081 -0.004727 -0.012085
# 5 0.000031 -0.003196 0.006713 -0.004727 0.033471 0.003212
# 6 0.007978 0.002499 0.003522 -0.012085 0.003212 0.039841
#
#
# Mechanical properties :
#
#
# Convention : Reuss Voigt Hill
#
# Bulk Modulus (GPa) = 25.22364 41.22691 33.22528
# Shear Modulus (GPa) = 27.73190 35.05483 31.39337
#
# Velocity S-wave (km/s) = 3.51930 3.95676 3.74443
# Velocity P-wave (km/s) = 5.27060 6.26795 5.79078
#
# Compressibility (1/GPa) = 0.03964534
#
# Stress axis : x y z
#
# Youngs Moduli (GPa) = 112.62850 45.64302 57.53971
#
# Poissons Ratio (x) = 0.11163 0.12679
# Poissons Ratio (y) = 0.27545 -0.02234
# Poissons Ratio (z) = 0.24818 -0.01772
#
# Static dielectric constant tensor:
#      x y z
#    x 12.424610 15.062160 -5.657380 
#    y 15.062160 32.383440 -10.324970 
#    z -5.657380 -10.324970 7.715030 
# 
# 
# High freq. dielectric constant tensor:
#      x y z
#    x 1.903580 -0.002410 -0.004620 
#    y -0.002410 1.885070 -0.000480 
#    z -0.004620 -0.000480 1.857290 
# 
# From -- ./inp_files/81136.got.cif
#   From: 2010.06.25/outbox.cif.g09.slc.cpg/sg2_41_cif.got.tgz:81136.got - 2010.06.27 13:26:56.
