data_PCOD8014102
_publ_section_title
;
Structure prediction by ZEFSAII (Michael W. Deem and Ramdas Pophale) SiO2 
 PCOD8014102
Probable space group: P -1
;
_chemical_formula_sum "Si O2"
_cell_formula_units_Z 16
_cell_length_a 11.293923
_cell_length_b 15.004101
_cell_length_c 20.924766
_cell_angle_alpha 30.451939
_cell_angle_beta 27.974576
_cell_angle_gamma 28.881231
_cell_volume 739.159953
_symmetry_space_group_name_H-M "P -1"
_symmetry_group_IT_number 2
_symmetry_cell_setting 'triclinic'
loop_
_space_group_symop_operation_xyz
x,y,z
-x,-y,-z
loop_
_atom_site_type_symbol
_atom_site_label
_atom_site_fract_x
_atom_site_fract_y
_atom_site_fract_z
Si Si1 0.449550 0.436672 0.805216
Si Si2 0.355844 0.410216 0.271749
Si Si3 0.926345 0.029482 0.609084
Si Si4 0.748540 0.400060 0.994741
Si Si5 0.447472 0.768058 0.448531
Si Si6 0.036362 0.195094 0.865041
Si Si7 0.154781 0.330130 0.118302
Si Si8 0.152840 0.680696 0.423484
O O1 0.535276 0.582493 0.713500
O O2 0.730332 0.295845 0.715787
O O3 0.175766 0.557851 0.815947
O O4 0.375378 0.309982 0.969684
O O5 0.192641 0.630141 0.180126
O O6 0.162407 0.302055 0.437863
O O7 0.642424 0.287366 0.166649
O O8 0.784924 0.198110 0.517137
O O9 0.872093 0.134998 0.637748
O O10 0.765176 0.895972 0.763910
O O11 0.269267 0.890995 0.519755
O O12 0.816911 0.558336 0.901405
O O13 0.020265 0.254056 0.911876
O O14 0.500000 0.500000 0.000000
O O15 0.650153 0.860511 0.274936
O O16 0.622900 0.532445 0.522582
O O17 0.000000 0.000000 0.000000
#
# Coordination Sequence:
#
# PCOD8014102 Si02
#       8
#     2   2   2   2   2   2   2   2
#     4  10  21  41  65  86 129 169 208 260 312 368
#     4   9  21  40  62  91 123 169 206 258 322 362
#     4  11  24  39  66  92 128 166 209 262 311 384
#     4   9  20  37  62  89 123 160 202 257 319 361
#     4  10  24  39  59  94 134 157 205 264 322 370
#     4  10  22  36  63  92 125 161 207 265 310 382
#     4  10  22  41  64  92 125 167 210 261 311 370
#     4  11  22  41  65  91 126 170 212 256 316 372
#
# _framework density 21.646194000000001
#
# number of rings (size 3 to 8) (size 9 to 14) (size 15 to 20)
#    0.000    2.000    1.250    0.750    8.750    5.500 
#    0.000    4.375    0.000    0.000    0.000    0.000 
#    0.000    0.000    0.000    0.000    0.000    0.000 
#
# Total GULP energy -198289.672856 kJ/mol
# GULP energy per Si atom -12393.104553 kJ/mol
# Density = 2.159693 g / cm^3
# Si number density = 21.646194 Si / 1000 Ang^3
#
#
#
# Elastic Constant Matrix: (Units=GPa)
#
#
# Indices 1 2 3 4 5 6 
#
# 1 134.0647 43.1317 38.8060 5.0573 -10.0946 32.6551
# 2 43.1317 81.4889 57.3279 8.9164 -2.1433 32.4909
# 3 38.8060 57.3279 138.4406 21.7789 -12.1011 30.1897
# 4 5.0573 8.9164 21.7789 30.3736 8.2948 4.7566
# 5 -10.0946 -2.1433 -12.1011 8.2948 29.3243 5.5465
# 6 32.6551 32.4909 30.1897 4.7566 5.5465 41.6351
#
#
#
# Elastic Compliance Matrix: (Units=1/GPa)
#
#
# Indices 1 2 3 4 5 6 
#
# 1 0.010330 -0.002755 0.000439 -0.001603 0.005273 -0.006789
# 2 -0.002755 0.022374 -0.006065 -0.000128 0.000286 -0.010925
# 3 0.000439 -0.006065 0.012892 -0.009079 0.008553 -0.005061
# 4 -0.001603 -0.000128 -0.009079 0.043737 -0.017682 0.005299
# 5 0.005273 0.000286 0.008553 -0.017682 0.047275 -0.014839
# 6 -0.006789 -0.010925 -0.005061 0.005299 -0.014839 0.042910
#
#
# Mechanical properties :
#
#
# Convention : Reuss Voigt Hill
#
# Bulk Modulus (GPa) = 34.68298 70.28058 52.48178
# Shear Modulus (GPa) = 24.28462 34.58184 29.43323
#
# Velocity S-wave (km/s) = 3.35309 4.00133 3.69147
# Velocity P-wave (km/s) = 5.57211 7.34070 6.51668
#
# Compressibility (1/GPa) = 0.02883258
#
# Stress axis : x y z
#
# Youngs Moduli (GPa) = 96.80843 44.69391 77.57041
#
# Poissons Ratio (x) = 0.12314 -0.03406
# Poissons Ratio (y) = 0.26673 0.47049
# Poissons Ratio (z) = -0.04251 0.27108
#
# Static dielectric constant tensor:
#      x y z
#    x 3.962700 0.125470 0.079510 
#    y 0.125470 4.015600 0.539830 
#    z 0.079510 0.539830 4.215320 
# 
# 
# High freq. dielectric constant tensor:
#      x y z
#    x 1.850770 0.006290 -0.000400 
#    y 0.006290 1.828080 0.029410 
#    z -0.000400 0.029410 1.863540 
# 
# From -- ./inp_files/471115.got.cif
#   From: 2010.06.25/outbox.cif.g09.slc.cpg/sg2_236_cif.got.tgz:471115.got - 2010.06.27 13:26:56.
