data_PCOD8014330
_publ_section_title
;
Structure prediction by ZEFSAII (Michael W. Deem and Ramdas Pophale) SiO2 
 PCOD8014330
Probable space group: P -1
;
_chemical_formula_sum "Si O2"
_cell_formula_units_Z 16
_cell_length_a 9.646319
_cell_length_b 12.412579
_cell_length_c 18.300754
_cell_angle_alpha 144.435387
_cell_angle_beta 45.050594
_cell_angle_gamma 110.474816
_cell_volume 755.459182
_symmetry_space_group_name_H-M "P -1"
_symmetry_group_IT_number 2
_symmetry_cell_setting 'triclinic'
loop_
_space_group_symop_operation_xyz
x,y,z
-x,-y,-z
loop_
_atom_site_type_symbol
_atom_site_label
_atom_site_fract_x
_atom_site_fract_y
_atom_site_fract_z
Si Si1 0.050644 0.410561 0.011637
Si Si2 0.920684 0.076308 0.896976
Si Si3 0.577924 0.221662 0.236558
Si Si4 0.675719 0.546451 0.864157
Si Si5 0.151210 0.285108 0.615459
Si Si6 0.459592 0.780377 0.224043
Si Si7 0.607284 0.286273 0.422737
Si Si8 0.430730 0.945004 0.072208
O O1 0.972675 0.617842 0.207345
O O2 0.897599 0.308260 0.027410
O O3 0.000000 0.500000 0.000000
O O4 0.325915 0.228030 0.819981
O O5 0.814686 0.031746 0.839596
O O6 0.787146 0.088154 0.027258
O O7 0.192663 0.881966 0.689647
O O8 0.689680 0.183884 0.254354
O O9 0.413316 0.483693 0.429754
O O10 0.416338 0.119381 0.233324
O O11 0.609005 0.364630 0.783304
O O12 0.955133 0.421541 0.701754
O O13 0.527292 0.705166 0.073993
O O14 0.609819 0.694598 0.897103
O O15 0.357982 0.323688 0.550007
O O16 0.237623 0.030107 0.442122
O O17 0.500000 0.000000 0.000000
#
# Coordination Sequence:
#
# PCOD8014330 Si02
#       8
#     2   2   2   2   2   2   2   2
#     4  11  23  39  64  91 131 170 210 265 328 387
#     4  11  22  42  62  91 133 169 212 261 322 381
#     4  10  23  40  64  94 127 170 216 264 319 379
#     4  10  22  41  66  93 132 169 217 269 324 387
#     4  11  22  39  66  97 128 168 220 271 321 389
#     4  10  21  41  66  97 125 169 219 269 324 383
#     4  11  22  39  67  97 126 164 218 266 318 386
#     4  10  23  41  63  90 131 176 212 262 328 383
#
# _framework density 21.179169999999999
#
# number of rings (size 3 to 8) (size 9 to 14) (size 15 to 20)
#    0.000    1.500    2.500    2.250    1.750    5.000 
#    0.000    5.000    0.000    0.000    0.000    0.000 
#    0.000    0.000    0.000    0.000    0.000    0.000 
#
# Total GULP energy -198376.276763 kJ/mol
# GULP energy per Si atom -12398.517298 kJ/mol
# Density = 2.113097 g / cm^3
# Si number density = 21.179170 Si / 1000 Ang^3
#
#
#
# Elastic Constant Matrix: (Units=GPa)
#
#
# Indices 1 2 3 4 5 6 
#
# 1 130.9612 50.1368 59.9869 19.0149 -19.9320 19.0696
# 2 50.1368 107.1955 42.6898 25.9144 -12.9401 -1.6854
# 3 59.9869 42.6898 109.5743 22.0648 -13.2811 4.9178
# 4 19.0149 25.9144 22.0648 34.9538 5.5807 -0.0351
# 5 -19.9320 -12.9401 -13.2811 5.5807 32.6565 8.6646
# 6 19.0696 -1.6854 4.9178 -0.0351 8.6646 36.3683
#
#
#
# Elastic Compliance Matrix: (Units=1/GPa)
#
#
# Indices 1 2 3 4 5 6 
#
# 1 0.013897 -0.002921 -0.004176 -0.004157 0.008708 -0.008936
# 2 -0.002921 0.013891 -0.001721 -0.008270 0.004054 0.001434
# 3 -0.004176 -0.001721 0.013656 -0.005621 0.003432 -0.000560
# 4 -0.004157 -0.008270 -0.005621 0.043317 -0.017285 0.006717
# 5 0.008708 0.004054 0.003432 -0.017285 0.046096 -0.015841
# 6 -0.008936 0.001434 -0.000560 0.006717 -0.015841 0.036105
#
#
# Mechanical properties :
#
#
# Convention : Reuss Voigt Hill
#
# Bulk Modulus (GPa) = 42.00174 72.59532 57.29853
# Shear Modulus (GPa) = 25.96943 33.79025 29.87984
#
# Velocity S-wave (km/s) = 3.50548 3.99864 3.76015
# Velocity P-wave (km/s) = 6.02156 7.46123 6.77972
#
# Compressibility (1/GPa) = 0.02380854
#
# Stress axis : x y z
#
# Youngs Moduli (GPa) = 71.95639 71.98741 73.22775
#
# Poissons Ratio (x) = 0.21028 0.30583
# Poissons Ratio (y) = 0.21019 0.12599
# Poissons Ratio (z) = 0.30052 0.12386
#
# Static dielectric constant tensor:
#      x y z
#    x 4.242100 0.256420 0.158560 
#    y 0.256420 3.821910 0.253110 
#    z 0.158560 0.253110 3.690940 
# 
# 
# High freq. dielectric constant tensor:
#      x y z
#    x 1.840980 0.013620 -0.003600 
#    y 0.013620 1.829210 0.015230 
#    z -0.003600 0.015230 1.817720 
# 
# From -- ./inp_files/111607.got.cif
#   From: 2010.06.25/outbox.cif.g09.slc.cpg/sg2_56_cif.got.tgz:111607.got - 2010.06.27 13:26:56.
