data_PCOD8014310
_publ_section_title
;
Structure prediction by ZEFSAII (Michael W. Deem and Ramdas Pophale) SiO2 
 PCOD8014310
Probable space group: P -1
;
_chemical_formula_sum "Si O2"
_cell_formula_units_Z 16
_cell_length_a 21.106601
_cell_length_b 9.199200
_cell_length_c 11.674527
_cell_angle_alpha 48.827981
_cell_angle_beta 140.498211
_cell_angle_gamma 149.975751
_cell_volume 721.139401
_symmetry_space_group_name_H-M "P -1"
_symmetry_group_IT_number 2
_symmetry_cell_setting 'triclinic'
loop_
_space_group_symop_operation_xyz
x,y,z
-x,-y,-z
loop_
_atom_site_type_symbol
_atom_site_label
_atom_site_fract_x
_atom_site_fract_y
_atom_site_fract_z
Si Si1 0.217138 0.518414 0.959778
Si Si2 0.174514 0.759278 0.229344
Si Si3 0.295013 0.042905 0.737208
Si Si4 0.117776 0.424655 0.117880
Si Si5 0.125914 0.332534 0.544537
Si Si6 0.327556 0.297547 0.871290
Si Si7 0.632612 0.637735 0.852032
Si Si8 0.039431 0.893880 0.345132
O O1 0.042217 0.258622 0.811508
O O2 0.301588 0.821645 0.862029
O O3 0.220622 0.540803 0.089939
O O4 0.307015 0.458978 0.080777
O O5 0.200466 0.694181 0.177020
O O6 0.135125 0.544218 0.379994
O O7 0.324435 0.101786 0.290683
O O8 0.043104 0.726045 0.062327
O O9 0.243367 0.036885 0.796891
O O10 0.455114 0.364864 0.761201
O O11 0.176251 0.943874 0.528771
O O12 0.101180 0.200610 0.279982
O O13 0.287415 0.459801 0.695947
O O14 0.089142 0.333245 0.623127
O O15 0.000000 0.000000 0.500000
O O16 0.500000 0.500000 0.000000
O O17 0.278808 0.205982 0.983519
#
# Coordination Sequence:
#
# PCOD8014310 Si02
#       8
#     2   2   2   2   2   2   2   2
#     4  12  24  42  67  95 130 176 218 260 323 387
#     4  11  23  40  70  98 129 167 216 272 323 376
#     4  11  24  42  66  95 132 173 217 268 318 380
#     4  11  23  41  68  99 129 167 217 271 323 377
#     4  12  21  40  71  99 126 162 218 275 319 370
#     4  10  21  41  66  95 128 169 212 262 321 382
#     4  11  24  44  64  94 135 173 215 261 326 392
#     4  12  23  42  68  98 131 165 221 270 317 384
#
# _framework density 22.187111000000002
#
# number of rings (size 3 to 8) (size 9 to 14) (size 15 to 20)
#    0.000    0.750    5.000    2.625    1.750    0.000 
#    0.000    8.750    0.000    0.000    0.000    0.000 
#    0.000    0.000    0.000    0.000    0.000    0.000 
#
# Total GULP energy -198374.695372 kJ/mol
# GULP energy per Si atom -12398.418461 kJ/mol
# Density = 2.213661 g / cm^3
# Si number density = 22.187111 Si / 1000 Ang^3
#
#
#
# Elastic Constant Matrix: (Units=GPa)
#
#
# Indices 1 2 3 4 5 6 
#
# 1 116.4434 38.6900 40.3652 -15.4547 5.7486 1.2355
# 2 38.6900 134.9157 38.6446 -27.9726 17.7354 0.9946
# 3 40.3652 38.6446 96.7371 -16.6641 13.0150 9.8422
# 4 -15.4547 -27.9726 -16.6641 38.3177 -3.1224 3.3112
# 5 5.7486 17.7354 13.0150 -3.1224 24.1671 0.7448
# 6 1.2355 0.9946 9.8422 3.3112 0.7448 25.2509
#
#
#
# Elastic Compliance Matrix: (Units=1/GPa)
#
#
# Indices 1 2 3 4 5 6 
#
# 1 0.010591 -0.001841 -0.003659 0.001347 0.000952 0.000776
# 2 -0.001841 0.010298 -0.001602 0.005652 -0.005518 -0.000269
# 3 -0.003659 -0.001602 0.014402 0.003699 -0.005056 -0.005708
# 4 0.001347 0.005652 0.003699 0.032724 -0.002049 -0.005961
# 5 0.000952 -0.005518 -0.005056 -0.002049 0.047629 0.001005
# 6 0.000776 -0.000269 -0.005708 -0.005961 0.001005 0.042552
#
#
# Mechanical properties :
#
#
# Convention : Reuss Voigt Hill
#
# Bulk Modulus (GPa) = 47.42119 64.83286 56.12703
# Shear Modulus (GPa) = 27.86592 32.90688 30.38640
#
# Velocity S-wave (km/s) = 3.54778 3.85535 3.70476
# Velocity P-wave (km/s) = 6.18078 7.00733 6.60700
#
# Compressibility (1/GPa) = 0.02108762
#
# Stress axis : x y z
#
# Youngs Moduli (GPa) = 94.41540 97.10483 69.43294
#
# Poissons Ratio (x) = 0.17875 0.25406
# Poissons Ratio (y) = 0.17380 0.11125
# Poissons Ratio (z) = 0.34547 0.15559
#
# Static dielectric constant tensor:
#      x y z
#    x 4.198760 -0.167580 -0.136030 
#    y -0.167580 3.896730 -0.115570 
#    z -0.136030 -0.115570 4.044440 
# 
# 
# High freq. dielectric constant tensor:
#      x y z
#    x 1.882290 -0.012080 0.001780 
#    y -0.012080 1.864610 -0.014590 
#    z 0.001780 -0.014590 1.865640 
# 
# From -- ./inp_files/184281.got.cif
#   From: 2010.06.25/outbox.cif.g09.slc.cpg/sg2_93_cif.got.tgz:184281.got - 2010.06.27 13:26:56.
