data_PCOD8014747
_publ_section_title
;
Structure prediction by ZEFSAII (Michael W. Deem and Ramdas Pophale) SiO2 
 PCOD8014747
Probable space group: P -1
;
_chemical_formula_sum "Si O2"
_cell_formula_units_Z 16
_cell_length_a 15.653445
_cell_length_b 15.265231
_cell_length_c 9.835450
_cell_angle_alpha 143.234123
_cell_angle_beta 33.891565
_cell_angle_gamma 143.668577
_cell_volume 711.391779
_symmetry_space_group_name_H-M "P -1"
_symmetry_group_IT_number 2
_symmetry_cell_setting 'triclinic'
loop_
_space_group_symop_operation_xyz
x,y,z
-x,-y,-z
loop_
_atom_site_type_symbol
_atom_site_label
_atom_site_fract_x
_atom_site_fract_y
_atom_site_fract_z
Si Si1 0.772989 0.229626 0.642156
Si Si2 0.530347 0.214973 0.438668
Si Si3 0.336160 0.462887 0.487196
Si Si4 0.601941 0.933802 0.014217
Si Si5 0.770323 0.860593 0.456496
Si Si6 0.696192 0.504626 0.122979
Si Si7 0.307703 0.069789 0.798588
Si Si8 0.950804 0.828933 0.635093
O O1 0.597447 0.159425 0.871244
O O2 0.927467 0.239452 0.542184
O O3 0.754967 0.116822 0.395450
O O4 0.798487 0.412886 0.800175
O O5 0.637162 0.401217 0.493208
O O6 0.364297 0.128997 0.458097
O O7 0.463405 0.190467 0.652106
O O8 0.651353 0.121601 0.145088
O O9 0.503140 0.427989 0.227541
O O10 0.307512 0.527158 0.750049
O O11 0.173468 0.304198 0.467669
O O12 0.634099 0.912629 0.102097
O O13 0.706800 0.862292 0.696095
O O14 0.790267 0.694590 0.201680
O O15 0.948749 0.010162 0.385458
O O16 0.155436 0.125501 0.053695
#
# Coordination Sequence:
#
# PCOD8014747 Si02
#       8
#     2   2   2   2   2   2   2   2
#     4  11  22  41  70  93 131 175 219 272 325 385
#     4  10  21  41  71  96 129 176 228 260 320 407
#     4  10  23  42  67  99 135 171 219 277 329 385
#     4  11  22  41  73  99 128 175 231 264 321 399
#     4  11  23  42  72 100 131 172 220 273 331 388
#     4  10  22  43  67  97 134 175 222 267 324 396
#     4  11  24  43  68  95 136 177 221 267 330 393
#     4  12  25  42  68 100 136 171 215 280 336 379
#
# _framework density 22.491123000000002
#
# number of rings (size 3 to 8) (size 9 to 14) (size 15 to 20)
#    0.000    1.250    2.500    6.000    1.750    3.000 
#    2.250    1.875    0.000    0.000    0.000    0.000 
#    0.000    0.000    0.000    0.000    0.000    0.000 
#
# Total GULP energy -198397.035312 kJ/mol
# GULP energy per Si atom -12399.814707 kJ/mol
# Density = 2.243993 g / cm^3
# Si number density = 22.491123 Si / 1000 Ang^3
#
#
#
# Elastic Constant Matrix: (Units=GPa)
#
#
# Indices 1 2 3 4 5 6 
#
# 1 84.2526 46.8009 22.3362 14.5846 -9.2940 -0.0614
# 2 46.8009 131.9530 25.5919 20.2706 -4.5085 12.6250
# 3 22.3362 25.5919 85.8970 26.8813 -15.1633 3.9445
# 4 14.5846 20.2706 26.8813 29.1092 -5.8353 -2.1777
# 5 -9.2940 -4.5085 -15.1633 -5.8353 36.8928 0.1166
# 6 -0.0614 12.6250 3.9445 -2.1777 0.1166 35.4432
#
#
#
# Elastic Compliance Matrix: (Units=1/GPa)
#
#
# Indices 1 2 3 4 5 6 
#
# 1 0.015729 -0.005013 -0.001523 -0.002377 0.002342 0.001829
# 2 -0.005013 0.010540 -0.000200 -0.005118 -0.000854 -0.004052
# 3 -0.001523 -0.000200 0.017615 -0.014668 0.004521 -0.002808
# 4 -0.002377 -0.005118 -0.014668 0.053392 0.001171 0.006728
# 5 0.002342 -0.000854 0.004521 0.001171 0.029635 -0.000221
# 6 0.001829 -0.004052 -0.002808 0.006728 -0.000221 0.030387
#
#
# Mechanical properties :
#
#
# Convention : Reuss Voigt Hill
#
# Bulk Modulus (GPa) = 32.88210 54.61785 43.74998
# Shear Modulus (GPa) = 27.63858 34.11393 30.87626
#
# Velocity S-wave (km/s) = 3.50932 3.89880 3.70918
# Velocity P-wave (km/s) = 5.57425 6.67866 6.15129
#
# Compressibility (1/GPa) = 0.03041169
#
# Stress axis : x y z
#
# Youngs Moduli (GPa) = 63.57825 94.87697 56.77055
#
# Poissons Ratio (x) = 0.47562 0.08647
# Poissons Ratio (y) = 0.31872 0.01133
# Poissons Ratio (z) = 0.09684 0.01894
#
# Static dielectric constant tensor:
#      x y z
#    x 3.998800 -0.105410 -0.273690 
#    y -0.105410 4.025480 0.220560 
#    z -0.273690 0.220560 4.326890 
# 
# 
# High freq. dielectric constant tensor:
#      x y z
#    x 1.887020 -0.006920 -0.009020 
#    y -0.006920 1.877580 0.024450 
#    z -0.009020 0.024450 1.886480 
# 
# From -- ./inp_files/316041.got.cif
#   From: 2010.06.25/outbox.cif.g09.slc.cpg/sg2_159_cif.got.tgz:316041.got - 2010.06.27 13:26:56.
