data_PCOD8014275
_publ_section_title
;
Structure prediction by ZEFSAII (Michael W. Deem and Ramdas Pophale) SiO2 
 PCOD8014275
Probable space group: P -1
;
_chemical_formula_sum "Si O2"
_cell_formula_units_Z 16
_cell_length_a 18.993897
_cell_length_b 12.690327
_cell_length_c 8.917995
_cell_angle_alpha 49.936527
_cell_angle_beta 60.779891
_cell_angle_gamma 28.247813
_cell_volume 759.966720
_symmetry_space_group_name_H-M "P -1"
_symmetry_group_IT_number 2
_symmetry_cell_setting 'triclinic'
loop_
_space_group_symop_operation_xyz
x,y,z
-x,-y,-z
loop_
_atom_site_type_symbol
_atom_site_label
_atom_site_fract_x
_atom_site_fract_y
_atom_site_fract_z
Si Si1 0.804398 0.598144 0.441156
Si Si2 0.288534 0.825660 0.077147
Si Si3 0.024421 0.429724 0.867520
Si Si4 0.488428 0.118922 0.265515
Si Si5 0.816342 0.304321 0.548118
Si Si6 0.621885 0.432074 0.078855
Si Si7 0.154999 0.765146 0.750248
Si Si8 0.798573 0.569453 0.824875
O O1 0.950181 0.461469 0.342853
O O2 0.749727 0.529436 0.500598
O O3 0.833159 0.543536 0.637747
O O4 0.664480 0.897811 0.250766
O O5 0.244036 0.751490 0.276183
O O6 0.459028 0.618694 0.143400
O O7 0.301151 0.783899 0.922058
O O8 0.160752 0.124534 0.973062
O O9 0.862507 0.606513 0.815181
O O10 0.000000 0.500000 0.000000
O O11 0.384662 0.189671 0.182814
O O12 0.500000 0.000000 0.500000
O O13 0.402345 0.386303 0.146295
O O14 0.768880 0.388820 0.345785
O O15 0.996647 0.066302 0.600630
O O16 0.736164 0.282839 0.236324
O O17 0.117416 0.688618 0.964727
#
# Coordination Sequence:
#
# PCOD8014275 Si02
#       8
#     2   2   2   2   2   2   2   2
#     4  11  23  40  67  96 127 167 213 261 317 372
#     4  11  23  42  68  91 127 169 212 265 310 372
#     4  12  25  43  61  96 135 167 207 260 324 377
#     4   9  18  38  63  97 125 153 208 264 312 364
#     4  11  23  40  64  94 129 170 209 259 321 380
#     4  10  22  42  67  94 123 166 218 262 310 372
#     4  10  22  40  64  94 128 165 216 261 314 379
#     4  10  21  41  66  92 123 166 217 257 313 375
#
# _framework density 21.053553000000001
#
# number of rings (size 3 to 8) (size 9 to 14) (size 15 to 20)
#    0.000    1.500    2.500    3.375    3.500    1.500 
#    2.250    1.875    0.000    0.000    0.000    0.000 
#    0.000    0.000    0.000    0.000    0.000    0.000 
#
# Total GULP energy -198244.506179 kJ/mol
# GULP energy per Si atom -12390.281636 kJ/mol
# Density = 2.100563 g / cm^3
# Si number density = 21.053553 Si / 1000 Ang^3
#
#
#
# Elastic Constant Matrix: (Units=GPa)
#
#
# Indices 1 2 3 4 5 6 
#
# 1 155.5338 46.5875 51.9354 11.9631 19.0779 -11.7760
# 2 46.5875 67.8933 29.4219 0.5610 15.5949 6.9031
# 3 51.9354 29.4219 92.4051 9.3750 11.6658 2.2245
# 4 11.9631 0.5610 9.3750 27.4094 0.9947 -0.7296
# 5 19.0779 15.5949 11.6658 0.9947 43.6960 2.4482
# 6 -11.7760 6.9031 2.2245 -0.7296 2.4482 36.4612
#
#
#
# Elastic Compliance Matrix: (Units=1/GPa)
#
#
# Indices 1 2 3 4 5 6 
#
# 1 0.009978 -0.005376 -0.003501 -0.002866 -0.001691 0.004510
# 2 -0.005376 0.021369 -0.003448 0.003100 -0.004136 -0.005232
# 3 -0.003501 -0.003448 0.014374 -0.003320 -0.000927 -0.001359
# 4 -0.002866 0.003100 -0.003320 0.038786 0.000179 -0.000546
# 5 -0.001691 -0.004136 -0.000927 0.000179 0.025422 -0.001410
# 6 0.004510 -0.005232 -0.001359 -0.000546 -0.001410 0.030040
#
#
# Mechanical properties :
#
#
# Convention : Reuss Voigt Hill
#
# Bulk Modulus (GPa) = 47.46082 63.52464 55.49273
# Shear Modulus (GPa) = 29.13011 34.03917 31.58464
#
# Velocity S-wave (km/s) = 3.72374 4.02529 3.87745
# Velocity P-wave (km/s) = 6.40938 7.20017 6.81625
#
# Compressibility (1/GPa) = 0.02107001
#
# Stress axis : x y z
#
# Youngs Moduli (GPa) = 100.21930 46.79679 69.57012
#
# Poissons Ratio (x) = 0.25160 0.24354
# Poissons Ratio (y) = 0.53882 0.23991
# Poissons Ratio (z) = 0.35083 0.16138
#
# Static dielectric constant tensor:
#      x y z
#    x 4.185810 -0.472580 0.112570 
#    y -0.472580 4.424950 -0.254620 
#    z 0.112570 -0.254620 3.769560 
# 
# 
# High freq. dielectric constant tensor:
#      x y z
#    x 1.843410 -0.018260 -0.005400 
#    y -0.018260 1.810910 -0.002360 
#    z -0.005400 -0.002360 1.820690 
# 
# From -- ./inp_files/331706.got.cif
#   From: 2010.06.25/outbox.cif.g09.slc.cpg/sg2_166_cif.got.tgz:331706.got - 2010.06.27 13:26:56.
