data_PCOD8014449
_publ_section_title
;
Structure prediction by ZEFSAII (Michael W. Deem and Ramdas Pophale) SiO2 
 PCOD8014449
Probable space group: P -1
;
_chemical_formula_sum "Si O2"
_cell_formula_units_Z 10
_cell_length_a 8.575980
_cell_length_b 8.215097
_cell_length_c 11.963559
_cell_angle_alpha 137.211689
_cell_angle_beta 53.636311
_cell_angle_gamma 129.744727
_cell_volume 427.709935
_symmetry_space_group_name_H-M "P -1"
_symmetry_group_IT_number 2
_symmetry_cell_setting 'triclinic'
loop_
_space_group_symop_operation_xyz
x,y,z
-x,-y,-z
loop_
_atom_site_type_symbol
_atom_site_label
_atom_site_fract_x
_atom_site_fract_y
_atom_site_fract_z
Si Si1 0.772162 0.325827 0.471196
Si Si2 0.205182 0.415527 0.634109
Si Si3 0.722101 0.079708 0.710564
Si Si4 0.445392 0.242909 0.741978
Si Si5 0.244648 0.605608 0.950819
O O1 0.743074 0.371398 0.376667
O O2 0.604181 0.388488 0.648786
O O3 0.000000 0.500000 0.500000
O O4 0.732287 0.025369 0.360190
O O5 0.313616 0.582606 0.782327
O O6 0.958018 0.264521 0.673665
O O7 0.316105 0.214006 0.453989
O O8 0.565085 0.180410 0.762545
O O9 0.680800 0.111794 0.877882
O O10 0.323408 0.431884 0.914687
O O11 0.000000 0.500000 0.000000
#
# Coordination Sequence:
#
# PCOD8014449 Si02
#       5
#     2   2   2   2   2
#     4  11  23  40  70  99 131 171 219 270 325 389
#     4  10  21  41  67  96 132 174 212 267 332 380
#     4  10  21  41  69  96 134 170 215 271 321 388
#     4  11  23  41  67  98 129 176 219 263 328 388
#     4  10  23  41  67  97 135 170 218 274 320 382
#
# _framework density 23.380331000000002
#
# number of rings (size 3 to 8) (size 9 to 14) (size 15 to 20)
#    0.000    1.600    2.000    3.000    5.600    3.200 
#    0.000   10.000    0.000    0.000    0.000    0.000 
#    0.000    0.000    0.000    0.000    0.000    0.000 
#
# Total GULP energy -123913.680528 kJ/mol
# GULP energy per Si atom -12391.368053 kJ/mol
# Density = 2.332712 g / cm^3
# Si number density = 23.380331 Si / 1000 Ang^3
#
#
#
# Elastic Constant Matrix: (Units=GPa)
#
#
# Indices 1 2 3 4 5 6 
#
# 1 129.2508 29.1180 66.7380 0.4072 -1.7401 -8.4601
# 2 29.1180 86.2355 40.8025 -3.2499 8.4740 0.1869
# 3 66.7380 40.8025 179.3777 3.3779 23.7530 -5.1218
# 4 0.4072 -3.2499 3.3779 18.9722 -6.8802 8.4527
# 5 -1.7401 8.4740 23.7530 -6.8802 47.1355 0.8898
# 6 -8.4601 0.1869 -5.1218 8.4527 0.8898 33.0516
#
#
#
# Elastic Compliance Matrix: (Units=1/GPa)
#
#
# Indices 1 2 3 4 5 6 
#
# 1 0.010223 -0.001980 -0.003638 0.000141 0.002550 0.001960
# 2 -0.001980 0.013588 -0.002358 0.003281 -0.000815 -0.001766
# 3 -0.003638 -0.002358 0.008174 -0.004068 -0.004452 0.001509
# 4 0.000141 0.003281 -0.004068 0.066083 0.011448 -0.017821
# 5 0.002550 -0.000815 -0.004452 0.011448 0.025439 -0.003645
# 6 0.001960 -0.001766 0.001509 -0.017821 -0.003645 0.035657
#
#
# Mechanical properties :
#
#
# Convention : Reuss Voigt Hill
#
# Bulk Modulus (GPa) = 62.37169 74.24233 68.30701
# Shear Modulus (GPa) = 27.70664 37.04556 32.37610
#
# Velocity S-wave (km/s) = 3.44618 3.98487 3.72527
# Velocity P-wave (km/s) = 6.52455 7.27979 6.91249
#
# Compressibility (1/GPa) = 0.01603291
#
# Stress axis : x y z
#
# Youngs Moduli (GPa) = 97.81440 73.59266 122.34219
#
# Poissons Ratio (x) = 0.14575 0.44502
# Poissons Ratio (y) = 0.19372 0.28852
# Poissons Ratio (z) = 0.35580 0.17356
#
# Static dielectric constant tensor:
#      x y z
#    x 4.418170 -0.003440 0.213530 
#    y -0.003440 3.990450 -0.054380 
#    z 0.213530 -0.054380 4.891560 
# 
# 
# High freq. dielectric constant tensor:
#      x y z
#    x 1.944680 0.010850 0.004730 
#    y 0.010850 1.903630 -0.003020 
#    z 0.004730 -0.003020 1.931500 
# 
# From -- ./inp_files/147136.got.cif
#   From: 2010.06.25/outbox.cif.g09.slc.cpg/sg2_74_cif.got.tgz:147136.got - 2010.06.27 13:26:56.
