data_PCOD8014248
_publ_section_title
;
Structure prediction by ZEFSAII (Michael W. Deem and Ramdas Pophale) SiO2 
 PCOD8014248
Probable space group: P -1
;
_chemical_formula_sum "Si O2"
_cell_formula_units_Z 12
_cell_length_a 8.673952
_cell_length_b 9.343823
_cell_length_c 8.524773
_cell_angle_alpha 77.780213
_cell_angle_beta 64.556267
_cell_angle_gamma 86.132491
_cell_volume 609.549491
_symmetry_space_group_name_H-M "P -1"
_symmetry_group_IT_number 2
_symmetry_cell_setting 'triclinic'
loop_
_space_group_symop_operation_xyz
x,y,z
-x,-y,-z
loop_
_atom_site_type_symbol
_atom_site_label
_atom_site_fract_x
_atom_site_fract_y
_atom_site_fract_z
Si Si1 0.275014 0.233338 0.176180
Si Si2 0.940670 0.069346 0.239091
Si Si3 0.622917 0.012636 0.590629
Si Si4 0.849376 0.469280 0.693213
Si Si5 0.583110 0.234787 0.822623
Si Si6 0.124148 0.810299 0.082900
O O1 0.211226 0.382494 0.240391
O O2 0.116795 0.140157 0.201948
O O3 0.372275 0.142810 0.287776
O O4 0.401976 0.271799 0.968596
O O5 0.813713 0.059763 0.443226
O O6 0.856824 0.166527 0.116655
O O7 0.972262 0.907119 0.195829
O O8 0.551577 0.138049 0.704877
O O9 0.500000 0.000000 0.500000
O O10 0.687159 0.386217 0.698812
O O11 0.919887 0.361239 0.823405
O O12 0.000000 0.500000 0.500000
O O13 0.696729 0.143703 0.919702
#
# Coordination Sequence:
#
# PCOD8014248 Si02
#       6
#     2   2   2   2   2   2
#     4  12  22  39  68  89 125 164 200 250 308 360
#     4  11  22  39  64  94 118 162 207 247 303 363
#     4  12  25  39  64  92 123 159 211 254 300 355
#     4  10  21  41  66  88 124 162 203 246 307 363
#     4  10  23  42  58  93 122 161 200 256 300 357
#     4   9  22  39  65  86 129 153 208 247 307 356
#
# _framework density 19.686672999999999
#
# number of rings (size 3 to 8) (size 9 to 14) (size 15 to 20)
#    1.000    0.333    1.667    4.500    4.667    0.667 
#    0.000    0.833    0.000    0.000    0.000    0.000 
#    0.000    0.000    0.000    0.000    0.000    0.000 
#
# Total GULP energy -148792.615400 kJ/mol
# GULP energy per Si atom -12399.384617 kJ/mol
# Density = 1.964186 g / cm^3
# Si number density = 19.686673 Si / 1000 Ang^3
#
#
#
# Elastic Constant Matrix: (Units=GPa)
#
#
# Indices 1 2 3 4 5 6 
#
# 1 83.5756 23.7039 38.9662 4.6972 -3.9561 12.2466
# 2 23.7039 140.7685 72.2825 10.1917 -4.9020 -6.1145
# 3 38.9662 72.2825 138.6273 15.2030 -26.4648 -0.4396
# 4 4.6972 10.1917 15.2030 32.4436 -0.0565 -6.7393
# 5 -3.9561 -4.9020 -26.4648 -0.0565 45.0289 2.3868
# 6 12.2466 -6.1145 -0.4396 -6.7393 2.3868 19.8486
#
#
#
# Elastic Compliance Matrix: (Units=1/GPa)
#
#
# Indices 1 2 3 4 5 6 
#
# 1 0.015706 -0.001055 -0.003690 -0.002478 -0.000329 -0.010899
# 2 -0.001055 0.010171 -0.005500 0.000379 -0.002434 0.004084
# 3 -0.003690 -0.005500 0.012829 -0.004008 0.006681 -0.001298
# 4 -0.002478 0.000379 -0.004008 0.035869 -0.003236 0.014125
# 5 -0.000329 -0.002434 0.006681 -0.003236 0.026082 -0.004634
# 6 -0.010899 0.004084 -0.001298 0.014125 -0.004634 0.063688
#
#
# Mechanical properties :
#
#
# Convention : Reuss Voigt Hill
#
# Bulk Modulus (GPa) = 54.89869 70.31963 62.60916
# Shear Modulus (GPa) = 26.19066 34.66547 30.42806
#
# Velocity S-wave (km/s) = 3.65139 4.20081 3.93570
# Velocity P-wave (km/s) = 6.76192 7.70234 7.24740
#
# Compressibility (1/GPa) = 0.01821537
#
# Stress axis : x y z
#
# Youngs Moduli (GPa) = 63.67115 98.32004 77.94607
#
# Poissons Ratio (x) = 0.10376 0.28762
# Poissons Ratio (y) = 0.06720 0.42869
# Poissons Ratio (z) = 0.23495 0.54075
#
# Static dielectric constant tensor:
#      x y z
#    x 3.462440 -0.061250 -0.058410 
#    y -0.061250 3.551660 -0.033320 
#    z -0.058410 -0.033320 3.679420 
# 
# 
# High freq. dielectric constant tensor:
#      x y z
#    x 1.758960 -0.002100 -0.009890 
#    y -0.002100 1.764680 0.003410 
#    z -0.009890 0.003410 1.776410 
# 
# From -- ./inp_files/144794.got.cif
#   From: 2010.06.25/outbox.cif.g09.slc.cpg/sg2_73_cif.got.tgz:144794.got - 2010.06.27 13:26:56.
