data_PCOD8014415
_publ_section_title
;
Structure prediction by ZEFSAII (Michael W. Deem and Ramdas Pophale) SiO2 
 PCOD8014415
Probable space group: P -1
;
_chemical_formula_sum "Si O2"
_cell_formula_units_Z 16
_cell_length_a 15.182381
_cell_length_b 9.382478
_cell_length_c 11.991895
_cell_angle_alpha 74.938190
_cell_angle_beta 120.611284
_cell_angle_gamma 54.776424
_cell_volume 740.420726
_symmetry_space_group_name_H-M "P -1"
_symmetry_group_IT_number 2
_symmetry_cell_setting 'triclinic'
loop_
_space_group_symop_operation_xyz
x,y,z
-x,-y,-z
loop_
_atom_site_type_symbol
_atom_site_label
_atom_site_fract_x
_atom_site_fract_y
_atom_site_fract_z
Si Si1 0.329370 0.021469 0.815679
Si Si2 0.841220 0.809862 0.105725
Si Si3 0.418763 0.365121 0.634411
Si Si4 0.022055 0.146682 0.997290
Si Si5 0.602787 0.720015 0.604214
Si Si6 0.685949 0.178852 0.551254
Si Si7 0.735271 0.557842 0.266098
Si Si8 0.080824 0.225103 0.416138
O O1 0.189794 0.112798 0.799248
O O2 0.297429 0.233210 0.766268
O O3 0.264238 0.048762 0.646600
O O4 0.559352 0.704976 0.047702
O O5 0.938713 0.827822 0.102829
O O6 0.972766 0.501230 0.239042
O O7 0.625937 0.040345 0.870444
O O8 0.354906 0.361903 0.481832
O O9 0.433444 0.522057 0.591908
O O10 0.256081 0.538202 0.590649
O O11 0.817477 0.459779 0.852499
O O12 0.000000 0.000000 0.000000
O O13 0.198005 0.974841 0.226656
O O14 0.472817 0.754530 0.570171
O O15 0.500000 0.000000 0.500000
O O16 0.837302 0.976217 0.588972
O O17 0.935045 0.298803 0.377341
#
# Coordination Sequence:
#
# PCOD8014415 Si02
#       8
#     2   2   2   2   2   2   2   2
#     4   9  20  38  64  97 128 166 215 278 325 377
#     4  10  21  41  67  93 129 170 221 273 316 383
#     4  11  23  44  69  92 138 174 208 276 334 385
#     4  12  25  43  68  95 131 182 221 262 334 398
#     4  12  27  42  69  98 129 178 222 271 325 390
#     4  12  27  46  61 101 144 169 215 277 330 393
#     4   9  20  39  65  97 127 169 220 266 325 390
#     4  11  24  39  67  96 132 169 217 275 321 391
#
# _framework density 21.609337
#
# number of rings (size 3 to 8) (size 9 to 14) (size 15 to 20)
#    0.000    1.250    2.500    4.125    7.000    2.500 
#    0.000    2.500    0.000    0.000    0.000    0.000 
#    0.000    0.000    0.000    0.000    0.000    0.000 
#
# Total GULP energy -198430.714499 kJ/mol
# GULP energy per Si atom -12401.919656 kJ/mol
# Density = 2.156015 g / cm^3
# Si number density = 21.609337 Si / 1000 Ang^3
#
#
#
# Elastic Constant Matrix: (Units=GPa)
#
#
# Indices 1 2 3 4 5 6 
#
# 1 143.6987 29.7923 27.3823 -1.2247 -6.2164 -2.6310
# 2 29.7923 83.8860 32.6153 -2.3268 -10.2548 -0.4169
# 3 27.3823 32.6153 79.2751 -5.1562 -2.4496 -2.6152
# 4 -1.2247 -2.3268 -5.1562 23.4346 -2.0058 -1.4585
# 5 -6.2164 -10.2548 -2.4496 -2.0058 32.0962 -2.6000
# 6 -2.6310 -0.4169 -2.6152 -1.4585 -2.6000 25.6377
#
#
#
# Elastic Compliance Matrix: (Units=1/GPa)
#
#
# Indices 1 2 3 4 5 6 
#
# 1 0.007758 -0.001942 -0.001840 -0.000084 0.000789 0.000652
# 2 -0.001942 0.015243 -0.005439 0.000563 0.004109 -0.000057
# 3 -0.001840 -0.005439 0.015702 0.002856 -0.000602 0.001426
# 4 -0.000084 0.000563 0.002856 0.043835 0.003374 0.003128
# 5 0.000789 0.004109 -0.000602 0.003374 0.033081 0.003633
# 6 0.000652 -0.000057 0.001426 0.003128 0.003633 0.039763
#
#
# Mechanical properties :
#
#
# Convention : Reuss Voigt Hill
#
# Bulk Modulus (GPa) = 49.35766 54.04886 51.70326
# Shear Modulus (GPa) = 27.68893 30.70501 29.19697
#
# Velocity S-wave (km/s) = 3.58347 3.77359 3.67976
# Velocity P-wave (km/s) = 6.32551 6.63723 6.48324
#
# Compressibility (1/GPa) = 0.02026028
#
# Stress axis : x y z
#
# Youngs Moduli (GPa) = 128.90440 65.60365 63.68774
#
# Poissons Ratio (x) = 0.12743 0.11719
# Poissons Ratio (y) = 0.25038 0.34637
# Poissons Ratio (z) = 0.23719 0.35679
#
# Static dielectric constant tensor:
#      x y z
#    x 4.272330 -0.147880 -0.070060 
#    y -0.147880 3.723310 -0.034470 
#    z -0.070060 -0.034470 4.257300 
# 
# 
# High freq. dielectric constant tensor:
#      x y z
#    x 1.865810 -0.012710 0.001830 
#    y -0.012710 1.818390 -0.001620 
#    z 0.001830 -0.001620 1.859010 
# 
# From -- ./inp_files/306941.got.cif
#   From: 2010.06.25/outbox.cif.g09.slc.cpg/sg2_154_cif.got.tgz:306941.got - 2010.06.27 13:26:56.
