data_PCOD8014561
_publ_section_title
;
Structure prediction by ZEFSAII (Michael W. Deem and Ramdas Pophale) SiO2 
 PCOD8014561
Probable space group: P -1
;
_chemical_formula_sum "Si O2"
_cell_formula_units_Z 16
_cell_length_a 9.358582
_cell_length_b 14.903254
_cell_length_c 8.774577
_cell_angle_alpha 41.190904
_cell_angle_beta 67.101864
_cell_angle_gamma 71.049089
_cell_volume 741.427916
_symmetry_space_group_name_H-M "P -1"
_symmetry_group_IT_number 2
_symmetry_cell_setting 'triclinic'
loop_
_space_group_symop_operation_xyz
x,y,z
-x,-y,-z
loop_
_atom_site_type_symbol
_atom_site_label
_atom_site_fract_x
_atom_site_fract_y
_atom_site_fract_z
Si Si1 0.685745 0.911655 0.336489
Si Si2 0.476786 0.303687 0.148450
Si Si3 0.054574 0.446970 0.708103
Si Si4 0.214061 0.157688 0.946513
Si Si5 0.010864 0.930853 0.248103
Si Si6 0.231639 0.669257 0.509635
Si Si7 0.258239 0.559944 0.974031
Si Si8 0.481787 0.810801 0.044315
O O1 0.548387 0.837289 0.572265
O O2 0.739695 0.830653 0.264896
O O3 0.831115 0.915672 0.390240
O O4 0.632191 0.065024 0.120608
O O5 0.645667 0.353205 0.057680
O O6 0.338488 0.409996 0.117526
O O7 0.469709 0.284496 0.995581
O O8 0.121418 0.293388 0.864588
O O9 0.190733 0.536292 0.601344
O O10 0.000000 0.500000 0.500000
O O11 0.914187 0.454605 0.875663
O O12 0.368395 0.129413 0.017213
O O13 0.105212 0.031153 0.188292
O O14 0.093707 0.782186 0.397697
O O15 0.000000 0.000000 0.000000
O O16 0.253157 0.637411 0.717904
O O17 0.394871 0.719962 0.318222
#
# Coordination Sequence:
#
# PCOD8014561 Si02
#       8
#     2   2   2   2   2   2   2   2
#     4  11  23  44  70  94 141 181 223 278 342 404
#     4  11  25  44  67  98 138 181 228 277 344 407
#     4  12  25  43  71 100 138 181 229 278 343 407
#     4  11  24  41  69 102 133 174 232 277 335 405
#     4  10  21  41  68  96 133 180 224 270 339 403
#     4  12  24  43  72  98 139 181 225 286 338 403
#     4  11  26  45  68  99 138 179 227 283 345 403
#     4  12  25  42  70 100 137 176 234 278 340 403
#
# _framework density 21.579979999999999
#
# number of rings (size 3 to 8) (size 9 to 14) (size 15 to 20)
#    0.000    0.750    2.500    6.375    3.500    5.000 
#    0.000    1.250    0.000    0.000    0.000    0.000 
#    0.000    0.000    0.000    0.000    0.000    0.000 
#
# Total GULP energy -198495.838259 kJ/mol
# GULP energy per Si atom -12405.989891 kJ/mol
# Density = 2.153086 g / cm^3
# Si number density = 21.579980 Si / 1000 Ang^3
#
#
#
# Elastic Constant Matrix: (Units=GPa)
#
#
# Indices 1 2 3 4 5 6 
#
# 1 125.2190 40.5637 11.8609 4.0676 -13.1887 21.5999
# 2 40.5637 91.6832 25.5337 -3.3607 -10.9801 12.4958
# 3 11.8609 25.5337 86.3880 14.8983 -11.0403 10.5424
# 4 4.0676 -3.3607 14.8983 29.7207 7.6866 -2.3282
# 5 -13.1887 -10.9801 -11.0403 7.6866 29.0124 -0.9358
# 6 21.5999 12.4958 10.5424 -2.3282 -0.9358 32.7839
#
#
#
# Elastic Compliance Matrix: (Units=1/GPa)
#
#
# Indices 1 2 3 4 5 6 
#
# 1 0.010944 -0.004058 0.001996 -0.004829 0.005269 -0.006498
# 2 -0.004058 0.014244 -0.004060 0.003868 0.000939 -0.001148
# 3 0.001996 -0.004060 0.016236 -0.011482 0.008412 -0.005564
# 4 -0.004829 0.003868 -0.011482 0.045509 -0.016895 0.008149
# 5 0.005269 0.000939 0.008412 -0.016895 0.044687 -0.006458
# 6 -0.006498 -0.001148 -0.005564 0.008149 -0.006458 0.037405
#
#
# Mechanical properties :
#
#
# Convention : Reuss Voigt Hill
#
# Bulk Modulus (GPa) = 34.27034 51.02300 42.64667
# Shear Modulus (GPa) = 26.17844 33.32553 29.75198
#
# Velocity S-wave (km/s) = 3.48672 3.93400 3.71709
# Velocity P-wave (km/s) = 5.66787 6.65809 6.18283
#
# Compressibility (1/GPa) = 0.02917976
#
# Stress axis : x y z
#
# Youngs Moduli (GPa) = 91.37147 70.20425 61.59203
#
# Poissons Ratio (x) = 0.28492 -0.12294
# Poissons Ratio (y) = 0.37082 0.25006
# Poissons Ratio (z) = -0.18238 0.28502
#
# Static dielectric constant tensor:
#      x y z
#    x 4.607560 0.100420 -0.207550 
#    y 0.100420 3.940450 -0.088720 
#    z -0.207550 -0.088720 3.931690 
# 
# 
# High freq. dielectric constant tensor:
#      x y z
#    x 1.865980 0.001530 -0.006570 
#    y 0.001530 1.848120 -0.011760 
#    z -0.006570 -0.011760 1.849020 
# 
# From -- ./inp_files/205043.got.cif
#   From: 2010.06.25/outbox.cif.g09.slc.cpg/sg2_103_cif.got.tgz:205043.got - 2010.06.27 13:26:56.
