data_PCOD8014699
_publ_section_title
;
Structure prediction by ZEFSAII (Michael W. Deem and Ramdas Pophale) SiO2 
 PCOD8014699
Probable space group: P -1
;
_chemical_formula_sum "Si O2"
_cell_formula_units_Z 14
_cell_length_a 13.173127
_cell_length_b 8.690133
_cell_length_c 7.095251
_cell_angle_alpha 70.915182
_cell_angle_beta 72.000923
_cell_angle_gamma 113.404511
_cell_volume 607.584795
_symmetry_space_group_name_H-M "P -1"
_symmetry_group_IT_number 2
_symmetry_cell_setting 'triclinic'
loop_
_space_group_symop_operation_xyz
x,y,z
-x,-y,-z
loop_
_atom_site_type_symbol
_atom_site_label
_atom_site_fract_x
_atom_site_fract_y
_atom_site_fract_z
Si Si1 0.965042 0.189900 0.356106
Si Si2 0.139476 0.217252 0.547351
Si Si3 0.245400 0.745972 0.518211
Si Si4 0.462705 0.474647 0.809911
Si Si5 0.471803 0.133760 0.343865
Si Si6 0.641358 0.371223 0.805768
Si Si7 0.202346 0.379864 0.865250
O O1 0.900510 0.313247 0.363860
O O2 0.006564 0.171633 0.550706
O O3 0.861624 0.977295 0.410078
O O4 0.087877 0.299963 0.107990
O O5 0.257099 0.400140 0.293402
O O6 0.147204 0.266053 0.744772
O O7 0.283283 0.709347 0.306800
O O8 0.263008 0.612398 0.710005
O O9 0.332625 0.979425 0.400965
O O10 0.529913 0.698182 0.604013
O O11 0.532516 0.369199 0.734211
O O12 0.687694 0.649194 0.106794
O O13 0.500000 0.500000 0.000000
O O14 0.500000 0.000000 0.500000
O O15 0.581918 0.245517 0.077774
#
# Coordination Sequence:
#
# PCOD8014699 Si02
#       7
#     2   2   2   2   2   2   2
#     4  11  23  46  66  97 138 177 228 278 331 398
#     4  10  24  42  70  97 132 183 226 276 336 398
#     4  11  24  40  65  98 136 180 216 274 342 396
#     4  10  21  41  70  96 136 177 217 276 340 389
#     4  11  21  41  65  98 132 171 220 276 336 395
#     4  10  23  42  65  97 134 174 220 273 338 404
#     4  11  23  43  67 101 132 176 233 274 330 401
#
# _framework density 23.042048999999999
#
# number of rings (size 3 to 8) (size 9 to 14) (size 15 to 20)
#    0.000    1.429    1.429    3.857    0.000    8.000 
#    5.143    0.000    0.000    0.000    0.000    0.000 
#    0.000    0.000    0.000    0.000    0.000    0.000 
#
# Total GULP energy -173441.892860 kJ/mol
# GULP energy per Si atom -12388.706633 kJ/mol
# Density = 2.298960 g / cm^3
# Si number density = 23.042049 Si / 1000 Ang^3
#
#
#
# Elastic Constant Matrix: (Units=GPa)
#
#
# Indices 1 2 3 4 5 6 
#
# 1 119.0776 42.5153 51.8804 26.4199 -7.1298 -14.1697
# 2 42.5153 77.5127 50.6783 5.0314 -6.0019 -2.4685
# 3 51.8804 50.6783 116.7119 -1.8815 -9.5525 -3.5207
# 4 26.4199 5.0314 -1.8815 36.2183 -4.6232 2.1285
# 5 -7.1298 -6.0019 -9.5525 -4.6232 37.6846 0.9805
# 6 -14.1697 -2.4685 -3.5207 2.1285 0.9805 41.8309
#
#
#
# Elastic Compliance Matrix: (Units=1/GPa)
#
#
# Indices 1 2 3 4 5 6 
#
# 1 0.015059 -0.004195 -0.004944 -0.011024 -0.000555 0.005011
# 2 -0.004195 0.019520 -0.006578 0.000144 0.000687 -0.000846
# 3 -0.004944 -0.006578 0.013859 0.005600 0.002249 -0.001234
# 4 -0.011024 0.000144 0.005600 0.036740 0.004000 -0.005218
# 5 -0.000555 0.000687 0.002249 0.004000 0.027622 -0.000809
# 6 0.005011 -0.000846 -0.001234 -0.005218 -0.000809 0.025734
#
#
# Mechanical properties :
#
#
# Convention : Reuss Voigt Hill
#
# Bulk Modulus (GPa) = 58.81194 67.05002 62.93098
# Shear Modulus (GPa) = 28.46781 34.36197 31.41489
#
# Velocity S-wave (km/s) = 3.51874 3.86589 3.69639
# Velocity P-wave (km/s) = 6.48752 7.00635 6.75192
#
# Compressibility (1/GPa) = 0.01700335
#
# Stress axis : x y z
#
# Youngs Moduli (GPa) = 66.40598 51.23056 72.15303
#
# Poissons Ratio (x) = 0.21490 0.35676
# Poissons Ratio (y) = 0.27856 0.47462
# Poissons Ratio (z) = 0.32834 0.33700
#
# Static dielectric constant tensor:
#      x y z
#    x 4.464920 -0.213570 -0.142580 
#    y -0.213570 4.833890 -0.304770 
#    z -0.142580 -0.304770 4.191560 
# 
# 
# High freq. dielectric constant tensor:
#      x y z
#    x 1.918490 -0.003960 -0.004760 
#    y -0.003960 1.908450 -0.009050 
#    z -0.004760 -0.009050 1.906310 
# 
# From -- ./inp_files/295155.got.cif
#   From: 2010.06.25/outbox.cif.g09.slc.cpg/sg2_148_cif.got.tgz:295155.got - 2010.06.27 13:26:56.
