data_PCOD8014011
_publ_section_title
;
Structure prediction by ZEFSAII (Michael W. Deem and Ramdas Pophale) SiO2 
 PCOD8014011
Probable space group: P -1
;
_chemical_formula_sum "Si O2"
_cell_formula_units_Z 16
_cell_length_a 13.021338
_cell_length_b 14.721596
_cell_length_c 15.138121
_cell_angle_alpha 29.211173
_cell_angle_beta 143.457162
_cell_angle_gamma 125.184214
_cell_volume 761.195961
_symmetry_space_group_name_H-M "P -1"
_symmetry_group_IT_number 2
_symmetry_cell_setting 'triclinic'
loop_
_space_group_symop_operation_xyz
x,y,z
-x,-y,-z
loop_
_atom_site_type_symbol
_atom_site_label
_atom_site_fract_x
_atom_site_fract_y
_atom_site_fract_z
Si Si1 0.591666 0.710476 0.640832
Si Si2 0.595778 0.099296 0.083139
Si Si3 0.436623 0.870452 0.769667
Si Si4 0.995251 0.623823 0.065519
Si Si5 0.196443 0.217424 0.643540
Si Si6 0.899737 0.077556 0.633219
Si Si7 0.608007 0.433625 0.223442
Si Si8 0.637167 0.460332 0.712849
O O1 0.505066 0.634066 0.725495
O O2 0.552671 0.636220 0.580945
O O3 0.495196 0.960596 0.362521
O O4 0.815895 0.628007 0.884529
O O5 0.364694 0.195732 0.845007
O O6 0.670820 0.246682 0.961647
O O7 0.662266 0.063668 0.259636
O O8 0.694859 0.877650 0.292705
O O9 0.266482 0.857724 0.608040
O O10 0.617088 0.643173 0.087416
O O11 0.052513 0.455822 0.326146
O O12 0.160191 0.559397 0.161753
O O13 0.957156 0.841146 0.901877
O O14 0.085574 0.091688 0.711272
O O15 0.815662 0.240425 0.518208
O O16 0.500000 0.500000 0.000000
O O17 0.500000 0.500000 0.500000
#
# Coordination Sequence:
#
# PCOD8014011 Si02
#       8
#     2   2   2   2   2   2   2   2
#     4  11  24  40  66  93 127 160 205 255 308 366
#     4  11  23  40  63  89 125 167 202 248 315 370
#     4  10  22  40  64  93 120 163 204 252 310 366
#     4  11  22  39  60  97 123 160 202 253 311 367
#     4  11  23  39  62  90 125 163 202 254 305 367
#     4  10  23  39  63  91 121 157 208 254 302 362
#     4  10  21  41  64  91 124 162 206 255 307 355
#     4  12  23  41  63  93 130 164 201 252 309 374
#
# _framework density 21.019556000000001
#
# number of rings (size 3 to 8) (size 9 to 14) (size 15 to 20)
#    0.000    1.250    3.750    2.625    1.750    7.000 
#    0.000    0.625    0.000    3.750    0.000    0.000 
#    0.000    0.000    0.000    0.000    0.000    0.000 
#
# Total GULP energy -198349.414699 kJ/mol
# GULP energy per Si atom -12396.838419 kJ/mol
# Density = 2.097171 g / cm^3
# Si number density = 21.019556 Si / 1000 Ang^3
#
#
#
# Elastic Constant Matrix: (Units=GPa)
#
#
# Indices 1 2 3 4 5 6 
#
# 1 97.8096 47.8288 40.6084 -9.4187 -3.6527 -6.8545
# 2 47.8288 87.5681 46.7131 -13.4666 4.0849 9.9190
# 3 40.6084 46.7131 102.4239 -25.8445 -4.9264 5.3009
# 4 -9.4187 -13.4666 -25.8445 29.2949 3.3701 -3.8880
# 5 -3.6527 4.0849 -4.9264 3.3701 30.9229 -9.0325
# 6 -6.8545 9.9190 5.3009 -3.8880 -9.0325 23.5987
#
#
#
# Elastic Compliance Matrix: (Units=1/GPa)
#
#
# Indices 1 2 3 4 5 6 
#
# 1 0.017118 -0.009553 -0.002889 -0.000581 0.006388 0.011986
# 2 -0.009553 0.021800 -0.005557 0.001241 -0.009110 -0.013972
# 3 -0.002889 -0.005557 0.016201 0.010635 0.001915 0.000342
# 4 -0.000581 0.001241 0.010635 0.044624 -0.002425 0.003345
# 5 0.006388 -0.009110 0.001915 -0.002425 0.040851 0.020491
# 6 0.011986 -0.013972 0.000342 0.003345 0.020491 0.060047
#
#
# Mechanical properties :
#
#
# Convention : Reuss Voigt Hill
#
# Bulk Modulus (GPa) = 52.30101 62.01136 57.15619
# Shear Modulus (GPa) = 20.57501 26.94004 23.75753
#
# Velocity S-wave (km/s) = 3.13205 3.58392 3.36558
# Velocity P-wave (km/s) = 6.16569 6.83314 6.50798
#
# Compressibility (1/GPa) = 0.01912009
#
# Stress axis : x y z
#
# Youngs Moduli (GPa) = 58.41948 45.87097 61.72415
#
# Poissons Ratio (x) = 0.43821 0.17835
# Poissons Ratio (y) = 0.55809 0.34300
# Poissons Ratio (z) = 0.16880 0.25490
#
# Static dielectric constant tensor:
#      x y z
#    x 3.890860 -0.051000 0.075250 
#    y -0.051000 3.990870 -0.456670 
#    z 0.075250 -0.456670 4.116850 
# 
# 
# High freq. dielectric constant tensor:
#      x y z
#    x 1.817400 0.005320 -0.007330 
#    y 0.005320 1.822580 -0.026580 
#    z -0.007330 -0.026580 1.823630 
# 
# From -- ./inp_files/455490.got.cif
#   From: 2010.06.25/outbox.cif.g09.slc.cpg/sg2_228_cif.got.tgz:455490.got - 2010.06.27 13:26:56.
