data_PCOD8014010
_publ_section_title
;
Structure prediction by ZEFSAII (Michael W. Deem and Ramdas Pophale) SiO2 
 PCOD8014010
Probable space group: P -1
;
_chemical_formula_sum "Si O2"
_cell_formula_units_Z 16
_cell_length_a 10.607287
_cell_length_b 9.012717
_cell_length_c 12.770838
_cell_angle_alpha 46.559412
_cell_angle_beta 65.820048
_cell_angle_gamma 58.679954
_cell_volume 754.614896
_symmetry_space_group_name_H-M "P -1"
_symmetry_group_IT_number 2
_symmetry_cell_setting 'triclinic'
loop_
_space_group_symop_operation_xyz
x,y,z
-x,-y,-z
loop_
_atom_site_type_symbol
_atom_site_label
_atom_site_fract_x
_atom_site_fract_y
_atom_site_fract_z
Si Si1 0.343760 0.545457 0.660211
Si Si2 0.570547 0.152995 0.657820
Si Si3 0.081841 0.426488 0.154820
Si Si4 0.888705 0.916879 0.015255
Si Si5 0.352499 0.511644 0.919989
Si Si6 0.124244 0.997039 0.251560
Si Si7 0.599796 0.147029 0.120614
Si Si8 0.037365 0.763484 0.554252
O O1 0.457955 0.311410 0.701656
O O2 0.411779 0.727914 0.513060
O O3 0.319061 0.545174 0.792758
O O4 0.190424 0.590154 0.630484
O O5 0.725108 0.046999 0.715402
O O6 0.507889 0.965275 0.738898
O O7 0.031114 0.257363 0.181726
O O8 0.955261 0.664387 0.082316
O O9 0.088626 0.333060 0.319129
O O10 0.235965 0.433155 0.059895
O O11 0.739260 0.963521 0.108048
O O12 0.848815 0.052335 0.855420
O O13 0.000000 0.000000 0.000000
O O14 0.342225 0.744338 0.857064
O O15 0.514066 0.329446 0.974675
O O16 0.048126 0.820615 0.400074
O O17 0.000000 0.000000 0.500000
#
# Coordination Sequence:
#
# PCOD8014010 Si02
#       8
#     2   2   2   2   2   2   2   2
#     4  10  22  38  62  94 122 157 209 254 303 362
#     4  10  21  41  64  91 124 160 205 255 302 362
#     4  11  22  39  62  92 119 162 205 251 300 362
#     4  12  25  40  61  92 129 159 200 255 306 364
#     4  11  24  39  62  91 123 162 207 253 302 362
#     4  10  22  40  64  91 118 162 207 249 306 363
#     4  11  24  41  60  88 128 163 201 254 307 357
#     4   9  21  36  60  89 121 155 203 253 297 359
#
# _framework density 21.202867000000001
#
# number of rings (size 3 to 8) (size 9 to 14) (size 15 to 20)
#    0.000    1.500    2.500    1.875    7.000    1.500 
#    0.000    0.625    5.500    0.000    0.000    0.000 
#    0.000    0.000    0.000    0.000    0.000    0.000 
#
# Total GULP energy -198266.614478 kJ/mol
# GULP energy per Si atom -12391.663405 kJ/mol
# Density = 2.115461 g / cm^3
# Si number density = 21.202867 Si / 1000 Ang^3
#
#
#
# Elastic Constant Matrix: (Units=GPa)
#
#
# Indices 1 2 3 4 5 6 
#
# 1 56.1072 24.1126 52.6158 10.9482 -16.1970 1.1703
# 2 24.1126 87.7667 40.5952 0.8256 -0.0606 -16.4766
# 3 52.6158 40.5952 136.2124 5.8442 -33.4058 15.4890
# 4 10.9482 0.8256 5.8442 20.7409 -10.1761 -1.1650
# 5 -16.1970 -0.0606 -33.4058 -10.1761 29.2433 -3.5253
# 6 1.1703 -16.4766 15.4890 -1.1650 -3.5253 34.3751
#
#
#
# Elastic Compliance Matrix: (Units=1/GPa)
#
#
# Indices 1 2 3 4 5 6 
#
# 1 0.032304 -0.003403 -0.010823 -0.013203 0.001147 0.001816
# 2 -0.003403 0.017918 -0.007568 -0.000784 -0.009425 0.011121
# 3 -0.010823 -0.007568 0.018729 0.008651 0.017233 -0.009637
# 4 -0.013203 -0.000784 0.008651 0.065300 0.025411 0.000995
# 5 0.001147 -0.009425 0.017233 0.025411 0.062734 -0.005027
# 6 0.001816 0.011121 -0.009637 0.000995 -0.005027 0.038220
#
#
# Mechanical properties :
#
#
# Convention : Reuss Voigt Hill
#
# Bulk Modulus (GPa) = 39.42818 57.19262 48.31040
# Shear Modulus (GPa) = 17.40659 27.72269 22.56464
#
# Velocity S-wave (km/s) = 2.86834 3.61986 3.26579
# Velocity P-wave (km/s) = 5.44113 6.67111 6.08726
#
# Compressibility (1/GPa) = 0.02536257
#
# Stress axis : x y z
#
# Youngs Moduli (GPa) = 30.95546 55.81010 53.39413
#
# Poissons Ratio (x) = 0.18994 0.57789
# Poissons Ratio (y) = 0.10535 0.40408
# Poissons Ratio (z) = 0.33503 0.42236
#
# Static dielectric constant tensor:
#      x y z
#    x 3.128410 0.251530 -0.038770 
#    y 0.251530 3.299940 -0.286280 
#    z -0.038770 -0.286280 4.526870 
# 
# 
# High freq. dielectric constant tensor:
#      x y z
#    x 1.805900 -0.030130 -0.018860 
#    y -0.030130 1.831720 -0.008080 
#    z -0.018860 -0.008080 1.851290 
# 
# From -- ./inp_files/416291.got.cif
#   From: 2010.06.25/outbox.cif.g09.slc.cpg/sg2_209_cif.got.tgz:416291.got - 2010.06.27 13:26:56.
