data_PCOD8014537
_publ_section_title
;
Structure prediction by ZEFSAII (Michael W. Deem and Ramdas Pophale) SiO2 
 PCOD8014537
Probable space group: P -1
;
_chemical_formula_sum "Si O2"
_cell_formula_units_Z 16
_cell_length_a 19.023790
_cell_length_b 4.979891
_cell_length_c 9.411454
_cell_angle_alpha 123.686303
_cell_angle_beta 99.541161
_cell_angle_gamma 82.994592
_cell_volume 731.141795
_symmetry_space_group_name_H-M "P -1"
_symmetry_group_IT_number 2
_symmetry_cell_setting 'triclinic'
loop_
_space_group_symop_operation_xyz
x,y,z
-x,-y,-z
loop_
_atom_site_type_symbol
_atom_site_label
_atom_site_fract_x
_atom_site_fract_y
_atom_site_fract_z
Si Si1 0.188988 0.801294 0.145030
Si Si2 0.454471 0.747758 0.329162
Si Si3 0.674496 0.200840 0.318267
Si Si4 0.487507 0.938322 0.815340
Si Si5 0.926129 0.929513 0.620815
Si Si6 0.793289 0.942336 0.081765
Si Si7 0.691944 0.951692 0.550569
Si Si8 0.912787 0.202534 0.391805
O O1 0.110095 0.898665 0.204202
O O2 0.241951 0.025968 0.314816
O O3 0.208767 0.428967 0.072904
O O4 0.192715 0.852552 0.993592
O O5 0.472414 0.402741 0.304420
O O6 0.500000 0.000000 0.500000
O O7 0.476279 0.778326 0.179556
O O8 0.371029 0.819928 0.340506
O O9 0.595742 0.063901 0.250390
O O10 0.668901 0.585684 0.423227
O O11 0.717611 0.060425 0.156433
O O12 0.713533 0.079140 0.439594
O O13 0.500000 0.000000 0.000000
O O14 0.895083 0.580613 0.473068
O O15 0.009931 0.899697 0.675378
O O16 0.910117 0.149478 0.543566
O O17 0.855428 0.994660 0.231339
#
# Coordination Sequence:
#
# PCOD8014537 Si02
#       8
#     2   2   2   2   2   2   2   2
#     4  12  26  41  62  96 126 165 204 261 304 361
#     4  12  23  44  65  93 118 159 214 253 309 370
#     4  12  24  44  63  89 122 169 205 250 312 374
#     4  12  26  41  65  93 125 159 198 262 320 370
#     4  10  21  41  68  94 125 164 216 241 302 366
#     4  12  26  41  63  93 133 161 205 255 316 359
#     4  12  25  42  68  86 123 165 211 257 299 372
#     4  10  21  41  68  94 124 169 203 255 296 373
#
# _framework density 21.883583000000002
#
# number of rings (size 3 to 8) (size 9 to 14) (size 15 to 20)
#    0.000    0.500    2.500    6.000    3.500    1.000 
#    0.000    0.000    0.000    0.000    0.000    0.000 
#    0.000    0.000    0.000    0.000    0.000    0.000 
#
# Total GULP energy -198525.468451 kJ/mol
# GULP energy per Si atom -12407.841778 kJ/mol
# Density = 2.183377 g / cm^3
# Si number density = 21.883583 Si / 1000 Ang^3
#
#
#
# Elastic Constant Matrix: (Units=GPa)
#
#
# Indices 1 2 3 4 5 6 
#
# 1 105.9497 24.7343 31.0625 4.4690 -30.4000 -5.6679
# 2 24.7343 78.4122 8.1975 -6.4845 -11.4199 3.6322
# 3 31.0625 8.1975 72.4675 -7.3671 -18.7466 -3.9605
# 4 4.4690 -6.4845 -7.3671 37.4994 5.6862 -5.4179
# 5 -30.4000 -11.4199 -18.7466 5.6862 40.5889 -3.2633
# 6 -5.6679 3.6322 -3.9605 -5.4179 -3.2633 30.6182
#
#
#
# Elastic Compliance Matrix: (Units=1/GPa)
#
#
# Indices 1 2 3 4 5 6 
#
# 1 0.014076 -0.003238 -0.003658 -0.003878 0.008707 0.002758
# 2 -0.003238 0.014206 0.000252 0.002465 0.001207 -0.001687
# 3 -0.003658 0.000252 0.017121 0.003473 0.004965 0.002651
# 4 -0.003878 0.002465 0.003473 0.029511 -0.004404 0.004192
# 5 0.008707 0.001207 0.004965 -0.004404 0.034814 0.005042
# 6 0.002758 -0.001687 0.002651 0.004192 0.005042 0.034993
#
#
# Mechanical properties :
#
#
# Convention : Reuss Voigt Hill
#
# Bulk Modulus (GPa) = 31.13920 42.75755 36.94838
# Shear Modulus (GPa) = 29.63544 34.59698 32.11621
#
# Velocity S-wave (km/s) = 3.68398 3.98044 3.83507
# Velocity P-wave (km/s) = 5.68823 6.38014 6.04410
#
# Compressibility (1/GPa) = 0.03211386
#
# Stress axis : x y z
#
# Youngs Moduli (GPa) = 71.04049 70.39264 58.40636
#
# Poissons Ratio (x) = 0.22794 0.21368
# Poissons Ratio (y) = 0.23004 -0.01470
# Poissons Ratio (z) = 0.25990 -0.01771
#
# Static dielectric constant tensor:
#      x y z
#    x 5.033010 1.830630 -0.312300 
#    y 1.830630 7.303670 -0.135570 
#    z -0.312300 -0.135570 3.912360 
# 
# 
# High freq. dielectric constant tensor:
#      x y z
#    x 1.868630 0.000900 -0.011250 
#    y 0.000900 1.877440 -0.002770 
#    z -0.011250 -0.002770 1.859050 
# 
# From -- ./inp_files/324262.got.cif
#   From: 2010.06.25/outbox.cif.g09.slc.cpg/sg2_163_cif.got.tgz:324262.got - 2010.06.27 13:26:56.
