data_PCOD8014896
_publ_section_title
;
Structure prediction by ZEFSAII (Michael W. Deem and Ramdas Pophale) SiO2 
 PCOD8014896
Probable space group: P -1
;
_chemical_formula_sum "Si O2"
_cell_formula_units_Z 16
_cell_length_a 14.670599
_cell_length_b 8.351555
_cell_length_c 8.844921
_cell_angle_alpha 98.083293
_cell_angle_beta 51.460639
_cell_angle_gamma 108.631405
_cell_volume 800.726030
_symmetry_space_group_name_H-M "P -1"
_symmetry_group_IT_number 2
_symmetry_cell_setting 'triclinic'
loop_
_space_group_symop_operation_xyz
x,y,z
-x,-y,-z
loop_
_atom_site_type_symbol
_atom_site_label
_atom_site_fract_x
_atom_site_fract_y
_atom_site_fract_z
Si Si1 0.235617 0.901693 0.768671
Si Si2 0.869829 0.492679 0.466110
Si Si3 0.916269 0.130285 0.353622
Si Si4 0.120726 0.649580 0.104710
Si Si5 0.358950 0.175101 0.923271
Si Si6 0.734947 0.086413 0.765411
Si Si7 0.162310 0.346650 0.164844
Si Si8 0.365244 0.751391 0.378798
O O1 0.138584 0.946641 0.761361
O O2 0.344009 0.863006 0.556490
O O3 0.160103 0.733089 0.913245
O O4 0.293981 0.058749 0.836390
O O5 0.898863 0.314965 0.425328
O O6 0.872863 0.576097 0.636223
O O7 0.731197 0.439488 0.536110
O O8 0.974140 0.618432 0.270912
O O9 0.834857 0.019367 0.558683
O O10 0.061839 0.159276 0.217622
O O11 0.195606 0.766760 0.174084
O O12 0.154006 0.472589 0.053735
O O13 0.295541 0.322803 0.029617
O O14 0.349511 0.070620 0.074064
O O15 0.499856 0.265696 0.752339
O O16 0.650130 0.155902 0.749931
#
# Coordination Sequence:
#
# PCOD8014896 Si02
#       8
#     2   2   2   2   2   2   2   2
#     4   9  21  36  58  76 101 141 188 212 249 322
#     4   9  17  32  57  80 101 135 173 220 257 306
#     4   9  17  34  59  77 103 139 176 218 264 304
#     4  10  16  35  60  82  98 136 182 216 265 310
#     4  11  23  33  52  84 108 143 172 212 270 308
#     4   9  17  35  58  77  98 138 189 211 250 315
#     4  11  19  32  55  83 117 126 165 234 271 303
#     4  10  20  37  58  72 107 145 184 211 245 318
#
# _framework density 19.981867000000001
#
# number of rings (size 3 to 8) (size 9 to 14) (size 15 to 20)
#    0.000    2.500    3.750    1.500    0.000    6.000 
#    0.000    0.625   11.000    0.000    0.000    0.000 
#    0.000    0.000    0.000    0.000    0.000    0.000 
#
# Total GULP energy -198274.958565 kJ/mol
# GULP energy per Si atom -12392.184910 kJ/mol
# Density = 1.993639 g / cm^3
# Si number density = 19.981867 Si / 1000 Ang^3
#
#
#
# Elastic Constant Matrix: (Units=GPa)
#
#
# Indices 1 2 3 4 5 6 
#
# 1 72.6061 21.7235 46.2243 -1.1124 -13.9016 11.8632
# 2 21.7235 36.1405 23.0939 -11.4701 -4.8579 9.8024
# 3 46.2243 23.0939 97.2142 -13.4445 -5.8603 3.8074
# 4 -1.1124 -11.4701 -13.4445 16.3165 9.1590 -4.3737
# 5 -13.9016 -4.8579 -5.8603 9.1590 42.1101 -0.4133
# 6 11.8632 9.8024 3.8074 -4.3737 -0.4133 17.3765
#
#
#
# Elastic Compliance Matrix: (Units=1/GPa)
#
#
# Indices 1 2 3 4 5 6 
#
# 1 0.033030 -0.013175 -0.015519 -0.033061 0.014222 -0.019701
# 2 -0.013175 0.048463 -0.000601 0.033510 -0.006228 -0.009926
# 3 -0.015519 -0.000601 0.019979 0.022188 -0.007121 0.011972
# 4 -0.033061 0.033510 0.022188 0.126366 -0.031152 0.029871
# 5 0.014222 -0.006228 -0.007121 -0.031152 0.033394 -0.011683
# 6 -0.019701 -0.009926 0.011972 0.029871 -0.011683 0.081216
#
#
# Mechanical properties :
#
#
# Convention : Reuss Voigt Hill
#
# Bulk Modulus (GPa) = 23.31905 43.11604 33.21755
# Shear Modulus (GPa) = 12.03854 22.82189 17.43022
#
# Velocity S-wave (km/s) = 2.45720 3.38321 2.95668
# Velocity P-wave (km/s) = 4.44363 6.07338 5.32127
#
# Compressibility (1/GPa) = 0.04288339
#
# Stress axis : x y z
#
# Youngs Moduli (GPa) = 30.27511 20.63419 50.05301
#
# Poissons Ratio (x) = 0.27185 0.77678
# Poissons Ratio (y) = 0.39887 0.03006
# Poissons Ratio (z) = 0.46984 0.01239
#
# Static dielectric constant tensor:
#      x y z
#    x 3.693640 0.279150 -0.081600 
#    y 0.279150 3.399380 -0.273020 
#    z -0.081600 -0.273020 3.915750 
# 
# 
# High freq. dielectric constant tensor:
#      x y z
#    x 1.768450 0.026110 0.002510 
#    y 0.026110 1.746880 -0.006660 
#    z 0.002510 -0.006660 1.787730 
# 
# From -- ./inp_files/176124.got.cif
#   From: 2010.06.25/outbox.cif.g09.slc.cpg/sg2_89_cif.got.tgz:176124.got - 2010.06.27 13:26:56.
