data_PCOD8014036
_publ_section_title
;
Structure prediction by ZEFSAII (Michael W. Deem and Ramdas Pophale) SiO2 
 PCOD8014036
Probable space group: P -1
;
_chemical_formula_sum "Si O2"
_cell_formula_units_Z 16
_cell_length_a 7.421185
_cell_length_b 14.314509
_cell_length_c 11.408015
_cell_angle_alpha 48.291413
_cell_angle_beta 93.964403
_cell_angle_gamma 69.845146
_cell_volume 768.489047
_symmetry_space_group_name_H-M "P -1"
_symmetry_group_IT_number 2
_symmetry_cell_setting 'triclinic'
loop_
_space_group_symop_operation_xyz
x,y,z
-x,-y,-z
loop_
_atom_site_type_symbol
_atom_site_label
_atom_site_fract_x
_atom_site_fract_y
_atom_site_fract_z
Si Si1 0.733741 0.205123 0.894711
Si Si2 0.990979 0.799967 0.704959
Si Si3 0.718443 0.124766 0.470416
Si Si4 0.916284 0.107286 0.734423
Si Si5 0.757893 0.655218 0.228916
Si Si6 0.067847 0.321542 0.549212
Si Si7 0.244400 0.331145 0.315952
Si Si8 0.925861 0.345981 0.928916
O O1 0.763186 0.186075 0.772361
O O2 0.492711 0.262219 0.869747
O O3 0.789947 0.324861 0.840109
O O4 0.885746 0.051717 0.093306
O O5 0.934370 0.688120 0.737805
O O6 0.200700 0.778437 0.670399
O O7 0.806603 0.970279 0.536795
O O8 0.027368 0.768887 0.870588
O O9 0.779792 0.096563 0.633606
O O10 0.467677 0.211946 0.371756
O O11 0.006355 0.204430 0.608710
O O12 0.815735 0.724312 0.282154
O O13 0.855561 0.483388 0.404216
O O14 0.856148 0.680297 0.095085
O O15 0.235894 0.313257 0.470142
O O16 0.205522 0.491753 0.156676
#
# Coordination Sequence:
#
# PCOD8014036 Si02
#       8
#     2   2   2   2   2   2   2   2
#     4  11  24  40  64  92 127 165 195 249 314 363
#     4  11  24  44  62  87 128 159 210 258 295 359
#     4  11  24  42  65  91 121 163 208 255 300 360
#     4  11  22  42  63  91 128 159 204 253 300 369
#     4  10  23  41  63  93 127 161 196 252 309 364
#     4  10  21  41  64  94 125 155 207 250 300 373
#     4  11  24  40  67  91 120 165 204 252 312 354
#     4  11  24  42  61  95 126 157 207 252 300 372
#
# _framework density 20.820074999999999
#
# number of rings (size 3 to 8) (size 9 to 14) (size 15 to 20)
#    0.000    1.250    3.750    1.500    1.750    3.500 
#    0.000    0.000    0.000    0.000    0.000    0.000 
#    0.000    0.000    0.000    0.000    0.000    0.000 
#
# Total GULP energy -198486.145882 kJ/mol
# GULP energy per Si atom -12405.384118 kJ/mol
# Density = 2.077269 g / cm^3
# Si number density = 20.820075 Si / 1000 Ang^3
#
#
#
# Elastic Constant Matrix: (Units=GPa)
#
#
# Indices 1 2 3 4 5 6 
#
# 1 81.7523 22.0363 24.2981 -2.7448 5.8745 -13.2115
# 2 22.0363 76.6275 11.2854 -0.3409 0.6201 4.6540
# 3 24.2981 11.2854 68.9396 11.0294 -11.2272 -6.9839
# 4 -2.7448 -0.3409 11.0294 30.2205 0.1812 -3.8898
# 5 5.8745 0.6201 -11.2272 0.1812 22.5160 -2.3202
# 6 -13.2115 4.6540 -6.9839 -3.8898 -2.3202 42.4366
#
#
#
# Elastic Compliance Matrix: (Units=1/GPa)
#
#
# Indices 1 2 3 4 5 6 
#
# 1 0.016694 -0.004022 -0.006648 0.004528 -0.007125 0.004570
# 2 -0.004022 0.014591 -0.001320 -0.000116 -0.000329 -0.003098
# 3 -0.006648 -0.001320 0.020465 -0.007983 0.012182 0.001377
# 4 0.004528 -0.000116 -0.007983 0.036857 -0.005125 0.003207
# 5 -0.007125 -0.000329 0.012182 -0.005125 0.052626 0.002230
# 6 0.004570 -0.003098 0.001377 0.003207 0.002230 0.025970
#
#
# Mechanical properties :
#
#
# Convention : Reuss Voigt Hill
#
# Bulk Modulus (GPa) = 36.00701 38.06212 37.03457
# Shear Modulus (GPa) = 24.94512 30.34791 27.64652
#
# Velocity S-wave (km/s) = 3.46515 3.82203 3.64796
# Velocity P-wave (km/s) = 5.77422 6.14804 5.96406
#
# Compressibility (1/GPa) = 0.02777237
#
# Stress axis : x y z
#
# Youngs Moduli (GPa) = 59.90030 68.53345 48.86365
#
# Poissons Ratio (x) = 0.27562 0.32482
# Poissons Ratio (y) = 0.24090 0.06451
# Poissons Ratio (z) = 0.39819 0.09047
#
# Static dielectric constant tensor:
#      x y z
#    x 3.574160 0.033830 -0.159890 
#    y 0.033830 3.871280 0.036420 
#    z -0.159890 0.036420 3.612820 
# 
# 
# High freq. dielectric constant tensor:
#      x y z
#    x 1.808870 0.005440 -0.014650 
#    y 0.005440 1.829560 0.003730 
#    z -0.014650 0.003730 1.808270 
# 
# From -- ./inp_files/69615.got.cif
#   From: 2010.06.25/outbox.cif.g09.slc.cpg/sg2_35_cif.got.tgz:69615.got - 2010.06.27 13:26:56.
