data_PCOD8014081
_publ_section_title
;
Structure prediction by ZEFSAII (Michael W. Deem and Ramdas Pophale) SiO2 
 PCOD8014081
Probable space group: P -1
;
_chemical_formula_sum "Si O2"
_cell_formula_units_Z 16
_cell_length_a 8.456040
_cell_length_b 21.785545
_cell_length_c 9.508614
_cell_angle_alpha 28.636805
_cell_angle_beta 67.460310
_cell_angle_gamma 69.660328
_cell_volume 775.126799
_symmetry_space_group_name_H-M "P -1"
_symmetry_group_IT_number 2
_symmetry_cell_setting 'triclinic'
loop_
_space_group_symop_operation_xyz
x,y,z
-x,-y,-z
loop_
_atom_site_type_symbol
_atom_site_label
_atom_site_fract_x
_atom_site_fract_y
_atom_site_fract_z
Si Si1 0.162946 0.584541 0.785524
Si Si2 0.255248 0.725711 0.724332
Si Si3 0.526901 0.491688 0.843236
Si Si4 0.955599 0.871385 0.692915
Si Si5 0.255380 0.266461 0.738394
Si Si6 0.964879 0.806244 0.296258
Si Si7 0.558972 0.092592 0.914756
Si Si8 0.827729 0.952398 0.296441
O O1 0.166568 0.611806 0.897814
O O2 0.335446 0.517272 0.795128
O O3 0.130121 0.712932 0.445793
O O4 0.000000 0.500000 0.000000
O O5 0.335032 0.800886 0.414712
O O6 0.130675 0.816176 0.674981
O O7 0.396282 0.652739 0.925150
O O8 0.661170 0.597059 0.533611
O O9 0.500000 0.500000 0.000000
O O10 0.808903 0.900265 0.566695
O O11 0.887730 0.762188 0.038855
O O12 0.000000 0.000000 0.500000
O O13 0.171347 0.260064 0.625374
O O14 0.398863 0.154840 0.924901
O O15 0.880424 0.829500 0.431366
O O16 0.019214 0.946005 0.943609
O O17 0.660444 0.018601 0.152760
O O18 0.500000 0.000000 0.000000
#
# Coordination Sequence:
#
# PCOD8014081 Si02
#       8
#     2   2   2   2   2   2   2   2
#     4  11  21  36  68  99 125 162 226 282 326 376
#     4  11  22  43  65  95 137 170 222 279 326 402
#     4  10  21  41  64  98 127 167 221 283 327 385
#     4  12  25  43  64 100 141 181 214 270 348 401
#     4  12  23  39  68  97 132 175 224 273 336 395
#     4  11  19  36  63  95 122 172 226 271 315 390
#     4  12  22  38  67  99 127 179 229 280 328 385
#     4  11  21  38  62  90 136 172 219 273 323 395
#
# _framework density 20.641783
#
# number of rings (size 3 to 8) (size 9 to 14) (size 15 to 20)
#    0.000    0.750    7.500    3.000    0.000    1.000 
#    0.000    0.000    0.000    1.500    0.000    0.000 
#    0.000    0.000    0.000    0.000    0.000    0.000 
#
# Total GULP energy -198303.613066 kJ/mol
# GULP energy per Si atom -12393.975817 kJ/mol
# Density = 2.059480 g / cm^3
# Si number density = 20.641783 Si / 1000 Ang^3
#
#
#
# Elastic Constant Matrix: (Units=GPa)
#
#
# Indices 1 2 3 4 5 6 
#
# 1 127.9319 40.0933 43.4246 -9.5483 24.2242 -3.1237
# 2 40.0933 78.0011 27.6651 -2.1568 14.8980 -2.5023
# 3 43.4246 27.6651 91.8559 -1.6264 14.9727 -2.2470
# 4 -9.5483 -2.1568 -1.6264 29.5178 -7.4297 6.5384
# 5 24.2242 14.8980 14.9727 -7.4297 47.0295 -9.6003
# 6 -3.1237 -2.5023 -2.2470 6.5384 -9.6003 32.4812
#
#
#
# Elastic Compliance Matrix: (Units=1/GPa)
#
#
# Indices 1 2 3 4 5 6 
#
# 1 0.010935 -0.003739 -0.003513 0.002485 -0.003121 -0.000902
# 2 -0.003739 0.016149 -0.002712 -0.000822 -0.002427 0.000145
# 3 -0.003513 -0.002712 0.013645 -0.001058 -0.001829 0.000070
# 4 0.002485 -0.000822 -0.001058 0.036910 0.003887 -0.006179
# 5 -0.003121 -0.002427 -0.001829 0.003887 0.026128 0.006326
# 6 -0.000902 0.000145 0.000070 -0.006179 0.006326 0.033830
#
#
# Mechanical properties :
#
#
# Convention : Reuss Voigt Hill
#
# Bulk Modulus (GPa) = 48.07050 57.79500 52.93275
# Shear Modulus (GPa) = 30.40279 34.24608 32.32444
#
# Velocity S-wave (km/s) = 3.84197 4.07758 3.96153
# Velocity P-wave (km/s) = 6.55893 7.08722 6.82818
#
# Compressibility (1/GPa) = 0.02080278
#
# Stress axis : x y z
#
# Youngs Moduli (GPa) = 91.44707 61.92173 73.28671
#
# Poissons Ratio (x) = 0.23152 0.25744
# Poissons Ratio (y) = 0.34192 0.19873
# Poissons Ratio (z) = 0.32123 0.16791
#
# Static dielectric constant tensor:
#      x y z
#    x 4.042640 -0.312390 0.584840 
#    y -0.312390 3.194430 0.125500 
#    z 0.584840 0.125500 3.597840 
# 
# 
# High freq. dielectric constant tensor:
#      x y z
#    x 1.817530 0.000160 0.014720 
#    y 0.000160 1.774760 -0.022390 
#    z 0.014720 -0.022390 1.811200 
# 
# From -- ./inp_files/221543.got.cif
#   From: 2010.06.25/outbox.cif.g09.slc.cpg/sg2_111_cif.got.tgz:221543.got - 2010.06.27 13:26:56.
