data_PCOD8014335
_publ_section_title
;
Structure prediction by ZEFSAII (Michael W. Deem and Ramdas Pophale) SiO2 
 PCOD8014335
Probable space group: P -1
;
_chemical_formula_sum "Si O2"
_cell_formula_units_Z 14
_cell_length_a 21.574713
_cell_length_b 5.161965
_cell_length_c 21.105599
_cell_angle_alpha 67.813753
_cell_angle_beta 160.034780
_cell_angle_gamma 119.251389
_cell_volume 673.414361
_symmetry_space_group_name_H-M "P -1"
_symmetry_group_IT_number 2
_symmetry_cell_setting 'triclinic'
loop_
_space_group_symop_operation_xyz
x,y,z
-x,-y,-z
loop_
_atom_site_type_symbol
_atom_site_label
_atom_site_fract_x
_atom_site_fract_y
_atom_site_fract_z
Si Si1 0.436581 0.902209 0.640761
Si Si2 0.859654 0.174574 0.025787
Si Si3 0.743172 0.153580 0.228315
Si Si4 0.025374 0.120995 0.607852
Si Si5 0.439146 0.143284 0.488452
Si Si6 0.986344 0.866901 0.067977
Si Si7 0.823028 0.802370 0.569609
O O1 0.315370 0.539453 0.553560
O O2 0.525642 0.078978 0.642959
O O3 0.310751 0.038138 0.546984
O O4 0.644624 0.975591 0.870884
O O5 0.868287 0.502866 0.984762
O O6 0.034479 0.211524 0.237490
O O7 0.868591 0.000776 0.986831
O O8 0.822235 0.520939 0.274034
O O9 0.824442 0.051751 0.379561
O O10 0.847185 0.058690 0.278959
O O11 0.500000 0.000000 0.000000
O O12 0.954407 0.000917 0.620426
O O13 0.500000 0.500000 0.500000
O O14 0.500000 0.000000 0.500000
O O15 0.206535 0.963085 0.297266
O O16 0.000000 0.000000 0.000000
#
# Coordination Sequence:
#
# PCOD8014335 Si02
#       7
#     2   2   2   2   2   2   2
#     4  12  25  42  63  89 125 165 208 264 318 381
#     4  12  24  43  62  88 122 161 205 260 318 377
#     4  10  21  41  66  97 134 165 213 253 301 364
#     4  10  23  39  65  97 129 172 208 257 303 368
#     4  12  22  38  60  87 115 152 206 260 315 374
#     4  12  23  41  62  87 120 154 206 266 320 379
#     4  12  24  44  63  93 132 165 212 257 316 379
#
# _framework density 20.789579
#
# number of rings (size 3 to 8) (size 9 to 14) (size 15 to 20)
#    0.000    0.571    2.857    6.000    0.000    2.286 
#    0.000    0.000    0.000    0.000    0.000    0.000 
#    0.000    0.000    0.000    0.000    0.000    0.000 
#
# Total GULP energy -173592.959294 kJ/mol
# GULP energy per Si atom -12399.497092 kJ/mol
# Density = 2.074226 g / cm^3
# Si number density = 20.789579 Si / 1000 Ang^3
#
#
#
# Elastic Constant Matrix: (Units=GPa)
#
#
# Indices 1 2 3 4 5 6 
#
# 1 112.0292 46.3496 22.8017 -0.7830 19.0870 -18.7486
# 2 46.3496 86.1626 27.3619 9.4157 4.9723 -27.8828
# 3 22.8017 27.3619 143.7143 12.1493 16.9010 -21.2141
# 4 -0.7830 9.4157 12.1493 32.2767 -11.9273 2.6404
# 5 19.0870 4.9723 16.9010 -11.9273 29.0634 -0.1948
# 6 -18.7486 -27.8828 -21.2141 2.6404 -0.1948 44.5397
#
#
#
# Elastic Compliance Matrix: (Units=1/GPa)
#
#
# Indices 1 2 3 4 5 6 
#
# 1 0.013014 -0.005828 0.000462 -0.001431 -0.008392 0.002098
# 2 -0.005828 0.018839 -0.000438 -0.006969 -0.001937 0.009537
# 3 0.000462 -0.000438 0.009214 -0.006796 -0.008345 0.004676
# 4 -0.001431 -0.006969 -0.006796 0.045550 0.024705 -0.010794
# 5 -0.008392 -0.001937 -0.008345 0.024705 0.055175 -0.009943
# 6 0.002098 0.009537 0.004676 -0.010794 -0.009943 0.032129
#
#
# Mechanical properties :
#
#
# Convention : Reuss Voigt Hill
#
# Bulk Modulus (GPa) = 33.94246 59.43694 46.68970
# Shear Modulus (GPa) = 25.59524 37.53547 31.56535
#
# Velocity S-wave (km/s) = 3.51259 4.25372 3.90080
# Velocity P-wave (km/s) = 5.72828 7.26480 6.54181
#
# Compressibility (1/GPa) = 0.02946162
#
# Stress axis : x y z
#
# Youngs Moduli (GPa) = 76.83890 53.08001 108.52794
#
# Poissons Ratio (x) = 0.30935 -0.05018
# Poissons Ratio (y) = 0.44782 0.04748
# Poissons Ratio (z) = -0.03552 0.02322
#
# Static dielectric constant tensor:
#      x y z
#    x 3.850270 -0.142170 -0.036150 
#    y -0.142170 3.923050 -0.172750 
#    z -0.036150 -0.172750 3.425590 
# 
# 
# High freq. dielectric constant tensor:
#      x y z
#    x 1.816660 -0.019280 0.002120 
#    y -0.019280 1.822340 0.001810 
#    z 0.002120 0.001810 1.836030 
# 
# From -- ./inp_files/600734.got.cif
#   From: 2010.06.25/outbox.cif.g09.slc.cpg/sg2_301_cif.got.tgz:600734.got - 2010.06.27 13:26:56.
