data_PCOD8014014
_publ_section_title
;
Structure prediction by ZEFSAII (Michael W. Deem and Ramdas Pophale) SiO2 
 PCOD8014014
Probable space group: P -1
;
_chemical_formula_sum "Si O2"
_cell_formula_units_Z 12
_cell_length_a 9.934680
_cell_length_b 9.934928
_cell_length_c 16.280952
_cell_angle_alpha 43.384430
_cell_angle_beta 33.096167
_cell_angle_gamma 42.109842
_cell_volume 563.546063
_symmetry_space_group_name_H-M "P -1"
_symmetry_group_IT_number 2
_symmetry_cell_setting 'triclinic'
loop_
_space_group_symop_operation_xyz
x,y,z
-x,-y,-z
loop_
_atom_site_type_symbol
_atom_site_label
_atom_site_fract_x
_atom_site_fract_y
_atom_site_fract_z
Si Si1 0.206930 0.864309 0.231028
Si Si2 0.119178 0.418886 0.221326
Si Si3 0.192215 0.326984 0.037599
Si Si4 0.796888 0.204061 0.553906
Si Si5 0.028266 0.844240 0.161407
Si Si6 0.413452 0.994190 0.804664
O O1 0.138763 0.784335 0.387930
O O2 0.024885 0.821508 0.271567
O O3 0.133176 0.113401 0.164035
O O4 0.507538 0.728444 0.117234
O O5 0.144854 0.427960 0.106997
O O6 0.155454 0.622520 0.149772
O O7 0.344830 0.220585 0.233188
O O8 0.836338 0.403058 0.400486
O O9 0.000000 0.500000 0.000000
O O10 0.507240 0.187161 0.697719
O O11 0.000000 0.000000 0.500000
O O12 0.211519 0.980183 0.985116
O O13 0.731518 0.958556 0.230135
#
# Coordination Sequence:
#
# PCOD8014014 Si02
#       6
#     2   2   2   2   2   2
#     4  11  22  43  62  95 132 162 215 268 308 375
#     4  11  23  42  65  95 130 164 215 260 317 379
#     4  11  24  38  67  97 125 171 219 257 308 384
#     4  10  21  44  67  87 130 178 204 259 322 378
#     4  11  24  36  67  98 127 164 211 266 317 370
#     4  10  21  41  64  91 129 172 204 255 323 375
#
# _framework density 21.293731999999999
#
# number of rings (size 3 to 8) (size 9 to 14) (size 15 to 20)
#    0.000    1.333    5.000    1.500    7.000    1.333 
#    0.000    3.333    0.000    0.000    0.000    0.000 
#    0.000    0.000    0.000    0.000    0.000    0.000 
#
# Total GULP energy -148786.122158 kJ/mol
# GULP energy per Si atom -12398.843513 kJ/mol
# Density = 2.124527 g / cm^3
# Si number density = 21.293732 Si / 1000 Ang^3
#
#
#
# Elastic Constant Matrix: (Units=GPa)
#
#
# Indices 1 2 3 4 5 6 
#
# 1 148.2092 39.8127 35.9917 18.2746 13.5833 10.3969
# 2 39.8127 63.3598 9.8587 1.4458 10.7836 -0.7556
# 3 35.9917 9.8587 83.8703 11.8992 10.9668 5.6531
# 4 18.2746 1.4458 11.8992 12.0796 8.4054 8.2441
# 5 13.5833 10.7836 10.9668 8.4054 36.3542 9.0497
# 6 10.3969 -0.7556 5.6531 8.2441 9.0497 42.3128
#
#
#
# Elastic Compliance Matrix: (Units=1/GPa)
#
#
# Indices 1 2 3 4 5 6 
#
# 1 0.010543 -0.006309 -0.001962 -0.014576 0.001896 -0.000007
# 2 -0.006309 0.020702 -0.000563 0.011365 -0.006534 0.001179
# 3 -0.001962 -0.000563 0.014490 -0.011085 -0.001142 0.000940
# 4 -0.014576 0.011365 -0.011085 0.142481 -0.023157 -0.017542
# 5 0.001896 -0.006534 -0.001142 -0.023157 0.035299 -0.003468
# 6 -0.000007 0.001179 0.000940 -0.017542 -0.003468 0.027690
#
#
# Mechanical properties :
#
#
# Convention : Reuss Voigt Hill
#
# Bulk Modulus (GPa) = 35.63131 51.86285 43.74708
# Shear Modulus (GPa) = 17.97086 32.13440 25.05263
#
# Velocity S-wave (km/s) = 2.90823 3.88893 3.43377
# Velocity P-wave (km/s) = 5.29591 6.67636 6.02580
#
# Compressibility (1/GPa) = 0.02806520
#
# Stress axis : x y z
#
# Youngs Moduli (GPa) = 94.85407 48.30467 69.01317
#
# Poissons Ratio (x) = 0.30477 0.13540
# Poissons Ratio (y) = 0.59847 0.03887
# Poissons Ratio (z) = 0.18610 0.02721
#
# Static dielectric constant tensor:
#      x y z
#    x 4.085840 0.021820 -0.160740 
#    y 0.021820 3.700090 -0.152570 
#    z -0.160740 -0.152570 4.792280 
# 
# 
# High freq. dielectric constant tensor:
#      x y z
#    x 1.844450 0.000270 0.003170 
#    y 0.000270 1.825750 -0.003430 
#    z 0.003170 -0.003430 1.826210 
# 
# From -- ./inp_files/151848.got.cif
#   From: 2010.06.25/outbox.cif.g09.slc.cpg/sg2_76_cif.got.tgz:151848.got - 2010.06.27 13:26:56.
