data_PCOD8014292
_publ_section_title
;
Structure prediction by ZEFSAII (Michael W. Deem and Ramdas Pophale) SiO2 
 PCOD8014292
Probable space group: P -1
;
_chemical_formula_sum "Si O2"
_cell_formula_units_Z 16
_cell_length_a 8.924404
_cell_length_b 17.836856
_cell_length_c 15.841364
_cell_angle_alpha 32.881790
_cell_angle_beta 55.685614
_cell_angle_gamma 79.174690
_cell_volume 871.747957
_symmetry_space_group_name_H-M "P -1"
_symmetry_group_IT_number 2
_symmetry_cell_setting 'triclinic'
loop_
_space_group_symop_operation_xyz
x,y,z
-x,-y,-z
loop_
_atom_site_type_symbol
_atom_site_label
_atom_site_fract_x
_atom_site_fract_y
_atom_site_fract_z
Si Si1 0.918835 0.311286 0.868996
Si Si2 0.196600 0.132784 0.095367
Si Si3 0.571192 0.379332 0.610583
Si Si4 0.804837 0.950891 0.273528
Si Si5 0.386627 0.884453 0.561620
Si Si6 0.525838 0.240278 0.576291
Si Si7 0.581056 0.959019 0.764195
Si Si8 0.958896 0.633317 0.037937
O O1 0.148242 0.490641 0.583247
O O2 0.912152 0.352393 0.930606
O O3 0.678691 0.239115 0.966408
O O4 0.938153 0.154680 0.009582
O O5 0.233781 0.051725 0.239973
O O6 0.441243 0.258896 0.847643
O O7 0.114218 0.241408 0.051693
O O8 0.995734 0.964419 0.258158
O O9 0.500000 0.500000 0.500000
O O10 0.498797 0.253830 0.671139
O O11 0.567258 0.861634 0.487299
O O12 0.715133 0.831334 0.329594
O O13 0.500000 0.000000 0.500000
O O14 0.340609 0.980308 0.415172
O O15 0.136318 0.695586 0.844586
O O16 0.732320 0.429032 0.289129
O O17 0.573471 0.101046 0.680973
#
# Coordination Sequence:
#
# PCOD8014292 Si02
#       8
#     2   2   2   2   2   2   2   2
#     4   8  16  33  52  75 103 137 179 209 253 324
#     4  11  21  34  53  82 112 136 180 228 264 305
#     4  11  18  34  60  79 100 143 186 222 253 314
#     4   9  18  33  52  79 109 137 182 218 258 318
#     4  10  16  34  61  78 102 148 180 211 264 326
#     4   9  20  36  55  78 105 140 185 213 262 324
#     4  10  22  35  51  84 114 136 173 226 272 314
#     4  10  17  34  60  80 100 140 188 218 249 322
#
# _framework density 18.353929000000001
#
# number of rings (size 3 to 8) (size 9 to 14) (size 15 to 20)
#    0.000    2.500    7.500    0.000    0.000    4.000 
#    0.000    2.500    0.000    1.500    0.000    0.000 
#    0.000    0.000    0.000    0.000    0.000    0.000 
#
# Total GULP energy -198247.013000 kJ/mol
# GULP energy per Si atom -12390.438312 kJ/mol
# Density = 1.831215 g / cm^3
# Si number density = 18.353929 Si / 1000 Ang^3
#
#
#
# Elastic Constant Matrix: (Units=GPa)
#
#
# Indices 1 2 3 4 5 6 
#
# 1 98.2825 12.7443 25.9748 -7.6832 -6.2840 16.7641
# 2 12.7443 65.4785 22.1887 -6.4157 -0.9296 9.2289
# 3 25.9748 22.1887 100.0380 8.2449 -12.3135 9.5868
# 4 -7.6832 -6.4157 8.2449 34.1379 8.5601 -6.7037
# 5 -6.2840 -0.9296 -12.3135 8.5601 22.0145 -2.0251
# 6 16.7641 9.2289 9.5868 -6.7037 -2.0251 22.5064
#
#
#
# Elastic Compliance Matrix: (Units=1/GPa)
#
#
# Indices 1 2 3 4 5 6 
#
# 1 0.012312 -0.000351 -0.002441 0.001631 0.000817 -0.007428
# 2 -0.000351 0.017768 -0.004285 0.004433 -0.003859 -0.004226
# 3 -0.002441 -0.004285 0.013752 -0.007794 0.009500 -0.003749
# 4 0.001631 0.004433 -0.007794 0.038873 -0.017879 0.010257
# 5 0.000817 -0.003859 0.009500 -0.017879 0.057463 -0.003227
# 6 -0.007428 -0.004226 -0.003749 0.010257 -0.003227 0.056059
#
#
# Mechanical properties :
#
#
# Convention : Reuss Voigt Hill
#
# Bulk Modulus (GPa) = 33.69614 42.84604 38.27109
# Shear Modulus (GPa) = 22.69907 29.25785 25.97846
#
# Velocity S-wave (km/s) = 3.52055 3.99694 3.76628
# Velocity P-wave (km/s) = 5.90971 6.68549 6.30953
#
# Compressibility (1/GPa) = 0.02967699
#
# Stress axis : x y z
#
# Youngs Moduli (GPa) = 81.22103 56.28150 72.71933
#
# Poissons Ratio (x) = 0.01974 0.17752
# Poissons Ratio (y) = 0.02849 0.31162
# Poissons Ratio (z) = 0.19827 0.24118
#
# Static dielectric constant tensor:
#      x y z
#    x 3.206630 0.314200 -0.338070 
#    y 0.314200 3.473020 0.128730 
#    z -0.338070 0.128730 3.886210 
# 
# 
# High freq. dielectric constant tensor:
#      x y z
#    x 1.681120 0.028530 -0.022060 
#    y 0.028530 1.700800 0.002140 
#    z -0.022060 0.002140 1.716470 
# 
# From -- ./inp_files/507002.got.cif
#   From: 2010.06.25/outbox.cif.g09.slc.cpg/sg2_254_cif.got.tgz:507002.got - 2010.06.27 13:26:56.
