data_PCOD8014255
_publ_section_title
;
Structure prediction by ZEFSAII (Michael W. Deem and Ramdas Pophale) SiO2 
 PCOD8014255
Probable space group: P -1
;
_chemical_formula_sum "Si O2"
_cell_formula_units_Z 12
_cell_length_a 23.403166
_cell_length_b 28.507281
_cell_length_c 28.923755
_cell_angle_alpha 10.101448
_cell_angle_beta 10.739817
_cell_angle_gamma 11.736066
_cell_volume 587.852252
_symmetry_space_group_name_H-M "P -1"
_symmetry_group_IT_number 2
_symmetry_cell_setting 'triclinic'
loop_
_space_group_symop_operation_xyz
x,y,z
-x,-y,-z
loop_
_atom_site_type_symbol
_atom_site_label
_atom_site_fract_x
_atom_site_fract_y
_atom_site_fract_z
Si Si1 0.895304 0.133634 0.752033
Si Si2 0.765872 0.781636 0.856842
Si Si3 0.834210 0.266448 0.778084
Si Si4 0.791881 0.868470 0.857852
Si Si5 0.218599 0.669403 0.094000
Si Si6 0.304339 0.483727 0.053537
O O1 0.830046 0.192762 0.799949
O O2 0.009417 0.379140 0.402044
O O3 0.569894 0.141327 0.978198
O O4 0.177719 0.825437 0.820814
O O5 0.661877 0.868016 0.909115
O O6 0.967002 0.956120 0.504026
O O7 0.992517 0.453463 0.987377
O O8 0.932119 0.541585 0.443134
O O9 0.454442 0.354957 0.009640
O O10 0.082249 0.000518 0.867097
O O11 0.500000 0.000000 0.000000
O O12 0.500000 0.500000 0.000000
O O13 0.378811 0.642014 0.043326
#
# Coordination Sequence:
#
# PCOD8014255 Si02
#       6
#     2   2   2   2   2   2
#     4  12  24  41  59  89 125 152 192 245 296 352
#     4  10  23  39  62  93 121 152 194 238 285 351
#     4  12  24  40  60  86 116 157 202 249 297 343
#     4  10  21  41  66  90 118 156 194 233 285 347
#     4  12  21  41  63  80 116 158 204 252 291 341
#     4  12  25  39  61  86 117 160 200 244 299 346
#
# _framework density 20.413291999999998
#
# number of rings (size 3 to 8) (size 9 to 14) (size 15 to 20)
#    0.000    0.667    3.333    5.000    0.000    2.667 
#    0.000    0.000    0.000    0.000    0.000    0.000 
#    0.000    0.000    0.000    0.000    0.000    0.000 
#
# Total GULP energy -148832.631121 kJ/mol
# GULP energy per Si atom -12402.719260 kJ/mol
# Density = 2.036683 g / cm^3
# Si number density = 20.413292 Si / 1000 Ang^3
#
#
#
# Elastic Constant Matrix: (Units=GPa)
#
#
# Indices 1 2 3 4 5 6 
#
# 1 -429.8402 1255.5101 -648.1403 -407.2355 26.6495 -374.8829
# 2 1255.5101-2320.1388 1357.5614 850.4820 -42.0726 791.1372
# 3 -648.1403 1357.5614 -562.9713 -452.2290 27.5573 -416.4642
# 4 -407.2355 850.4820 -452.2290 -254.1393 15.0851 -267.0065
# 5 26.6495 -42.0726 27.5573 15.0851 38.7915 28.8270
# 6 -374.8829 791.1372 -416.4642 -267.0065 28.8270 -201.5166
#
#
#
# Elastic Compliance Matrix: (Units=1/GPa)
#
#
# Indices 1 2 3 4 5 6 
#
# 1 0.005605 0.000338 -0.000894 -0.003356 0.000489 -0.002737
# 2 0.000338 0.002889 0.001026 0.004025 -0.001641 0.003026
# 3 -0.000894 0.001026 0.005649 -0.002690 0.000505 -0.002348
# 4 -0.003356 0.004025 -0.002690 0.024255 0.002277 -0.004208
# 5 0.000489 -0.001641 0.000505 0.002277 0.027931 -0.007418
# 6 -0.002737 0.003026 -0.002348 -0.004208 -0.007418 0.021376
#
#
# Mechanical properties :
#
#
# Convention : Reuss Voigt Hill
#
# Bulk Modulus (GPa) = 66.28998 68.54578 67.41788
# Shear Modulus (GPa) = 54.47060 -435.23165 -190.38052
#
# Velocity S-wave (km/s) = 5.17125 -14.61755 -9.66775
# Velocity P-wave (km/s) = 8.25834 15.85071 9.56674
#
# Compressibility (1/GPa) = 0.01508524
#
# Stress axis : x y z
#
# Youngs Moduli (GPa) = 178.40038 346.09077 177.02241
#
# Poissons Ratio (x) = -0.11706 0.15817
# Poissons Ratio (y) = -0.06034 -0.18163
# Poissons Ratio (z) = 0.15940 -0.35509
#
# Static dielectric constant tensor:
#      x y z
#    x 9.118410 -0.046510 -3.587520 
#    y -0.046510 3.738340 -0.040130 
#    z -3.587520 -0.040130 6.667660 
# 
# 
# High freq. dielectric constant tensor:
#      x y z
#    x 1.801380 0.013790 0.008990 
#    y 0.013790 1.806550 -0.009550 
#    z 0.008990 -0.009550 1.813560 
# 
# From -- ./inp_files/98097.got.cif
#   From: 2010.06.25/outbox.cif.g09.slc.cpg/sg2_50_cif.got.tgz:98097.got - 2010.06.27 13:26:56.
