data_PCOD8014141
_publ_section_title
;
Structure prediction by ZEFSAII (Michael W. Deem and Ramdas Pophale) SiO2 
 PCOD8014141
Probable space group: P -1
;
_chemical_formula_sum "Si O2"
_cell_formula_units_Z 14
_cell_length_a 8.547827
_cell_length_b 17.486667
_cell_length_c 12.563508
_cell_angle_alpha 30.875068
_cell_angle_beta 54.479373
_cell_angle_gamma 41.133476
_cell_volume 621.895067
_symmetry_space_group_name_H-M "P -1"
_symmetry_group_IT_number 2
_symmetry_cell_setting 'triclinic'
loop_
_space_group_symop_operation_xyz
x,y,z
-x,-y,-z
loop_
_atom_site_type_symbol
_atom_site_label
_atom_site_fract_x
_atom_site_fract_y
_atom_site_fract_z
Si Si1 0.071360 0.444071 0.788352
Si Si2 0.329562 0.484662 0.295153
Si Si3 0.713353 0.127840 0.444214
Si Si4 0.601364 0.217827 0.145176
Si Si5 0.983533 0.205774 0.526958
Si Si6 0.178995 0.233656 0.208053
Si Si7 0.478568 0.363097 0.604435
O O1 0.352019 0.298736 0.808181
O O2 0.898220 0.449721 0.764620
O O3 0.006664 0.649925 0.577397
O O4 0.040143 0.374037 0.996236
O O5 0.570561 0.283684 0.404047
O O6 0.292020 0.462535 0.460089
O O7 0.367225 0.643687 0.094066
O O8 0.632981 0.237782 0.233082
O O9 0.648121 0.982214 0.644232
O O10 0.000000 0.000000 0.500000
O O11 0.332595 0.285131 0.147670
O O12 0.787013 0.004816 0.284839
O O13 0.985520 0.255257 0.342499
O O14 0.751718 0.207612 0.639230
O O15 0.500000 0.500000 0.500000
#
# Coordination Sequence:
#
# PCOD8014141 Si02
#       7
#     2   2   2   2   2   2   2
#     4  11  23  41  64  94 125 165 210 259 309 363
#     4  12  23  40  63  91 126 165 206 260 312 367
#     4  11  23  39  61  96 131 160 202 261 315 365
#     4  11  22  38  63  97 128 167 207 250 311 375
#     4  10  21  41  65  91 127 167 208 254 305 371
#     4  11  22  40  64  95 127 165 208 251 309 377
#     4  10  23  43  63  88 124 167 211 257 310 372
#
# _framework density 22.511837
#
# number of rings (size 3 to 8) (size 9 to 14) (size 15 to 20)
#    0.000    1.143    0.000    9.000    0.000    2.286 
#    0.000   10.714    0.000    0.000    0.000    0.000 
#    0.000    0.000    0.000    0.000    0.000    0.000 
#
# Total GULP energy -173526.924025 kJ/mol
# GULP energy per Si atom -12394.780288 kJ/mol
# Density = 2.246060 g / cm^3
# Si number density = 22.511837 Si / 1000 Ang^3
#
#
#
# Elastic Constant Matrix: (Units=GPa)
#
#
# Indices 1 2 3 4 5 6 
#
# 1 119.5422 30.2632 8.3193 11.5295 8.9544 -2.6194
# 2 30.2632 103.3201 32.8519 11.2336 -7.9046 -5.1022
# 3 8.3193 32.8519 56.9707 -3.1499 -13.5104 9.1591
# 4 11.5295 11.2336 -3.1499 25.9762 4.1997 -5.0402
# 5 8.9544 -7.9046 -13.5104 4.1997 40.2435 6.6083
# 6 -2.6194 -5.1022 9.1591 -5.0402 6.6083 29.2561
#
#
#
# Elastic Compliance Matrix: (Units=1/GPa)
#
#
# Indices 1 2 3 4 5 6 
#
# 1 0.009517 -0.002345 -0.000993 -0.002703 -0.002780 0.000916
# 2 -0.002345 0.013854 -0.008491 -0.005275 0.000305 0.003887
# 3 -0.000993 -0.008491 0.026760 0.003699 0.009014 -0.011346
# 4 -0.002703 -0.005275 0.003699 0.044468 -0.004892 0.006446
# 5 -0.002780 0.000305 0.009014 -0.004892 0.030842 -0.010827
# 6 0.000916 0.003887 -0.011346 0.006446 -0.010827 0.042049
#
#
# Mechanical properties :
#
#
# Convention : Reuss Voigt Hill
#
# Bulk Modulus (GPa) = 37.77446 46.96686 42.37066
# Shear Modulus (GPa) = 25.00325 32.98839 28.99582
#
# Velocity S-wave (km/s) = 3.33629 3.83218 3.59280
# Velocity P-wave (km/s) = 5.62649 6.36312 6.00611
#
# Compressibility (1/GPa) = 0.02647291
#
# Stress axis : x y z
#
# Youngs Moduli (GPa) = 105.07335 72.18064 37.36851
#
# Poissons Ratio (x) = 0.16929 0.03712
# Poissons Ratio (y) = 0.24643 0.31728
# Poissons Ratio (z) = 0.10439 0.61286
#
# Static dielectric constant tensor:
#      x y z
#    x 4.232760 0.014320 -0.236120 
#    y 0.014320 4.523600 0.165050 
#    z -0.236120 0.165050 4.122960 
# 
# 
# High freq. dielectric constant tensor:
#      x y z
#    x 1.907710 0.005950 -0.003520 
#    y 0.005950 1.885250 0.004090 
#    z -0.003520 0.004090 1.868680 
# 
# From -- ./inp_files/159089.got.cif
#   From: 2010.06.25/outbox.cif.g09.slc.cpg/sg2_80_cif.got.tgz:159089.got - 2010.06.27 13:26:56.
