data_PCOD8014113
_publ_section_title
;
Structure prediction by ZEFSAII (Michael W. Deem and Ramdas Pophale) SiO2 
 PCOD8014113
Probable space group: P -1
;
_chemical_formula_sum "Si O2"
_cell_formula_units_Z 16
_cell_length_a 17.282710
_cell_length_b 20.572158
_cell_length_c 11.570443
_cell_angle_alpha 22.340126
_cell_angle_beta 44.776142
_cell_angle_gamma 32.328719
_cell_volume 782.451317
_symmetry_space_group_name_H-M "P -1"
_symmetry_group_IT_number 2
_symmetry_cell_setting 'triclinic'
loop_
_space_group_symop_operation_xyz
x,y,z
-x,-y,-z
loop_
_atom_site_type_symbol
_atom_site_label
_atom_site_fract_x
_atom_site_fract_y
_atom_site_fract_z
Si Si1 0.919244 0.496271 0.441341
Si Si2 0.852708 0.203011 0.082805
Si Si3 0.754825 0.796185 0.329125
Si Si4 0.670812 0.259528 0.740039
Si Si5 0.938079 0.569571 0.823850
Si Si6 0.362851 0.427092 0.113159
Si Si7 0.857284 0.275885 0.348209
Si Si8 0.289517 0.880179 0.818160
O O1 0.774983 0.743673 0.254545
O O2 0.076339 0.416416 0.446529
O O3 0.918786 0.529949 0.248281
O O4 0.927612 0.285281 0.805383
O O5 0.815975 0.101986 0.191835
O O6 0.694551 0.428987 0.942210
O O7 0.972758 0.997952 0.389047
O O8 0.648181 0.767027 0.547616
O O9 0.687953 0.054361 0.001743
O O10 0.500000 0.500000 0.500000
O O11 0.784913 0.273667 0.543181
O O12 0.700560 0.236520 0.882624
O O13 0.791448 0.854073 0.500000
O O14 0.872379 0.459613 0.041792
O O15 0.000000 0.500000 0.000000
O O16 0.540414 0.277468 0.153038
O O17 0.255201 0.632298 0.791888
#
# Coordination Sequence:
#
# PCOD8014113 Si02
#       8
#     2   2   2   2   2   2   2   2
#     4  10  21  41  65  89 122 165 213 263 318 375
#     4  11  24  42  66  95 130 174 217 267 321 382
#     4  10  21  41  65  89 122 165 213 263 318 375
#     4  12  25  41  64  98 129 169 210 268 326 381
#     4  12  25  41  64  98 129 169 210 268 326 381
#     4  11  24  42  66  95 130 174 217 267 321 382
#     4  12  23  40  66  96 127 166 226 270 311 380
#     4  12  25  44  63  92 142 172 208 266 333 390
#
# _framework density 20.448556
#
# number of rings (size 3 to 8) (size 9 to 14) (size 15 to 20)
#    0.000    0.750    6.250    0.750    3.500    3.000 
#    0.000    0.000    0.000    3.000    0.000    0.000 
#    0.000    0.000    0.000    0.000    0.000    0.000 
#
# Total GULP energy -198390.239414 kJ/mol
# GULP energy per Si atom -12399.389963 kJ/mol
# Density = 2.040201 g / cm^3
# Si number density = 20.448556 Si / 1000 Ang^3
#
#
#
# Elastic Constant Matrix: (Units=GPa)
#
#
# Indices 1 2 3 4 5 6 
#
# 1 57.8838 21.0918 21.1278 8.6315 5.8260 2.2676
# 2 21.0918 109.1225 38.0515 13.2825 2.6898 7.2629
# 3 21.1278 38.0515 90.0597 11.9365 -3.6422 3.4243
# 4 8.6315 13.2825 11.9365 33.1965 -0.0737 5.0667
# 5 5.8260 2.6898 -3.6422 -0.0737 38.6921 4.2850
# 6 2.2676 7.2629 3.4243 5.0667 4.2850 30.6331
#
#
#
# Elastic Compliance Matrix: (Units=1/GPa)
#
#
# Indices 1 2 3 4 5 6 
#
# 1 0.020155 -0.002233 -0.003514 -0.003153 -0.003262 0.000408
# 2 -0.002233 0.011375 -0.003941 -0.002308 -0.000651 -0.001618
# 3 -0.003514 -0.003941 0.014022 -0.002507 0.002147 -0.000259
# 4 -0.003153 -0.002308 -0.002507 0.033475 0.000974 -0.004612
# 5 -0.003262 -0.000651 0.002147 0.000974 0.027004 -0.003783
# 6 0.000408 -0.001618 -0.000259 -0.004612 -0.003783 0.034319
#
#
# Mechanical properties :
#
#
# Convention : Reuss Voigt Hill
#
# Bulk Modulus (GPa) = 38.20449 46.40092 42.30270
# Shear Modulus (GPa) = 29.68223 32.29066 30.98645
#
# Velocity S-wave (km/s) = 3.81406 3.97812 3.89696
# Velocity P-wave (km/s) = 6.17413 6.62128 6.40161
#
# Compressibility (1/GPa) = 0.02617493
#
# Stress axis : x y z
#
# Youngs Moduli (GPa) = 49.61572 87.91573 71.31529
#
# Poissons Ratio (x) = 0.19633 0.25062
# Poissons Ratio (y) = 0.11080 0.28105
# Poissons Ratio (z) = 0.17436 0.34647
#
# Static dielectric constant tensor:
#      x y z
#    x 3.787420 0.131860 0.168760 
#    y 0.131860 4.339910 -0.232800 
#    z 0.168760 -0.232800 4.153980 
# 
# 
# High freq. dielectric constant tensor:
#      x y z
#    x 1.786740 0.012820 -0.007650 
#    y 0.012820 1.811770 0.009280 
#    z -0.007650 0.009280 1.806250 
# 
# From -- ./inp_files/256840.got.cif
#   From: 2010.06.25/outbox.cif.g09.slc.cpg/sg2_129_cif.got.tgz:256840.got - 2010.06.27 13:26:56.
