data_PCOD8014557
_publ_section_title
;
Structure prediction by ZEFSAII (Michael W. Deem and Ramdas Pophale) SiO2 
 PCOD8014557
Probable space group: P -1
;
_chemical_formula_sum "Si O2"
_cell_formula_units_Z 12
_cell_length_a 10.577304
_cell_length_b 8.408062
_cell_length_c 10.181256
_cell_angle_alpha 106.876949
_cell_angle_beta 139.244333
_cell_angle_gamma 85.097153
_cell_volume 552.405105
_symmetry_space_group_name_H-M "P -1"
_symmetry_group_IT_number 2
_symmetry_cell_setting 'triclinic'
loop_
_space_group_symop_operation_xyz
x,y,z
-x,-y,-z
loop_
_atom_site_type_symbol
_atom_site_label
_atom_site_fract_x
_atom_site_fract_y
_atom_site_fract_z
Si Si1 0.135221 0.562624 0.498021
Si Si2 0.778945 0.622803 0.704894
Si Si3 0.044414 0.145089 0.678033
Si Si4 0.436502 0.423580 0.072984
Si Si5 0.071509 0.880817 0.135030
Si Si6 0.394351 0.676718 0.324277
O O1 0.088472 0.404177 0.322568
O O2 0.368763 0.619814 0.721533
O O3 0.000000 0.500000 0.500000
O O4 0.087423 0.724690 0.431417
O O5 0.629464 0.739471 0.558806
O O6 0.675655 0.436428 0.629581
O O7 0.913958 0.703385 0.951266
O O8 0.961567 0.056028 0.729405
O O9 0.273674 0.246642 0.890361
O O10 0.000000 0.000000 0.500000
O O11 0.361242 0.564135 0.137393
O O12 0.500000 0.500000 0.000000
O O13 0.289245 0.838639 0.271412
O O14 0.000000 0.000000 0.000000
#
# Coordination Sequence:
#
# PCOD8014557 Si02
#       6
#     2   2   2   2   2   2
#     4  11  23  41  72 100 129 173 228 282 337 400
#     4  10  21  41  70  94 124 166 229 281 324 387
#     4  12  27  44  63 100 146 174 218 282 344 399
#     4  11  23  41  71 101 127 174 229 275 334 402
#     4  12  26  41  67  97 136 181 219 270 341 403
#     4  10  21  41  68  96 123 165 229 281 319 391
#
# _framework density 21.723186999999999
#
# number of rings (size 3 to 8) (size 9 to 14) (size 15 to 20)
#    0.000    1.000    5.000    1.500    2.333    1.333 
#    0.000    0.000    0.000    0.000    0.000    0.000 
#    0.000    0.000    0.000    0.000    0.000    0.000 
#
# Total GULP energy -148706.449475 kJ/mol
# GULP energy per Si atom -12392.204123 kJ/mol
# Density = 2.167374 g / cm^3
# Si number density = 21.723187 Si / 1000 Ang^3
#
#
#
# Elastic Constant Matrix: (Units=GPa)
#
#
# Indices 1 2 3 4 5 6 
#
# 1 142.8754 44.1956 46.2362 -7.6765 -29.8260 -15.4368
# 2 44.1956 86.8429 30.3399 -36.4107 -0.7022 -16.6233
# 3 46.2362 30.3399 111.3462 -5.9467 -12.8973 -23.1438
# 4 -7.6765 -36.4107 -5.9467 42.6640 -3.6378 -3.3886
# 5 -29.8260 -0.7022 -12.8973 -3.6378 43.4039 -8.7455
# 6 -15.4368 -16.6233 -23.1438 -3.3886 -8.7455 32.7509
#
#
#
# Elastic Compliance Matrix: (Units=1/GPa)
#
#
# Indices 1 2 3 4 5 6 
#
# 1 0.010895 -0.004938 -0.001740 -0.001610 0.007401 0.003209
# 2 -0.004938 0.026374 -0.001099 0.022598 0.001209 0.012944
# 3 -0.001740 -0.001099 0.012399 0.001540 0.004354 0.008706
# 4 -0.001610 0.022598 0.001540 0.044716 0.007160 0.018338
# 5 0.007401 0.001209 0.004354 0.007160 0.033433 0.016848
# 6 0.003209 0.012944 0.008706 0.018338 0.016848 0.051164
#
#
# Mechanical properties :
#
#
# Convention : Reuss Voigt Hill
#
# Bulk Modulus (GPa) = 29.31296 64.73421 47.02359
# Shear Modulus (GPa) = 24.28285 38.44992 31.36639
#
# Velocity S-wave (km/s) = 3.34702 4.21169 3.80401
# Velocity P-wave (km/s) = 5.33478 7.31543 6.40216
#
# Compressibility (1/GPa) = 0.03411460
#
# Stress axis : x y z
#
# Youngs Moduli (GPa) = 91.78613 37.91661 80.65011
#
# Poissons Ratio (x) = 0.18721 0.14036
# Poissons Ratio (y) = 0.45320 0.08861
# Poissons Ratio (z) = 0.15974 0.04166
#
# Static dielectric constant tensor:
#      x y z
#    x 4.058630 -0.026430 -0.024070 
#    y -0.026430 2.888460 -0.015990 
#    z -0.024070 -0.015990 4.473750 
# 
# 
# High freq. dielectric constant tensor:
#      x y z
#    x 1.867020 -0.010300 -0.007630 
#    y -0.010300 1.830700 -0.018270 
#    z -0.007630 -0.018270 1.873110 
# 
# From -- ./inp_files/152581.got.cif
#   From: 2010.06.25/outbox.cif.g09.slc.cpg/sg2_77_cif.got.tgz:152581.got - 2010.06.27 13:26:56.
