data_PCOD8014560
_publ_section_title
;
Structure prediction by ZEFSAII (Michael W. Deem and Ramdas Pophale) SiO2 
 PCOD8014560
Probable space group: P -1
;
_chemical_formula_sum "Si O2"
_cell_formula_units_Z 16
_cell_length_a 9.281583
_cell_length_b 11.295430
_cell_length_c 13.100841
_cell_angle_alpha 90.043846
_cell_angle_beta 132.639911
_cell_angle_gamma 122.145273
_cell_volume 696.962790
_symmetry_space_group_name_H-M "P -1"
_symmetry_group_IT_number 2
_symmetry_cell_setting 'triclinic'
loop_
_space_group_symop_operation_xyz
x,y,z
-x,-y,-z
loop_
_atom_site_type_symbol
_atom_site_label
_atom_site_fract_x
_atom_site_fract_y
_atom_site_fract_z
Si Si1 0.154293 0.731163 0.304734
Si Si2 0.163980 0.685959 0.541575
Si Si3 0.180624 0.847198 0.874851
Si Si4 0.685480 0.698952 0.082042
Si Si5 0.266503 0.092344 0.061335
Si Si6 0.749843 0.370863 0.002233
Si Si7 0.003904 0.832950 0.574565
Si Si8 0.457088 0.173613 0.677413
O O1 0.216631 0.702767 0.445303
O O2 0.441508 0.857951 0.373589
O O3 0.016198 0.802418 0.252357
O O4 0.941091 0.559728 0.135330
O O5 0.462562 0.832421 0.743874
O O6 0.958873 0.706764 0.471750
O O7 0.000000 0.500000 0.500000
O O8 0.116275 0.691147 0.890820
O O9 0.998378 0.777458 0.684872
O O10 0.500000 0.000000 0.000000
O O11 0.123400 0.928060 0.924311
O O12 0.500000 0.500000 0.000000
O O13 0.642116 0.749042 0.954943
O O14 0.577056 0.744083 0.116452
O O15 0.000000 0.000000 0.000000
O O16 0.726073 0.349598 0.867288
O O17 0.747920 0.811976 0.454630
O O18 0.303808 0.022323 0.685917
#
# Coordination Sequence:
#
# PCOD8014560 Si02
#       8
#     2   2   2   2   2   2   2   2
#     4  11  26  41  68 100 138 170 224 283 331 403
#     4  12  25  47  68  97 138 182 223 275 347 413
#     4  12  21  43  72  91 127 175 227 265 328 409
#     4  10  21  41  68  96 132 178 221 268 340 410
#     4  12  27  43  70 105 136 173 228 290 341 398
#     4  11  21  45  68  97 128 182 221 270 338 408
#     4  11  24  43  69  94 131 179 221 273 335 406
#     4  11  24  42  65  98 132 170 225 278 335 388
#
# _framework density 22.956748000000001
#
# number of rings (size 3 to 8) (size 9 to 14) (size 15 to 20)
#    0.000    0.750    3.750    3.375    5.250    2.500 
#    2.250    1.250    0.000    0.000    0.000    0.000 
#    0.000    0.000    0.000    0.000    0.000    0.000 
#
# Total GULP energy -198320.656896 kJ/mol
# GULP energy per Si atom -12395.041056 kJ/mol
# Density = 2.290450 g / cm^3
# Si number density = 22.956748 Si / 1000 Ang^3
#
#
#
# Elastic Constant Matrix: (Units=GPa)
#
#
# Indices 1 2 3 4 5 6 
#
# 1 160.5525 37.6776 35.2122 -20.1483 -5.5151 -2.2184
# 2 37.6776 61.3778 17.3559 -16.1461 3.8018 -16.9397
# 3 35.2122 17.3559 87.2960 -22.2934 -10.9259 5.3115
# 4 -20.1483 -16.1461 -22.2934 37.1615 -1.4805 -3.6725
# 5 -5.5151 3.8018 -10.9259 -1.4805 40.1294 -5.7743
# 6 -2.2184 -16.9397 5.3115 -3.6725 -5.7743 30.2537
#
#
#
# Elastic Compliance Matrix: (Units=1/GPa)
#
#
# Indices 1 2 3 4 5 6 
#
# 1 0.007809 -0.004380 -0.001798 0.001162 0.000860 -0.001259
# 2 -0.004380 0.026500 -0.002220 0.009328 -0.001095 0.015830
# 3 -0.001798 -0.002220 0.015057 0.007014 0.003975 -0.002408
# 4 0.001162 0.009328 0.007014 0.036873 0.003883 0.009294
# 5 0.000860 -0.001095 0.003975 0.003883 0.026997 0.004376
# 6 -0.001259 0.015830 -0.002408 0.009294 0.004376 0.044211
#
#
# Mechanical properties :
#
#
# Convention : Reuss Voigt Hill
#
# Bulk Modulus (GPa) = 30.70366 54.41308 42.55837
# Shear Modulus (GPa) = 27.01265 36.10761 31.56013
#
# Velocity S-wave (km/s) = 3.43399 3.97022 3.71180
# Velocity P-wave (km/s) = 5.39691 6.69110 6.07855
#
# Compressibility (1/GPa) = 0.03256940
#
# Stress axis : x y z
#
# Youngs Moduli (GPa) = 128.06236 37.73653 66.41406
#
# Poissons Ratio (x) = 0.16529 0.11941
# Poissons Ratio (y) = 0.56094 0.14743
# Poissons Ratio (z) = 0.23024 0.08377
#
# Static dielectric constant tensor:
#      x y z
#    x 4.862150 0.000940 0.071000 
#    y 0.000940 3.778540 0.096120 
#    z 0.071000 0.096120 3.632070 
# 
# 
# High freq. dielectric constant tensor:
#      x y z
#    x 1.929130 -0.010450 -0.007070 
#    y -0.010450 1.900620 -0.015000 
#    z -0.007070 -0.015000 1.901490 
# 
# From -- ./inp_files/392659.got.cif
#   From: 2010.06.25/outbox.cif.g09.slc.cpg/sg2_197_cif.got.tgz:392659.got - 2010.06.27 13:26:56.
