data_PCOD8014572
_publ_section_title
;
Structure prediction by ZEFSAII (Michael W. Deem and Ramdas Pophale) SiO2 
 PCOD8014572
Probable space group: P -1
;
_chemical_formula_sum "Si O2"
_cell_formula_units_Z 16
_cell_length_a 9.692826
_cell_length_b 17.137666
_cell_length_c 11.439925
_cell_angle_alpha 28.623736
_cell_angle_beta 118.642152
_cell_angle_gamma 126.965862
_cell_volume 721.503879
_symmetry_space_group_name_H-M "P -1"
_symmetry_group_IT_number 2
_symmetry_cell_setting 'triclinic'
loop_
_space_group_symop_operation_xyz
x,y,z
-x,-y,-z
loop_
_atom_site_type_symbol
_atom_site_label
_atom_site_fract_x
_atom_site_fract_y
_atom_site_fract_z
Si Si1 0.632222 0.507096 0.338434
Si Si2 0.538319 0.870712 0.544018
Si Si3 0.089425 0.421643 0.457624
Si Si4 0.154346 0.948896 0.114918
Si Si5 0.214412 0.504809 0.832690
Si Si6 0.608677 0.864226 0.839133
Si Si7 0.255756 0.233302 0.602451
Si Si8 0.163515 0.161689 0.409649
O O1 0.763001 0.473060 0.525432
O O2 0.711811 0.534373 0.206225
O O3 0.447668 0.340272 0.489260
O O4 0.595524 0.679359 0.134911
O O5 0.345271 0.704931 0.669083
O O6 0.629615 0.850075 0.727952
O O7 0.663697 0.870981 0.491284
O O8 0.545456 0.072589 0.283709
O O9 0.182103 0.352959 0.487456
O O10 0.928220 0.262449 0.670605
O O11 0.988831 0.529962 0.217560
O O12 0.236852 0.974937 0.242737
O O13 0.272083 0.073035 0.895174
O O14 0.000000 0.000000 0.000000
O O15 0.205218 0.358158 0.116898
O O16 0.127812 0.157016 0.539955
O O17 0.000000 0.000000 0.500000
#
# Coordination Sequence:
#
# PCOD8014572 Si02
#       8
#     2   2   2   2   2   2   2   2
#     4  12  23  45  72 102 138 179 228 282 341 398
#     4  11  24  44  69 101 130 180 233 275 338 407
#     4  11  25  42  73 101 134 184 230 275 336 411
#     4  10  21  41  68  98 133 175 228 275 330 399
#     4  12  25  48  70 101 140 179 228 282 344 402
#     4  11  22  39  76  94 128 179 230 271 332 405
#     4  11  25  43  71 100 142 180 225 281 341 401
#     4  12  28  44  68 100 142 178 223 290 346 397
#
# _framework density 22.175905
#
# number of rings (size 3 to 8) (size 9 to 14) (size 15 to 20)
#    0.000    0.750    6.250    1.875    5.250    1.500 
#    0.000    1.250    0.000    0.000    0.000    0.000 
#    0.000    0.000    0.000    0.000    0.000    0.000 
#
# Total GULP energy -198236.471024 kJ/mol
# GULP energy per Si atom -12389.779439 kJ/mol
# Density = 2.212543 g / cm^3
# Si number density = 22.175905 Si / 1000 Ang^3
#
#
#
# Elastic Constant Matrix: (Units=GPa)
#
#
# Indices 1 2 3 4 5 6 
#
# 1 73.9081 27.2674 30.3095 10.5970 3.5738 -0.9469
# 2 27.2674 133.2395 30.0812 15.3973 -10.0295 0.3808
# 3 30.3095 30.0812 45.7123 5.3036 7.9216 -3.0056
# 4 10.5970 15.3973 5.3036 36.6783 2.2628 -1.8086
# 5 3.5738 -10.0295 7.9216 2.2628 28.0338 4.0807
# 6 -0.9469 0.3808 -3.0056 -1.8086 4.0807 35.7574
#
#
#
# Elastic Compliance Matrix: (Units=1/GPa)
#
#
# Indices 1 2 3 4 5 6 
#
# 1 0.019205 -0.000690 -0.012111 -0.003618 0.001138 -0.000815
# 2 -0.000690 0.010088 -0.006951 -0.003490 0.006175 -0.001591
# 3 -0.012111 -0.006951 0.036617 0.002081 -0.012086 0.004316
# 4 -0.003618 -0.003490 0.002081 0.029829 -0.004087 0.002091
# 5 0.001138 0.006175 -0.012086 -0.004087 0.042367 -0.006093
# 6 -0.000815 -0.001591 0.004316 0.002091 -0.006093 0.029125
#
#
# Mechanical properties :
#
#
# Convention : Reuss Voigt Hill
#
# Bulk Modulus (GPa) = 37.86901 47.57514 42.72207
# Shear Modulus (GPa) = 23.19784 31.10736 27.15260
#
# Velocity S-wave (km/s) = 3.23783 3.74940 3.50297
# Velocity P-wave (km/s) = 5.57600 6.34382 5.97226
#
# Compressibility (1/GPa) = 0.02640682
#
# Stress axis : x y z
#
# Youngs Moduli (GPa) = 52.07056 99.12312 27.30983
#
# Poissons Ratio (x) = 0.06839 0.33074
# Poissons Ratio (y) = 0.03593 0.18983
# Poissons Ratio (z) = 0.63061 0.68901
#
# Static dielectric constant tensor:
#      x y z
#    x 3.869670 0.061550 0.439890 
#    y 0.061550 4.132720 0.030080 
#    z 0.439890 0.030080 0.980810 
# 
# 
# High freq. dielectric constant tensor:
#      x y z
#    x 1.861260 0.000740 0.013960 
#    y 0.000740 1.890830 0.010840 
#    z 0.013960 0.010840 1.866770 
# 
# From -- ./inp_files/392125.got.cif
#   From: 2010.06.25/outbox.cif.g09.slc.cpg/sg2_197_cif.got.tgz:392125.got - 2010.06.27 13:26:56.
