data_PCOD8014797
_publ_section_title
;
Structure prediction by ZEFSAII (Michael W. Deem and Ramdas Pophale) SiO2 
 PCOD8014797
Probable space group: P -1
;
_chemical_formula_sum "Si O2"
_cell_formula_units_Z 16
_cell_length_a 11.199092
_cell_length_b 8.712172
_cell_length_c 11.112848
_cell_angle_alpha 54.904088
_cell_angle_beta 68.688723
_cell_angle_gamma 98.839573
_cell_volume 726.955833
_symmetry_space_group_name_H-M "P -1"
_symmetry_group_IT_number 2
_symmetry_cell_setting 'triclinic'
loop_
_space_group_symop_operation_xyz
x,y,z
-x,-y,-z
loop_
_atom_site_type_symbol
_atom_site_label
_atom_site_fract_x
_atom_site_fract_y
_atom_site_fract_z
Si Si1 0.047198 0.830923 0.519628
Si Si2 0.735868 0.066875 0.806868
Si Si3 0.771292 0.519023 0.626931
Si Si4 0.676448 0.763467 0.367266
Si Si5 0.495241 0.394357 0.924699
Si Si6 0.893628 0.101920 0.984798
Si Si7 0.919519 0.452472 0.179567
Si Si8 0.619130 0.452452 0.312918
O O1 0.931734 0.634091 0.571187
O O2 0.184693 0.959169 0.327014
O O3 0.084638 0.753678 0.665401
O O4 0.000000 0.000000 0.500000
O O5 0.730827 0.287742 0.692319
O O6 0.812844 0.057518 0.906530
O O7 0.576367 0.862868 0.943695
O O8 0.757742 0.667245 0.462918
O O9 0.662708 0.488181 0.787900
O O10 0.649368 0.645060 0.303592
O O11 0.530082 0.746812 0.490142
O O12 0.781012 0.009361 0.181192
O O13 0.407571 0.476427 0.837586
O O14 0.500000 0.500000 0.000000
O O15 0.988111 0.352921 0.853014
O O16 0.000000 0.000000 0.000000
O O17 0.751525 0.402550 0.264273
O O18 0.000000 0.500000 0.000000
#
# Coordination Sequence:
#
# PCOD8014797 Si02
#       8
#     2   2   2   2   2   2   2   2
#     4  12  28  45  68 101 144 185 233 292 356 409
#     4  12  24  44  69 103 137 178 242 286 340 421
#     4  11  24  43  71 100 136 181 234 286 346 412
#     4  10  21  41  74 100 135 174 230 288 342 406
#     4  11  24  43  71  99 142 185 223 288 355 424
#     4  12  23  42  74 104 135 184 233 286 345 413
#     4  12  28  46  70 102 145 184 232 290 349 426
#     4  10  22  43  69 100 136 179 227 284 346 413
#
# _framework density 22.009591
#
# number of rings (size 3 to 8) (size 9 to 14) (size 15 to 20)
#    0.000    0.750    3.750    3.000    7.000    0.000 
#    2.250    0.625    0.000    0.000    0.000    0.000 
#    0.000    0.000    0.000    0.000    0.000    0.000 
#
# Total GULP energy -198371.048856 kJ/mol
# GULP energy per Si atom -12398.190554 kJ/mol
# Density = 2.195950 g / cm^3
# Si number density = 22.009591 Si / 1000 Ang^3
#
#
#
# Elastic Constant Matrix: (Units=GPa)
#
#
# Indices 1 2 3 4 5 6 
#
# 1 88.5314 11.8141 42.7328 12.0266 2.9592 -9.8453
# 2 11.8141 79.9888 18.3063 11.7251 9.5710 -9.0929
# 3 42.7328 18.3063 134.4620 16.2605 8.6089 -12.3723
# 4 12.0266 11.7251 16.2605 40.8538 5.3245 0.2646
# 5 2.9592 9.5710 8.6089 5.3245 27.3126 1.1006
# 6 -9.8453 -9.0929 -12.3723 0.2646 1.1006 38.2304
#
#
#
# Elastic Compliance Matrix: (Units=1/GPa)
#
#
# Indices 1 2 3 4 5 6 
#
# 1 0.013782 -0.000594 -0.003826 -0.002418 0.000305 0.002178
# 2 -0.000594 0.014062 -0.000813 -0.003017 -0.004143 0.003069
# 3 -0.003826 -0.000813 0.009316 -0.002113 -0.001902 0.001906
# 4 -0.002418 -0.003017 -0.002113 0.027334 -0.003258 -0.002119
# 5 0.000305 -0.004143 -0.001902 -0.003258 0.039372 -0.002633
# 6 0.002178 0.003069 0.001906 -0.002119 -0.002633 0.028155
#
#
# Mechanical properties :
#
#
# Convention : Reuss Voigt Hill
#
# Bulk Modulus (GPa) = 37.46207 49.85428 43.65817
# Shear Modulus (GPa) = 33.02790 36.62130 34.82460
#
# Velocity S-wave (km/s) = 3.87798 4.08349 3.98206
# Velocity P-wave (km/s) = 6.09175 6.70325 6.40480
#
# Compressibility (1/GPa) = 0.02669367
#
# Stress axis : x y z
#
# Youngs Moduli (GPa) = 72.55940 71.11152 107.33951
#
# Poissons Ratio (x) = 0.04227 0.41066
# Poissons Ratio (y) = 0.04313 0.08728
# Poissons Ratio (z) = 0.27760 0.05782
#
# Static dielectric constant tensor:
#      x y z
#    x 4.278160 -0.008040 -0.191460 
#    y -0.008040 5.446070 1.004760 
#    z -0.191460 1.004760 5.291060 
# 
# 
# High freq. dielectric constant tensor:
#      x y z
#    x 1.870270 0.003210 -0.003140 
#    y 0.003210 1.853760 0.007210 
#    z -0.003140 0.007210 1.891570 
# 
# From -- ./inp_files/261405.got.cif
#   From: 2010.06.25/outbox.cif.g09.slc.cpg/sg2_131_cif.got.tgz:261405.got - 2010.06.27 13:26:56.
