data_PCOD8014386
_publ_section_title
;
Structure prediction by ZEFSAII (Michael W. Deem and Ramdas Pophale) SiO2 
 PCOD8014386
Probable space group: P -1
;
_chemical_formula_sum "Si O2"
_cell_formula_units_Z 16
_cell_length_a 11.706405
_cell_length_b 9.291436
_cell_length_c 16.941317
_cell_angle_alpha 43.399847
_cell_angle_beta 133.125263
_cell_angle_gamma 142.057439
_cell_volume 751.332638
_symmetry_space_group_name_H-M "P -1"
_symmetry_group_IT_number 2
_symmetry_cell_setting 'triclinic'
loop_
_space_group_symop_operation_xyz
x,y,z
-x,-y,-z
loop_
_atom_site_type_symbol
_atom_site_label
_atom_site_fract_x
_atom_site_fract_y
_atom_site_fract_z
Si Si1 0.293142 0.124830 0.269655
Si Si2 0.525943 0.223122 0.717671
Si Si3 0.878654 0.283948 0.230390
Si Si4 0.061484 0.979067 0.775677
Si Si5 0.715651 0.120353 0.971181
Si Si6 0.230059 0.629043 0.369311
Si Si7 0.321055 0.587657 0.027938
Si Si8 0.370662 0.479376 0.635328
O O1 0.312443 0.332558 0.135189
O O2 0.491049 0.250531 0.361543
O O3 0.254206 0.892050 0.292136
O O4 0.123645 0.025135 0.293186
O O5 0.593294 0.315829 0.623284
O O6 0.512007 0.425683 0.679863
O O7 0.315436 0.956897 0.726494
O O8 0.696349 0.201912 0.841556
O O9 0.024206 0.430943 0.311705
O O10 0.970756 0.198013 0.243801
O O11 0.829440 0.462702 0.091410
O O12 0.103167 0.881745 0.916236
O O13 0.241811 0.266081 0.725411
O O14 0.532789 0.830110 0.010808
O O15 0.727323 0.336562 0.943580
O O16 0.234136 0.497441 0.503551
#
# Coordination Sequence:
#
# PCOD8014386 Si02
#       8
#     2   2   2   2   2   2   2   2
#     4  12  24  39  61  94 122 163 201 246 304 363
#     4  10  21  41  67  89 117 160 205 256 298 349
#     4   9  22  40  60  94 119 155 203 255 302 352
#     4  10  22  38  69  92 113 159 208 259 294 343
#     4   9  16  37  66  93 114 150 207 256 297 341
#     4  12  27  39  58  91 132 164 194 242 311 371
#     4   9  17  36  64  89 122 149 205 256 293 353
#     4  11  23  45  64  85 119 164 216 249 284 355
#
# _framework density 21.295494999999999
#
# number of rings (size 3 to 8) (size 9 to 14) (size 15 to 20)
#    0.000    1.750    2.500    3.000    1.750    6.000 
#    0.000    1.250    0.000    0.000    0.000    0.000 
#    0.000    0.000    0.000    0.000    0.000    0.000 
#
# Total GULP energy -198343.021451 kJ/mol
# GULP energy per Si atom -12396.438841 kJ/mol
# Density = 2.124703 g / cm^3
# Si number density = 21.295495 Si / 1000 Ang^3
#
#
#
# Elastic Constant Matrix: (Units=GPa)
#
#
# Indices 1 2 3 4 5 6 
#
# 1 24.0827 10.7035 -5.8221 2.1090 2.9441 0.8554
# 2 10.7035 106.8726 29.0942 20.2712 12.9192 -12.5187
# 3 -5.8221 29.0942 85.8748 15.8570 4.1068 0.3280
# 4 2.1090 20.2712 15.8570 41.1690 -1.3858 1.8655
# 5 2.9441 12.9192 4.1068 -1.3858 14.0154 -1.0602
# 6 0.8554 -12.5187 0.3280 1.8655 -1.0602 10.4061
#
#
#
# Elastic Compliance Matrix: (Units=1/GPa)
#
#
# Indices 1 2 3 4 5 6 
#
# 1 0.047430 -0.006972 0.006115 -0.000980 -0.006405 -0.012956
# 2 -0.006972 0.016428 -0.004186 -0.007445 -0.011628 0.020618
# 3 0.006115 -0.004186 0.014274 -0.003577 -0.002384 -0.005590
# 4 -0.000980 -0.007445 -0.003577 0.030321 0.010119 -0.013168
# 5 -0.006405 -0.011628 -0.002384 0.010119 0.084616 -0.006580
# 6 -0.012956 0.020618 -0.005590 -0.013168 -0.006580 0.123832
#
#
# Mechanical properties :
#
#
# Convention : Reuss Voigt Hill
#
# Bulk Modulus (GPa) = 14.69657 31.64235 23.16946
# Shear Modulus (GPa) = 14.29928 25.30840 19.80384
#
# Velocity S-wave (km/s) = 2.59408 3.45111 3.05282
# Velocity P-wave (km/s) = 3.98605 5.54718 4.83010
#
# Compressibility (1/GPa) = 0.06804308
#
# Stress axis : x y z
#
# Youngs Moduli (GPa) = 21.08391 60.87277 70.05976
#
# Poissons Ratio (x) = 0.42441 -0.42838
# Poissons Ratio (y) = 0.14700 0.29329
# Poissons Ratio (z) = -0.12892 0.25483
#
# Static dielectric constant tensor:
#      x y z
#    x 3.527340 0.142810 -0.071570 
#    y 0.142810 3.760240 0.049290 
#    z -0.071570 0.049290 3.957900 
# 
# 
# High freq. dielectric constant tensor:
#      x y z
#    x 1.803930 0.021090 -0.006530 
#    y 0.021090 1.839760 0.004950 
#    z -0.006530 0.004950 1.841770 
# 
# From -- ./inp_files/280188.got.cif
#   From: 2010.06.25/outbox.cif.g09.slc.cpg/sg2_141_cif.got.tgz:280188.got - 2010.06.27 13:26:56.
