data_PCOD8014847
_publ_section_title
;
Structure prediction by ZEFSAII (Michael W. Deem and Ramdas Pophale) SiO2 
 PCOD8014847
Probable space group: P -1
;
_chemical_formula_sum "Si O2"
_cell_formula_units_Z 14
_cell_length_a 8.364074
_cell_length_b 9.165899
_cell_length_c 9.416372
_cell_angle_alpha 120.901855
_cell_angle_beta 96.548665
_cell_angle_gamma 79.144566
_cell_volume 608.211458
_symmetry_space_group_name_H-M "P -1"
_symmetry_group_IT_number 2
_symmetry_cell_setting 'triclinic'
loop_
_space_group_symop_operation_xyz
x,y,z
-x,-y,-z
loop_
_atom_site_type_symbol
_atom_site_label
_atom_site_fract_x
_atom_site_fract_y
_atom_site_fract_z
Si Si1 0.854911 0.436372 0.266725
Si Si2 0.454816 0.050403 0.735562
Si Si3 0.205985 0.106167 0.963270
Si Si4 0.349589 0.650390 0.062428
Si Si5 0.947166 0.895883 0.758961
Si Si6 0.123672 0.492545 0.134198
Si Si7 0.298731 0.200516 0.520118
O O1 0.734036 0.592463 0.405114
O O2 0.919301 0.276595 0.295000
O O3 0.015636 0.520891 0.280114
O O4 0.765749 0.358244 0.088765
O O5 0.366612 0.005339 0.850402
O O6 0.596675 0.163615 0.836299
O O7 0.321566 0.154072 0.665865
O O8 0.535573 0.870910 0.583498
O O9 0.188349 0.071645 0.112111
O O10 0.227822 0.303130 0.045777
O O11 0.043856 0.058569 0.845609
O O12 0.247959 0.628259 0.186843
O O13 0.500000 0.500000 0.000000
O O14 0.852764 0.884478 0.596825
O O15 0.000000 0.500000 0.000000
#
# Coordination Sequence:
#
# PCOD8014847 Si02
#       7
#     2   2   2   2   2   2   2
#     4  10  21  42  62  91 124 167 211 253 304 376
#     4  11  24  41  65  96 129 159 206 264 318 365
#     4  10  21  42  61  98 117 167 217 253 301 374
#     4  11  19  38  67  93 123 163 213 257 304 371
#     4  10  24  41  67  87 128 168 213 252 305 373
#     4   9  18  33  64  91 117 155 215 257 293 354
#     4  11  24  43  61  94 133 161 200 267 321 363
#
# _framework density 23.01831
#
# number of rings (size 3 to 8) (size 9 to 14) (size 15 to 20)
#    0.000    1.714    2.857    1.286    8.000    1.143 
#    5.143    0.714    0.000    0.000    0.000    0.000 
#    0.000    0.000    0.000    0.000    0.000    0.000 
#
# Total GULP energy -173503.072224 kJ/mol
# GULP energy per Si atom -12393.076587 kJ/mol
# Density = 2.296592 g / cm^3
# Si number density = 23.018310 Si / 1000 Ang^3
#
#
#
# Elastic Constant Matrix: (Units=GPa)
#
#
# Indices 1 2 3 4 5 6 
#
# 1 101.7625 37.1131 41.8440 -2.4236 -3.8299 18.1721
# 2 37.1131 63.5026 27.5675 11.0521 -10.2760 -5.4035
# 3 41.8440 27.5675 90.3774 14.5897 -0.1497 3.5186
# 4 -2.4236 11.0521 14.5897 24.0087 -13.0828 -2.2736
# 5 -3.8299 -10.2760 -0.1497 -13.0828 51.3769 2.0749
# 6 18.1721 -5.4035 3.5186 -2.2736 2.0749 47.0638
#
#
#
# Elastic Compliance Matrix: (Units=1/GPa)
#
#
# Indices 1 2 3 4 5 6 
#
# 1 0.017679 -0.009489 -0.006784 0.010962 0.002474 -0.006988
# 2 -0.009489 0.024503 -0.001728 -0.009828 0.001441 0.006068
# 3 -0.006784 -0.001728 0.016643 -0.012058 -0.003904 0.000766
# 4 0.010962 -0.009828 -0.012058 0.062482 0.014812 -0.002094
# 5 0.002474 0.001441 -0.003904 0.014812 0.023730 -0.000828
# 6 -0.006988 0.006068 0.000766 -0.002094 -0.000828 0.024521
#
#
# Mechanical properties :
#
#
# Convention : Reuss Voigt Hill
#
# Bulk Modulus (GPa) = 43.81654 52.07687 47.94670
# Shear Modulus (GPa) = 23.45546 34.43109 28.94328
#
# Velocity S-wave (km/s) = 3.19563 3.87177 3.54983
# Velocity P-wave (km/s) = 5.71777 6.53152 6.13814
#
# Compressibility (1/GPa) = 0.02282243
#
# Stress axis : x y z
#
# Youngs Moduli (GPa) = 56.56332 40.81062 60.08503
#
# Poissons Ratio (x) = 0.38727 0.40763
# Poissons Ratio (y) = 0.53675 0.10383
# Poissons Ratio (z) = 0.38374 0.07052
#
# Static dielectric constant tensor:
#      x y z
#    x 4.616160 0.220060 -0.138530 
#    y 0.220060 4.262230 0.055440 
#    z -0.138530 0.055440 4.103780 
# 
# 
# High freq. dielectric constant tensor:
#      x y z
#    x 1.909540 -0.016720 -0.003210 
#    y -0.016720 1.899150 0.012180 
#    z -0.003210 0.012180 1.893630 
# 
# From -- ./inp_files/160133.got.cif
#   From: 2010.06.25/outbox.cif.g09.slc.cpg/sg2_81_cif.got.tgz:160133.got - 2010.06.27 13:26:56.
