data_PCOD8014003
_publ_section_title
;
Structure prediction by ZEFSAII (Michael W. Deem and Ramdas Pophale) SiO2 
 PCOD8014003
Probable space group: P -1
;
_chemical_formula_sum "Si O2"
_cell_formula_units_Z 14
_cell_length_a 24.178625
_cell_length_b 6.909634
_cell_length_c 5.176055
_cell_angle_alpha 70.853898
_cell_angle_beta 76.233635
_cell_angle_gamma 50.756986
_cell_volume 632.120600
_symmetry_space_group_name_H-M "P -1"
_symmetry_group_IT_number 2
_symmetry_cell_setting 'triclinic'
loop_
_space_group_symop_operation_xyz
x,y,z
-x,-y,-z
loop_
_atom_site_type_symbol
_atom_site_label
_atom_site_fract_x
_atom_site_fract_y
_atom_site_fract_z
Si Si1 0.847428 0.736730 0.975578
Si Si2 0.355903 0.096621 0.363700
Si Si3 0.061182 0.817598 0.810975
Si Si4 0.242745 0.991118 0.544105
Si Si5 0.339087 0.410433 0.744906
Si Si6 0.491760 0.152609 0.692639
Si Si7 0.033919 0.261489 0.377757
O O1 0.792092 0.921824 0.737038
O O2 0.917507 0.730506 0.891971
O O3 0.870779 0.448008 0.025191
O O4 0.814556 0.825618 0.256481
O O5 0.310035 0.993478 0.476086
O O6 0.338721 0.275454 0.548156
O O7 0.440328 0.839282 0.382900
O O8 0.336342 0.265991 0.055364
O O9 0.031638 0.721736 0.674904
O O10 0.084563 0.984195 0.588933
O O11 0.000000 0.000000 0.000000
O O12 0.269399 0.703669 0.694169
O O13 0.409462 0.409330 0.674210
O O14 0.500000 0.000000 0.500000
O O15 0.500000 0.000000 0.000000
O O16 0.000000 0.500000 0.500000
#
# Coordination Sequence:
#
# PCOD8014003 Si02
#       7
#     2   2   2   2   2   2   2
#     4  12  27  45  65  97 134 165 213 258 319 391
#     4  10  21  41  64  91 131 167 217 271 310 369
#     4  11  25  44  73  97 121 163 215 267 328 377
#     4  12  27  42  61  96 133 176 212 250 316 402
#     4  10  21  41  64  90 128 171 217 265 322 365
#     4   8  16  33  62  91 117 163 217 270 313 358
#     4  11  24  46  71  98 128 160 209 275 325 380
#
# _framework density 22.147672
#
# number of rings (size 3 to 8) (size 9 to 14) (size 15 to 20)
#    0.000    1.429    1.429    3.000    4.000    4.000 
#    0.000    0.000    0.000   12.000    0.000    0.000 
#    0.000    0.000    0.000    0.000    0.000    0.000 
#
# Total GULP energy -173501.492749 kJ/mol
# GULP energy per Si atom -12392.963768 kJ/mol
# Density = 2.209726 g / cm^3
# Si number density = 22.147672 Si / 1000 Ang^3
#
#
#
# Elastic Constant Matrix: (Units=GPa)
#
#
# Indices 1 2 3 4 5 6 
#
# 1 66.0339 2.0772 8.9341 3.5541 -5.8686 7.6868
# 2 2.0772 92.6242 21.3805 -6.0522 3.1768 -2.3867
# 3 8.9341 21.3805 112.3031 4.7482 2.7537 10.5388
# 4 3.5541 -6.0522 4.7482 42.0633 -1.6351 1.2007
# 5 -5.8686 3.1768 2.7537 -1.6351 45.0344 1.4246
# 6 7.6868 -2.3867 10.5388 1.2007 1.4246 30.7336
#
#
#
# Elastic Compliance Matrix: (Units=1/GPa)
#
#
# Indices 1 2 3 4 5 6 
#
# 1 0.015972 -0.000411 -0.000844 -0.001118 0.002242 -0.003798
# 2 -0.000411 0.011552 -0.002396 0.001889 -0.000710 0.001781
# 3 -0.000844 -0.002396 0.009801 -0.001306 -0.000484 -0.003262
# 4 -0.001118 0.001889 -0.001306 0.024317 0.000687 -0.000108
# 5 0.002242 -0.000710 -0.000484 0.000687 0.022650 -0.001526
# 6 -0.003798 0.001781 -0.003262 -0.000108 -0.001526 0.034820
#
#
# Mechanical properties :
#
#
# Convention : Reuss Voigt Hill
#
# Bulk Modulus (GPa) = 33.30738 37.30498 35.30618
# Shear Modulus (GPa) = 36.65083 39.47088 38.06086
#
# Velocity S-wave (km/s) = 4.07238 4.22615 4.14998
# Velocity P-wave (km/s) = 6.09786 6.37920 6.24011
#
# Compressibility (1/GPa) = 0.03002337
#
# Stress axis : x y z
#
# Youngs Moduli (GPa) = 62.60849 86.56275 102.03019
#
# Poissons Ratio (x) = 0.03560 0.08608
# Poissons Ratio (y) = 0.02575 0.24449
# Poissons Ratio (z) = 0.05282 0.20742
#
# Static dielectric constant tensor:
#      x y z
#    x 3.992880 -0.378080 -0.262000 
#    y -0.378080 4.079580 -0.183830 
#    z -0.262000 -0.183830 4.023210 
# 
# 
# High freq. dielectric constant tensor:
#      x y z
#    x 1.872370 -0.012520 0.003390 
#    y -0.012520 1.864960 0.002550 
#    z 0.003390 0.002550 1.891280 
# 
# From -- ./inp_files/9422.got.cif
#   From: 2010.06.25/outbox.cif.g09.slc.cpg/sg2_5_cif.got.tgz:9422.got - 2010.06.27 13:26:56.
