data_PCOD8014074
_publ_section_title
;
Structure prediction by ZEFSAII (Michael W. Deem and Ramdas Pophale) SiO2 
 PCOD8014074
Probable space group: P -1
;
_chemical_formula_sum "Si O2"
_cell_formula_units_Z 16
_cell_length_a 23.300705
_cell_length_b 8.841397
_cell_length_c 15.121834
_cell_angle_alpha 45.613355
_cell_angle_beta 20.030909
_cell_angle_gamma 48.568470
_cell_volume 762.428684
_symmetry_space_group_name_H-M "P -1"
_symmetry_group_IT_number 2
_symmetry_cell_setting 'triclinic'
loop_
_space_group_symop_operation_xyz
x,y,z
-x,-y,-z
loop_
_atom_site_type_symbol
_atom_site_label
_atom_site_fract_x
_atom_site_fract_y
_atom_site_fract_z
Si Si1 0.961336 0.801878 0.860844
Si Si2 0.826111 0.578997 0.808704
Si Si3 0.075058 0.220366 0.587554
Si Si4 0.496747 0.993024 0.660570
Si Si5 0.838663 0.884596 0.819055
Si Si6 0.518374 0.324006 0.341625
Si Si7 0.773839 0.401043 0.340983
Si Si8 0.175780 0.966687 0.708905
O O1 0.912188 0.770736 0.844628
O O2 0.157598 0.737100 0.618733
O O3 0.850798 0.636404 0.142634
O O4 0.935516 0.041386 0.838259
O O5 0.818303 0.744990 0.670699
O O6 0.775462 0.706914 0.916837
O O7 0.003496 0.455975 0.616387
O O8 0.711052 0.378387 0.043113
O O9 0.185833 0.136971 0.544161
O O10 0.468372 0.193949 0.554795
O O11 0.663812 0.006372 0.471876
O O12 0.521016 0.790399 0.646356
O O13 0.327298 0.973599 0.973646
O O14 0.000000 0.000000 0.500000
O O15 0.423817 0.553853 0.385181
O O16 0.819347 0.272883 0.237826
O O17 0.000000 0.000000 0.000000
#
# Coordination Sequence:
#
# PCOD8014074 Si02
#       8
#     2   2   2   2   2   2   2   2
#     4  10  21  41  64  96 127 165 218 265 318 391
#     4  11  24  40  68  91 129 178 214 267 330 389
#     4  10  23  43  62  94 133 167 220 261 329 395
#     4  11  26  42  66  99 133 168 222 277 327 381
#     4  12  24  42  68  98 133 174 221 269 323 393
#     4  11  24  42  66  95 133 171 218 276 325 393
#     4  10  23  39  67  94 132 168 214 263 339 381
#     4  11  25  42  67 101 135 170 217 278 327 388
#
# _framework density 20.985569000000002
#
# number of rings (size 3 to 8) (size 9 to 14) (size 15 to 20)
#    0.000    1.250    2.500    2.250   12.250    1.000 
#    2.250    2.500    0.000    0.000    0.000    0.000 
#    0.000    0.000    0.000    0.000    0.000    0.000 
#
# Total GULP energy -198265.599648 kJ/mol
# GULP energy per Si atom -12391.599978 kJ/mol
# Density = 2.093780 g / cm^3
# Si number density = 20.985569 Si / 1000 Ang^3
#
#
#
# Elastic Constant Matrix: (Units=GPa)
#
#
# Indices 1 2 3 4 5 6 
#
# 1 150.4244 52.0151 45.1382 19.9288 -4.6950 5.9027
# 2 52.0151 107.4653 39.6048 14.4444 4.3315 5.5256
# 3 45.1382 39.6048 100.4835 14.7758 -4.7940 5.5313
# 4 19.9288 14.4444 14.7758 37.6580 0.7617 -4.6477
# 5 -4.6950 4.3315 -4.7940 0.7617 29.1592 -1.5449
# 6 5.9027 5.5256 5.5313 -4.6477 -1.5449 29.6470
#
#
#
# Elastic Compliance Matrix: (Units=1/GPa)
#
#
# Indices 1 2 3 4 5 6 
#
# 1 0.008843 -0.003095 -0.002206 -0.002798 0.001534 -0.001131
# 2 -0.003095 0.012482 -0.003290 -0.001992 -0.002924 -0.001561
# 3 -0.002206 -0.003290 0.012860 -0.002869 0.002234 -0.001681
# 4 -0.002798 -0.001992 -0.002869 0.030716 -0.001099 0.006222
# 5 0.001534 -0.002924 0.002234 -0.001099 0.035451 0.001498
# 6 -0.001131 -0.001561 -0.001681 0.006222 0.001498 0.035613
#
#
# Mechanical properties :
#
#
# Convention : Reuss Voigt Hill
#
# Bulk Modulus (GPa) = 58.80934 70.20994 64.50964
# Shear Modulus (GPa) = 31.48343 34.06717 32.77530
#
# Velocity S-wave (km/s) = 3.87750 4.03347 3.95625
# Velocity P-wave (km/s) = 6.93766 7.43107 7.18860
#
# Compressibility (1/GPa) = 0.01700410
#
# Stress axis : x y z
#
# Youngs Moduli (GPa) = 113.08655 80.11764 77.75811
#
# Poissons Ratio (x) = 0.24795 0.17150
# Poissons Ratio (y) = 0.34999 0.25582
# Poissons Ratio (z) = 0.24942 0.26358
#
# Static dielectric constant tensor:
#      x y z
#    x 4.143240 -0.120370 0.104670 
#    y -0.120370 3.885750 0.052190 
#    z 0.104670 0.052190 3.914040 
# 
# 
# High freq. dielectric constant tensor:
#      x y z
#    x 1.831880 0.003480 -0.007020 
#    y 0.003480 1.827900 0.007590 
#    z -0.007020 0.007590 1.804750 
# 
# From -- ./inp_files/542641.got.cif
#   From: 2010.06.25/outbox.cif.g09.slc.cpg/sg2_272_cif.got.tgz:542641.got - 2010.06.27 13:26:56.
