data_PCOD8014471
_publ_section_title
;
Structure prediction by ZEFSAII (Michael W. Deem and Ramdas Pophale) SiO2 
 PCOD8014471
Probable space group: P -1
;
_chemical_formula_sum "Si O2"
_cell_formula_units_Z 12
_cell_length_a 15.478296
_cell_length_b 11.741645
_cell_length_c 8.281695
_cell_angle_alpha 126.774430
_cell_angle_beta 138.005061
_cell_angle_gamma 32.343457
_cell_volume 536.950979
_symmetry_space_group_name_H-M "P -1"
_symmetry_group_IT_number 2
_symmetry_cell_setting 'triclinic'
loop_
_space_group_symop_operation_xyz
x,y,z
-x,-y,-z
loop_
_atom_site_type_symbol
_atom_site_label
_atom_site_fract_x
_atom_site_fract_y
_atom_site_fract_z
Si Si1 0.171887 0.939617 0.599551
Si Si2 0.547486 0.580037 0.006008
Si Si3 0.028965 0.361292 0.153842
Si Si4 0.236005 0.195001 0.961593
Si Si5 0.605344 0.845611 0.363813
Si Si6 0.143907 0.789601 0.125368
O O1 0.227865 0.820543 0.408235
O O2 0.138064 0.135784 0.693376
O O3 0.346209 0.793616 0.839201
O O4 0.000000 0.000000 0.500000
O O5 0.635344 0.650978 0.265802
O O6 0.500000 0.500000 0.000000
O O7 0.682038 0.406720 0.908029
O O8 0.832121 0.619878 0.093898
O O9 0.172609 0.277211 0.434688
O O10 0.968917 0.247585 0.982496
O O11 0.148569 0.290969 0.098505
O O12 0.473642 0.991771 0.144247
O O13 0.500000 0.000000 0.500000
O O14 0.000000 0.000000 0.000000
#
# Coordination Sequence:
#
# PCOD8014471 Si02
#       6
#     2   2   2   2   2   2
#     4  11  22  44  70  97 138 178 229 283 343 410
#     4  11  26  44  69  99 137 186 229 282 345 406
#     4  10  21  41  67  97 135 174 226 279 343 403
#     4   9  20  40  68  98 129 177 223 280 341 408
#     4   9  21  40  66  99 128 174 226 277 342 406
#     4  12  27  44  65 104 140 181 234 280 339 412
#
# _framework density 22.348409
#
# number of rings (size 3 to 8) (size 9 to 14) (size 15 to 20)
#    0.000    1.667    1.667    1.500    9.333    2.000 
#    3.000    1.667    0.000    0.000    0.000    0.000 
#    0.000    0.000    0.000    0.000    0.000    0.000 
#
# Total GULP energy -148738.398054 kJ/mol
# GULP energy per Si atom -12394.866504 kJ/mol
# Density = 2.229754 g / cm^3
# Si number density = 22.348409 Si / 1000 Ang^3
#
#
#
# Elastic Constant Matrix: (Units=GPa)
#
#
# Indices 1 2 3 4 5 6 
#
# 1 31.7669 17.5163 14.1494 -0.8614 -6.2837 17.8147
# 2 17.5163 110.0295 39.4656 6.5633 1.4834 17.5148
# 3 14.1494 39.4656 128.4444 12.7575 6.6576 13.0905
# 4 -0.8614 6.5633 12.7575 49.3562 -4.0321 -1.7177
# 5 -6.2837 1.4834 6.6576 -4.0321 20.6595 7.4259
# 6 17.8147 17.5148 13.0905 -1.7177 7.4259 47.4978
#
#
#
# Elastic Compliance Matrix: (Units=1/GPa)
#
#
# Indices 1 2 3 4 5 6 
#
# 1 0.052594 -0.004140 -0.004117 0.003921 0.025926 -0.020976
# 2 -0.004140 0.011028 -0.002620 -0.000985 -0.000787 -0.001704
# 3 -0.004117 -0.002620 0.009491 -0.002551 -0.004820 0.000556
# 4 0.003921 -0.000985 -0.002551 0.021631 0.006539 -0.000644
# 5 0.025926 -0.000787 -0.004820 0.006539 0.065696 -0.018140
# 6 -0.020976 -0.001704 0.000556 -0.000644 -0.018140 0.032209
#
#
# Mechanical properties :
#
#
# Convention : Reuss Voigt Hill
#
# Bulk Modulus (GPa) = 19.47128 45.83371 32.65250
# Shear Modulus (GPa) = 21.59616 36.77668 29.18642
#
# Velocity S-wave (km/s) = 3.11197 4.06101 3.61775
# Velocity P-wave (km/s) = 4.65231 6.52244 5.66508
#
# Compressibility (1/GPa) = 0.05135768
#
# Stress axis : x y z
#
# Youngs Moduli (GPa) = 19.01359 90.67810 105.36775
#
# Poissons Ratio (x) = 0.37545 0.43379
# Poissons Ratio (y) = 0.07872 0.27607
# Poissons Ratio (z) = 0.07828 0.23758
#
# Static dielectric constant tensor:
#      x y z
#    x 1.695100 1.007260 -0.680720 
#    y 1.007260 2.117860 -1.298280 
#    z -0.680720 -1.298280 3.564380 
# 
# 
# High freq. dielectric constant tensor:
#      x y z
#    x 1.855350 0.007430 0.001860 
#    y 0.007430 1.900880 0.003810 
#    z 0.001860 0.003810 1.897140 
# 
# From -- ./inp_files/145096.got.cif
#   From: 2010.06.25/outbox.cif.g09.slc.cpg/sg2_73_cif.got.tgz:145096.got - 2010.06.27 13:26:56.
