data_PCOD8014903
_publ_section_title
;
Structure prediction by ZEFSAII (Michael W. Deem and Ramdas Pophale) SiO2 
 PCOD8014903
Probable space group: P -1
;
_chemical_formula_sum "Si O2"
_cell_formula_units_Z 14
_cell_length_a 12.807359
_cell_length_b 7.257474
_cell_length_c 24.605332
_cell_angle_alpha 65.870777
_cell_angle_beta 22.478169
_cell_angle_gamma 81.186882
_cell_volume 610.846787
_symmetry_space_group_name_H-M "P -1"
_symmetry_group_IT_number 2
_symmetry_cell_setting 'triclinic'
loop_
_space_group_symop_operation_xyz
x,y,z
-x,-y,-z
loop_
_atom_site_type_symbol
_atom_site_label
_atom_site_fract_x
_atom_site_fract_y
_atom_site_fract_z
Si Si1 0.149088 0.389781 0.342851
Si Si2 0.146894 0.094286 0.067061
Si Si3 0.740034 0.567704 0.538715
Si Si4 0.721969 0.548744 0.126111
Si Si5 0.811774 0.835319 0.749140
Si Si6 0.342830 0.484039 0.634381
Si Si7 0.965890 0.701749 0.803851
O O1 0.357509 0.337082 0.290894
O O2 0.990672 0.192163 0.391743
O O3 0.854787 0.387976 0.515133
O O4 0.433316 0.690602 0.146246
O O5 0.935832 0.102449 0.217408
O O6 0.066043 0.168761 0.039511
O O7 0.038274 0.811639 0.144881
O O8 0.403772 0.455816 0.752472
O O9 0.612676 0.526426 0.543519
O O10 0.074641 0.878484 0.348881
O O11 0.000000 0.500000 0.000000
O O12 0.942165 0.819732 0.746445
O O13 0.388919 0.597396 0.975794
O O14 0.500000 0.500000 0.500000
O O15 0.288504 0.696670 0.643061
#
# Coordination Sequence:
#
# PCOD8014903 Si02
#       7
#     2   2   2   2   2   2   2
#     4   9  22  44  63  92 125 163 209 254 310 369
#     4   9  22  43  62  86 127 165 206 255 301 374
#     4  12  24  39  66  98 124 163 209 260 309 364
#     4  10  23  43  65  92 125 164 210 253 313 374
#     4  10  22  40  68  91 127 162 209 257 309 368
#     4  12  25  38  62  94 128 162 210 254 310 366
#     4  10  21  42  63  91 124 172 203 250 313 368
#
# _framework density 22.919006
#
# number of rings (size 3 to 8) (size 9 to 14) (size 15 to 20)
#    0.857    0.857    0.000    3.857    0.000    6.857 
#    0.000    5.714    0.000    0.000    0.000    0.000 
#    0.000    0.000    0.000    0.000    0.000    0.000 
#
# Total GULP energy -173505.906609 kJ/mol
# GULP energy per Si atom -12393.279044 kJ/mol
# Density = 2.286684 g / cm^3
# Si number density = 22.919006 Si / 1000 Ang^3
#
#
#
# Elastic Constant Matrix: (Units=GPa)
#
#
# Indices 1 2 3 4 5 6 
#
# 1 103.0088 35.2403 27.8951 16.1485 15.9530 1.4197
# 2 35.2403 104.6052 21.5997 27.6654 5.6937 5.7438
# 3 27.8951 21.5997 48.0578 30.1364 6.5125 4.9929
# 4 16.1485 27.6654 30.1364 46.2163 3.4416 -7.5877
# 5 15.9530 5.6937 6.5125 3.4416 33.3629 6.8261
# 6 1.4197 5.7438 4.9929 -7.5877 6.8261 33.5984
#
#
#
# Elastic Compliance Matrix: (Units=1/GPa)
#
#
# Indices 1 2 3 4 5 6 
#
# 1 0.013326 -0.003700 -0.008002 0.003681 -0.005202 0.003147
# 2 -0.003700 0.012831 0.002073 -0.008547 0.000972 -0.004473
# 3 -0.008002 0.002073 0.044450 -0.029683 0.000610 -0.013449
# 4 0.003681 -0.008547 -0.029683 0.047854 -0.002947 0.017122
# 5 -0.005202 0.000972 0.000610 -0.002947 0.034039 -0.007618
# 6 0.003147 -0.004473 -0.013449 0.017122 -0.007618 0.037808
#
#
# Mechanical properties :
#
#
# Convention : Reuss Voigt Hill
#
# Bulk Modulus (GPa) = 19.47457 47.23801 33.35629
# Shear Modulus (GPa) = 22.05733 34.03129 28.04431
#
# Velocity S-wave (km/s) = 3.10563 3.85756 3.50183
# Velocity P-wave (km/s) = 4.62336 6.36369 5.56202
#
# Compressibility (1/GPa) = 0.05134902
#
# Stress axis : x y z
#
# Youngs Moduli (GPa) = 75.04107 77.93463 22.49727
#
# Poissons Ratio (x) = 0.28837 0.18003
# Poissons Ratio (y) = 0.27766 -0.04664
# Poissons Ratio (z) = 0.60049 -0.16157
#
# Static dielectric constant tensor:
#      x y z
#    x 3.951940 0.118200 0.209400 
#    y 0.118200 4.090700 -0.059780 
#    z 0.209400 -0.059780 4.146810 
# 
# 
# High freq. dielectric constant tensor:
#      x y z
#    x 1.898880 0.010960 0.012880 
#    y 0.010960 1.901990 0.004620 
#    z 0.012880 0.004620 1.900070 
# 
# From -- ./inp_files/618978.got.cif
#   From: 2010.06.25/outbox.cif.g09.slc.cpg/sg2_310_cif.got.tgz:618978.got - 2010.06.27 13:26:56.
