data_PCOD8014753
_publ_section_title
;
Structure prediction by ZEFSAII (Michael W. Deem and Ramdas Pophale) SiO2 
 PCOD8014753
Probable space group: P -1
;
_chemical_formula_sum "Si O2"
_cell_formula_units_Z 16
_cell_length_a 24.011959
_cell_length_b 14.510424
_cell_length_c 6.809827
_cell_angle_alpha 80.228974
_cell_angle_beta 122.658095
_cell_angle_gamma 149.696630
_cell_volume 722.555289
_symmetry_space_group_name_H-M "P -1"
_symmetry_group_IT_number 2
_symmetry_cell_setting 'triclinic'
loop_
_space_group_symop_operation_xyz
x,y,z
-x,-y,-z
loop_
_atom_site_type_symbol
_atom_site_label
_atom_site_fract_x
_atom_site_fract_y
_atom_site_fract_z
Si Si1 0.305419 0.742876 0.129054
Si Si2 0.197123 0.737537 0.215059
Si Si3 0.948204 0.032640 0.742248
Si Si4 0.219641 0.599490 0.586892
Si Si5 0.729501 0.472108 0.611384
Si Si6 0.206853 0.221688 0.085881
Si Si7 0.449395 0.223407 0.377403
Si Si8 0.848347 0.028588 0.202252
O O1 0.195239 0.690883 0.006999
O O2 0.213445 0.529422 0.115263
O O3 0.500000 0.000000 0.500000
O O4 0.324903 0.760042 0.927599
O O5 0.270689 0.753280 0.490929
O O6 0.325683 0.997656 0.369365
O O7 0.000000 0.500000 0.000000
O O8 0.093064 0.232558 0.128011
O O9 0.039693 0.071964 0.768053
O O10 0.779138 0.781911 0.649084
O O11 0.894364 0.049331 0.498404
O O12 0.290163 0.596951 0.618661
O O13 0.007270 0.306012 0.330347
O O14 0.543567 0.280299 0.374586
O O15 0.397229 0.523703 0.290601
O O16 0.189628 0.105639 0.969470
O O17 0.328534 0.139758 0.061794
#
# Coordination Sequence:
#
# PCOD8014753 Si02
#       8
#     2   2   2   2   2   2   2   2
#     4  11  23  44  66  99 134 170 234 282 321 399
#     4  11  24  45  66 100 138 182 219 273 344 394
#     4  10  21  41  71  97 131 175 230 272 333 413
#     4  11  24  41  75  97 132 186 227 271 338 408
#     4  10  21  43  67  96 135 178 221 278 334 392
#     4  10  23  43  68  97 136 175 219 286 339 396
#     4  11  24  45  65 101 146 169 226 290 327 404
#     4  12  22  42  70 103 131 178 226 275 344 399
#
# _framework density 22.143636000000001
#
# number of rings (size 3 to 8) (size 9 to 14) (size 15 to 20)
#    0.000    1.250    5.000    0.750    0.000    3.000 
#    0.000    2.500    0.000    0.000    0.000    0.000 
#    0.000    0.000    0.000    0.000    0.000    0.000 
#
# Total GULP energy -198264.616503 kJ/mol
# GULP energy per Si atom -12391.538531 kJ/mol
# Density = 2.209324 g / cm^3
# Si number density = 22.143636 Si / 1000 Ang^3
#
#
#
# Elastic Constant Matrix: (Units=GPa)
#
#
# Indices 1 2 3 4 5 6 
#
# 1 134.0878 30.7215 64.4374 0.8675 0.2949 8.5438
# 2 30.7215 109.2592 40.7532 4.7213 -2.2818 -7.6806
# 3 64.4374 40.7532 94.1713 1.4622 -9.3354 5.3027
# 4 0.8675 4.7213 1.4622 34.8888 3.1138 1.3688
# 5 0.2949 -2.2818 -9.3354 3.1138 39.9761 -2.2706
# 6 8.5438 -7.6806 5.3027 1.3688 -2.2706 33.2247
#
#
#
# Elastic Compliance Matrix: (Units=1/GPa)
#
#
# Indices 1 2 3 4 5 6 
#
# 1 0.011390 -0.000546 -0.007654 0.000372 -0.002044 -0.001989
# 2 -0.000546 0.011389 -0.004747 -0.001457 -0.000138 0.003582
# 3 -0.007654 -0.004747 0.018411 -0.000226 0.004001 -0.001785
# 4 0.000372 -0.001457 -0.000226 0.029153 -0.002510 -0.001769
# 5 -0.002044 -0.000138 0.004001 -0.002510 0.026252 0.001753
# 6 -0.001989 0.003582 -0.001785 -0.001769 0.001753 0.031915
#
#
# Mechanical properties :
#
#
# Convention : Reuss Voigt Hill
#
# Bulk Modulus (GPa) = 65.38099 67.70472 66.54286
# Shear Modulus (GPa) = 31.34743 35.05830 33.20287
#
# Velocity S-wave (km/s) = 3.76658 3.98329 3.87645
# Velocity P-wave (km/s) = 6.96464 7.19702 7.08178
#
# Compressibility (1/GPa) = 0.01529497
#
# Stress axis : x y z
#
# Youngs Moduli (GPa) = 87.79780 87.80553 54.31512
#
# Poissons Ratio (x) = 0.04798 0.41570
# Poissons Ratio (y) = 0.04797 0.25786
# Poissons Ratio (z) = 0.67197 0.41685
#
# Static dielectric constant tensor:
#      x y z
#    x -23.818070 50.211220 -1.476210 
#    y 50.211220 -85.840140 2.803720 
#    z -1.476210 2.803720 3.493220 
# 
# 
# High freq. dielectric constant tensor:
#      x y z
#    x 1.878270 -0.009140 0.001290 
#    y -0.009140 1.893670 0.012230 
#    z 0.001290 0.012230 1.836580 
# 
# From -- ./inp_files/124224.got.cif
#   From: 2010.06.25/outbox.cif.g09.slc.cpg/sg2_63_cif.got.tgz:124224.got - 2010.06.27 13:26:56.
