data_PCOD8014556
_publ_section_title
;
Structure prediction by ZEFSAII (Michael W. Deem and Ramdas Pophale) SiO2 
 PCOD8014556
Probable space group: P -1
;
_chemical_formula_sum "Si O2"
_cell_formula_units_Z 14
_cell_length_a 18.009765
_cell_length_b 23.191938
_cell_length_c 8.339162
_cell_angle_alpha 139.377946
_cell_angle_beta 147.487537
_cell_angle_gamma 20.627592
_cell_volume 651.093771
_symmetry_space_group_name_H-M "P -1"
_symmetry_group_IT_number 2
_symmetry_cell_setting 'triclinic'
loop_
_space_group_symop_operation_xyz
x,y,z
-x,-y,-z
loop_
_atom_site_type_symbol
_atom_site_label
_atom_site_fract_x
_atom_site_fract_y
_atom_site_fract_z
Si Si1 0.202142 0.015727 0.842048
Si Si2 0.757557 0.202885 0.652649
Si Si3 0.743908 0.441164 0.650786
Si Si4 0.654053 0.765812 0.380393
Si Si5 0.297265 0.130721 0.043151
Si Si6 0.244707 0.480448 0.839387
Si Si7 0.609821 0.365527 0.028911
O O1 0.190464 0.929016 0.545715
O O2 0.468126 0.884485 0.144155
O O3 0.957686 0.152708 0.806643
O O4 0.190667 0.100248 0.871558
O O5 0.463577 0.384912 0.450514
O O6 0.798167 0.204610 0.919360
O O7 0.743142 0.339939 0.371465
O O8 0.700791 0.471441 0.828813
O O9 0.037480 0.317889 0.892242
O O10 0.566197 0.875703 0.599379
O O11 0.629387 0.677168 0.196299
O O12 0.943323 0.633470 0.574620
O O13 0.500000 0.000000 0.000000
O O14 0.377959 0.430610 0.809118
O O15 0.500000 0.500000 0.000000
#
# Coordination Sequence:
#
# PCOD8014556 Si02
#       7
#     2   2   2   2   2   2   2
#     4  11  24  44  65  91 134 164 213 264 316 377
#     4  10  24  42  65  97 121 171 211 261 324 364
#     4  10  22  43  66  91 128 163 213 262 310 382
#     4  10  23  42  66  88 129 173 206 259 319 380
#     4  11  27  41  65  96 127 168 213 262 318 375
#     4  10  21  41  68  96 120 170 218 252 320 377
#     4  10  23  36  66  96 126 158 213 265 309 372
#
# _framework density 21.502279999999999
#
# number of rings (size 3 to 8) (size 9 to 14) (size 15 to 20)
#    0.000    1.714    1.429    0.857   14.000    2.286 
#    0.000    2.857    0.000    0.000    0.000    0.000 
#    0.000    0.000    0.000    0.000    0.000    0.000 
#
# Total GULP energy -173566.957733 kJ/mol
# GULP energy per Si atom -12397.639838 kJ/mol
# Density = 2.145334 g / cm^3
# Si number density = 21.502280 Si / 1000 Ang^3
#
#
#
# Elastic Constant Matrix: (Units=GPa)
#
#
# Indices 1 2 3 4 5 6 
#
# 1 121.6207 51.6281 51.0868 10.6993 9.9589 -31.2999
# 2 51.6281 96.9761 36.0255 10.9643 -2.5442 -24.4527
# 3 51.0868 36.0255 102.2160 18.8054 -1.7375 -10.1814
# 4 10.6993 10.9643 18.8054 36.6608 -3.8093 -14.9389
# 5 9.9589 -2.5442 -1.7375 -3.8093 19.3278 -0.1494
# 6 -31.2999 -24.4527 -10.1814 -14.9389 -0.1494 40.1480
#
#
#
# Elastic Compliance Matrix: (Units=1/GPa)
#
#
# Indices 1 2 3 4 5 6 
#
# 1 0.015151 -0.004219 -0.005822 0.002491 -0.008328 0.008661
# 2 -0.004219 0.014949 -0.002693 0.000784 0.004096 0.005440
# 3 -0.005822 -0.002693 0.014413 -0.006653 0.002591 -0.004990
# 4 0.002491 0.000784 -0.006653 0.036069 0.005440 0.014174
# 5 -0.008328 0.004096 0.002591 0.005440 0.057866 -0.001101
# 6 0.008661 0.005440 -0.004990 0.014174 -0.001101 0.038978
#
#
# Mechanical properties :
#
#
# Convention : Reuss Voigt Hill
#
# Bulk Modulus (GPa) = 52.50901 66.47707 59.49304
# Shear Modulus (GPa) = 23.89580 31.36550 27.63065
#
# Velocity S-wave (km/s) = 3.33726 3.82344 3.58859
# Velocity P-wave (km/s) = 6.27080 7.10458 6.70067
#
# Compressibility (1/GPa) = 0.01904435
#
# Stress axis : x y z
#
# Youngs Moduli (GPa) = 66.00309 66.89526 69.38095
#
# Poissons Ratio (x) = 0.28224 0.40396
# Poissons Ratio (y) = 0.27848 0.18682
# Poissons Ratio (z) = 0.38429 0.18013
#
# Static dielectric constant tensor:
#      x y z
#    x 3.880170 -0.310580 -0.237830 
#    y -0.310580 4.134840 0.330810 
#    z -0.237830 0.330810 4.271670 
# 
# 
# High freq. dielectric constant tensor:
#      x y z
#    x 1.823650 -0.010950 -0.007100 
#    y -0.010950 1.852690 0.008620 
#    z -0.007100 0.008620 1.855610 
# 
# From -- ./inp_files/185293.got.cif
#   From: 2010.06.25/outbox.cif.g09.slc.cpg/sg2_93_cif.got.tgz:185293.got - 2010.06.27 13:26:56.
