data_PCOD8014641
_publ_section_title
;
Structure prediction by ZEFSAII (Michael W. Deem and Ramdas Pophale) SiO2 
 PCOD8014641
Probable space group: P -1
;
_chemical_formula_sum "Si O2"
_cell_formula_units_Z 12
_cell_length_a 8.675760
_cell_length_b 5.202123
_cell_length_c 16.075029
_cell_angle_alpha 129.290331
_cell_angle_beta 61.447986
_cell_angle_gamma 98.708956
_cell_volume 480.852069
_symmetry_space_group_name_H-M "P -1"
_symmetry_group_IT_number 2
_symmetry_cell_setting 'triclinic'
loop_
_space_group_symop_operation_xyz
x,y,z
-x,-y,-z
loop_
_atom_site_type_symbol
_atom_site_label
_atom_site_fract_x
_atom_site_fract_y
_atom_site_fract_z
Si Si1 0.384653 0.629725 0.265171
Si Si2 0.954975 0.507359 0.888510
Si Si3 0.093123 0.243393 0.232993
Si Si4 0.540944 0.525132 0.378579
Si Si5 0.284533 0.220722 0.851193
Si Si6 0.239777 0.316768 0.509376
O O1 0.291626 0.316554 0.209433
O O2 0.516498 0.596160 0.302962
O O3 0.526219 0.657660 0.161135
O O4 0.232090 0.977887 0.389216
O O5 0.970925 0.663893 0.825714
O O6 0.146329 0.468796 0.876350
O O7 0.894166 0.147731 0.828082
O O8 0.804462 0.774037 0.033559
O O9 0.961783 0.477340 0.380490
O O10 0.346803 0.545458 0.474988
O O11 0.647068 0.776932 0.451542
O O12 0.673820 0.151556 0.277523
#
# Coordination Sequence:
#
# PCOD8014641 Si02
#       6
#     2   2   2   2   2   2
#     4  11  25  40  69  98 138 175 219 279 337 398
#     4  11  27  46  71  97 134 180 226 275 326 399
#     4  12  27  44  68 103 139 175 217 277 342 394
#     4  10  21  41  69  97 129 175 228 274 327 393
#     4  10  24  45  70  97 128 179 232 273 325 395
#     4  10  22  41  65  99 130 179 222 274 326 399
#
# _framework density 24.955698000000002
#
# number of rings (size 3 to 8) (size 9 to 14) (size 15 to 20)
#    0.000    1.333    1.667    2.000    9.333    3.333 
#    0.000    0.000    0.000    0.000    0.000    0.000 
#    0.000    0.000    0.000    0.000    0.000    0.000 
#
# Total GULP energy -148803.652903 kJ/mol
# GULP energy per Si atom -12400.304409 kJ/mol
# Density = 2.489890 g / cm^3
# Si number density = 24.955698 Si / 1000 Ang^3
#
#
#
# Elastic Constant Matrix: (Units=GPa)
#
#
# Indices 1 2 3 4 5 6 
#
# 1 49.1214 -3.4252 22.0279 6.2032 -13.0843 21.2981
# 2 -3.4252 46.4074 8.5878 -3.1495 -1.5151 10.2800
# 3 22.0279 8.5878 123.6468 -16.0593 -29.0081 8.5077
# 4 6.2032 -3.1495 -16.0593 24.0636 10.5210 8.7136
# 5 -13.0843 -1.5151 -29.0081 10.5210 30.3926 -4.4041
# 6 21.2981 10.2800 8.5077 8.7136 -4.4041 38.9078
#
#
#
# Elastic Compliance Matrix: (Units=1/GPa)
#
#
# Indices 1 2 3 4 5 6 
#
# 1 0.033984 0.006413 -0.003793 -0.010261 0.012601 -0.015743
# 2 0.006413 0.025060 -0.001709 0.004832 -0.000879 -0.010940
# 3 -0.003793 -0.001709 0.011267 0.005243 0.007178 -0.000298
# 4 -0.010261 0.004832 0.005243 0.063347 -0.023073 -0.013605
# 5 0.012601 -0.000879 0.007178 -0.023073 0.053555 0.002995
# 6 -0.015743 -0.010940 -0.000298 -0.013605 0.002995 0.040661
#
#
# Mechanical properties :
#
#
# Convention : Reuss Voigt Hill
#
# Bulk Modulus (GPa) = 13.86325 30.39518 22.12921
# Shear Modulus (GPa) = 19.99213 31.47182 25.73197
#
# Velocity S-wave (km/s) = 2.83345 3.55506 3.21457
# Velocity P-wave (km/s) = 4.03383 5.39049 4.76073
#
# Compressibility (1/GPa) = 0.07213318
#
# Stress axis : x y z
#
# Youngs Moduli (GPa) = 29.42560 39.90369 88.75177
#
# Poissons Ratio (x) = -0.25589 0.33663
# Poissons Ratio (y) = -0.18869 0.15167
# Poissons Ratio (z) = 0.11161 0.06819
#
# Static dielectric constant tensor:
#      x y z
#    x 4.162040 0.106960 -0.071700 
#    y 0.106960 4.331270 -0.016170 
#    z -0.071700 -0.016170 4.748870 
# 
# 
# High freq. dielectric constant tensor:
#      x y z
#    x 1.977380 0.013680 -0.012760 
#    y 0.013680 1.986550 -0.005060 
#    z -0.012760 -0.005060 2.006510 
# 
# From -- ./inp_files/18326.got.cif
#   From: 2010.06.25/outbox.cif.g09.slc.cpg/sg2_10_cif.got.tgz:18326.got - 2010.06.27 13:26:56.
