data_PCOD8014439
_publ_section_title
;
Structure prediction by ZEFSAII (Michael W. Deem and Ramdas Pophale) SiO2 
 PCOD8014439
Probable space group: P -1
;
_chemical_formula_sum "Si O2"
_cell_formula_units_Z 16
_cell_length_a 8.677463
_cell_length_b 11.205875
_cell_length_c 12.447515
_cell_angle_alpha 120.292820
_cell_angle_beta 132.966751
_cell_angle_gamma 56.318468
_cell_volume 720.951823
_symmetry_space_group_name_H-M "P -1"
_symmetry_group_IT_number 2
_symmetry_cell_setting 'triclinic'
loop_
_space_group_symop_operation_xyz
x,y,z
-x,-y,-z
loop_
_atom_site_type_symbol
_atom_site_label
_atom_site_fract_x
_atom_site_fract_y
_atom_site_fract_z
Si Si1 0.043240 0.808002 0.094988
Si Si2 0.287582 0.698587 0.714393
Si Si3 0.582656 0.087275 0.418458
Si Si4 0.407159 0.499971 0.070818
Si Si5 0.168269 0.076254 0.340870
Si Si6 0.716238 0.363006 0.547178
Si Si7 0.446159 0.097407 0.125895
Si Si8 0.943414 0.621406 0.121399
O O1 0.229763 0.659792 0.078546
O O2 0.945933 0.778047 0.150486
O O3 0.160114 0.929866 0.211968
O O4 0.814171 0.858460 0.939594
O O5 0.400239 0.549082 0.768410
O O6 0.183928 0.669712 0.540113
O O7 0.486313 0.761541 0.808174
O O8 0.081097 0.807617 0.732046
O O9 0.340363 0.134510 0.383429
O O10 0.665472 0.227448 0.518291
O O11 0.578335 0.026272 0.266551
O O12 0.754610 0.959843 0.514509
O O13 0.500000 0.500000 0.000000
O O14 0.299621 0.370420 0.950661
O O15 0.500000 0.500000 0.500000
O O16 0.883954 0.422585 0.719699
O O17 0.500000 0.000000 0.000000
O O18 0.000000 0.500000 0.000000
#
# Coordination Sequence:
#
# PCOD8014439 Si02
#       8
#     2   2   2   2   2   2   2   2
#     4  11  22  42  72  96 137 186 224 285 343 413
#     4  11  25  43  66 102 137 180 237 289 342 423
#     4  10  26  43  69 101 142 184 231 285 355 407
#     4  11  26  44  66 103 142 178 233 290 352 410
#     4  11  24  48  68 102 143 182 232 289 354 417
#     4  11  23  42  72  99 135 187 232 280 345 417
#     4  11  23  41  69 104 135 180 241 282 338 415
#     4  10  21  41  67  95 130 176 230 278 337 405
#
# _framework density 22.192882999999998
#
# number of rings (size 3 to 8) (size 9 to 14) (size 15 to 20)
#    0.000    1.250    3.750    1.500    7.000    4.500 
#    4.500    1.250    0.000    0.000    0.000    0.000 
#    0.000    0.000    0.000    0.000    0.000    0.000 
#
# Total GULP energy -198256.987191 kJ/mol
# GULP energy per Si atom -12391.061699 kJ/mol
# Density = 2.214237 g / cm^3
# Si number density = 22.192883 Si / 1000 Ang^3
#
#
#
# Elastic Constant Matrix: (Units=GPa)
#
#
# Indices 1 2 3 4 5 6 
#
# 1 112.9217 30.8082 40.4734 -4.7702 -5.8660 0.7613
# 2 30.8082 82.6719 37.5167 -8.7899 -4.6273 -16.8207
# 3 40.4734 37.5167 153.4718 -6.7535 -9.5322 1.7401
# 4 -4.7702 -8.7899 -6.7535 31.0089 -2.0251 0.2259
# 5 -5.8660 -4.6273 -9.5322 -2.0251 34.8406 -7.6339
# 6 0.7613 -16.8207 1.7401 0.2259 -7.6339 27.4011
#
#
#
# Elastic Compliance Matrix: (Units=1/GPa)
#
#
# Indices 1 2 3 4 5 6 
#
# 1 0.010516 -0.003477 -0.001866 0.000263 0.000327 -0.002219
# 2 -0.003477 0.018020 -0.003210 0.004037 0.003884 0.012411
# 3 -0.001866 -0.003210 0.007905 0.000605 0.000986 -0.002151
# 4 0.000263 0.004037 0.000605 0.033764 0.003387 0.003098
# 5 0.000327 0.003884 0.000986 0.003387 0.032206 0.011257
# 6 -0.002219 0.012411 -0.002151 0.003098 0.011257 0.047423
#
#
# Mechanical properties :
#
#
# Convention : Reuss Voigt Hill
#
# Bulk Modulus (GPa) = 51.72055 62.96245 57.34150
# Shear Modulus (GPa) = 28.83723 34.66793 31.75258
#
# Velocity S-wave (km/s) = 3.60862 3.95665 3.78664
# Velocity P-wave (km/s) = 6.38110 7.02180 6.70910
#
# Compressibility (1/GPa) = 0.01933468
#
# Stress axis : x y z
#
# Youngs Moduli (GPa) = 95.08962 55.49249 126.50305
#
# Poissons Ratio (x) = 0.19297 0.23609
# Poissons Ratio (y) = 0.33066 0.40607
# Poissons Ratio (z) = 0.17746 0.17813
#
# Static dielectric constant tensor:
#      x y z
#    x 4.123940 0.249910 0.304630 
#    y 0.249910 3.732290 -1.032670 
#    z 0.304630 -1.032670 -0.082630 
# 
# 
# High freq. dielectric constant tensor:
#      x y z
#    x 1.871270 0.003710 0.004730 
#    y 0.003710 1.860540 -0.015120 
#    z 0.004730 -0.015120 1.887050 
# 
# From -- ./inp_files/392892.got.cif
#   From: 2010.06.25/outbox.cif.g09.slc.cpg/sg2_197_cif.got.tgz:392892.got - 2010.06.27 13:26:56.
