data_PCOD8014028
_publ_section_title
;
Structure prediction by ZEFSAII (Michael W. Deem and Ramdas Pophale) SiO2 
 PCOD8014028
Probable space group: P -1
;
_chemical_formula_sum "Si O2"
_cell_formula_units_Z 10
_cell_length_a 9.361514
_cell_length_b 12.927340
_cell_length_c 9.626190
_cell_angle_alpha 48.153238
_cell_angle_beta 112.280276
_cell_angle_gamma 145.313407
_cell_volume 452.700159
_symmetry_space_group_name_H-M "P -1"
_symmetry_group_IT_number 2
_symmetry_cell_setting 'triclinic'
loop_
_space_group_symop_operation_xyz
x,y,z
-x,-y,-z
loop_
_atom_site_type_symbol
_atom_site_label
_atom_site_fract_x
_atom_site_fract_y
_atom_site_fract_z
Si Si1 0.008258 0.910896 0.392218
Si Si2 0.604738 0.135598 0.772566
Si Si3 0.113812 0.381936 0.621718
Si Si4 0.046314 0.824683 0.771540
Si Si5 0.400490 0.573960 0.846884
O O1 0.909709 0.759373 0.631776
O O2 0.862105 0.734339 0.363857
O O3 0.337612 0.131562 0.306778
O O4 0.919226 0.005971 0.279630
O O5 0.785610 0.409091 0.614583
O O6 0.796187 0.164337 0.742869
O O7 0.340027 0.971065 0.727836
O O8 0.500000 0.000000 0.000000
O O9 0.304878 0.499113 0.719687
O O10 0.851185 0.573118 0.011575
O O11 0.500000 0.500000 0.000000
#
# Coordination Sequence:
#
# PCOD8014028 Si02
#       5
#     2   2   2   2   2
#     4  10  23  42  65  95 122 163 210 260 307 365
#     4  11  23  43  63  91 129 167 206 256 307 373
#     4  11  24  42  67  90 127 167 206 255 314 365
#     4  10  21  42  64  91 131 159 206 261 307 363
#     4  10  21  41  64  93 128 158 203 264 308 361
#
# _framework density 22.089676999999998
#
# number of rings (size 3 to 8) (size 9 to 14) (size 15 to 20)
#    0.000    1.600    4.000    0.000    0.000    6.400 
#    0.000    2.000    0.000    0.000    0.000    0.000 
#    0.000    0.000    0.000    0.000    0.000    0.000 
#
# Total GULP energy -123975.099688 kJ/mol
# GULP energy per Si atom -12397.509969 kJ/mol
# Density = 2.203940 g / cm^3
# Si number density = 22.089677 Si / 1000 Ang^3
#
#
#
# Elastic Constant Matrix: (Units=GPa)
#
#
# Indices 1 2 3 4 5 6 
#
# 1 62.3438 12.9850 11.5202 3.2468 -2.6520 10.2682
# 2 12.9850 73.0028 25.4739 9.4796 -4.0960 -1.4477
# 3 11.5202 25.4739 133.6167 8.4759 -15.8352 -7.7865
# 4 3.2468 9.4796 8.4759 21.5065 9.8812 -1.2338
# 5 -2.6520 -4.0960 -15.8352 9.8812 27.6893 2.2914
# 6 10.2682 -1.4477 -7.7865 -1.2338 2.2914 35.2747
#
#
#
# Elastic Compliance Matrix: (Units=1/GPa)
#
#
# Indices 1 2 3 4 5 6 
#
# 1 0.017918 -0.002507 -0.000986 -0.002537 0.002164 -0.005766
# 2 -0.002507 0.016010 -0.001883 -0.007626 0.003734 0.000462
# 3 -0.000986 -0.001883 0.009182 -0.005656 0.006764 0.001599
# 4 -0.002537 -0.007626 -0.005656 0.065670 -0.028315 0.003313
# 5 0.002164 0.003734 0.006764 -0.028315 0.051120 -0.003295
# 6 -0.005766 0.000462 0.001599 0.003313 -0.003295 0.030729
#
#
# Mechanical properties :
#
#
# Convention : Reuss Voigt Hill
#
# Bulk Modulus (GPa) = 30.90308 40.99129 35.94718
# Shear Modulus (GPa) = 23.56651 31.49304 27.52977
#
# Velocity S-wave (km/s) = 3.26982 3.77993 3.53409
# Velocity P-wave (km/s) = 5.31750 6.13576 5.74123
#
# Compressibility (1/GPa) = 0.03235924
#
# Stress axis : x y z
#
# Youngs Moduli (GPa) = 55.80954 62.46133 108.91344
#
# Poissons Ratio (x) = 0.15657 0.10734
# Poissons Ratio (y) = 0.13990 0.20508
# Poissons Ratio (z) = 0.05500 0.11761
#
# Static dielectric constant tensor:
#      x y z
#    x 4.157840 0.541090 -0.476590 
#    y 0.541090 3.848390 -0.371050 
#    z -0.476590 -0.371050 4.658420 
# 
# 
# High freq. dielectric constant tensor:
#      x y z
#    x 1.852650 0.032280 -0.016550 
#    y 0.032280 1.846520 0.000830 
#    z -0.016550 0.000830 1.889500 
# 
# From -- ./inp_files/18648.got.cif
#   From: 2010.06.25/outbox.cif.g09.slc.cpg/sg2_10_cif.got.tgz:18648.got - 2010.06.27 13:26:56.
