data_PCOD8014720
_publ_section_title
;
Structure prediction by ZEFSAII (Michael W. Deem and Ramdas Pophale) SiO2 
 PCOD8014720
Probable space group: P -1
;
_chemical_formula_sum "Si O2"
_cell_formula_units_Z 14
_cell_length_a 10.206659
_cell_length_b 8.690772
_cell_length_c 7.688355
_cell_angle_alpha 109.950518
_cell_angle_beta 77.423629
_cell_angle_gamma 108.091310
_cell_volume 604.578642
_symmetry_space_group_name_H-M "P -1"
_symmetry_group_IT_number 2
_symmetry_cell_setting 'triclinic'
loop_
_space_group_symop_operation_xyz
x,y,z
-x,-y,-z
loop_
_atom_site_type_symbol
_atom_site_label
_atom_site_fract_x
_atom_site_fract_y
_atom_site_fract_z
Si Si1 0.096722 0.897667 0.298518
Si Si2 0.542168 0.314807 0.077504
Si Si3 0.110289 0.011887 0.821180
Si Si4 0.929644 0.588355 0.411401
Si Si5 0.374577 0.295084 0.798049
Si Si6 0.686734 0.764419 0.592123
Si Si7 0.188496 0.739431 0.882335
O O1 0.055238 0.748703 0.391167
O O2 0.240006 0.034950 0.348839
O O3 0.101552 0.799085 0.079638
O O4 0.970413 0.992610 0.343572
O O5 0.620835 0.509933 0.102450
O O6 0.415216 0.289694 0.238087
O O7 0.651899 0.220294 0.084484
O O8 0.486870 0.243468 0.874173
O O9 0.181745 0.855763 0.758225
O O10 0.223462 0.190570 0.864310
O O11 0.000000 0.000000 0.000000
O O12 0.796060 0.650259 0.536028
O O13 0.876510 0.457555 0.218429
O O14 0.000000 0.500000 0.500000
O O15 0.399616 0.264535 0.575025
#
# Coordination Sequence:
#
# PCOD8014720 Si02
#       7
#     2   2   2   2   2   2   2
#     4  11  24  45  71 100 142 180 228 289 364 413
#     4  11  25  47  70 103 139 191 241 280 344 419
#     4  10  21  41  71 100 134 182 224 284 353 411
#     4  12  26  43  72 106 138 177 234 295 351 413
#     4  11  24  43  74  95 141 194 229 280 353 416
#     4  12  25  47  73 100 145 188 230 289 349 425
#     4  11  24  44  71 102 140 177 237 292 338 413
#
# _framework density 23.156623
#
# number of rings (size 3 to 8) (size 9 to 14) (size 15 to 20)
#    0.000    0.857    2.857    3.857    2.000    6.857 
#    0.000    1.429    0.000    0.000    0.000    0.000 
#    0.000    0.000    0.000    0.000    0.000    0.000 
#
# Total GULP energy -173558.528126 kJ/mol
# GULP energy per Si atom -12397.037723 kJ/mol
# Density = 2.310392 g / cm^3
# Si number density = 23.156623 Si / 1000 Ang^3
#
#
#
# Elastic Constant Matrix: (Units=GPa)
#
#
# Indices 1 2 3 4 5 6 
#
# 1 129.9553 62.6692 43.0917 -10.6763 29.4499 -18.6477
# 2 62.6692 144.2733 43.3469 -13.0542 4.9636 3.4140
# 3 43.0917 43.3469 83.3317 0.1811 26.2660 -10.4812
# 4 -10.6763 -13.0542 0.1811 36.7563 -1.5111 10.8396
# 5 29.4499 4.9636 26.2660 -1.5111 44.3318 -4.1370
# 6 -18.6477 3.4140 -10.4812 10.8396 -4.1370 43.7286
#
#
#
# Elastic Compliance Matrix: (Units=1/GPa)
#
#
# Indices 1 2 3 4 5 6 
#
# 1 0.012777 -0.005034 -0.001262 0.000224 -0.006717 0.004849
# 2 -0.005034 0.011029 -0.005309 0.004109 0.004944 -0.004831
# 3 -0.001262 -0.005309 0.019001 -0.004076 -0.009541 0.004538
# 4 0.000224 0.004109 -0.004076 0.031430 0.002057 -0.008799
# 5 -0.006717 0.004944 -0.009541 0.002057 0.031906 -0.003028
# 6 0.004849 -0.004831 0.004538 -0.008799 -0.003028 0.028295
#
#
# Mechanical properties :
#
#
# Convention : Reuss Voigt Hill
#
# Bulk Modulus (GPa) = 51.02759 72.86399 61.94579
# Shear Modulus (GPa) = 30.45407 38.86016 34.65712
#
# Velocity S-wave (km/s) = 3.63041 4.10096 3.87284
# Velocity P-wave (km/s) = 6.29737 7.34560 6.84159
#
# Compressibility (1/GPa) = 0.01959724
#
# Stress axis : x y z
#
# Youngs Moduli (GPa) = 78.26288 90.66892 52.62835
#
# Poissons Ratio (x) = 0.45647 0.06643
# Poissons Ratio (y) = 0.39401 0.27938
# Poissons Ratio (z) = 0.09878 0.48133
#
# Static dielectric constant tensor:
#      x y z
#    x 4.435020 -0.257030 0.435900 
#    y -0.257030 4.636790 -0.098580 
#    z 0.435900 -0.098580 4.383170 
# 
# 
# High freq. dielectric constant tensor:
#      x y z
#    x 1.913070 -0.001270 0.025680 
#    y -0.001270 1.933590 -0.001350 
#    z 0.025680 -0.001350 1.917960 
# 
# From -- ./inp_files/159667.got.cif
#   From: 2010.06.25/outbox.cif.g09.slc.cpg/sg2_80_cif.got.tgz:159667.got - 2010.06.27 13:26:56.
