data_PCOD8014333
_publ_section_title
;
Structure prediction by ZEFSAII (Michael W. Deem and Ramdas Pophale) SiO2 
 PCOD8014333
Probable space group: P -1
;
_chemical_formula_sum "Si O2"
_cell_formula_units_Z 16
_cell_length_a 20.288347
_cell_length_b 8.430195
_cell_length_c 11.458761
_cell_angle_alpha 79.549744
_cell_angle_beta 151.108247
_cell_angle_gamma 80.906710
_cell_volume 693.927068
_symmetry_space_group_name_H-M "P -1"
_symmetry_group_IT_number 2
_symmetry_cell_setting 'triclinic'
loop_
_space_group_symop_operation_xyz
x,y,z
-x,-y,-z
loop_
_atom_site_type_symbol
_atom_site_label
_atom_site_fract_x
_atom_site_fract_y
_atom_site_fract_z
Si Si1 0.732472 0.073530 0.113968
Si Si2 0.263289 0.354856 0.528052
Si Si3 0.403255 0.850920 0.490459
Si Si4 0.349438 0.526044 0.442046
Si Si5 0.528717 0.917740 0.897206
Si Si6 0.249241 0.471247 0.054399
Si Si7 0.048599 0.335043 0.833861
Si Si8 0.071840 0.790453 0.527318
O O1 0.855840 0.082298 0.396314
O O2 0.558386 0.312572 0.770237
O O3 0.857725 0.948314 0.210046
O O4 0.673389 0.950755 0.096671
O O5 0.278979 0.501867 0.455030
O O6 0.056227 0.515517 0.233870
O O7 0.324287 0.151833 0.572033
O O8 0.406202 0.242874 0.872467
O O9 0.324203 0.734783 0.394899
O O10 0.524156 0.802972 0.796315
O O11 0.541490 0.756449 0.607434
O O12 0.235621 0.104178 0.190938
O O13 0.231915 0.567694 0.141330
O O14 0.101769 0.444420 0.821642
O O15 0.201091 0.628372 0.854005
O O16 0.911841 0.325536 0.550643
#
# Coordination Sequence:
#
# PCOD8014333 Si02
#       8
#     2   2   2   2   2   2   2   2
#     4  10  21  41  66  97 131 166 211 269 327 380
#     4  10  24  46  66  95 128 175 217 266 319 384
#     4  12  25  42  68  98 130 171 217 270 322 385
#     4  11  25  44  66  95 134 176 213 262 325 382
#     4  10  22  46  70  94 124 175 220 264 325 380
#     4  12  24  43  69  95 135 170 210 273 326 387
#     4  12  25  42  66  99 133 168 221 262 323 385
#     4  11  23  38  70 102 129 167 212 273 327 381
#
# _framework density 23.057178
#
# number of rings (size 3 to 8) (size 9 to 14) (size 15 to 20)
#    0.000    1.000    1.250    5.625    3.500    3.000 
#    4.500    0.000    0.000    0.000    0.000    0.000 
#    0.000    0.000    0.000    0.000    0.000    0.000 
#
# Total GULP energy -198385.459737 kJ/mol
# GULP energy per Si atom -12399.091234 kJ/mol
# Density = 2.300470 g / cm^3
# Si number density = 23.057178 Si / 1000 Ang^3
#
#
#
# Elastic Constant Matrix: (Units=GPa)
#
#
# Indices 1 2 3 4 5 6 
#
# 1 100.2029 38.9334 24.7196 2.9800 5.7562 -6.5190
# 2 38.9334 101.9068 13.2707 22.6199 0.6060 -8.0214
# 3 24.7196 13.2707 74.7973 -5.0789 11.8604 -4.3151
# 4 2.9800 22.6199 -5.0789 43.1803 -17.0660 2.3261
# 5 5.7562 0.6060 11.8604 -17.0660 32.7339 -3.5299
# 6 -6.5190 -8.0214 -4.3151 2.3261 -3.5299 14.6000
#
#
#
# Elastic Compliance Matrix: (Units=1/GPa)
#
#
# Indices 1 2 3 4 5 6 
#
# 1 0.012605 -0.004428 -0.003152 0.000835 -0.000336 0.002050
# 2 -0.004428 0.014034 -0.000776 -0.008679 -0.003062 0.006146
# 3 -0.003152 -0.000776 0.015397 0.000551 -0.004558 0.001527
# 4 0.000835 -0.008679 0.000551 0.034891 0.017402 -0.005584
# 5 -0.000336 -0.003062 -0.004558 0.017402 0.041839 0.004163
# 6 0.002050 0.006146 0.001527 -0.005584 0.004163 0.075133
#
#
# Mechanical properties :
#
#
# Convention : Reuss Voigt Hill
#
# Bulk Modulus (GPa) = 39.48599 47.86160 43.67380
# Shear Modulus (GPa) = 22.82568 31.43506 27.13037
#
# Velocity S-wave (km/s) = 3.14978 3.69637 3.43396
# Velocity P-wave (km/s) = 5.51276 6.24663 5.89113
#
# Compressibility (1/GPa) = 0.02532544
#
# Stress axis : x y z
#
# Youngs Moduli (GPa) = 79.33060 71.25651 64.94697
#
# Poissons Ratio (x) = 0.31549 0.20472
# Poissons Ratio (y) = 0.35124 0.05039
# Poissons Ratio (z) = 0.25006 0.05528
#
# Static dielectric constant tensor:
#      x y z
#    x 4.045040 -0.083960 0.147970 
#    y -0.083960 4.309160 -0.087450 
#    z 0.147970 -0.087450 4.031280 
# 
# 
# High freq. dielectric constant tensor:
#      x y z
#    x 1.899540 -0.004940 0.003860 
#    y -0.004940 1.918210 -0.007290 
#    z 0.003860 -0.007290 1.912210 
# 
# From -- ./inp_files/470003.got.cif
#   From: 2010.06.25/outbox.cif.g09.slc.cpg/sg2_236_cif.got.tgz:470003.got - 2010.06.27 13:26:56.
