data_PCOD8014887
_publ_section_title
;
Structure prediction by ZEFSAII (Michael W. Deem and Ramdas Pophale) SiO2 
 PCOD8014887
Probable space group: P -1
;
_chemical_formula_sum "Si O2"
_cell_formula_units_Z 16
_cell_length_a 8.032353
_cell_length_b 11.759287
_cell_length_c 18.696657
_cell_angle_alpha 145.025247
_cell_angle_beta 51.675976
_cell_angle_gamma 129.185210
_cell_volume 763.518117
_symmetry_space_group_name_H-M "P -1"
_symmetry_group_IT_number 2
_symmetry_cell_setting 'triclinic'
loop_
_space_group_symop_operation_xyz
x,y,z
-x,-y,-z
loop_
_atom_site_type_symbol
_atom_site_label
_atom_site_fract_x
_atom_site_fract_y
_atom_site_fract_z
Si Si1 0.422874 0.493820 0.861648
Si Si2 0.859459 0.605874 0.254167
Si Si3 0.239000 0.424810 0.016486
Si Si4 0.583776 0.184354 0.322814
Si Si5 0.836205 0.027179 0.448959
Si Si6 0.570236 0.953362 0.351852
Si Si7 0.785995 0.612717 0.436205
Si Si8 0.763108 0.890287 0.039320
O O1 0.321548 0.497490 0.811514
O O2 0.517562 0.296676 0.750205
O O3 0.217343 0.459299 0.955019
O O4 0.619358 0.704129 0.931321
O O5 0.732697 0.549372 0.334812
O O6 0.082407 0.536203 0.157364
O O7 0.956774 0.852323 0.345730
O O8 0.500000 0.500000 0.000000
O O9 0.172913 0.191640 0.943364
O O10 0.760281 0.409369 0.386342
O O11 0.349623 0.236624 0.416301
O O12 0.623312 0.052133 0.311152
O O13 0.615927 0.050558 0.175741
O O14 0.607479 0.951979 0.514181
O O15 0.962500 0.254013 0.558085
O O16 0.797007 0.027078 0.374298
O O17 0.000000 0.000000 0.000000
#
# Coordination Sequence:
#
# PCOD8014887 Si02
#       8
#     2   2   2   2   2   2   2   2
#     4  10  23  40  67  93 127 164 207 267 308 370
#     4  11  22  41  65  96 129 159 216 258 319 369
#     4  10  22  37  63  93 122 165 211 254 306 371
#     4  11  24  43  61  90 129 157 219 250 315 375
#     4  10  23  37  68  93 126 164 205 259 316 365
#     4  10  21  42  62  98 122 161 212 257 311 372
#     4  11  25  40  64  93 122 172 201 266 311 373
#     4  11  24  42  64  92 124 173 206 253 315 380
#
# _framework density 20.955627
#
# number of rings (size 3 to 8) (size 9 to 14) (size 15 to 20)
#    0.000    1.500    2.500    1.500    8.750    0.500 
#    0.000    5.000    0.000    0.000    0.000    0.000 
#    0.000    0.000    0.000    0.000    0.000    0.000 
#
# Total GULP energy -198215.870837 kJ/mol
# GULP energy per Si atom -12388.491927 kJ/mol
# Density = 2.090793 g / cm^3
# Si number density = 20.955627 Si / 1000 Ang^3
#
#
#
# Elastic Constant Matrix: (Units=GPa)
#
#
# Indices 1 2 3 4 5 6 
#
# 1 74.1068 49.5204 48.6690 8.2365 3.7403 -0.2922
# 2 49.5204 121.6288 46.8161 8.4017 7.7189 2.6502
# 3 48.6690 46.8161 140.7047 1.2462 -7.9842 1.0803
# 4 8.2365 8.4017 1.2462 34.4858 1.2270 -1.7524
# 5 3.7403 7.7189 -7.9842 1.2270 38.6974 1.6988
# 6 -0.2922 2.6502 1.0803 -1.7524 1.6988 16.0119
#
#
#
# Elastic Compliance Matrix: (Units=1/GPa)
#
#
# Indices 1 2 3 4 5 6 
#
# 1 0.021925 -0.006489 -0.005518 -0.003302 -0.001933 0.001690
# 2 -0.006489 0.011799 -0.001767 -0.001287 -0.001967 -0.001884
# 3 -0.005518 -0.001767 0.009761 0.001261 0.002888 -0.000635
# 4 -0.003302 -0.001287 0.001261 0.030237 -0.000272 0.003406
# 5 -0.001933 -0.001967 0.002888 -0.000272 0.027149 -0.002815
# 6 0.001690 -0.001884 -0.000635 0.003406 -0.002815 0.063510
#
#
# Mechanical properties :
#
#
# Convention : Reuss Voigt Hill
#
# Bulk Modulus (GPa) = 62.74705 69.60570 66.17637
# Shear Modulus (GPa) = 25.34964 30.60135 27.97549
#
# Velocity S-wave (km/s) = 3.48182 3.82552 3.65771
# Velocity P-wave (km/s) = 6.79499 7.26641 7.03465
#
# Compressibility (1/GPa) = 0.01593701
#
# Stress axis : x y z
#
# Youngs Moduli (GPa) = 45.60931 84.75629 102.44504
#
# Poissons Ratio (x) = 0.54997 0.56532
# Poissons Ratio (y) = 0.29595 0.18102
# Poissons Ratio (z) = 0.25169 0.14976
#
# Static dielectric constant tensor:
#      x y z
#    x 3.579380 -0.328100 0.063130 
#    y -0.328100 4.023130 -0.157620 
#    z 0.063130 -0.157620 4.135730 
# 
# 
# High freq. dielectric constant tensor:
#      x y z
#    x 1.796360 -0.013140 -0.007650 
#    y -0.013140 1.816890 -0.005520 
#    z -0.007650 -0.005520 1.842570 
# 
# From -- ./inp_files/589197.got.cif
#   From: 2010.06.25/outbox.cif.g09.slc.cpg/sg2_295_cif.got.tgz:589197.got - 2010.06.27 13:26:56.
