data_PCOD8014161
_publ_section_title
;
Structure prediction by ZEFSAII (Michael W. Deem and Ramdas Pophale) SiO2 
 PCOD8014161
Probable space group: P -1
;
_chemical_formula_sum "Si O2"
_cell_formula_units_Z 16
_cell_length_a 9.266875
_cell_length_b 14.286413
_cell_length_c 14.022024
_cell_angle_alpha 57.425179
_cell_angle_beta 28.791766
_cell_angle_gamma 56.717749
_cell_volume 739.779575
_symmetry_space_group_name_H-M "P -1"
_symmetry_group_IT_number 2
_symmetry_cell_setting 'triclinic'
loop_
_space_group_symop_operation_xyz
x,y,z
-x,-y,-z
loop_
_atom_site_type_symbol
_atom_site_label
_atom_site_fract_x
_atom_site_fract_y
_atom_site_fract_z
Si Si1 0.996699 0.069026 0.773629
Si Si2 0.275411 0.828035 0.436028
Si Si3 0.786800 0.263857 0.666726
Si Si4 0.755658 0.149466 0.159816
Si Si5 0.796790 0.782241 0.284671
Si Si6 0.350346 0.367026 0.247797
Si Si7 0.649772 0.378577 0.872654
Si Si8 0.406324 0.076447 0.230862
O O1 0.964017 0.132626 0.655791
O O2 0.239044 0.126544 0.660054
O O3 0.661573 0.102725 0.996094
O O4 0.128807 0.934026 0.771372
O O5 0.398326 0.750699 0.314172
O O6 0.463089 0.764553 0.452488
O O7 0.911600 0.835785 0.653239
O O8 0.354618 0.951056 0.312715
O O9 0.584111 0.315924 0.846804
O O10 0.008722 0.352071 0.471574
O O11 0.579206 0.272650 0.228898
O O12 0.523371 0.093494 0.260400
O O13 0.054211 0.162914 0.920889
O O14 0.002916 0.665450 0.267092
O O15 0.399239 0.487989 0.189724
O O16 0.424489 0.348923 0.101675
#
# Coordination Sequence:
#
# PCOD8014161 Si02
#       8
#     2   2   2   2   2   2   2   2
#     4  10  19  35  57  86 117 161 192 233 282 347
#     4  11  20  33  56  89 123 157 183 241 297 342
#     4  11  23  34  60  91 120 145 198 245 287 348
#     4  10  16  34  60  81 115 154 199 231 273 352
#     4   9  17  34  60  84 111 157 194 234 288 343
#     4  10  20  39  62  90 108 156 199 245 287 339
#     4   9  21  40  67  82 112 153 204 242 289 340
#     4  10  19  34  56  82 125 161 191 223 289 365
#
# _framework density 21.628064999999999
#
# number of rings (size 3 to 8) (size 9 to 14) (size 15 to 20)
#    0.000    2.000    3.750    1.875    0.000    1.000 
#    0.000    0.625    5.500    6.750    0.000    0.000 
#    0.000    0.000    0.000    0.000    0.000    0.000 
#
# Total GULP energy -198250.958033 kJ/mol
# GULP energy per Si atom -12390.684877 kJ/mol
# Density = 2.157884 g / cm^3
# Si number density = 21.628065 Si / 1000 Ang^3
#
#
#
# Elastic Constant Matrix: (Units=GPa)
#
#
# Indices 1 2 3 4 5 6 
#
# 1 73.6279 23.0161 12.0002 10.0190 -16.7519 2.3638
# 2 23.0161 109.2740 6.3694 -1.1387 7.2357 -0.3228
# 3 12.0002 6.3694 45.2428 3.6927 -5.9606 -3.1919
# 4 10.0190 -1.1387 3.6927 25.1431 -4.6057 4.3917
# 5 -16.7519 7.2357 -5.9606 -4.6057 23.5604 1.3426
# 6 2.3638 -0.3228 -3.1919 4.3917 1.3426 19.6887
#
#
#
# Elastic Compliance Matrix: (Units=1/GPa)
#
#
# Indices 1 2 3 4 5 6 
#
# 1 0.019402 -0.004924 -0.002435 -0.004562 0.013956 -0.002739
# 2 -0.004924 0.010727 -0.001157 0.001219 -0.006895 0.000778
# 3 -0.002435 -0.001157 0.023961 -0.002669 0.003908 0.004487
# 4 -0.004562 0.001219 -0.002669 0.044739 0.005033 -0.010187
# 5 0.013956 -0.006895 0.003908 0.005033 0.056808 -0.006151
# 6 -0.002739 0.000778 0.004487 -0.010187 -0.006151 0.054552
#
#
# Mechanical properties :
#
#
# Convention : Reuss Voigt Hill
#
# Bulk Modulus (GPa) = 26.98528 34.54623 30.76575
# Shear Modulus (GPa) = 20.87038 26.12904 23.49971
#
# Velocity S-wave (km/s) = 3.10976 3.47956 3.29984
# Velocity P-wave (km/s) = 5.03966 5.67015 5.36418
#
# Compressibility (1/GPa) = 0.03705724
#
# Stress axis : x y z
#
# Youngs Moduli (GPa) = 51.54104 93.21842 41.73436
#
# Poissons Ratio (x) = 0.45904 0.10163
# Poissons Ratio (y) = 0.25381 0.04829
# Poissons Ratio (z) = 0.12551 0.10786
#
# Static dielectric constant tensor:
#      x y z
#    x 3.805620 -0.107020 -0.045590 
#    y -0.107020 4.126850 0.059440 
#    z -0.045590 0.059440 3.900180 
# 
# 
# High freq. dielectric constant tensor:
#      x y z
#    x 1.816810 -0.001990 0.007670 
#    y -0.001990 1.842340 0.000970 
#    z 0.007670 0.000970 1.841110 
# 
# From -- ./inp_files/314983.got.cif
#   From: 2010.06.25/outbox.cif.g09.slc.cpg/sg2_158_cif.got.tgz:314983.got - 2010.06.27 13:26:56.
