data_PCOD8014671
_publ_section_title
;
Structure prediction by ZEFSAII (Michael W. Deem and Ramdas Pophale) SiO2 
 PCOD8014671
Probable space group: P -1
;
_chemical_formula_sum "Si O2"
_cell_formula_units_Z 12
_cell_length_a 12.193669
_cell_length_b 5.149738
_cell_length_c 11.336952
_cell_angle_alpha 130.840611
_cell_angle_beta 66.538010
_cell_angle_gamma 107.020420
_cell_volume 493.507434
_symmetry_space_group_name_H-M "P -1"
_symmetry_group_IT_number 2
_symmetry_cell_setting 'triclinic'
loop_
_space_group_symop_operation_xyz
x,y,z
-x,-y,-z
loop_
_atom_site_type_symbol
_atom_site_label
_atom_site_fract_x
_atom_site_fract_y
_atom_site_fract_z
Si Si1 0.237847 0.428254 0.406701
Si Si2 0.804110 0.733160 0.872361
Si Si3 0.958282 0.630286 0.358919
Si Si4 0.364090 0.837466 0.290264
Si Si5 0.744743 0.381276 0.240681
Si Si6 0.406764 0.086136 0.665597
O O1 0.201430 0.174103 0.236674
O O2 0.115387 0.548654 0.553865
O O3 0.310541 0.767243 0.426325
O O4 0.323576 0.217435 0.392528
O O5 0.695383 0.446229 0.858112
O O6 0.931886 0.576214 0.796222
O O7 0.790518 0.053378 0.055970
O O8 0.859850 0.631894 0.296503
O O9 0.000000 0.000000 0.500000
O O10 0.508101 0.818969 0.227921
O O11 0.660834 0.579486 0.246706
O O12 0.680959 0.234893 0.346987
O O13 0.500000 0.000000 0.500000
#
# Coordination Sequence:
#
# PCOD8014671 Si02
#       6
#     2   2   2   2   2   2
#     4  10  21  41  70 104 133 187 230 271 343 416
#     4  10  26  43  71 108 144 179 235 287 353 409
#     4  12  23  47  75 101 142 192 233 287 346 422
#     4  10  22  42  72  97 141 179 233 274 347 408
#     4  12  29  45  73 107 143 179 236 296 351 404
#     4  12  26  48  72 104 142 184 235 288 349 423
#
# _framework density 24.315743999999999
#
# number of rings (size 3 to 8) (size 9 to 14) (size 15 to 20)
#    1.000    0.000    1.667    4.500    2.333    2.667 
#    0.000    2.500    0.000    0.000    0.000    0.000 
#    0.000    0.000    0.000    0.000    0.000    0.000 
#
# Total GULP energy -148682.472041 kJ/mol
# GULP energy per Si atom -12390.206003 kJ/mol
# Density = 2.426040 g / cm^3
# Si number density = 24.315744 Si / 1000 Ang^3
#
#
#
# Elastic Constant Matrix: (Units=GPa)
#
#
# Indices 1 2 3 4 5 6 
#
# 1 203.1052 56.9911 59.6593 20.9672 -6.7404 6.6927
# 2 56.9911 70.9578 15.3628 7.1411 2.6775 -9.1090
# 3 59.6593 15.3628 122.7230 21.0158 -14.6944 9.3773
# 4 20.9672 7.1411 21.0158 31.9160 -1.4697 7.0392
# 5 -6.7404 2.6775 -14.6944 -1.4697 29.5686 11.8176
# 6 6.6927 -9.1090 9.3773 7.0392 11.8176 48.1679
#
#
#
# Elastic Compliance Matrix: (Units=1/GPa)
#
#
# Indices 1 2 3 4 5 6 
#
# 1 0.007467 -0.005636 -0.002295 -0.001648 0.001725 -0.001839
# 2 -0.005636 0.020032 -0.000643 -0.002072 -0.006119 0.006501
# 3 -0.002295 -0.000643 0.011073 -0.004772 0.005881 -0.002704
# 4 -0.001648 -0.002072 -0.004772 0.037179 0.001279 -0.004981
# 5 0.001725 -0.006119 0.005881 0.001279 0.043067 -0.013295
# 6 -0.001839 0.006501 -0.002704 -0.004981 -0.013295 0.026761
#
#
# Mechanical properties :
#
#
# Convention : Reuss Voigt Hill
#
# Bulk Modulus (GPa) = 46.67410 73.42361 60.04886
# Shear Modulus (GPa) = 29.43477 39.58202 34.50839
#
# Velocity S-wave (km/s) = 3.48303 4.03902 3.77129
# Velocity P-wave (km/s) = 5.95080 7.21201 6.61155
#
# Compressibility (1/GPa) = 0.02142516
#
# Stress axis : x y z
#
# Youngs Moduli (GPa) = 133.92110 49.91939 90.31279
#
# Poissons Ratio (x) = 0.28133 0.20729
# Poissons Ratio (y) = 0.75473 0.05803
# Poissons Ratio (z) = 0.30738 0.03208
#
# Static dielectric constant tensor:
#      x y z
#    x 5.543600 0.157260 0.346050 
#    y 0.157260 4.286720 -0.103240 
#    z 0.346050 -0.103240 4.150910 
# 
# 
# High freq. dielectric constant tensor:
#      x y z
#    x 1.992460 0.009010 0.018290 
#    y 0.009010 1.956180 0.005500 
#    z 0.018290 0.005500 1.956840 
# 
# From -- ./inp_files/408886.got.cif
#   From: 2010.06.25/outbox.cif.g09.slc.cpg/sg2_205_cif.got.tgz:408886.got - 2010.06.27 13:26:56.
