data_PCOD8014946
_publ_section_title
;
Structure prediction by ZEFSAII (Michael W. Deem and Ramdas Pophale) SiO2 
 PCOD8014946
Probable space group: P -1
;
_chemical_formula_sum "Si O2"
_cell_formula_units_Z 14
_cell_length_a 20.695787
_cell_length_b 8.774532
_cell_length_c 11.563327
_cell_angle_alpha 141.802722
_cell_angle_beta 143.695162
_cell_angle_gamma 39.085293
_cell_volume 707.851397
_symmetry_space_group_name_H-M "P -1"
_symmetry_group_IT_number 2
_symmetry_cell_setting 'triclinic'
loop_
_space_group_symop_operation_xyz
x,y,z
-x,-y,-z
loop_
_atom_site_type_symbol
_atom_site_label
_atom_site_fract_x
_atom_site_fract_y
_atom_site_fract_z
Si Si1 0.188576 0.803794 0.471700
Si Si2 0.045953 0.806374 0.059460
Si Si3 0.792079 0.788218 0.074071
Si Si4 0.830583 0.737050 0.834479
Si Si5 0.457515 0.636886 0.709473
Si Si6 0.483179 0.983765 0.145055
Si Si7 0.583357 0.030373 0.540867
O O1 0.111894 0.928130 0.319496
O O2 0.149492 0.573828 0.328469
O O3 0.324414 0.657758 0.542598
O O4 0.167669 0.029450 0.672915
O O5 0.136369 0.519933 0.971847
O O6 0.940984 0.767209 0.952678
O O7 0.000000 0.000000 0.000000
O O8 0.818097 0.841549 0.010927
O O9 0.653998 0.848121 0.923726
O O10 0.718116 0.915749 0.704349
O O11 0.464146 0.827023 0.730758
O O12 0.544652 0.336708 0.629080
O O13 0.500748 0.720937 0.941150
O O14 0.563035 0.871644 0.306767
O O15 0.500000 0.000000 0.500000
#
# Coordination Sequence:
#
# PCOD8014946 Si02
#       7
#     2   2   2   2   2   2   2
#     4  10  21  42  64  83 116 158 195 236 288 343
#     4  11  26  41  59  88 117 146 200 248 288 343
#     4  10  21  42  64  83 116 158 195 236 288 343
#     4  11  24  39  59  90 116 154 197 237 285 348
#     4  10  22  38  60  89 120 155 193 234 287 349
#     4  10  22  38  60  89 120 155 193 234 287 349
#     4  12  21  36  61  89 120 152 188 239 295 338
#
# _framework density 19.778164
#
# number of rings (size 3 to 8) (size 9 to 14) (size 15 to 20)
#    0.000    1.429    2.857    3.000    4.000    4.571 
#    0.000    0.000    0.000    0.000    0.000    0.000 
#    0.000    0.000    0.000    0.000    0.000    0.000 
#
# Total GULP energy -173624.114444 kJ/mol
# GULP energy per Si atom -12401.722460 kJ/mol
# Density = 1.973315 g / cm^3
# Si number density = 19.778164 Si / 1000 Ang^3
#
#
#
# Elastic Constant Matrix: (Units=GPa)
#
#
# Indices 1 2 3 4 5 6 
#
# 1 84.2839 18.1488 45.8345 2.7647 -15.6739 6.9883
# 2 18.1488 70.1583 51.3063 -15.9684 -17.6170 1.5002
# 3 45.8345 51.3063 136.5043 -6.4501 -34.3837 8.7088
# 4 2.7647 -15.9684 -6.4501 28.4618 5.1867 -6.5594
# 5 -15.6739 -17.6170 -34.3837 5.1867 35.4432 0.7445
# 6 6.9883 1.5002 8.7088 -6.5594 0.7445 28.2751
#
#
#
# Elastic Compliance Matrix: (Units=1/GPa)
#
#
# Indices 1 2 3 4 5 6 
#
# 1 0.015256 -0.001312 -0.003823 -0.004494 0.003120 -0.003648
# 2 -0.001312 0.023206 -0.007523 0.012073 0.001802 0.004163
# 3 -0.003823 -0.007523 0.013630 -0.003156 0.008334 -0.003806
# 4 -0.004494 0.012073 -0.003156 0.045519 -0.005965 0.012159
# 5 0.003120 0.001802 0.008334 -0.005965 0.039571 -0.005859
# 6 -0.003648 0.004163 -0.003806 0.012159 -0.005859 0.040195
#
#
# Mechanical properties :
#
#
# Convention : Reuss Voigt Hill
#
# Bulk Modulus (GPa) = 37.34694 57.94730 47.64712
# Shear Modulus (GPa) = 23.62749 30.14646 26.88698
#
# Velocity S-wave (km/s) = 3.46008 3.90837 3.69104
# Velocity P-wave (km/s) = 5.90651 7.05191 6.50447
#
# Compressibility (1/GPa) = 0.02677596
#
# Stress axis : x y z
#
# Youngs Moduli (GPa) = 65.54616 43.09312 73.36759
#
# Poissons Ratio (x) = 0.05654 0.28051
# Poissons Ratio (y) = 0.08600 0.55192
# Poissons Ratio (z) = 0.25060 0.32418
#
# Static dielectric constant tensor:
#      x y z
#    x 3.667280 -0.431410 -0.019960 
#    y -0.431410 1.793650 1.028600 
#    z -0.019960 1.028600 3.370300 
# 
# 
# High freq. dielectric constant tensor:
#      x y z
#    x 1.778980 -0.001380 -0.003860 
#    y -0.001380 1.759750 -0.006230 
#    z -0.003860 -0.006230 1.790700 
# 
# From -- ./inp_files/251332.got.cif
#   From: 2010.06.25/outbox.cif.g09.slc.cpg/sg2_126_cif.got.tgz:251332.got - 2010.06.27 13:26:56.
