data_PCOD8014930
_publ_section_title
;
Structure prediction by ZEFSAII (Michael W. Deem and Ramdas Pophale) SiO2 
 PCOD8014930
Probable space group: P -1
;
_chemical_formula_sum "Si O2"
_cell_formula_units_Z 16
_cell_length_a 8.751627
_cell_length_b 18.948672
_cell_length_c 6.708282
_cell_angle_alpha 42.327351
_cell_angle_beta 93.555649
_cell_angle_gamma 87.628822
_cell_volume 741.317441
_symmetry_space_group_name_H-M "P -1"
_symmetry_group_IT_number 2
_symmetry_cell_setting 'triclinic'
loop_
_space_group_symop_operation_xyz
x,y,z
-x,-y,-z
loop_
_atom_site_type_symbol
_atom_site_label
_atom_site_fract_x
_atom_site_fract_y
_atom_site_fract_z
Si Si1 0.587552 0.715527 0.612820
Si Si2 0.709064 0.371746 0.093569
Si Si3 0.848208 0.568666 0.761827
Si Si4 0.039999 0.731121 0.366092
Si Si5 0.029981 0.100569 0.673216
Si Si6 0.500956 0.131510 0.067081
Si Si7 0.352475 0.090499 0.525836
Si Si8 0.793460 0.203245 0.137457
O O1 0.464770 0.640325 0.833647
O O2 0.749688 0.638753 0.777357
O O3 0.586889 0.812669 0.558944
O O4 0.544358 0.766783 0.286429
O O5 0.813980 0.326903 0.380805
O O6 0.748586 0.317229 0.997821
O O7 0.734878 0.494473 0.802933
O O8 0.920017 0.651436 0.448729
O O9 0.000000 0.500000 0.000000
O O10 0.944758 0.811430 0.344745
O O11 0.097298 0.788558 0.059970
O O12 0.177942 0.079401 0.589351
O O13 0.881393 0.128498 0.465701
O O14 0.000000 0.000000 0.000000
O O15 0.360576 0.115150 0.238755
O O16 0.645633 0.150119 0.176172
O O17 0.544604 0.021726 0.177765
#
# Coordination Sequence:
#
# PCOD8014930 Si02
#       8
#     2   2   2   2   2   2   2   2
#     4  12  22  44  70  94 136 173 223 270 329 393
#     4  10  22  41  67  94 127 178 219 274 331 382
#     4  10  23  43  69  97 129 175 225 277 333 385
#     4  10  21  42  63  95 133 173 219 272 325 387
#     4  11  25  40  67  97 132 177 216 264 332 390
#     4  11  25  42  66 101 134 177 216 267 327 396
#     4  11  25  42  65  99 136 173 218 266 326 398
#     4  11  23  42  66  97 137 169 221 273 323 393
#
# _framework density 21.583196000000001
#
# number of rings (size 3 to 8) (size 9 to 14) (size 15 to 20)
#    0.000    1.250    3.750    1.500    3.500    4.500 
#    0.000    3.125    0.000    0.000    0.000    0.000 
#    0.000    0.000    0.000    0.000    0.000    0.000 
#
# Total GULP energy -198346.673814 kJ/mol
# GULP energy per Si atom -12396.667113 kJ/mol
# Density = 2.153407 g / cm^3
# Si number density = 21.583196 Si / 1000 Ang^3
#
#
#
# Elastic Constant Matrix: (Units=GPa)
#
#
# Indices 1 2 3 4 5 6 
#
# 1 123.2206 60.5189 37.3651 -12.1473 -22.3796 -9.6848
# 2 60.5189 127.4687 42.8021 -10.8028 -1.6007 -5.8060
# 3 37.3651 42.8021 70.0348 -2.3113 -4.1378 -3.5085
# 4 -12.1473 -10.8028 -2.3113 32.5908 -0.5067 -8.4414
# 5 -22.3796 -1.6007 -4.1378 -0.5067 24.6345 -2.9594
# 6 -9.6848 -5.8060 -3.5085 -8.4414 -2.9594 44.0906
#
#
#
# Elastic Compliance Matrix: (Units=1/GPa)
#
#
# Indices 1 2 3 4 5 6 
#
# 1 0.014949 -0.005077 -0.003722 0.004904 0.013224 0.004145
# 2 -0.005077 0.011961 -0.004813 0.001683 -0.004598 0.000090
# 3 -0.003722 -0.004813 0.019101 -0.001713 -0.000556 -0.000297
# 4 0.004904 0.001683 -0.001713 0.035191 0.005998 0.008303
# 5 0.013224 -0.004598 -0.000556 0.005998 0.053176 0.006973
# 6 0.004145 0.000090 -0.000297 0.008303 0.006973 0.025637
#
#
# Mechanical properties :
#
#
# Convention : Reuss Voigt Hill
#
# Bulk Modulus (GPa) = 53.22651 66.89958 60.06305
# Shear Modulus (GPa) = 25.83968 32.26571 29.05269
#
# Velocity S-wave (km/s) = 3.46383 3.87065 3.67288
# Velocity P-wave (km/s) = 6.38060 7.14418 6.77316
#
# Compressibility (1/GPa) = 0.01878763
#
# Stress axis : x y z
#
# Youngs Moduli (GPa) = 66.89496 83.60847 52.35257
#
# Poissons Ratio (x) = 0.42449 0.19485
# Poissons Ratio (y) = 0.33963 0.25195
# Poissons Ratio (z) = 0.24897 0.40237
#
# Static dielectric constant tensor:
#      x y z
#    x 3.617050 0.906410 -0.429580 
#    y 0.906410 2.603830 -0.017170 
#    z -0.429580 -0.017170 3.738060 
# 
# 
# High freq. dielectric constant tensor:
#      x y z
#    x 1.861620 -0.003920 -0.022210 
#    y -0.003920 1.855250 -0.014800 
#    z -0.022210 -0.014800 1.830680 
# 
# From -- ./inp_files/37564.got.cif
#   From: 2010.06.25/outbox.cif.g09.slc.cpg/sg2_19_cif.got.tgz:37564.got - 2010.06.27 13:26:56.
