data_PCOD8014852
_publ_section_title
;
Structure prediction by ZEFSAII (Michael W. Deem and Ramdas Pophale) SiO2 
 PCOD8014852
Probable space group: P -1
;
_chemical_formula_sum "Si O2"
_cell_formula_units_Z 16
_cell_length_a 22.389174
_cell_length_b 9.289351
_cell_length_c 21.927438
_cell_angle_alpha 144.136548
_cell_angle_beta 161.511004
_cell_angle_gamma 44.471617
_cell_volume 809.322765
_symmetry_space_group_name_H-M "P -1"
_symmetry_group_IT_number 2
_symmetry_cell_setting 'triclinic'
loop_
_space_group_symop_operation_xyz
x,y,z
-x,-y,-z
loop_
_atom_site_type_symbol
_atom_site_label
_atom_site_fract_x
_atom_site_fract_y
_atom_site_fract_z
Si Si1 0.574014 0.721667 0.529629
Si Si2 0.097846 0.981462 0.963490
Si Si3 0.294908 0.191082 0.103042
Si Si4 0.735562 0.729143 0.249390
Si Si5 0.329913 0.761810 0.911807
Si Si6 0.644382 0.871537 0.515765
Si Si7 0.279128 0.532590 0.982974
Si Si8 0.884844 0.885180 0.219580
O O1 0.486050 0.439153 0.376184
O O2 0.614361 0.701566 0.489893
O O3 0.413047 0.870323 0.437231
O O4 0.784667 0.863475 0.812148
O O5 0.867619 0.948811 0.735411
O O6 0.127690 0.700786 0.892344
O O7 0.179956 0.147326 0.039966
O O8 0.143552 0.225257 0.915130
O O9 0.371533 0.945645 0.075618
O O10 0.777421 0.528251 0.269736
O O11 0.526102 0.770068 0.069524
O O12 0.746937 0.634935 0.159997
O O13 0.888858 0.009059 0.504896
O O14 0.200377 0.867332 0.774251
O O15 0.503658 0.712886 0.271389
O O16 0.230632 0.342633 0.927554
#
# Coordination Sequence:
#
# PCOD8014852 Si02
#       8
#     2   2   2   2   2   2   2   2
#     4  10  21  42  62  88 126 152 199 250 301 353
#     4  11  23  39  66  92 115 163 203 238 305 362
#     4  10  21  43  59  90 127 155 196 255 293 353
#     4  11  21  39  62  88 117 162 204 240 300 356
#     4   9  22  39  59  85 121 161 194 251 300 345
#     4  10  22  40  63  91 122 158 194 252 302 352
#     4  11  22  39  61  89 125 155 202 252 288 357
#     4  10  22  38  58  86 123 159 197 249 295 349
#
# _framework density 19.769615999999999
#
# number of rings (size 3 to 8) (size 9 to 14) (size 15 to 20)
#    0.750    1.000    2.500    1.500    0.000    6.000 
#    2.250    0.000    0.000    0.000    0.000    0.000 
#    0.000    0.000    0.000    0.000    0.000    0.000 
#
# Total GULP energy -198374.587820 kJ/mol
# GULP energy per Si atom -12398.411739 kJ/mol
# Density = 1.972462 g / cm^3
# Si number density = 19.769616 Si / 1000 Ang^3
#
#
#
# Elastic Constant Matrix: (Units=GPa)
#
#
# Indices 1 2 3 4 5 6 
#
# 1 55.9333 7.4062 9.0903 1.5476 0.6673 9.9414
# 2 7.4062 41.6320 15.2302 1.4684 16.4724 8.5828
# 3 9.0903 15.2302 76.1380 8.4531 3.3886 1.8931
# 4 1.5476 1.4684 8.4531 21.7427 4.4847 -3.3604
# 5 0.6673 16.4724 3.3886 4.4847 33.1626 3.2253
# 6 9.9414 8.5828 1.8931 -3.3604 3.2253 23.3391
#
#
#
# Elastic Compliance Matrix: (Units=1/GPa)
#
#
# Indices 1 2 3 4 5 6 
#
# 1 0.019897 -0.001887 -0.001618 -0.002307 0.001815 -0.008233
# 2 -0.001887 0.034637 -0.005996 0.002035 -0.015959 -0.008949
# 3 -0.001618 -0.005996 0.015048 -0.005697 0.002190 0.000551
# 4 -0.002307 0.002035 -0.005697 0.051357 -0.008225 0.009227
# 5 0.001815 -0.015959 0.002190 -0.008225 0.039096 -0.001669
# 6 -0.008233 -0.008949 0.000551 0.009227 -0.001669 0.051159
#
#
# Mechanical properties :
#
#
# Convention : Reuss Voigt Hill
#
# Bulk Modulus (GPa) = 19.77130 26.35074 23.06102
# Shear Modulus (GPa) = 20.23837 25.11399 22.67618
#
# Velocity S-wave (km/s) = 3.20302 3.56804 3.39045
# Velocity P-wave (km/s) = 4.86844 5.50748 5.19779
#
# Compressibility (1/GPa) = 0.05057837
#
# Stress axis : x y z
#
# Youngs Moduli (GPa) = 50.25958 28.87092 66.45391
#
# Poissons Ratio (x) = 0.05449 0.10752
# Poissons Ratio (y) = 0.09485 0.39849
# Poissons Ratio (z) = 0.08132 0.17312
#
# Static dielectric constant tensor:
#      x y z
#    x 3.497400 0.064670 -0.088280 
#    y 0.064670 3.576330 0.102210 
#    z -0.088280 0.102210 3.488140 
# 
# 
# High freq. dielectric constant tensor:
#      x y z
#    x 1.768670 0.010200 -0.002170 
#    y 0.010200 1.764520 0.010240 
#    z -0.002170 0.010240 1.772790 
# 
# From -- ./inp_files/601245.got.cif
#   From: 2010.06.25/outbox.cif.g09.slc.cpg/sg2_301_cif.got.tgz:601245.got - 2010.06.27 13:26:56.
