data_PCOD8014304
_publ_section_title
;
Structure prediction by ZEFSAII (Michael W. Deem and Ramdas Pophale) SiO2 
 PCOD8014304
Probable space group: P -1
;
_chemical_formula_sum "Si O2"
_cell_formula_units_Z 12
_cell_length_a 8.527533
_cell_length_b 14.879893
_cell_length_c 11.268378
_cell_angle_alpha 50.883520
_cell_angle_beta 37.709241
_cell_angle_gamma 78.266212
_cell_volume 530.652947
_symmetry_space_group_name_H-M "P -1"
_symmetry_group_IT_number 2
_symmetry_cell_setting 'triclinic'
loop_
_space_group_symop_operation_xyz
x,y,z
-x,-y,-z
loop_
_atom_site_type_symbol
_atom_site_label
_atom_site_fract_x
_atom_site_fract_y
_atom_site_fract_z
Si Si1 0.274582 0.036581 0.715766
Si Si2 0.785081 0.769477 0.838623
Si Si3 0.359950 0.662148 0.660661
Si Si4 0.722948 0.520574 0.953551
Si Si5 0.399565 0.601551 0.443484
Si Si6 0.670052 0.937414 0.603847
O O1 0.610714 0.201754 0.412195
O O2 0.166091 0.035069 0.646875
O O3 0.337847 0.917197 0.794526
O O4 0.000000 0.000000 0.000000
O O5 0.884203 0.674722 0.799499
O O6 0.597007 0.794267 0.830641
O O7 0.552868 0.687907 0.158310
O O8 0.111310 0.926165 0.551330
O O9 0.533611 0.711634 0.386308
O O10 0.522201 0.619520 0.694851
O O11 0.000000 0.500000 0.000000
O O12 0.008910 0.515283 0.738742
O O13 0.500000 0.500000 0.000000
O O14 0.500000 0.500000 0.500000
#
# Coordination Sequence:
#
# PCOD8014304 Si02
#       6
#     2   2   2   2   2   2
#     4  11  23  43  66  98 132 171 227 269 330 398
#     4  11  23  44  64  94 134 170 226 267 335 396
#     4  10  21  41  66  94 132 175 218 274 335 394
#     4  11  24  41  64  98 135 168 216 291 337 382
#     4  11  23  41  67  96 125 181 223 267 333 408
#     4  10  24  41  67  93 130 181 210 273 329 401
#
# _framework density 22.613648999999999
#
# number of rings (size 3 to 8) (size 9 to 14) (size 15 to 20)
#    0.000    1.333    1.667    4.000    2.333    3.333 
#    3.000    4.167    0.000    0.000    0.000    0.000 
#    0.000    0.000    0.000    0.000    0.000    0.000 
#
# Total GULP energy -148657.389885 kJ/mol
# GULP energy per Si atom -12388.115824 kJ/mol
# Density = 2.256218 g / cm^3
# Si number density = 22.613649 Si / 1000 Ang^3
#
#
#
# Elastic Constant Matrix: (Units=GPa)
#
#
# Indices 1 2 3 4 5 6 
#
# 1 146.7870 30.5011 38.8769 22.6729 34.2265 -21.4901
# 2 30.5011 113.2405 24.3522 14.4521 9.1728 -12.8986
# 3 38.8769 24.3522 76.1811 21.3607 24.5882 -14.1523
# 4 22.6729 14.4521 21.3607 34.4818 5.4053 0.6468
# 5 34.2265 9.1728 24.5882 5.4053 43.4186 -7.2908
# 6 -21.4901 -12.8986 -14.1523 0.6468 -7.2908 45.9626
#
#
#
# Elastic Compliance Matrix: (Units=1/GPa)
#
#
# Indices 1 2 3 4 5 6 
#
# 1 0.009813 -0.001025 -0.000898 -0.004599 -0.005909 0.003151
# 2 -0.001025 0.009988 -0.001703 -0.002538 0.000295 0.001881
# 3 -0.000898 -0.001703 0.020526 -0.010144 -0.008588 0.004203
# 4 -0.004599 -0.002538 -0.010144 0.038843 0.004082 -0.005885
# 5 -0.005909 0.000295 -0.008588 0.004082 0.031929 -0.000317
# 6 0.003151 0.001881 0.004203 -0.005885 -0.000317 0.025085
#
#
# Mechanical properties :
#
#
# Convention : Reuss Voigt Hill
#
# Bulk Modulus (GPa) = 30.23584 58.18545 44.21065
# Shear Modulus (GPa) = 32.37052 40.93782 36.65417
#
# Velocity S-wave (km/s) = 3.78757 4.25939 4.03039
# Velocity P-wave (km/s) = 5.70326 7.06937 6.42274
#
# Compressibility (1/GPa) = 0.03307333
#
# Stress axis : x y z
#
# Youngs Moduli (GPa) = 101.90590 100.12410 48.71827
#
# Poissons Ratio (x) = 0.10268 0.04374
# Poissons Ratio (y) = 0.10450 0.08298
# Poissons Ratio (z) = 0.09150 0.17055
#
# Static dielectric constant tensor:
#      x y z
#    x 4.874290 0.004480 0.482920 
#    y 0.004480 4.515790 -0.182580 
#    z 0.482920 -0.182580 3.883510 
# 
# 
# High freq. dielectric constant tensor:
#      x y z
#    x 1.921100 0.002490 0.020880 
#    y 0.002490 1.906590 -0.001980 
#    z 0.020880 -0.001980 1.854370 
# 
# From -- ./inp_files/68022.got.cif
#   From: 2010.06.25/outbox.cif.g09.slc.cpg/sg2_35_cif.got.tgz:68022.got - 2010.06.27 13:26:56.
