data_PCOD8014861
_publ_section_title
;
Structure prediction by ZEFSAII (Michael W. Deem and Ramdas Pophale) SiO2 
 PCOD8014861
Probable space group: P -1
;
_chemical_formula_sum "Si O2"
_cell_formula_units_Z 14
_cell_length_a 8.059592
_cell_length_b 12.707705
_cell_length_c 9.576470
_cell_angle_alpha 64.629392
_cell_angle_beta 131.578012
_cell_angle_gamma 100.197662
_cell_volume 654.529771
_symmetry_space_group_name_H-M "P -1"
_symmetry_group_IT_number 2
_symmetry_cell_setting 'triclinic'
loop_
_space_group_symop_operation_xyz
x,y,z
-x,-y,-z
loop_
_atom_site_type_symbol
_atom_site_label
_atom_site_fract_x
_atom_site_fract_y
_atom_site_fract_z
Si Si1 0.760438 0.552724 0.270226
Si Si2 0.954730 0.176522 0.906210
Si Si3 0.797874 0.801770 0.230077
Si Si4 0.642187 0.994762 0.839199
Si Si5 0.690615 0.527509 0.923971
Si Si6 0.150677 0.098484 0.501480
Si Si7 0.006372 0.314301 0.109512
O O1 0.686787 0.683810 0.217227
O O2 0.574993 0.469541 0.251159
O O3 0.000000 0.500000 0.500000
O O4 0.760336 0.562686 0.097328
O O5 0.975403 0.211713 0.733442
O O6 0.739831 0.115131 0.853138
O O7 0.187579 0.086045 0.126699
O O8 0.930493 0.293399 0.920314
O O9 0.848324 0.819212 0.409320
O O10 0.629256 0.918144 0.017775
O O11 0.391851 0.031656 0.622258
O O12 0.774697 0.619624 0.810606
O O13 0.809866 0.394486 0.037261
O O14 0.052634 0.185607 0.275390
O O15 0.000000 0.000000 0.500000
#
# Coordination Sequence:
#
# PCOD8014861 Si02
#       7
#     2   2   2   2   2   2   2
#     4  11  23  43  70  99 125 174 226 270 326 396
#     4   9  20  41  65  85 123 172 208 251 331 386
#     4  10  21  42  62  91 125 172 209 266 326 384
#     4   9  21  40  64  89 124 170 212 259 325 386
#     4  10  24  45  67  95 139 170 216 278 332 376
#     4  12  26  38  64 100 130 163 224 266 322 395
#     4  11  23  44  63  96 132 171 209 274 331 382
#
# _framework density 21.389399999999998
#
# number of rings (size 3 to 8) (size 9 to 14) (size 15 to 20)
#    0.857    0.857    1.429    2.143    4.000    1.714 
#    2.571    2.143    0.000    0.000    0.000    0.000 
#    0.000    0.000    0.000    0.000    0.000    0.000 
#
# Total GULP energy -173499.374702 kJ/mol
# GULP energy per Si atom -12392.812479 kJ/mol
# Density = 2.134072 g / cm^3
# Si number density = 21.389400 Si / 1000 Ang^3
#
#
#
# Elastic Constant Matrix: (Units=GPa)
#
#
# Indices 1 2 3 4 5 6 
#
# 1 83.1839 31.1567 28.1641 3.5912 15.8574 15.2147
# 2 31.1567 104.5658 8.3507 9.2812 2.8605 8.4504
# 3 28.1641 8.3507 56.4319 1.2204 9.5696 17.4409
# 4 3.5912 9.2812 1.2204 30.0842 4.7557 -12.7412
# 5 15.8574 2.8605 9.5696 4.7557 30.0699 7.0412
# 6 15.2147 8.4504 17.4409 -12.7412 7.0412 44.1650
#
#
#
# Elastic Compliance Matrix: (Units=1/GPa)
#
#
# Indices 1 2 3 4 5 6 
#
# 1 0.017323 -0.004327 -0.006428 -0.000184 -0.006261 -0.001656
# 2 -0.004327 0.011334 0.001056 -0.004546 0.002233 -0.002762
# 3 -0.006428 0.001056 0.023656 -0.003674 -0.001759 -0.008109
# 4 -0.000184 -0.004546 -0.003674 0.043102 -0.008921 0.016241
# 5 -0.006261 0.002233 -0.001759 -0.008921 0.039838 -0.006501
# 6 -0.001656 -0.002762 -0.008109 0.016241 -0.006501 0.032666
#
#
# Mechanical properties :
#
#
# Convention : Reuss Voigt Hill
#
# Bulk Modulus (GPa) = 30.38096 42.16941 36.27518
# Shear Modulus (GPa) = 25.21580 32.63115 28.92348
#
# Velocity S-wave (km/s) = 3.43723 3.91010 3.68126
# Velocity P-wave (km/s) = 5.47606 6.33586 5.92158
#
# Compressibility (1/GPa) = 0.03291535
#
# Stress axis : x y z
#
# Youngs Moduli (GPa) = 57.72719 88.23073 42.27223
#
# Poissons Ratio (x) = 0.38175 0.27171
# Poissons Ratio (y) = 0.24977 -0.04462
# Poissons Ratio (z) = 0.37105 -0.09313
#
# Static dielectric constant tensor:
#      x y z
#    x 3.817460 0.056670 -0.086900 
#    y 0.056670 3.941820 -0.065420 
#    z -0.086900 -0.065420 3.443280 
# 
# 
# High freq. dielectric constant tensor:
#      x y z
#    x 1.842940 0.003960 -0.010630 
#    y 0.003960 1.855930 -0.005980 
#    z -0.010630 -0.005980 1.801420 
# 
# From -- ./inp_files/185458.got.cif
#   From: 2010.06.25/outbox.cif.g09.slc.cpg/sg2_93_cif.got.tgz:185458.got - 2010.06.27 13:26:56.
