data_PCOD8014422
_publ_section_title
;
Structure prediction by ZEFSAII (Michael W. Deem and Ramdas Pophale) SiO2 
 PCOD8014422
Probable space group: P -1
;
_chemical_formula_sum "Si O2"
_cell_formula_units_Z 16
_cell_length_a 9.584973
_cell_length_b 9.676357
_cell_length_c 14.239566
_cell_angle_alpha 93.218741
_cell_angle_beta 52.192048
_cell_angle_gamma 57.188203
_cell_volume 711.357988
_symmetry_space_group_name_H-M "P -1"
_symmetry_group_IT_number 2
_symmetry_cell_setting 'triclinic'
loop_
_space_group_symop_operation_xyz
x,y,z
-x,-y,-z
loop_
_atom_site_type_symbol
_atom_site_label
_atom_site_fract_x
_atom_site_fract_y
_atom_site_fract_z
Si Si1 0.553899 0.951893 0.748228
Si Si2 0.852998 0.081283 0.788568
Si Si3 0.205324 0.328923 0.666410
Si Si4 0.975827 0.161842 0.465858
Si Si5 0.272235 0.381062 0.846661
Si Si6 0.415544 0.557515 0.222654
Si Si7 0.394641 0.287700 0.122268
Si Si8 0.674855 0.041762 0.334670
O O1 0.564095 0.874748 0.841947
O O2 0.377805 0.961333 0.752624
O O3 0.832206 0.823078 0.580635
O O4 0.462388 0.162805 0.809114
O O5 0.776715 0.258825 0.765036
O O6 0.595468 0.170254 0.948659
O O7 0.981791 0.886044 0.664503
O O8 0.082709 0.991843 0.762107
O O9 0.291484 0.362031 0.725502
O O10 0.412874 0.255304 0.497975
O O11 0.906609 0.534460 0.775325
O O12 0.233667 0.148869 0.658074
O O13 0.703167 0.379613 0.620372
O O14 0.000000 0.000000 0.500000
O O15 0.325057 0.502280 0.872374
O O16 0.000000 0.500000 0.000000
O O17 0.479188 0.369250 0.153947
#
# Coordination Sequence:
#
# PCOD8014422 Si02
#       8
#     2   2   2   2   2   2   2   2
#     4  11  25  43  67  97 136 174 212 277 347 386
#     4  11  22  40  67  98 132 179 227 266 329 401
#     4  10  22  39  65  98 128 176 222 277 320 395
#     4  10  21  41  67  94 127 176 222 263 324 404
#     4  11  23  42  67  96 131 176 228 263 327 405
#     4  11  22  41  70  99 128 177 227 271 324 404
#     4  12  26  42  68 102 139 169 220 285 337 390
#     4  10  22  39  66  96 132 172 226 267 328 396
#
# _framework density 22.492190000000001
#
# number of rings (size 3 to 8) (size 9 to 14) (size 15 to 20)
#    0.000    1.250    3.750    2.625   10.500    3.000 
#    0.000    0.000    0.000    3.000    0.000    0.000 
#    0.000    0.000    0.000    0.000    0.000    0.000 
#
# Total GULP energy -198284.147783 kJ/mol
# GULP energy per Si atom -12392.759236 kJ/mol
# Density = 2.244100 g / cm^3
# Si number density = 22.492190 Si / 1000 Ang^3
#
#
#
# Elastic Constant Matrix: (Units=GPa)
#
#
# Indices 1 2 3 4 5 6 
#
# 1 118.2927 26.6859 21.4047 -1.4329 -16.1004 7.8684
# 2 26.6859 58.9230 20.1279 -14.8308 2.2069 -2.7274
# 3 21.4047 20.1279 119.5896 -7.2744 -9.0249 -6.0810
# 4 -1.4329 -14.8308 -7.2744 17.8986 3.1178 0.2905
# 5 -16.1004 2.2069 -9.0249 3.1178 43.5704 4.1800
# 6 7.8684 -2.7274 -6.0810 0.2905 4.1800 24.7741
#
#
#
# Elastic Compliance Matrix: (Units=1/GPa)
#
#
# Indices 1 2 3 4 5 6 
#
# 1 0.011117 -0.006550 -0.001124 -0.005802 0.005133 -0.005326
# 2 -0.006550 0.026615 -0.002196 0.021645 -0.006279 0.005277
# 3 -0.001124 -0.002196 0.009235 0.001584 0.001290 0.002146
# 4 -0.005802 0.021645 0.001584 0.075435 -0.008810 0.005217
# 5 0.005133 -0.006279 0.001290 -0.008810 0.026678 -0.006403
# 6 -0.005326 0.005277 0.002146 0.005217 -0.006403 0.044183
#
#
# Mechanical properties :
#
#
# Convention : Reuss Voigt Hill
#
# Bulk Modulus (GPa) = 36.72674 48.13801 42.43237
# Shear Modulus (GPa) = 22.51441 32.48774 27.50108
#
# Velocity S-wave (km/s) = 3.16727 3.80465 3.50050
# Velocity P-wave (km/s) = 5.45340 6.38350 5.93669
#
# Compressibility (1/GPa) = 0.02722812
#
# Stress axis : x y z
#
# Youngs Moduli (GPa) = 89.95018 37.57229 108.27789
#
# Poissons Ratio (x) = 0.24611 0.12167
# Poissons Ratio (y) = 0.58919 0.23779
# Poissons Ratio (z) = 0.10108 0.08251
#
# Static dielectric constant tensor:
#      x y z
#    x 4.303750 0.310730 0.395010 
#    y 0.310730 3.774480 0.322240 
#    z 0.395010 0.322240 4.709220 
# 
# 
# High freq. dielectric constant tensor:
#      x y z
#    x 1.901540 0.013330 -0.005090 
#    y 0.013330 1.838960 0.001850 
#    z -0.005090 0.001850 1.899750 
# 
# From -- ./inp_files/353446.got.cif
#   From: 2010.06.25/outbox.cif.g09.slc.cpg/sg2_177_cif.got.tgz:353446.got - 2010.06.27 13:26:56.
