data_PCOD8014880
_publ_section_title
;
Structure prediction by ZEFSAII (Michael W. Deem and Ramdas Pophale) SiO2 
 PCOD8014880
Probable space group: P -1
;
_chemical_formula_sum "Si O2"
_cell_formula_units_Z 12
_cell_length_a 7.129258
_cell_length_b 18.921636
_cell_length_c 9.840004
_cell_angle_alpha 33.969473
_cell_angle_beta 52.923743
_cell_angle_gamma 48.615381
_cell_volume 551.735237
_symmetry_space_group_name_H-M "P -1"
_symmetry_group_IT_number 2
_symmetry_cell_setting 'triclinic'
loop_
_space_group_symop_operation_xyz
x,y,z
-x,-y,-z
loop_
_atom_site_type_symbol
_atom_site_label
_atom_site_fract_x
_atom_site_fract_y
_atom_site_fract_z
Si Si1 0.200212 0.526406 0.193484
Si Si2 0.737996 0.457412 0.560123
Si Si3 0.401828 0.732472 0.680102
Si Si4 0.221150 0.822278 0.063922
Si Si5 0.593293 0.845142 0.668517
Si Si6 0.094070 0.873128 0.344579
O O1 0.346362 0.503349 0.310687
O O2 0.343411 0.397472 0.243194
O O3 0.913377 0.539189 0.310249
O O4 0.188670 0.670114 0.908981
O O5 0.500000 0.500000 0.500000
O O6 0.887043 0.294708 0.741983
O O7 0.448411 0.824204 0.631742
O O8 0.310129 0.828199 0.436120
O O9 0.235119 0.828707 0.210321
O O10 0.504084 0.777000 0.945421
O O11 0.038516 0.963918 0.854413
O O12 0.892504 0.798505 0.580466
O O13 0.500000 0.000000 0.500000
#
# Coordination Sequence:
#
# PCOD8014880 Si02
#       6
#     2   2   2   2   2   2
#     4  10  24  39  63  96 128 164 217 261 309 397
#     4  11  22  41  63  92 127 172 210 263 321 375
#     4  11  22  43  64  95 131 166 212 265 324 379
#     4  10  21  42  62  94 129 161 224 261 306 397
#     4  10  22  41  63  94 130 164 216 264 311 387
#     4  10  23  41  66  92 128 173 206 268 329 367
#
# _framework density 21.749565
#
# number of rings (size 3 to 8) (size 9 to 14) (size 15 to 20)
#    0.000    1.667    1.667    2.000    2.333    2.667 
#    0.000   17.500    0.000    0.000    0.000    0.000 
#    0.000    0.000    0.000    0.000    0.000    0.000 
#
# Total GULP energy -148744.400830 kJ/mol
# GULP energy per Si atom -12395.366736 kJ/mol
# Density = 2.170006 g / cm^3
# Si number density = 21.749565 Si / 1000 Ang^3
#
#
#
# Elastic Constant Matrix: (Units=GPa)
#
#
# Indices 1 2 3 4 5 6 
#
# 1 109.5761 45.4695 46.8814 5.8646 12.8412 19.3254
# 2 45.4695 87.1729 39.4902 7.5086 1.3308 33.0895
# 3 46.8814 39.4902 96.6296 10.8350 4.5018 11.0380
# 4 5.8646 7.5086 10.8350 43.5863 6.8225 -3.4409
# 5 12.8412 1.3308 4.5018 6.8225 21.8107 -2.5882
# 6 19.3254 33.0895 11.0380 -3.4409 -2.5882 29.9813
#
#
#
# Elastic Compliance Matrix: (Units=1/GPa)
#
#
# Indices 1 2 3 4 5 6 
#
# 1 0.014262 -0.003826 -0.004640 0.000830 -0.007922 -0.003851
# 2 -0.003826 0.025388 -0.005277 -0.004503 0.000342 -0.024098
# 3 -0.004640 -0.005277 0.014550 -0.001988 0.001067 0.003322
# 4 0.000830 -0.004503 -0.001988 0.025787 -0.006977 0.007524
# 5 -0.007922 0.000342 0.001067 -0.006977 0.053421 0.008148
# 6 -0.003851 -0.024098 0.003322 0.007524 0.008148 0.062776
#
#
# Mechanical properties :
#
#
# Convention : Reuss Voigt Hill
#
# Bulk Modulus (GPa) = 37.43431 61.89563 49.66497
# Shear Modulus (GPa) = 21.49834 29.84482 25.67158
#
# Velocity S-wave (km/s) = 3.14737 3.70834 3.43931
# Velocity P-wave (km/s) = 5.51877 6.84513 6.21742
#
# Compressibility (1/GPa) = 0.02671346
#
# Stress axis : x y z
#
# Youngs Moduli (GPa) = 70.11643 39.38933 68.72648
#
# Poissons Ratio (x) = 0.15070 0.31889
# Poissons Ratio (y) = 0.26826 0.36270
# Poissons Ratio (z) = 0.32533 0.20788
#
# Static dielectric constant tensor:
#      x y z
#    x 3.637410 0.184800 -0.358420 
#    y 0.184800 4.077920 0.260090 
#    z -0.358420 0.260090 4.660800 
# 
# 
# High freq. dielectric constant tensor:
#      x y z
#    x 1.830830 0.019510 -0.010190 
#    y 0.019510 1.859740 0.010110 
#    z -0.010190 0.010110 1.872470 
# 
# From -- ./inp_files/18881.got.cif
#   From: 2010.06.25/outbox.cif.g09.slc.cpg/sg2_10_cif.got.tgz:18881.got - 2010.06.27 13:26:56.
