data_PCOD8014197
_publ_section_title
;
Structure prediction by ZEFSAII (Michael W. Deem and Ramdas Pophale) SiO2 
 PCOD8014197
Probable space group: P -1
;
_chemical_formula_sum "Si O2"
_cell_formula_units_Z 14
_cell_length_a 6.969647
_cell_length_b 5.337849
_cell_length_c 20.623381
_cell_angle_alpha 109.552915
_cell_angle_beta 113.033418
_cell_angle_gamma 109.911085
_cell_volume 558.422271
_symmetry_space_group_name_H-M "P -1"
_symmetry_group_IT_number 2
_symmetry_cell_setting 'triclinic'
loop_
_space_group_symop_operation_xyz
x,y,z
-x,-y,-z
loop_
_atom_site_type_symbol
_atom_site_label
_atom_site_fract_x
_atom_site_fract_y
_atom_site_fract_z
Si Si1 0.284852 0.205650 0.073386
Si Si2 0.429752 0.719975 0.232888
Si Si3 0.409552 0.326884 0.368805
Si Si4 0.968195 0.580137 0.750243
Si Si5 0.459284 0.125882 0.878956
Si Si6 0.709668 0.940186 0.537880
Si Si7 0.765299 0.572301 0.329440
O O1 0.319903 0.356700 0.162493
O O2 0.429120 0.498518 0.065748
O O3 0.393863 0.982433 0.066132
O O4 0.000000 0.000000 0.000000
O O5 0.203003 0.692926 0.242697
O O6 0.511184 0.944028 0.200084
O O7 0.657347 0.790942 0.316595
O O8 0.208760 0.396057 0.322191
O O9 0.633718 0.616299 0.464771
O O10 0.271067 0.048284 0.379032
O O11 0.557191 0.279337 0.324330
O O12 0.164304 0.521826 0.736246
O O13 0.164156 0.921465 0.839683
O O14 0.500000 0.000000 0.500000
O O15 0.984951 0.217611 0.576172
#
# Coordination Sequence:
#
# PCOD8014197 Si02
#       7
#     2   2   2   2   2   2   2
#     4  10  21  43  67  94 134 171 208 263 323 381
#     4   9  23  39  64  94 126 166 210 268 316 381
#     4  10  24  39  60  88 121 160 212 262 317 375
#     4  11  20  42  63  95 122 165 218 260 320 385
#     4  10  21  41  65  95 129 170 210 265 319 379
#     4  11  22  41  58  87 121 163 208 263 315 381
#     4  11  21  41  62  88 123 164 209 263 320 374
#
# _framework density 25.070633000000001
#
# number of rings (size 3 to 8) (size 9 to 14) (size 15 to 20)
#    0.857    0.857    2.857    1.714    0.000    1.714 
#    7.714    1.429    0.000    0.000    0.000    0.000 
#    0.000    0.000    0.000    0.000    0.000    0.000 
#
# Total GULP energy -173457.827216 kJ/mol
# GULP energy per Si atom -12389.844801 kJ/mol
# Density = 2.501357 g / cm^3
# Si number density = 25.070633 Si / 1000 Ang^3
#
#
#
# Elastic Constant Matrix: (Units=GPa)
#
#
# Indices 1 2 3 4 5 6 
#
# 1 114.1745 43.0262 8.4642 -4.3209 28.9487 20.3619
# 2 43.0262 99.8606 8.4162 -16.4879 31.1363 18.3311
# 3 8.4642 8.4162 76.3876 0.4359 43.0549 8.6149
# 4 -4.3209 -16.4879 0.4359 33.6732 1.3794 12.1536
# 5 28.9487 31.1363 43.0549 1.3794 38.9174 9.8372
# 6 20.3619 18.3311 8.6149 12.1536 9.8372 37.5349
#
#
#
# Elastic Compliance Matrix: (Units=1/GPa)
#
#
# Indices 1 2 3 4 5 6 
#
# 1 0.015987 0.005366 0.017556 0.009267 -0.033525 -0.009537
# 2 0.005366 0.031295 0.032274 0.024406 -0.061184 -0.017470
# 3 0.017556 0.032274 0.077835 0.029609 -0.120705 -0.021103
# 4 0.009267 0.024406 0.029609 0.054481 -0.054241 -0.027167
# 5 -0.033525 -0.061184 -0.120705 -0.054241 0.226453 0.033985
# 6 -0.009537 -0.017470 -0.021103 -0.027167 0.033985 0.045080
#
#
# Mechanical properties :
#
#
# Convention : Reuss Voigt Hill
#
# Bulk Modulus (GPa) = 4.24614 45.58177 24.91395
# Shear Modulus (GPa) = 11.92629 37.39285 24.65957
#
# Velocity S-wave (km/s) = 2.18344 3.86618 3.13965
# Velocity P-wave (km/s) = 2.83794 6.17662 4.80648
#
# Compressibility (1/GPa) = 0.23550821
#
# Stress axis : x y z
#
# Youngs Moduli (GPa) = 62.55277 31.95360 12.84776
#
# Poissons Ratio (x) = -0.17147 -0.22555
# Poissons Ratio (y) = -0.33567 -0.41465
# Poissons Ratio (z) = -1.09817 -1.03126
#
# Static dielectric constant tensor:
#      x y z
#    x 4.337460 0.289460 0.008060 
#    y 0.289460 4.599100 0.304540 
#    z 0.008060 0.304540 4.609230 
# 
# 
# High freq. dielectric constant tensor:
#      x y z
#    x 1.989740 0.014170 0.012860 
#    y 0.014170 1.995900 0.019100 
#    z 0.012860 0.019100 2.002200 
# 
# From -- ./inp_files/11692.got.cif
#   From: 2010.06.25/outbox.cif.g09.slc.cpg/sg2_6_cif.got.tgz:11692.got - 2010.06.27 13:26:56.
