data_PCOD8014726
_publ_section_title
;
Structure prediction by ZEFSAII (Michael W. Deem and Ramdas Pophale) SiO2 
 PCOD8014726
Probable space group: P -1
;
_chemical_formula_sum "Si O2"
_cell_formula_units_Z 16
_cell_length_a 14.226434
_cell_length_b 15.458119
_cell_length_c 5.045055
_cell_angle_alpha 99.783951
_cell_angle_beta 91.728906
_cell_angle_gamma 145.031539
_cell_volume 597.762831
_symmetry_space_group_name_H-M "P -1"
_symmetry_group_IT_number 2
_symmetry_cell_setting 'triclinic'
loop_
_space_group_symop_operation_xyz
x,y,z
-x,-y,-z
loop_
_atom_site_type_symbol
_atom_site_label
_atom_site_fract_x
_atom_site_fract_y
_atom_site_fract_z
Si Si1 0.786074 0.919979 0.366820
Si Si2 0.240354 0.750404 0.213173
Si Si3 0.701216 0.461362 0.415003
Si Si4 0.397536 0.978234 0.765195
Si Si5 0.433702 0.375029 0.127364
Si Si6 0.591906 0.898306 0.688147
Si Si7 0.891576 0.857789 0.718238
Si Si8 0.882596 0.542840 0.965786
O O1 0.729620 0.936099 0.613133
O O2 0.834081 0.862196 0.451407
O O3 0.631517 0.770717 0.075755
O O4 0.961524 0.098690 0.340602
O O5 0.402528 0.900323 0.096572
O O6 0.205652 0.620924 0.144608
O O7 0.268131 0.802300 0.551859
O O8 0.087395 0.689087 0.046565
O O9 0.590357 0.464695 0.376284
O O10 0.583273 0.283557 0.333848
O O11 0.818990 0.558058 0.737043
O O12 0.831891 0.552327 0.233000
O O13 0.446517 0.066317 0.538006
O O14 0.326983 0.991573 0.984582
O O15 0.284542 0.309951 0.243459
O O16 0.500000 0.500000 0.000000
O O17 0.000000 0.000000 0.000000
#
# Coordination Sequence:
#
# PCOD8014726 Si02
#       8
#     2   2   2   2   2   2   2   2
#     4  10  21  41  71 101 142 195 251 306 374 466
#     4  10  24  46  71 112 147 198 244 313 374 444
#     4  12  23  44  70 109 142 198 253 297 373 461
#     4  11  25  41  73 109 147 186 256 307 372 434
#     4  11  24  43  74 109 148 197 251 320 377 450
#     4  12  22  42  71 106 143 197 246 312 365 442
#     4   9  20  39  67 104 135 183 250 302 378 447
#     4  11  25  44  74 101 154 200 243 297 380 457
#
# _framework density 26.766469000000001
#
# number of rings (size 3 to 8) (size 9 to 14) (size 15 to 20)
#    0.000    1.250    3.750    1.500    1.750    7.500 
#    0.000    3.750    0.000    0.000    0.000    0.000 
#    0.000    0.125    0.000    0.000    0.000    0.000 
#
# Total GULP energy -198258.897850 kJ/mol
# GULP energy per Si atom -12391.181116 kJ/mol
# Density = 2.670555 g / cm^3
# Si number density = 26.766469 Si / 1000 Ang^3
#
#
#
# Elastic Constant Matrix: (Units=GPa)
#
#
# Indices 1 2 3 4 5 6 
#
# 1 91.0401 62.4205 42.8436 5.2379 -1.3085 28.4616
# 2 62.4205 125.4056 37.9329 -14.9560 -5.4709 39.7465
# 3 42.8436 37.9329 127.6413 -10.4785 -8.2446 26.4893
# 4 5.2379 -14.9560 -10.4785 37.1235 7.6416 -2.4678
# 5 -1.3085 -5.4709 -8.2446 7.6416 60.3618 -5.5215
# 6 28.4616 39.7465 26.4893 -2.4678 -5.5215 46.4466
#
#
#
# Elastic Compliance Matrix: (Units=1/GPa)
#
#
# Indices 1 2 3 4 5 6 
#
# 1 0.020466 -0.008913 -0.004272 -0.007833 -0.000223 -0.002920
# 2 -0.008913 0.015575 0.000563 0.007240 -0.000339 -0.007843
# 3 -0.004272 0.000563 0.010116 0.003335 0.000608 -0.003384
# 4 -0.007833 0.007240 0.003335 0.032458 -0.003348 -0.001971
# 5 -0.000223 -0.000339 0.000608 -0.003348 0.017216 0.001948
# 6 -0.002920 -0.007843 -0.003384 -0.001971 0.001948 0.032088
#
#
# Mechanical properties :
#
#
# Convention : Reuss Voigt Hill
#
# Bulk Modulus (GPa) = 47.81647 70.05346 58.93497
# Shear Modulus (GPa) = 31.22366 42.17903 36.70134
#
# Velocity S-wave (km/s) = 3.41914 3.97396 3.70695
# Velocity P-wave (km/s) = 5.78710 6.87644 6.35515
#
# Compressibility (1/GPa) = 0.02091330
#
# Stress axis : x y z
#
# Youngs Moduli (GPa) = 48.86116 64.20695 98.84910
#
# Poissons Ratio (x) = 0.57228 0.42230
# Poissons Ratio (y) = 0.43550 -0.05568
# Poissons Ratio (z) = 0.20874 -0.03617
#
# Static dielectric constant tensor:
#      x y z
#    x 5.531170 0.495540 1.016140 
#    y 0.495540 5.340710 0.041910 
#    z 1.016140 0.041910 6.574600 
# 
# 
# High freq. dielectric constant tensor:
#      x y z
#    x 2.074760 0.015990 0.009480 
#    y 0.015990 2.077780 -0.012110 
#    z 0.009480 -0.012110 2.095110 
# 
# From -- ./inp_files/99828.got.cif
#   From: 2010.06.25/outbox.cif.g09.slc.cpg/sg2_50_cif.got.tgz:99828.got - 2010.06.27 13:26:56.
