data_PCOD8014387
_publ_section_title
;
Structure prediction by ZEFSAII (Michael W. Deem and Ramdas Pophale) SiO2 
 PCOD8014387
Probable space group: P -1
;
_chemical_formula_sum "Si O2"
_cell_formula_units_Z 16
_cell_length_a 15.877157
_cell_length_b 9.516940
_cell_length_c 9.357588
_cell_angle_alpha 76.838906
_cell_angle_beta 142.199661
_cell_angle_gamma 111.449394
_cell_volume 801.941516
_symmetry_space_group_name_H-M "P -1"
_symmetry_group_IT_number 2
_symmetry_cell_setting 'triclinic'
loop_
_space_group_symop_operation_xyz
x,y,z
-x,-y,-z
loop_
_atom_site_type_symbol
_atom_site_label
_atom_site_fract_x
_atom_site_fract_y
_atom_site_fract_z
Si Si1 0.420406 0.538308 0.096567
Si Si2 0.856400 0.540171 0.807345
Si Si3 0.800371 0.036860 0.108741
Si Si4 0.385528 0.218289 0.267632
Si Si5 0.124663 0.080688 0.489415
Si Si6 0.141686 0.132491 0.196987
Si Si7 0.281580 0.412297 0.661265
Si Si8 0.661933 0.291919 0.799346
O O1 0.411628 0.389852 0.212372
O O2 0.573226 0.606683 0.207778
O O3 0.397747 0.667374 0.139564
O O4 0.302866 0.500777 0.819928
O O5 0.899473 0.716578 0.861109
O O6 0.781848 0.498947 0.561698
O O7 0.753234 0.448735 0.813962
O O8 0.000000 0.500000 0.000000
O O9 0.950639 0.029125 0.243687
O O10 0.821086 0.030031 0.309504
O O11 0.766615 0.190640 0.989012
O O12 0.664752 0.895171 0.907320
O O13 0.261992 0.163041 0.232304
O O14 0.531703 0.205174 0.538526
O O15 0.200285 0.083661 0.436080
O O16 0.171277 0.246904 0.585415
O O17 0.000000 0.000000 0.000000
#
# Coordination Sequence:
#
# PCOD8014387 Si02
#       8
#     2   2   2   2   2   2   2   2
#     4  11  22  41  66  91 122 162 212 255 315 368
#     4  11  23  40  62  93 129 160 204 263 312 361
#     4  11  24  41  63  89 129 166 205 253 316 372
#     4  12  22  42  64  91 123 170 209 250 315 376
#     4  10  21  42  64  86 124 171 204 247 313 376
#     4  11  22  40  64  92 120 163 212 249 302 377
#     4  10  21  41  67  89 118 168 209 250 310 384
#     4  12  23  41  62  97 125 160 208 268 305 362
#
# _framework density 19.95158
#
# number of rings (size 3 to 8) (size 9 to 14) (size 15 to 20)
#    0.000    1.000    5.000    3.750    0.000    0.000 
#    2.250    3.750    0.000    0.000    0.000    0.000 
#    0.000    0.000    0.000    0.000    0.000    0.000 
#
# Total GULP energy -198375.652849 kJ/mol
# GULP energy per Si atom -12398.478303 kJ/mol
# Density = 1.990617 g / cm^3
# Si number density = 19.951580 Si / 1000 Ang^3
#
#
#
# Elastic Constant Matrix: (Units=GPa)
#
#
# Indices 1 2 3 4 5 6 
#
# 1 68.7753 14.3868 33.2420 -3.6922 -8.4897 9.5489
# 2 14.3868 77.6389 43.3567 -2.3306 -6.8328 8.5913
# 3 33.2420 43.3567 136.7008 -2.9541 -9.4098 -9.7439
# 4 -3.6922 -2.3306 -2.9541 38.9357 6.1925 0.1128
# 5 -8.4897 -6.8328 -9.4098 6.1925 29.4983 2.3300
# 6 9.5489 8.5913 -9.7439 0.1128 2.3300 24.7528
#
#
#
# Elastic Compliance Matrix: (Units=1/GPa)
#
#
# Indices 1 2 3 4 5 6 
#
# 1 0.018922 0.001019 -0.005316 0.000744 0.004635 -0.010186
# 2 0.001019 0.017459 -0.006227 0.000214 0.003032 -0.009191
# 3 -0.005316 -0.006227 0.011192 -0.000041 -0.000075 0.008625
# 4 0.000744 0.000214 -0.000041 0.026612 -0.005336 0.000004
# 5 0.004635 0.003032 -0.000075 -0.005336 0.037537 -0.006379
# 6 -0.010186 -0.009191 0.008625 0.000004 -0.006379 0.051514
#
#
# Mechanical properties :
#
#
# Convention : Reuss Voigt Hill
#
# Bulk Modulus (GPa) = 37.69828 51.67621 44.68724
# Shear Modulus (GPa) = 25.89000 31.44600 28.66800
#
# Velocity S-wave (km/s) = 3.60619 3.97434 3.79473
# Velocity P-wave (km/s) = 6.02290 6.85693 6.45341
#
# Compressibility (1/GPa) = 0.02652641
#
# Stress axis : x y z
#
# Youngs Moduli (GPa) = 52.84738 57.27727 89.35281
#
# Poissons Ratio (x) = -0.05839 0.47497
# Poissons Ratio (y) = -0.05387 0.55640
# Poissons Ratio (z) = 0.28092 0.35667
#
# Static dielectric constant tensor:
#      x y z
#    x 3.628020 0.502770 0.013740 
#    y 0.502770 3.963470 0.480790 
#    z 0.013740 0.480790 4.199650 
# 
# 
# High freq. dielectric constant tensor:
#      x y z
#    x 1.774000 0.027580 -0.013740 
#    y 0.027580 1.768990 0.011930 
#    z -0.013740 0.011930 1.794190 
# 
# From -- ./inp_files/205654.got.cif
#   From: 2010.06.25/outbox.cif.g09.slc.cpg/sg2_103_cif.got.tgz:205654.got - 2010.06.27 13:26:56.
