data_PCOD8014283
_publ_section_title
;
Structure prediction by ZEFSAII (Michael W. Deem and Ramdas Pophale) SiO2 
 PCOD8014283
Probable space group: P -1
;
_chemical_formula_sum "Si O2"
_cell_formula_units_Z 16
_cell_length_a 6.591370
_cell_length_b 18.168760
_cell_length_c 8.569944
_cell_angle_alpha 81.274644
_cell_angle_beta 91.841237
_cell_angle_gamma 134.168713
_cell_volume 723.716044
_symmetry_space_group_name_H-M "P -1"
_symmetry_group_IT_number 2
_symmetry_cell_setting 'triclinic'
loop_
_space_group_symop_operation_xyz
x,y,z
-x,-y,-z
loop_
_atom_site_type_symbol
_atom_site_label
_atom_site_fract_x
_atom_site_fract_y
_atom_site_fract_z
Si Si1 0.530473 0.782840 0.642709
Si Si2 0.590331 0.263786 0.001967
Si Si3 0.536291 0.630373 0.218873
Si Si4 0.479901 0.921293 0.418624
Si Si5 0.080366 0.545105 0.660429
Si Si6 0.777130 0.923564 0.154396
Si Si7 0.876726 0.808958 0.392207
Si Si8 0.766893 0.554783 0.104424
O O1 0.560601 0.798774 0.822221
O O2 0.528079 0.864398 0.549226
O O3 0.248734 0.665423 0.624962
O O4 0.805313 0.811167 0.569222
O O5 0.444923 0.304700 0.940610
O O6 0.514907 0.181707 0.898021
O O7 0.929028 0.361372 0.001702
O O8 0.613071 0.691281 0.362793
O O9 0.758602 0.620952 0.204072
O O10 0.219065 0.516094 0.243994
O O11 0.691875 0.969503 0.256745
O O12 0.160896 0.834544 0.374420
O O13 0.500000 0.000000 0.500000
O O14 0.253372 0.526985 0.770499
O O15 0.000000 0.500000 0.500000
O O16 0.919152 0.894937 0.267497
O O17 0.000000 0.000000 0.000000
O O18 0.500000 0.500000 0.000000
#
# Coordination Sequence:
#
# PCOD8014283 Si02
#       8
#     2   2   2   2   2   2   2   2
#     4  11  24  42  66  96 137 172 219 272 340 399
#     4  10  23  42  65  98 133 175 220 277 331 403
#     4  10  21  41  66  92 134 174 219 274 325 396
#     4  11  27  45  67  98 133 171 225 284 336 401
#     4  11  23  40  65  98 136 182 222 268 337 408
#     4  10  24  45  72  93 128 176 223 280 346 398
#     4  10  23  42  66  95 130 175 218 274 338 399
#     4  11  23  39  65  97 137 175 224 274 332 398
#
# _framework density 22.108117
#
# number of rings (size 3 to 8) (size 9 to 14) (size 15 to 20)
#    0.000    1.500    1.250    2.250    7.000    7.000 
#    2.250    0.000    0.000    0.000    0.000    0.000 
#    0.000    0.000    0.000    0.000    0.000    0.000 
#
# Total GULP energy -198316.702455 kJ/mol
# GULP energy per Si atom -12394.793903 kJ/mol
# Density = 2.205780 g / cm^3
# Si number density = 22.108117 Si / 1000 Ang^3
#
#
#
# Elastic Constant Matrix: (Units=GPa)
#
#
# Indices 1 2 3 4 5 6 
#
# 1 90.8843 17.0981 30.6005 -1.3125 -19.0351 -3.7551
# 2 17.0981 78.9186 23.7240 -2.9361 -9.1547 -9.4704
# 3 30.6005 23.7240 129.3140 -2.7812 -18.4100 -5.7037
# 4 -1.3125 -2.9361 -2.7812 32.6095 4.2046 -1.0202
# 5 -19.0351 -9.1547 -18.4100 4.2046 31.0037 8.9531
# 6 -3.7551 -9.4704 -5.7037 -1.0202 8.9531 34.6231
#
#
#
# Elastic Compliance Matrix: (Units=1/GPa)
#
#
# Indices 1 2 3 4 5 6 
#
# 1 0.013375 -0.001671 -0.001928 -0.000716 0.007005 -0.001157
# 2 -0.001671 0.014133 -0.001898 0.001016 0.000972 0.003150
# 3 -0.001928 -0.001898 0.009054 0.000043 0.003681 -0.000187
# 4 -0.000716 0.001016 0.000043 0.031465 -0.005088 0.002450
# 5 0.007005 0.000972 0.003681 -0.005088 0.042460 -0.009498
# 6 -0.001157 0.003150 -0.000187 0.002450 -0.009498 0.032116
#
#
# Mechanical properties :
#
#
# Convention : Reuss Voigt Hill
#
# Bulk Modulus (GPa) = 39.11084 49.10690 44.10887
# Shear Modulus (GPa) = 30.84128 34.82688 32.83408
#
# Velocity S-wave (km/s) = 3.73905 3.97331 3.85796
# Velocity P-wave (km/s) = 6.03074 6.58103 6.31188
#
# Compressibility (1/GPa) = 0.02556836
#
# Stress axis : x y z
#
# Youngs Moduli (GPa) = 74.76370 70.75842 110.44659
#
# Poissons Ratio (x) = 0.11825 0.21290
# Poissons Ratio (y) = 0.12495 0.20963
# Poissons Ratio (z) = 0.14412 0.13430
#
# Static dielectric constant tensor:
#      x y z
#    x 4.090410 0.003770 -0.141800 
#    y 0.003770 4.039970 0.060150 
#    z -0.141800 0.060150 4.099860 
# 
# 
# High freq. dielectric constant tensor:
#      x y z
#    x 1.865770 -0.001140 -0.008030 
#    y -0.001140 1.875370 0.008790 
#    z -0.008030 0.008790 1.876950 
# 
# From -- ./inp_files/38764.got.cif
#   From: 2010.06.25/outbox.cif.g09.slc.cpg/sg2_20_cif.got.tgz:38764.got - 2010.06.27 13:26:56.
