data_PCOD8014185
_publ_section_title
;
Structure prediction by ZEFSAII (Michael W. Deem and Ramdas Pophale) SiO2 
 PCOD8014185
Probable space group: P -1
;
_chemical_formula_sum "Si O2"
_cell_formula_units_Z 16
_cell_length_a 21.714427
_cell_length_b 9.241159
_cell_length_c 12.429991
_cell_angle_alpha 71.882103
_cell_angle_beta 39.061811
_cell_angle_gamma 40.854737
_cell_volume 762.964904
_symmetry_space_group_name_H-M "P -1"
_symmetry_group_IT_number 2
_symmetry_cell_setting 'triclinic'
loop_
_space_group_symop_operation_xyz
x,y,z
-x,-y,-z
loop_
_atom_site_type_symbol
_atom_site_label
_atom_site_fract_x
_atom_site_fract_y
_atom_site_fract_z
Si Si1 0.925830 0.009173 0.408049
Si Si2 0.139031 0.591193 0.524851
Si Si3 0.858712 0.246706 0.222541
Si Si4 0.494268 0.527527 0.150421
Si Si5 0.522797 0.211797 0.056858
Si Si6 0.852557 0.562673 0.682437
Si Si7 0.033482 0.301265 0.060909
Si Si8 0.469322 0.620442 0.628477
O O1 0.086999 0.664625 0.278257
O O2 0.980315 0.087800 0.387792
O O3 0.923798 0.060429 0.276967
O O4 0.720073 0.211406 0.666727
O O5 0.351195 0.364457 0.322464
O O6 0.160589 0.475160 0.412252
O O7 0.048737 0.592148 0.730858
O O8 0.633632 0.528861 0.435920
O O9 0.904888 0.359647 0.152612
O O10 0.000000 0.000000 0.000000
O O11 0.612970 0.221489 0.012429
O O12 0.511705 0.515625 0.259634
O O13 0.553915 0.606360 0.993332
O O14 0.658535 0.889599 0.918127
O O15 0.000000 0.500000 0.500000
O O16 0.000000 0.500000 0.000000
O O17 0.259234 0.970320 0.833159
O O18 0.500000 0.500000 0.500000
#
# Coordination Sequence:
#
# PCOD8014185 Si02
#       8
#     2   2   2   2   2   2   2   2
#     4   9  20  40  62  92 131 173 209 267 326 391
#     4  10  24  43  62  88 136 172 214 269 334 406
#     4  10  21  44  67  95 132 171 228 271 317 404
#     4   9  20  39  66  94 133 175 212 264 331 405
#     4  10  21  41  65  94 132 173 216 271 333 389
#     4  12  23  36  62 102 128 166 220 267 329 388
#     4  11  26  46  68  98 132 174 224 285 339 388
#     4  11  23  42  71  98 133 184 225 265 339 405
#
# _framework density 20.970818999999999
#
# number of rings (size 3 to 8) (size 9 to 14) (size 15 to 20)
#    0.000    1.750    2.500    1.500    1.750    4.500 
#    2.250    0.000    0.000    0.000    0.000    0.000 
#    0.000    0.000    0.000    0.000    0.000    0.000 
#
# Total GULP energy -198223.882753 kJ/mol
# GULP energy per Si atom -12388.992672 kJ/mol
# Density = 2.092309 g / cm^3
# Si number density = 20.970819 Si / 1000 Ang^3
#
#
#
# Elastic Constant Matrix: (Units=GPa)
#
#
# Indices 1 2 3 4 5 6 
#
# 1 97.8107 42.5510 34.0802 4.1054 14.6007 1.5479
# 2 42.5510 146.2755 67.3249 2.2033 7.3510 11.7822
# 3 34.0802 67.3249 132.2182 -1.2283 6.7664 1.9533
# 4 4.1054 2.2033 -1.2283 31.6750 2.5195 4.7061
# 5 14.6007 7.3510 6.7664 2.5195 40.4876 -0.8977
# 6 1.5479 11.7822 1.9533 4.7061 -0.8977 24.3143
#
#
#
# Elastic Compliance Matrix: (Units=1/GPa)
#
#
# Indices 1 2 3 4 5 6 
#
# 1 0.012596 -0.002749 -0.001684 -0.001333 -0.003662 0.000788
# 2 -0.002749 0.009970 -0.004292 0.000159 -0.000208 -0.004350
# 3 -0.001684 -0.004292 0.010189 0.000759 -0.000337 0.001209
# 4 -0.001333 0.000159 0.000759 0.032874 -0.001865 -0.006485
# 5 -0.003662 -0.000208 -0.000337 -0.001865 0.026267 0.001692
# 6 0.000788 -0.004350 0.001209 -0.006485 0.001692 0.044406
#
#
# Mechanical properties :
#
#
# Convention : Reuss Voigt Hill
#
# Bulk Modulus (GPa) = 65.33051 73.80186 69.56618
# Shear Modulus (GPa) = 31.47577 34.78525 33.13051
#
# Velocity S-wave (km/s) = 3.87839 4.07719 3.97903
# Velocity P-wave (km/s) = 7.16076 7.57850 7.37259
#
# Compressibility (1/GPa) = 0.01530678
#
# Stress axis : x y z
#
# Youngs Moduli (GPa) = 79.38822 100.30410 98.14502
#
# Poissons Ratio (x) = 0.27570 0.16526
# Poissons Ratio (y) = 0.21821 0.42120
# Poissons Ratio (z) = 0.13368 0.43047
#
# Static dielectric constant tensor:
#      x y z
#    x 3.114130 -0.459660 0.106970 
#    y -0.459660 0.687290 -1.555240 
#    z 0.106970 -1.555240 3.192470 
# 
# 
# High freq. dielectric constant tensor:
#      x y z
#    x 1.824420 0.004850 0.005790 
#    y 0.004850 1.798440 -0.007120 
#    z 0.005790 -0.007120 1.841620 
# 
# From -- ./inp_files/469944.got.cif
#   From: 2010.06.25/outbox.cif.g09.slc.cpg/sg2_235_cif.got.tgz:469944.got - 2010.06.27 13:26:56.
