data_PCOD8014220
_publ_section_title
;
Structure prediction by ZEFSAII (Michael W. Deem and Ramdas Pophale) SiO2 
 PCOD8014220
Probable space group: P -1
;
_chemical_formula_sum "Si O2"
_cell_formula_units_Z 14
_cell_length_a 8.408581
_cell_length_b 19.364409
_cell_length_c 9.355918
_cell_angle_alpha 123.393152
_cell_angle_beta 135.028219
_cell_angle_gamma 35.042880
_cell_volume 616.653044
_symmetry_space_group_name_H-M "P -1"
_symmetry_group_IT_number 2
_symmetry_cell_setting 'triclinic'
loop_
_space_group_symop_operation_xyz
x,y,z
-x,-y,-z
loop_
_atom_site_type_symbol
_atom_site_label
_atom_site_fract_x
_atom_site_fract_y
_atom_site_fract_z
Si Si1 0.525285 0.921303 0.041817
Si Si2 0.565832 0.574769 0.078708
Si Si3 0.630385 0.121172 0.376511
Si Si4 0.766183 0.513456 0.567283
Si Si5 0.709890 0.918810 0.679629
Si Si6 0.734804 0.272557 0.696063
Si Si7 0.319426 0.649688 0.698814
O O1 0.891824 0.819341 0.224791
O O2 0.285070 0.002902 0.118201
O O3 0.442127 0.864509 0.825488
O O4 0.500000 0.000000 0.000000
O O5 0.281273 0.708594 0.121652
O O6 0.916517 0.514834 0.287968
O O7 0.500000 0.500000 0.000000
O O8 0.536435 0.591689 0.911880
O O9 0.425113 0.119848 0.353139
O O10 0.563117 0.233110 0.500442
O O11 0.000000 0.000000 0.500000
O O12 0.498256 0.593500 0.362311
O O13 0.586418 0.595803 0.686948
O O14 0.859595 0.390785 0.492052
O O15 0.062617 0.794650 0.705468
O O16 0.500000 0.000000 0.500000
#
# Coordination Sequence:
#
# PCOD8014220 Si02
#       7
#     2   2   2   2   2   2   2
#     4  10  21  41  65  97 135 173 224 276 334 399
#     4  12  25  42  70 105 133 174 234 285 342 409
#     4  11  23  40  68  95 137 180 223 276 336 408
#     4  11  26  45  68  99 138 184 224 281 352 406
#     4  11  23  44  69 100 138 179 223 281 339 405
#     4  12  23  41  71  99 132 177 229 283 341 403
#     4  11  25  46  68  96 145 181 223 281 344 411
#
# _framework density 22.703203999999999
#
# number of rings (size 3 to 8) (size 9 to 14) (size 15 to 20)
#    0.000    0.857    4.286    4.286    4.000    0.000 
#    0.000    3.571    0.000    0.000    0.000    0.000 
#    0.000    0.000    0.000    0.000    0.000    0.000 
#
# Total GULP energy -173507.615969 kJ/mol
# GULP energy per Si atom -12393.401141 kJ/mol
# Density = 2.265153 g / cm^3
# Si number density = 22.703204 Si / 1000 Ang^3
#
#
#
# Elastic Constant Matrix: (Units=GPa)
#
#
# Indices 1 2 3 4 5 6 
#
# 1 49.6689 28.3505 25.5100 11.5424 -2.9293 -6.4628
# 2 28.3505 124.2440 43.6644 13.5939 -3.1689 -17.7254
# 3 25.5100 43.6644 121.1083 16.4572 -9.9510 -4.7176
# 4 11.5424 13.5939 16.4572 55.2637 -5.2410 -5.6904
# 5 -2.9293 -3.1689 -9.9510 -5.2410 40.1965 5.9902
# 6 -6.4628 -17.7254 -4.7176 -5.6904 5.9902 29.7560
#
#
#
# Elastic Compliance Matrix: (Units=1/GPa)
#
#
# Indices 1 2 3 4 5 6 
#
# 1 0.025073 -0.003915 -0.003377 -0.003064 -0.000014 0.001995
# 2 -0.003915 0.010714 -0.002845 -0.000531 -0.000986 0.005178
# 3 -0.003377 -0.002845 0.010329 -0.001628 0.002102 -0.001525
# 4 -0.003064 -0.000531 -0.001628 0.019728 0.001574 0.002216
# 5 -0.000014 -0.000986 0.002102 0.001574 0.026307 -0.005252
# 6 0.001995 0.005178 -0.001525 0.002216 -0.005252 0.038364
#
#
# Mechanical properties :
#
#
# Convention : Reuss Voigt Hill
#
# Bulk Modulus (GPa) = 38.69795 54.45232 46.57513
# Shear Modulus (GPa) = 31.36722 38.20966 34.78844
#
# Velocity S-wave (km/s) = 3.72105 4.10690 3.91873
# Velocity P-wave (km/s) = 5.96186 6.82095 6.40582
#
# Compressibility (1/GPa) = 0.02584116
#
# Stress axis : x y z
#
# Youngs Moduli (GPa) = 39.88327 93.33990 96.81721
#
# Poissons Ratio (x) = 0.36543 0.32695
# Poissons Ratio (y) = 0.15614 0.27546
# Poissons Ratio (z) = 0.13468 0.26557
#
# Static dielectric constant tensor:
#      x y z
#    x 3.393210 0.334850 -0.199520 
#    y 0.334850 4.148580 0.306690 
#    z -0.199520 0.306690 3.916870 
# 
# 
# High freq. dielectric constant tensor:
#      x y z
#    x 1.873660 -0.012390 -0.017080 
#    y -0.012390 1.910180 0.017050 
#    z -0.017080 0.017050 1.908730 
# 
# From -- ./inp_files/223884.got.cif
#   From: 2010.06.25/outbox.cif.g09.slc.cpg/sg2_112_cif.got.tgz:223884.got - 2010.06.27 13:26:56.
