data_PCOD8014941
_publ_section_title
;
Structure prediction by ZEFSAII (Michael W. Deem and Ramdas Pophale) SiO2 
 PCOD8014941
Probable space group: P -1
;
_chemical_formula_sum "Si O2"
_cell_formula_units_Z 16
_cell_length_a 8.837272
_cell_length_b 17.707226
_cell_length_c 17.794559
_cell_angle_alpha 31.558622
_cell_angle_beta 29.901632
_cell_angle_gamma 41.116907
_cell_volume 725.356448
_symmetry_space_group_name_H-M "P -1"
_symmetry_group_IT_number 2
_symmetry_cell_setting 'triclinic'
loop_
_space_group_symop_operation_xyz
x,y,z
-x,-y,-z
loop_
_atom_site_type_symbol
_atom_site_label
_atom_site_fract_x
_atom_site_fract_y
_atom_site_fract_z
Si Si1 0.833736 0.005839 0.719810
Si Si2 0.665498 0.507011 0.543014
Si Si3 0.019893 0.755096 0.955475
Si Si4 0.288203 0.466245 0.049818
Si Si5 0.499980 0.724689 0.306830
Si Si6 0.600173 0.845425 0.701990
Si Si7 0.341983 0.579480 0.217899
Si Si8 0.683806 0.087546 0.078738
O O1 0.722300 0.133260 0.715697
O O2 0.171823 0.034284 0.521415
O O3 0.591921 0.998044 0.764093
O O4 0.841065 0.854484 0.888050
O O5 0.500995 0.644649 0.454895
O O6 0.628895 0.366419 0.627962
O O7 0.531440 0.488538 0.700231
O O8 0.021129 0.522030 0.383516
O O9 0.363884 0.805975 0.771678
O O10 0.011723 0.588183 0.070626
O O11 0.844811 0.763016 0.104327
O O12 0.195757 0.300304 0.239277
O O13 0.500000 0.500000 0.000000
O O14 0.437525 0.479619 0.892732
O O15 0.381839 0.907707 0.808797
O O16 0.311187 0.752317 0.092982
O O17 0.000000 0.000000 0.000000
#
# Coordination Sequence:
#
# PCOD8014941 Si02
#       8
#     2   2   2   2   2   2   2   2
#     4  12  25  42  65 102 132 170 225 277 328 401
#     4  10  22  39  65  97 130 163 233 272 326 385
#     4  11  23  43  66  98 134 173 220 271 340 395
#     4   9  20  39  69  91 134 173 217 264 337 392
#     4  11  24  40  66  94 133 176 217 275 337 393
#     4  10  23  42  66  97 132 175 221 267 331 399
#     4  10  21  42  64 100 125 175 222 276 321 396
#     4  11  23  45  67  91 137 181 214 267 344 400
#
# _framework density 22.058119999999999
#
# number of rings (size 3 to 8) (size 9 to 14) (size 15 to 20)
#    0.000    1.500    0.000    5.625    7.000    1.000 
#    9.000    1.875    0.000    0.000    0.000    0.000 
#    0.000    0.000    0.000    0.000    0.000    0.000 
#
# Total GULP energy -198389.787100 kJ/mol
# GULP energy per Si atom -12399.361694 kJ/mol
# Density = 2.200791 g / cm^3
# Si number density = 22.058120 Si / 1000 Ang^3
#
#
#
# Elastic Constant Matrix: (Units=GPa)
#
#
# Indices 1 2 3 4 5 6 
#
# 1 99.7418 28.9769 31.5015 -0.9490 7.9080 8.8075
# 2 28.9769 141.2559 33.5063 -3.9440 20.8040 -1.9529
# 3 31.5015 33.5063 92.9485 2.6139 8.2864 -0.5262
# 4 -0.9490 -3.9440 2.6139 28.5132 -0.9881 1.8787
# 5 7.9080 20.8040 8.2864 -0.9881 47.8985 3.7913
# 6 8.8075 -1.9529 -0.5262 1.8787 3.7913 21.6008
#
#
#
# Elastic Compliance Matrix: (Units=1/GPa)
#
#
# Indices 1 2 3 4 5 6 
#
# 1 0.012112 -0.001659 -0.003539 0.000833 -0.000238 -0.005205
# 2 -0.001659 0.008467 -0.002230 0.001090 -0.003141 0.001844
# 3 -0.003539 -0.002230 0.012899 -0.001761 -0.000862 0.001860
# 4 0.000833 0.001090 -0.001761 0.035667 0.000707 -0.003510
# 5 -0.000238 -0.003141 -0.000862 0.000707 0.022783 -0.004268
# 6 -0.005205 0.001844 0.001860 -0.003510 -0.004268 0.049683
#
#
# Mechanical properties :
#
#
# Convention : Reuss Voigt Hill
#
# Bulk Modulus (GPa) = 53.69852 57.99062 55.84457
# Shear Modulus (GPa) = 30.73629 35.59994 33.16812
#
# Velocity S-wave (km/s) = 3.73691 4.02172 3.88192
# Velocity P-wave (km/s) = 6.55868 6.92189 6.74273
#
# Compressibility (1/GPa) = 0.01862249
#
# Stress axis : x y z
#
# Youngs Moduli (GPa) = 82.56386 118.10180 77.52678
#
# Poissons Ratio (x) = 0.19592 0.27433
# Poissons Ratio (y) = 0.13697 0.17290
# Poissons Ratio (z) = 0.29215 0.26339
#
# Static dielectric constant tensor:
#      x y z
#    x 3.918110 0.090000 0.052540 
#    y 0.090000 4.133540 -0.181940 
#    z 0.052540 -0.181940 4.121220 
# 
# 
# High freq. dielectric constant tensor:
#      x y z
#    x 1.867700 0.004990 -0.003730 
#    y 0.004990 1.866140 -0.004160 
#    z -0.003730 -0.004160 1.874910 
# 
# From -- ./inp_files/279976.got.cif
#   From: 2010.06.25/outbox.cif.g09.slc.cpg/sg2_140_cif.got.tgz:279976.got - 2010.06.27 13:26:56.
