data_PCOD8014802
_publ_section_title
;
Structure prediction by ZEFSAII (Michael W. Deem and Ramdas Pophale) SiO2 
 PCOD8014802
Probable space group: P -1
;
_chemical_formula_sum "Si O2"
_cell_formula_units_Z 14
_cell_length_a 7.928750
_cell_length_b 12.362640
_cell_length_c 13.731090
_cell_angle_alpha 46.151067
_cell_angle_beta 137.006758
_cell_angle_gamma 143.198397
_cell_volume 530.577071
_symmetry_space_group_name_H-M "P -1"
_symmetry_group_IT_number 2
_symmetry_cell_setting 'triclinic'
loop_
_space_group_symop_operation_xyz
x,y,z
-x,-y,-z
loop_
_atom_site_type_symbol
_atom_site_label
_atom_site_fract_x
_atom_site_fract_y
_atom_site_fract_z
Si Si1 0.234610 0.562254 0.924428
Si Si2 0.074496 0.960453 0.752486
Si Si3 0.256236 0.884721 0.552587
Si Si4 0.270706 0.501279 0.472879
Si Si5 0.303299 0.449243 0.223847
Si Si6 0.395947 0.891738 0.252255
Si Si7 0.883667 0.809409 0.968437
O O1 0.114641 0.365006 0.951644
O O2 0.947501 0.574179 0.790238
O O3 0.344466 0.581447 0.070875
O O4 0.533096 0.736682 0.884752
O O5 0.815395 0.751086 0.740649
O O6 0.415920 0.036374 0.815579
O O7 0.017677 0.094713 0.588319
O O8 0.038907 0.965215 0.851294
O O9 0.087567 0.662564 0.603927
O O10 0.500000 0.000000 0.500000
O O11 0.404366 0.953742 0.677929
O O12 0.500000 0.500000 0.500000
O O13 0.365554 0.465753 0.640500
O O14 0.305610 0.692467 0.370973
O O15 0.096383 0.888496 0.106696
#
# Coordination Sequence:
#
# PCOD8014802 Si02
#       7
#     2   2   2   2   2   2   2
#     4   9  21  42  68 110 143 188 247 294 361 446
#     4  11  23  47  70 105 146 191 246 302 355 446
#     4  12  29  47  72 112 151 189 251 304 364 438
#     4  12  24  43  79 104 143 197 241 292 368 438
#     4  10  21  41  75 102 144 195 242 296 363 436
#     4  12  25  48  74 107 149 194 241 303 364 440
#     4  10  23  42  73 105 149 187 240 305 369 423
#
# _framework density 26.386367
#
# number of rings (size 3 to 8) (size 9 to 14) (size 15 to 20)
#    0.000    1.143    2.857    2.571    2.000    6.286 
#    2.571    1.429    0.000    0.857    0.000    0.000 
#    0.000    0.000    0.000    0.000    0.000    0.000 
#
# Total GULP energy -173641.068427 kJ/mol
# GULP energy per Si atom -12402.933459 kJ/mol
# Density = 2.632631 g / cm^3
# Si number density = 26.386367 Si / 1000 Ang^3
#
#
#
# Elastic Constant Matrix: (Units=GPa)
#
#
# Indices 1 2 3 4 5 6 
#
# 1 71.6890 23.8495 23.6715 5.1640 -10.8081 24.9032
# 2 23.8495 149.0062 49.5777 16.8239 -11.6005 2.2378
# 3 23.6715 49.5777 131.6956 22.5425 -3.5479 -1.7789
# 4 5.1640 16.8239 22.5425 44.9659 2.6232 -0.0071
# 5 -10.8081 -11.6005 -3.5479 2.6232 38.6514 -8.2997
# 6 24.9032 2.2378 -1.7789 -0.0071 -8.2997 38.8159
#
#
#
# Elastic Compliance Matrix: (Units=1/GPa)
#
#
# Indices 1 2 3 4 5 6 
#
# 1 0.020274 -0.001858 -0.003014 -0.000250 0.002151 -0.012578
# 2 -0.001858 0.008136 -0.002357 -0.001769 0.002052 0.001053
# 3 -0.003014 -0.002357 0.009682 -0.003633 0.000131 0.002541
# 4 -0.000250 -0.001769 -0.003633 0.024910 -0.002729 -0.000483
# 5 0.002151 0.002052 0.000131 -0.002729 0.028264 0.004551
# 6 -0.012578 0.001053 0.002541 -0.000483 0.004551 0.034861
#
#
# Mechanical properties :
#
#
# Convention : Reuss Voigt Hill
#
# Bulk Modulus (GPa) = 42.30913 60.73199 51.52056
# Shear Modulus (GPa) = 33.67838 41.50611 37.59225
#
# Velocity S-wave (km/s) = 3.57649 3.97043 3.77859
# Velocity P-wave (km/s) = 5.75537 6.63969 6.21328
#
# Compressibility (1/GPa) = 0.02363556
#
# Stress axis : x y z
#
# Youngs Moduli (GPa) = 49.32391 122.90618 103.28479
#
# Poissons Ratio (x) = 0.22831 0.31131
# Poissons Ratio (y) = 0.09162 0.24342
# Poissons Ratio (z) = 0.14866 0.28966
#
# Static dielectric constant tensor:
#      x y z
#    x 4.817460 -0.082680 -0.106140 
#    y -0.082680 4.814560 0.068530 
#    z -0.106140 0.068530 5.139980 
# 
# 
# High freq. dielectric constant tensor:
#      x y z
#    x 2.051510 -0.004900 0.000690 
#    y -0.004900 2.059190 0.000130 
#    z 0.000690 0.000130 2.075220 
# 
# From -- ./inp_files/505331.got.cif
#   From: 2010.06.25/outbox.cif.g09.slc.cpg/sg2_253_cif.got.tgz:505331.got - 2010.06.27 13:26:56.
