data_PCOD8014499
_publ_section_title
;
Structure prediction by ZEFSAII (Michael W. Deem and Ramdas Pophale) SiO2 
 PCOD8014499
Probable space group: P -1
;
_chemical_formula_sum "Si O2"
_cell_formula_units_Z 16
_cell_length_a 8.837254
_cell_length_b 8.998068
_cell_length_c 12.899355
_cell_angle_alpha 125.317107
_cell_angle_beta 121.520659
_cell_angle_gamma 71.567745
_cell_volume 713.326888
_symmetry_space_group_name_H-M "P -1"
_symmetry_group_IT_number 2
_symmetry_cell_setting 'triclinic'
loop_
_space_group_symop_operation_xyz
x,y,z
-x,-y,-z
loop_
_atom_site_type_symbol
_atom_site_label
_atom_site_fract_x
_atom_site_fract_y
_atom_site_fract_z
Si Si1 0.932533 0.206922 0.782323
Si Si2 0.414039 0.967658 0.168722
Si Si3 0.145529 0.669694 0.971827
Si Si4 0.808161 0.504068 0.707456
Si Si5 0.340534 0.092623 0.416505
Si Si6 0.486910 0.299691 0.194261
Si Si7 0.685540 0.705423 0.087286
Si Si8 0.203601 0.489882 0.535457
O O1 0.880853 0.326837 0.912408
O O2 0.870038 0.312256 0.699892
O O3 0.144361 0.181958 0.843670
O O4 0.841691 0.012939 0.674462
O O5 0.237398 0.851527 0.037447
O O6 0.579199 0.824785 0.183115
O O7 0.394192 0.090033 0.313559
O O8 0.450041 0.093509 0.133398
O O9 0.263507 0.487369 0.918758
O O10 0.956130 0.658212 0.841969
O O11 0.625204 0.561695 0.718606
O O12 0.779242 0.472267 0.564209
O O13 0.298449 0.296995 0.520595
O O14 0.500000 0.000000 0.500000
O O15 0.692773 0.351840 0.303322
O O16 0.442334 0.323539 0.067911
O O17 0.000000 0.500000 0.500000
#
# Coordination Sequence:
#
# PCOD8014499 Si02
#       8
#     2   2   2   2   2   2   2   2
#     4  10  21  41  71 100 129 175 223 278 332 398
#     4  11  26  39  65 102 130 178 217 279 329 396
#     4  10  21  41  68 100 134 172 219 274 338 395
#     4  11  21  44  70  96 133 177 218 271 342 401
#     4  11  26  46  70  98 138 181 230 275 333 404
#     4  12  24  44  68  94 137 175 222 271 337 403
#     4  11  22  42  68 100 135 171 225 277 335 394
#     4  12  30  46  68  98 137 182 227 279 339 404
#
# _framework density 22.430111
#
# number of rings (size 3 to 8) (size 9 to 14) (size 15 to 20)
#    0.000    1.000    3.750    2.625    7.000    3.500 
#    0.000    1.250    0.000    0.000    0.000    0.000 
#    0.000    0.000    0.000    0.000    0.000    0.000 
#
# Total GULP energy -198485.378530 kJ/mol
# GULP energy per Si atom -12405.336158 kJ/mol
# Density = 2.237906 g / cm^3
# Si number density = 22.430111 Si / 1000 Ang^3
#
#
#
# Elastic Constant Matrix: (Units=GPa)
#
#
# Indices 1 2 3 4 5 6 
#
# 1 105.1197 22.8271 26.6413 9.9354 20.6653 -3.3516
# 2 22.8271 75.3153 23.3504 3.6532 9.1677 7.6613
# 3 26.6413 23.3504 73.5653 -4.4683 24.5662 7.7476
# 4 9.9354 3.6532 -4.4683 30.9141 -1.9900 5.6307
# 5 20.6653 9.1677 24.5662 -1.9900 38.0106 8.1921
# 6 -3.3516 7.6613 7.7476 5.6307 8.1921 32.8337
#
#
#
# Elastic Compliance Matrix: (Units=1/GPa)
#
#
# Indices 1 2 3 4 5 6 
#
# 1 0.012535 -0.002506 -0.002633 -0.005375 -0.005839 0.004864
# 2 -0.002506 0.015544 -0.004049 -0.001026 0.000814 -0.002954
# 3 -0.002633 -0.004049 0.019476 0.003934 -0.009493 -0.002226
# 4 -0.005375 -0.001026 0.003934 0.036617 0.004401 -0.008615
# 5 -0.005839 0.000814 -0.009493 0.004401 0.037519 -0.008662
# 6 0.004864 -0.002954 -0.002226 -0.008615 -0.008662 0.035806
#
#
# Mechanical properties :
#
#
# Convention : Reuss Voigt Hill
#
# Bulk Modulus (GPa) = 34.27235 44.40420 39.33828
# Shear Modulus (GPa) = 26.93960 32.43046 29.68503
#
# Velocity S-wave (km/s) = 3.46937 3.80655 3.64187
# Velocity P-wave (km/s) = 5.60013 6.25775 5.93805
#
# Compressibility (1/GPa) = 0.02917804
#
# Stress axis : x y z
#
# Youngs Moduli (GPa) = 79.77363 64.33457 51.34618
#
# Poissons Ratio (x) = 0.16125 0.13520
# Poissons Ratio (y) = 0.19994 0.20790
# Poissons Ratio (z) = 0.21005 0.26048
#
# Static dielectric constant tensor:
#      x y z
#    x 4.264460 -0.028230 0.134390 
#    y -0.028230 3.918850 0.050120 
#    z 0.134390 0.050120 3.973270 
# 
# 
# High freq. dielectric constant tensor:
#      x y z
#    x 1.895410 0.003920 0.011510 
#    y 0.003920 1.881300 0.001520 
#    z 0.011510 0.001520 1.876130 
# 
# From -- ./inp_files/189932.got.cif
#   From: 2010.06.25/outbox.cif.g09.slc.cpg/sg2_95_cif.got.tgz:189932.got - 2010.06.27 13:26:56.
