data_PCOD8014858
_publ_section_title
;
Structure prediction by ZEFSAII (Michael W. Deem and Ramdas Pophale) SiO2 
 PCOD8014858
Probable space group: P -1
;
_chemical_formula_sum "Si O2"
_cell_formula_units_Z 14
_cell_length_a 15.339479
_cell_length_b 5.319019
_cell_length_c 8.311406
_cell_angle_alpha 64.482333
_cell_angle_beta 108.011856
_cell_angle_gamma 114.277000
_cell_volume 550.627523
_symmetry_space_group_name_H-M "P -1"
_symmetry_group_IT_number 2
_symmetry_cell_setting 'triclinic'
loop_
_space_group_symop_operation_xyz
x,y,z
-x,-y,-z
loop_
_atom_site_type_symbol
_atom_site_label
_atom_site_fract_x
_atom_site_fract_y
_atom_site_fract_z
Si Si1 0.359606 0.483364 0.396045
Si Si2 0.395943 0.936663 0.039891
Si Si3 0.488530 0.278645 0.341811
Si Si4 0.061176 0.938493 0.815735
Si Si5 0.359728 0.529101 0.858232
Si Si6 0.062882 0.684260 0.221167
Si Si7 0.202476 0.428826 0.546756
O O1 0.382434 0.306911 0.303021
O O2 0.429790 0.452654 0.591187
O O3 0.248601 0.349687 0.428544
O O4 0.387122 0.823296 0.252444
O O5 0.331524 0.660174 0.969543
O O6 0.343498 0.183000 0.945304
O O7 0.500000 0.000000 0.000000
O O8 0.523098 0.314584 0.164568
O O9 0.500000 0.000000 0.500000
O O10 0.007810 0.642096 0.770137
O O11 0.142961 0.135775 0.689009
O O12 0.104921 0.854753 0.030605
O O13 0.990312 0.124393 0.764567
O O14 0.292757 0.609276 0.661093
O O15 0.143583 0.644721 0.399869
#
# Coordination Sequence:
#
# PCOD8014858 Si02
#       7
#     2   2   2   2   2   2   2
#     4  10  24  40  64  97 135 180 232 285 351 400
#     4  12  24  46  67  95 134 194 242 286 339 408
#     4  10  21  42  62  90 132 188 228 283 339 419
#     4  10  23  47  76 104 141 177 233 273 349 436
#     4  11  27  41  69  97 137 180 238 292 340 400
#     4  10  23  47  76 104 135 189 222 278 350 435
#     4  11  25  46  69 109 143 179 226 301 351 408
#
# _framework density 25.425536000000001
#
# number of rings (size 3 to 8) (size 9 to 14) (size 15 to 20)
#    0.000    1.429    1.429    2.143    8.000    2.286 
#   10.286    0.000    0.000    0.000    0.000    0.000 
#    0.000    0.000    0.000    0.000    0.000    0.000 
#
# Total GULP energy -173456.566675 kJ/mol
# GULP energy per Si atom -12389.754763 kJ/mol
# Density = 2.536767 g / cm^3
# Si number density = 25.425536 Si / 1000 Ang^3
#
#
#
# Elastic Constant Matrix: (Units=GPa)
#
#
# Indices 1 2 3 4 5 6 
#
# 1 105.0479 23.0863 65.5200 -17.7037 -20.3983 6.3813
# 2 23.0863 72.3095 34.3463 -10.9751 -2.5215 -28.9916
# 3 65.5200 34.3463 169.1910 -15.8212 -4.0385 -1.9605
# 4 -17.7037 -10.9751 -15.8212 44.7590 3.5794 -3.7205
# 5 -20.3983 -2.5215 -4.0385 3.5794 50.7294 -10.3750
# 6 6.3813 -28.9916 -1.9605 -3.7205 -10.3750 30.6097
#
#
#
# Elastic Compliance Matrix: (Units=1/GPa)
#
#
# Indices 1 2 3 4 5 6 
#
# 1 0.014931 -0.004480 -0.004626 0.002351 0.004019 -0.006004
# 2 -0.004480 0.031634 -0.003498 0.007066 0.005848 0.033513
# 3 -0.004626 -0.003498 0.008360 0.000216 -0.001880 -0.002425
# 4 0.002351 0.007066 0.000216 0.025780 0.001512 0.009862
# 5 0.004019 0.005848 -0.001880 0.001512 0.024001 0.012899
# 6 -0.006004 0.033513 -0.002425 0.009862 0.012899 0.071078
#
#
# Mechanical properties :
#
#
# Convention : Reuss Voigt Hill
#
# Bulk Modulus (GPa) = 33.65194 65.82817 49.74005
# Shear Modulus (GPa) = 23.70815 40.12603 31.91709
#
# Velocity S-wave (km/s) = 3.05692 3.97694 3.54689
# Velocity P-wave (km/s) = 5.07188 6.85819 6.03153
#
# Compressibility (1/GPa) = 0.02971597
#
# Stress axis : x y z
#
# Youngs Moduli (GPa) = 66.97508 31.61117 119.62415
#
# Poissons Ratio (x) = 0.14160 0.55344
# Poissons Ratio (y) = 0.30002 0.41850
# Poissons Ratio (z) = 0.30986 0.11059
#
# Static dielectric constant tensor:
#      x y z
#    x 4.474760 1.223400 1.670400 
#    y 1.223400 -16.352850 -26.011000 
#    z 1.670400 -26.011000 -27.590980 
# 
# 
# High freq. dielectric constant tensor:
#      x y z
#    x 1.995040 -0.025350 -0.010790 
#    y -0.025350 2.011460 -0.000800 
#    z -0.010790 -0.000800 2.045110 
# 
# From -- ./inp_files/288398.got.cif
#   From: 2010.06.25/outbox.cif.g09.slc.cpg/sg2_145_cif.got.tgz:288398.got - 2010.06.27 13:26:56.
