data_PCOD8014478
_publ_section_title
;
Structure prediction by ZEFSAII (Michael W. Deem and Ramdas Pophale) SiO2 
 PCOD8014478
Probable space group: P -1
;
_chemical_formula_sum "Si O2"
_cell_formula_units_Z 14
_cell_length_a 14.949956
_cell_length_b 11.081427
_cell_length_c 7.417351
_cell_angle_alpha 92.364185
_cell_angle_beta 98.522974
_cell_angle_gamma 29.779237
_cell_volume 593.931410
_symmetry_space_group_name_H-M "P -1"
_symmetry_group_IT_number 2
_symmetry_cell_setting 'triclinic'
loop_
_space_group_symop_operation_xyz
x,y,z
-x,-y,-z
loop_
_atom_site_type_symbol
_atom_site_label
_atom_site_fract_x
_atom_site_fract_y
_atom_site_fract_z
Si Si1 0.821627 0.567808 0.817491
Si Si2 0.849011 0.674439 0.172140
Si Si3 0.447356 0.908464 0.641810
Si Si4 0.052155 0.073582 0.743648
Si Si5 0.489785 0.674308 0.346021
Si Si6 0.372393 0.846664 0.942872
Si Si7 0.805930 0.157063 0.591671
O O1 0.613341 0.811834 0.693833
O O2 0.933986 0.546065 0.751123
O O3 0.905072 0.341474 0.782759
O O4 0.819260 0.589622 0.036793
O O5 0.738925 0.800161 0.337915
O O6 0.772144 0.876826 0.041188
O O7 0.433572 0.864770 0.439012
O O8 0.481759 0.756967 0.786312
O O9 0.959744 0.049524 0.750546
O O10 0.085851 0.049577 0.536366
O O11 0.253639 0.860660 0.882252
O O12 0.514431 0.668708 0.139756
O O13 0.680147 0.401334 0.462798
O O14 0.318837 0.780458 0.315902
#
# Coordination Sequence:
#
# PCOD8014478 Si02
#       7
#     2   2   2   2   2   2   2
#     4  10  16  34  64  78 113 155 178 231 289 328
#     4   8  19  34  59  87 108 146 191 224 282 346
#     4  10  19  36  59  83 114 149 181 232 284 338
#     4  10  19  37  55  82 114 148 196 230 272 343
#     4  11  20  37  58  81 115 149 186 237 283 326
#     4   9  21  36  56  86 114 140 194 235 270 346
#     4  10  21  35  57  80 110 158 189 225 292 328
#
# _framework density 23.571746999999998
#
# number of rings (size 3 to 8) (size 9 to 14) (size 15 to 20)
#    0.857    1.429    2.857    0.429    0.000    1.143 
#    0.000    6.429    0.000    6.857    0.000    0.000 
#    0.000    0.000    0.000    0.000    0.000    0.000 
#
# Total GULP energy -173455.055231 kJ/mol
# GULP energy per Si atom -12389.646802 kJ/mol
# Density = 2.351810 g / cm^3
# Si number density = 23.571747 Si / 1000 Ang^3
#
#
#
# Elastic Constant Matrix: (Units=GPa)
#
#
# Indices 1 2 3 4 5 6 
#
# 1 62.4703 17.0230 19.9581 -4.0432 30.7424 -21.7446
# 2 17.0230 53.3661 13.5620 15.8210 14.1370 -16.5873
# 3 19.9581 13.5620 94.8455 7.3403 32.1733 3.8968
# 4 -4.0432 15.8210 7.3403 31.2514 5.4161 11.2602
# 5 30.7424 14.1370 32.1733 5.4161 35.4816 -0.8200
# 6 -21.7446 -16.5873 3.8968 11.2602 -0.8200 36.4123
#
#
#
# Elastic Compliance Matrix: (Units=1/GPa)
#
#
# Indices 1 2 3 4 5 6 
#
# 1 0.043905 0.004742 0.003326 0.000092 -0.042335 0.027041
# 2 0.004742 0.037128 -0.000842 -0.025504 -0.013611 0.027415
# 3 0.003326 -0.000842 0.015665 0.000285 -0.016807 -0.000541
# 4 0.000092 -0.025504 0.000285 0.055025 0.000764 -0.028592
# 5 -0.042335 -0.013611 -0.016807 0.000764 0.084762 -0.028010
# 6 0.027041 0.027415 -0.000541 -0.028592 -0.028010 0.064369
#
#
# Mechanical properties :
#
#
# Convention : Reuss Voigt Hill
#
# Bulk Modulus (GPa) = 8.99691 34.64091 21.81891
# Shear Modulus (GPa) = 15.45823 31.30498 23.38161
#
# Velocity S-wave (km/s) = 2.56363 3.64823 3.15291
# Velocity P-wave (km/s) = 3.54796 5.69859 4.74668
#
# Compressibility (1/GPa) = 0.11114922
#
# Stress axis : x y z
#
# Youngs Moduli (GPa) = 22.77663 26.93409 63.83514
#
# Poissons Ratio (x) = -0.12773 -0.21229
# Poissons Ratio (y) = -0.10801 0.05376
# Poissons Ratio (z) = -0.07575 0.02268
#
# Static dielectric constant tensor:
#      x y z
#    x 4.050470 -0.332930 0.392860 
#    y -0.332930 4.017340 0.319280 
#    z 0.392860 0.319280 3.964000 
# 
# 
# High freq. dielectric constant tensor:
#      x y z
#    x 1.917590 -0.028850 0.038220 
#    y -0.028850 1.917070 0.031840 
#    z 0.038220 0.031840 1.917450 
# 
# From -- ./inp_files/110984.got.cif
#   From: 2010.06.25/outbox.cif.g09.slc.cpg/sg2_56_cif.got.tgz:110984.got - 2010.06.27 13:26:56.
