data_PCOD8014913
_publ_section_title
;
Structure prediction by ZEFSAII (Michael W. Deem and Ramdas Pophale) SiO2 
 PCOD8014913
Probable space group: P -1
;
_chemical_formula_sum "Si O2"
_cell_formula_units_Z 16
_cell_length_a 14.065501
_cell_length_b 7.047019
_cell_length_c 8.297182
_cell_angle_alpha 58.280474
_cell_angle_beta 78.185286
_cell_angle_gamma 93.778165
_cell_volume 669.713167
_symmetry_space_group_name_H-M "P -1"
_symmetry_group_IT_number 2
_symmetry_cell_setting 'triclinic'
loop_
_space_group_symop_operation_xyz
x,y,z
-x,-y,-z
loop_
_atom_site_type_symbol
_atom_site_label
_atom_site_fract_x
_atom_site_fract_y
_atom_site_fract_z
Si Si1 0.089938 0.550919 0.244052
Si Si2 0.708835 0.369705 0.680369
Si Si3 0.354979 0.456966 0.066205
Si Si4 0.371250 0.930960 0.713092
Si Si5 0.982159 0.852981 0.318011
Si Si6 0.585302 0.973479 0.703052
Si Si7 0.217254 0.201486 0.746089
Si Si8 0.151457 0.276548 0.090947
O O1 0.188134 0.658599 0.263878
O O2 0.033192 0.317829 0.450344
O O3 0.112514 0.500999 0.070880
O O4 0.021443 0.737732 0.196214
O O5 0.634276 0.422581 0.818335
O O6 0.722386 0.568493 0.455824
O O7 0.657997 0.131325 0.728112
O O8 0.434059 0.290399 0.106197
O O9 0.248436 0.277841 0.167235
O O10 0.361455 0.655022 0.840696
O O11 0.479225 0.045919 0.696690
O O12 0.362601 0.011050 0.497379
O O13 0.287662 0.015486 0.812919
O O14 0.878790 0.916486 0.272365
O O15 0.063659 0.064743 0.255630
O O16 0.183359 0.281873 0.893056
#
# Coordination Sequence:
#
# PCOD8014913 Si02
#       8
#     2   2   2   2   2   2   2   2
#     4   9  21  40  65  96 129 175 228 272 325 402
#     4  10  22  44  70  97 133 176 222 282 335 400
#     4  11  24  45  69 101 133 174 232 274 335 404
#     4  11  26  46  69 102 137 174 227 283 333 410
#     4  10  21  42  63  92 137 174 225 272 329 397
#     4  11  24  48  73  95 134 182 223 277 348 395
#     4  11  24  44  63 102 142 172 224 285 334 393
#     4  11  23  39  67  94 132 181 219 273 332 395
#
# _framework density 23.890827000000002
#
# number of rings (size 3 to 8) (size 9 to 14) (size 15 to 20)
#    0.000    1.500    1.250    2.625    5.250    1.500 
#   11.250    0.000    0.000    0.000    0.000    0.000 
#    0.000    0.000    0.000    0.000    0.000    0.000 
#
# Total GULP energy -198367.846766 kJ/mol
# GULP energy per Si atom -12397.990423 kJ/mol
# Density = 2.383645 g / cm^3
# Si number density = 23.890827 Si / 1000 Ang^3
#
#
#
# Elastic Constant Matrix: (Units=GPa)
#
#
# Indices 1 2 3 4 5 6 
#
# 1 87.1803 42.7510 14.1085 -1.9288 -1.5387 -16.6409
# 2 42.7510 114.2414 38.9582 -3.2802 4.4438 1.7741
# 3 14.1085 38.9582 73.1367 -7.4065 4.8816 0.1694
# 4 -1.9288 -3.2802 -7.4065 31.7419 -4.2541 -0.6849
# 5 -1.5387 4.4438 4.8816 -4.2541 20.9392 -3.5023
# 6 -16.6409 1.7741 0.1694 -0.6849 -3.5023 38.7256
#
#
#
# Elastic Compliance Matrix: (Units=1/GPa)
#
#
# Indices 1 2 3 4 5 6 
#
# 1 0.016080 -0.006283 0.000067 0.001040 0.003978 0.007575
# 2 -0.006283 0.013186 -0.005705 -0.000786 -0.002681 -0.003535
# 3 0.000067 -0.005705 0.017158 0.003134 -0.002135 0.000077
# 4 0.001040 -0.000786 0.003134 0.033126 0.006518 0.001645
# 5 0.003978 -0.002681 -0.002135 0.006518 0.051548 0.006619
# 6 0.007575 -0.003535 0.000077 0.001645 0.006619 0.029867
#
#
# Mechanical properties :
#
#
# Convention : Reuss Voigt Hill
#
# Bulk Modulus (GPa) = 44.27872 51.79932 48.03902
# Shear Modulus (GPa) = 25.99640 30.19736 28.09688
#
# Velocity S-wave (km/s) = 3.30227 3.55910 3.43308
# Velocity P-wave (km/s) = 5.75447 6.21436 5.98883
#
# Compressibility (1/GPa) = 0.02258421
#
# Stress axis : x y z
#
# Youngs Moduli (GPa) = 62.19040 75.83540 58.28017
#
# Poissons Ratio (x) = 0.47645 -0.00391
# Poissons Ratio (y) = 0.39072 0.33246
# Poissons Ratio (z) = -0.00417 0.43261
#
# Static dielectric constant tensor:
#      x y z
#    x 4.369960 -0.060080 -0.233480 
#    y -0.060080 4.247800 0.017280 
#    z -0.233480 0.017280 4.186370 
# 
# 
# High freq. dielectric constant tensor:
#      x y z
#    x 1.952550 0.001980 -0.014030 
#    y 0.001980 1.947050 -0.002160 
#    z -0.014030 -0.002160 1.940790 
# 
# From -- ./inp_files/288467.got.cif
#   From: 2010.06.25/outbox.cif.g09.slc.cpg/sg2_145_cif.got.tgz:288467.got - 2010.06.27 13:26:56.
