data_PCOD8014957
_publ_section_title
;
Structure prediction by ZEFSAII (Michael W. Deem and Ramdas Pophale) SiO2 
 PCOD8014957
Probable space group: P -1
;
_chemical_formula_sum "Si O2"
_cell_formula_units_Z 16
_cell_length_a 15.287250
_cell_length_b 8.177839
_cell_length_c 16.445337
_cell_angle_alpha 86.920858
_cell_angle_beta 153.146606
_cell_angle_gamma 77.635697
_cell_volume 754.791935
_symmetry_space_group_name_H-M "P -1"
_symmetry_group_IT_number 2
_symmetry_cell_setting 'triclinic'
loop_
_space_group_symop_operation_xyz
x,y,z
-x,-y,-z
loop_
_atom_site_type_symbol
_atom_site_label
_atom_site_fract_x
_atom_site_fract_y
_atom_site_fract_z
Si Si1 0.466765 0.065827 0.562123
Si Si2 0.587561 0.760006 0.798155
Si Si3 0.545864 0.239537 0.002678
Si Si4 0.879689 0.362978 0.293781
Si Si5 0.608912 0.410131 0.468840
Si Si6 0.626064 0.977258 0.227344
Si Si7 0.937912 0.558505 0.714654
Si Si8 0.762719 0.212035 0.770352
O O1 0.197510 0.213418 0.368685
O O2 0.553465 0.206945 0.633730
O O3 0.500000 0.000000 0.500000
O O4 0.625217 0.866891 0.752439
O O5 0.421821 0.691939 0.632119
O O6 0.459007 0.919052 0.759170
O O7 0.848246 0.575105 0.042759
O O8 0.299703 0.459558 0.798175
O O9 0.528406 0.106831 0.923561
O O10 0.756043 0.263128 0.153480
O O11 0.597596 0.136630 0.135925
O O12 0.098309 0.203566 0.535427
O O13 0.961250 0.449710 0.290098
O O14 0.770668 0.481178 0.570673
O O15 0.755462 0.241942 0.666267
O O16 0.334468 0.576149 0.270092
O O17 0.000000 0.000000 0.000000
#
# Coordination Sequence:
#
# PCOD8014957 Si02
#       8
#     2   2   2   2   2   2   2   2
#     4  11  23  42  64  92 129 170 225 265 323 394
#     4  12  24  42  66  98 134 172 218 275 329 382
#     4  10  24  44  70  99 131 173 221 261 337 398
#     4  11  22  45  68  97 133 174 217 268 328 394
#     4  10  24  41  62  92 128 167 220 269 320 389
#     4  11  23  44  67 100 132 171 217 273 324 395
#     4  11  25  43  62  98 135 170 218 274 324 386
#     4  10  21  42  64  89 121 170 221 269 327 381
#
# _framework density 21.197894999999999
#
# number of rings (size 3 to 8) (size 9 to 14) (size 15 to 20)
#    0.000    1.250    3.750    1.500    1.750    2.500 
#    2.250    0.000    0.000    0.000    0.000    0.000 
#    0.000    0.000    0.000    0.000    0.000    0.000 
#
# Total GULP energy -198300.892009 kJ/mol
# GULP energy per Si atom -12393.805751 kJ/mol
# Density = 2.114965 g / cm^3
# Si number density = 21.197895 Si / 1000 Ang^3
#
#
#
# Elastic Constant Matrix: (Units=GPa)
#
#
# Indices 1 2 3 4 5 6 
#
# 1 72.3069 36.9561 24.2731 14.1143 4.1270 2.6752
# 2 36.9561 104.6632 36.1003 16.0766 -6.2692 -0.2776
# 3 24.2731 36.1003 58.1632 -6.1710 -7.7488 -5.6223
# 4 14.1143 16.0766 -6.1710 38.7899 5.0822 -2.5521
# 5 4.1270 -6.2692 -7.7488 5.0822 22.0931 9.7476
# 6 2.6752 -0.2776 -5.6223 -2.5521 9.7476 33.7952
#
#
#
# Elastic Compliance Matrix: (Units=1/GPa)
#
#
# Indices 1 2 3 4 5 6 
#
# 1 0.019862 -0.003782 -0.007473 -0.006295 -0.005145 -0.001838
# 2 -0.003782 0.015062 -0.008126 -0.007009 0.005026 -0.002908
# 3 -0.007473 -0.008126 0.027460 0.010190 0.004343 0.004610
# 4 -0.006295 -0.007009 0.010190 0.034139 -0.008218 0.007084
# 5 -0.005145 0.005026 0.004343 -0.008218 0.058231 -0.016245
# 6 -0.001838 -0.002908 0.004610 0.007084 -0.016245 0.035699
#
#
# Mechanical properties :
#
#
# Convention : Reuss Voigt Hill
#
# Bulk Modulus (GPa) = 42.32945 47.75470 45.04207
# Shear Modulus (GPa) = 21.08905 28.12257 24.60581
#
# Velocity S-wave (km/s) = 3.15757 3.64630 3.41070
# Velocity P-wave (km/s) = 5.77111 6.34856 6.06671
#
# Compressibility (1/GPa) = 0.02362422
#
# Stress axis : x y z
#
# Youngs Moduli (GPa) = 50.34785 66.39021 36.41603
#
# Poissons Ratio (x) = 0.25107 0.27213
# Poissons Ratio (y) = 0.19040 0.29591
# Poissons Ratio (z) = 0.37623 0.53947
#
# Static dielectric constant tensor:
#      x y z
#    x 3.983210 0.249440 -0.218480 
#    y 0.249440 4.092860 -0.215070 
#    z -0.218480 -0.215070 3.996270 
# 
# 
# High freq. dielectric constant tensor:
#      x y z
#    x 1.827530 0.006740 -0.003980 
#    y 0.006740 1.842800 -0.016110 
#    z -0.003980 -0.016110 1.835500 
# 
# From -- ./inp_files/315341.got.cif
#   From: 2010.06.25/outbox.cif.g09.slc.cpg/sg2_158_cif.got.tgz:315341.got - 2010.06.27 13:26:56.
