data_PCOD8014966
_publ_section_title
;
Structure prediction by ZEFSAII (Michael W. Deem and Ramdas Pophale) SiO2 
 PCOD8014966
Probable space group: P -1
;
_chemical_formula_sum "Si O2"
_cell_formula_units_Z 16
_cell_length_a 12.492148
_cell_length_b 7.665583
_cell_length_c 20.886254
_cell_angle_alpha 96.633143
_cell_angle_beta 28.123669
_cell_angle_gamma 81.274371
_cell_volume 787.245732
_symmetry_space_group_name_H-M "P -1"
_symmetry_group_IT_number 2
_symmetry_cell_setting 'triclinic'
loop_
_space_group_symop_operation_xyz
x,y,z
-x,-y,-z
loop_
_atom_site_type_symbol
_atom_site_label
_atom_site_fract_x
_atom_site_fract_y
_atom_site_fract_z
Si Si1 0.930044 0.281316 0.023618
Si Si2 0.645280 0.675730 0.263414
Si Si3 0.053421 0.989182 0.633603
Si Si4 0.231658 0.536825 0.174129
Si Si5 0.382225 0.115018 0.134565
Si Si6 0.156059 0.022849 0.014069
Si Si7 0.250607 0.928106 0.667671
Si Si8 0.215498 0.342587 0.679199
O O1 0.691633 0.520703 0.174050
O O2 0.773911 0.181743 0.071946
O O3 0.158664 0.242311 0.851094
O O4 0.084614 0.195104 0.005900
O O5 0.746537 0.550933 0.273545
O O6 0.329333 0.860965 0.441749
O O7 0.853818 0.914183 0.716617
O O8 0.095563 0.947075 0.684980
O O9 0.928004 0.236384 0.697807
O O10 0.286345 0.358034 0.188105
O O11 0.070031 0.518092 0.198850
O O12 0.500000 0.500000 0.000000
O O13 0.599343 0.017588 0.072520
O O14 0.500000 0.000000 0.000000
O O15 0.894421 0.102395 0.198652
O O16 0.551723 0.719332 0.498734
O O17 0.268616 0.129262 0.673524
#
# Coordination Sequence:
#
# PCOD8014966 Si02
#       8
#     2   2   2   2   2   2   2   2
#     4  10  24  40  65  86 122 173 209 259 308 363
#     4  10  21  42  64  91 119 164 220 258 304 376
#     4  10  22  41  63  97 129 159 207 266 319 373
#     4  11  22  35  60  97 129 169 192 248 342 372
#     4  12  23  40  63  97 133 162 206 257 320 387
#     4  11  22  41  61  92 126 162 212 260 310 377
#     4   9  16  33  60  90 124 151 193 270 323 356
#     4   9  18  31  60  93 120 154 199 263 320 366
#
# _framework density 20.324023
#
# number of rings (size 3 to 8) (size 9 to 14) (size 15 to 20)
#    0.000    1.750    3.750    1.500    1.750    1.000 
#    4.500    3.750    0.000    0.000    0.000    0.000 
#    0.000    0.000    0.000    0.000    0.000    0.000 
#
# Total GULP energy -198296.367272 kJ/mol
# GULP energy per Si atom -12393.522955 kJ/mol
# Density = 2.027776 g / cm^3
# Si number density = 20.324023 Si / 1000 Ang^3
#
#
#
# Elastic Constant Matrix: (Units=GPa)
#
#
# Indices 1 2 3 4 5 6 
#
# 1 95.9802 13.9477 41.7851 3.3959 -7.0909 2.9860
# 2 13.9477 68.6964 27.6696 6.0700 4.7570 9.2099
# 3 41.7851 27.6696 131.0288 3.0968 5.1967 8.5010
# 4 3.3959 6.0700 3.0968 19.4952 -0.8267 -1.7406
# 5 -7.0909 4.7570 5.1967 -0.8267 30.1574 -5.2915
# 6 2.9860 9.2099 8.5010 -1.7406 -5.2915 26.5414
#
#
#
# Elastic Compliance Matrix: (Units=1/GPa)
#
#
# Indices 1 2 3 4 5 6 
#
# 1 0.012627 -0.001309 -0.003956 -0.000900 0.004015 0.001042
# 2 -0.001309 0.017449 -0.002581 -0.005513 -0.003856 -0.006211
# 3 -0.003956 -0.002581 0.009701 -0.000365 -0.002610 -0.002311
# 4 -0.000900 -0.005513 -0.000365 0.053931 0.003310 0.006328
# 5 0.004015 -0.003856 -0.002610 0.003310 0.036883 0.009293
# 6 0.001042 -0.006211 -0.002311 0.006328 0.009293 0.042723
#
#
# Mechanical properties :
#
#
# Convention : Reuss Voigt Hill
#
# Bulk Modulus (GPa) = 41.51915 51.39005 46.45460
# Shear Modulus (GPa) = 25.37632 29.39234 27.38433
#
# Velocity S-wave (km/s) = 3.53737 3.80700 3.67466
# Velocity P-wave (km/s) = 6.09565 6.68316 6.39615
#
# Compressibility (1/GPa) = 0.02408527
#
# Stress axis : x y z
#
# Youngs Moduli (GPa) = 79.19311 57.30973 103.08570
#
# Poissons Ratio (x) = 0.07499 0.40782
# Poissons Ratio (y) = 0.10363 0.26609
# Poissons Ratio (z) = 0.31330 0.14793
#
# Static dielectric constant tensor:
#      x y z
#    x 3.650050 0.220190 -0.023450 
#    y 0.220190 3.700260 -0.000740 
#    z -0.023450 -0.000740 3.750130 
# 
# 
# High freq. dielectric constant tensor:
#      x y z
#    x 1.783670 0.015710 0.001530 
#    y 0.015710 1.788260 -0.001610 
#    z 0.001530 -0.001610 1.794100 
# 
# From -- ./inp_files/417906.got.cif
#   From: 2010.06.25/outbox.cif.g09.slc.cpg/sg2_209_cif.got.tgz:417906.got - 2010.06.27 13:26:56.
