data_PCOD8014751
_publ_section_title
;
Structure prediction by ZEFSAII (Michael W. Deem and Ramdas Pophale) SiO2 
 PCOD8014751
Probable space group: P -1
;
_chemical_formula_sum "Si O2"
_cell_formula_units_Z 16
_cell_length_a 16.196223
_cell_length_b 14.210157
_cell_length_c 7.225681
_cell_angle_alpha 55.057609
_cell_angle_beta 128.436049
_cell_angle_gamma 145.258390
_cell_volume 735.158634
_symmetry_space_group_name_H-M "P -1"
_symmetry_group_IT_number 2
_symmetry_cell_setting 'triclinic'
loop_
_space_group_symop_operation_xyz
x,y,z
-x,-y,-z
loop_
_atom_site_type_symbol
_atom_site_label
_atom_site_fract_x
_atom_site_fract_y
_atom_site_fract_z
Si Si1 0.794558 0.973286 0.779514
Si Si2 0.113072 0.301051 0.687519
Si Si3 0.160514 0.589833 0.538970
Si Si4 0.845593 0.857234 0.338709
Si Si5 0.397528 0.290193 0.518832
Si Si6 0.452185 0.750439 0.975861
Si Si7 0.346094 0.936495 0.295933
Si Si8 0.583555 0.506461 0.943509
O O1 0.710912 0.022154 0.673193
O O2 0.946267 0.132923 0.706460
O O3 0.690535 0.824738 0.655023
O O4 0.838473 0.928510 0.064042
O O5 0.134886 0.455677 0.532576
O O6 0.154937 0.277245 0.573818
O O7 0.232635 0.345350 0.953885
O O8 0.285041 0.674618 0.786801
O O9 0.218790 0.736511 0.314593
O O10 0.000000 0.500000 0.500000
O O11 0.706277 0.777427 0.367969
O O12 0.000000 0.000000 0.500000
O O13 0.462826 0.465924 0.343898
O O14 0.532661 0.304700 0.743719
O O15 0.599405 0.952672 0.938694
O O16 0.474607 0.670613 0.938245
O O17 0.500000 0.000000 0.500000
O O18 0.500000 0.500000 0.000000
#
# Coordination Sequence:
#
# PCOD8014751 Si02
#       8
#     2   2   2   2   2   2   2   2
#     4  12  22  41  70 101 142 181 223 287 352 406
#     4  11  22  39  66 104 134 185 230 272 357 404
#     4  10  21  41  71  96 135 183 231 293 337 397
#     4  12  23  39  65 106 144 174 226 279 346 423
#     4  12  23  40  69 103 141 179 224 279 345 424
#     4  10  22  39  64 101 129 179 230 273 343 401
#     4  10  21  42  70  98 132 183 235 280 341 397
#     4  11  22  40  64  97 144 177 222 277 343 415
#
# _framework density 21.764012000000001
#
# number of rings (size 3 to 8) (size 9 to 14) (size 15 to 20)
#    0.000    1.000    5.000    3.000    0.000    0.000 
#    0.000    2.500    5.500    6.000    0.000    0.000 
#    0.000    0.000    0.000    0.000    0.000    0.000 
#
# Total GULP energy -198245.608241 kJ/mol
# GULP energy per Si atom -12390.350515 kJ/mol
# Density = 2.171448 g / cm^3
# Si number density = 21.764012 Si / 1000 Ang^3
#
#
#
# Elastic Constant Matrix: (Units=GPa)
#
#
# Indices 1 2 3 4 5 6 
#
# 1 112.6156 32.2090 41.2722 4.1068 15.4596 -8.8218
# 2 32.2090 100.3757 41.5219 -8.2541 17.6644 -0.9259
# 3 41.2722 41.5219 108.5875 -0.2197 9.0399 -2.3068
# 4 4.1068 -8.2541 -0.2197 39.0970 -3.9077 4.5807
# 5 15.4596 17.6644 9.0399 -3.9077 30.1121 3.1858
# 6 -8.8218 -0.9259 -2.3068 4.5807 3.1858 39.1318
#
#
#
# Elastic Compliance Matrix: (Units=1/GPa)
#
#
# Indices 1 2 3 4 5 6 
#
# 1 0.011522 -0.001704 -0.003289 -0.002397 -0.004559 0.003015
# 2 -0.001704 0.013310 -0.003991 0.002444 -0.005402 -0.000151
# 3 -0.003289 -0.003991 0.011948 -0.000375 0.000407 -0.000121
# 4 -0.002397 0.002444 -0.000375 0.027198 0.003863 -0.004003
# 5 -0.004559 -0.005402 0.000407 0.003863 0.039607 -0.004808
# 6 0.003015 -0.000151 -0.000121 -0.004003 -0.004808 0.027084
#
#
# Mechanical properties :
#
#
# Convention : Reuss Voigt Hill
#
# Bulk Modulus (GPa) = 53.15347 61.28725 57.22036
# Shear Modulus (GPa) = 32.27748 35.43988 33.85868
#
# Velocity S-wave (km/s) = 3.85524 4.03969 3.94854
# Velocity P-wave (km/s) = 6.65528 7.06964 6.86559
#
# Compressibility (1/GPa) = 0.01881345
#
# Stress axis : x y z
#
# Youngs Moduli (GPa) = 86.79162 75.12948 83.69580
#
# Poissons Ratio (x) = 0.12800 0.27528
# Poissons Ratio (y) = 0.14787 0.33400
# Poissons Ratio (z) = 0.28547 0.29981
#
# Static dielectric constant tensor:
#      x y z
#    x 3.722540 0.580920 -0.099780 
#    y 0.580920 3.695470 0.386460 
#    z -0.099780 0.386460 3.885850 
# 
# 
# High freq. dielectric constant tensor:
#      x y z
#    x 1.855830 -0.001080 0.023030 
#    y -0.001080 1.881180 -0.002850 
#    z 0.023030 -0.002850 1.840750 
# 
# From -- ./inp_files/97628.got.cif
#   From: 2010.06.25/outbox.cif.g09.slc.cpg/sg2_49_cif.got.tgz:97628.got - 2010.06.27 13:26:56.
