data_PCOD8014813
_publ_section_title
;
Structure prediction by ZEFSAII (Michael W. Deem and Ramdas Pophale) SiO2 
 PCOD8014813
Probable space group: P -1
;
_chemical_formula_sum "Si O2"
_cell_formula_units_Z 14
_cell_length_a 8.772980
_cell_length_b 14.478064
_cell_length_c 14.955788
_cell_angle_alpha 150.501640
_cell_angle_beta 118.342575
_cell_angle_gamma 81.401104
_cell_volume 653.319629
_symmetry_space_group_name_H-M "P -1"
_symmetry_group_IT_number 2
_symmetry_cell_setting 'triclinic'
loop_
_space_group_symop_operation_xyz
x,y,z
-x,-y,-z
loop_
_atom_site_type_symbol
_atom_site_label
_atom_site_fract_x
_atom_site_fract_y
_atom_site_fract_z
Si Si1 0.284171 0.441551 0.243531
Si Si2 0.326191 0.681906 0.631676
Si Si3 0.741485 0.635348 0.497739
Si Si4 0.300295 0.312766 0.667781
Si Si5 0.224749 0.466453 0.954141
Si Si6 0.921657 0.228994 0.827483
Si Si7 0.789264 0.998412 0.081672
O O1 0.225225 0.483226 0.360025
O O2 0.541446 0.648479 0.470332
O O3 0.127561 0.425971 0.112712
O O4 0.243144 0.191723 0.018134
O O5 0.289256 0.574346 0.630167
O O6 0.211818 0.808096 0.699678
O O7 0.588696 0.870247 0.847308
O O8 0.747964 0.603150 0.365541
O O9 0.976576 0.874238 0.794303
O O10 0.559114 0.472703 0.888515
O O11 0.198971 0.037986 0.399976
O O12 0.190147 0.355847 0.753476
O O13 0.244895 0.706085 0.157227
O O14 0.012969 0.266060 0.783677
#
# Coordination Sequence:
#
# PCOD8014813 Si02
#       7
#     2   2   2   2   2   2   2
#     4  11  23  39  61  90 124 159 198 242 298 354
#     4  10  24  40  60  90 122 160 202 241 292 358
#     4  11  21  39  63  88 124 155 199 248 291 353
#     4  11  22  42  64  91 118 157 199 248 303 349
#     4  10  24  42  65  87 120 156 200 251 298 353
#     4  11  22  42  63  90 121 157 197 247 298 361
#     4  10  21  42  60  84 124 160 200 246 289 348
#
# _framework density 21.429020000000001
#
# number of rings (size 3 to 8) (size 9 to 14) (size 15 to 20)
#    0.000    1.429    2.857    3.000    2.000    2.286 
#    0.000    2.857    0.000    0.000    0.000    0.000 
#    0.000    0.000    0.000    0.000    0.000    0.000 
#
# Total GULP energy -173554.652710 kJ/mol
# GULP energy per Si atom -12396.760908 kJ/mol
# Density = 2.138025 g / cm^3
# Si number density = 21.429020 Si / 1000 Ang^3
#
#
#
# Elastic Constant Matrix: (Units=GPa)
#
#
# Indices 1 2 3 4 5 6 
#
# 1 73.8394 39.6797 29.5125 -0.7750 -3.4666 2.3427
# 2 39.6797 107.0720 38.3716 -8.1487 -21.9431 15.2832
# 3 29.5125 38.3716 70.7774 0.5018 1.0464 11.3871
# 4 -0.7750 -8.1487 0.5018 25.6683 4.1958 -0.3285
# 5 -3.4666 -21.9431 1.0464 4.1958 37.3876 -3.0610
# 6 2.3427 15.2832 11.3871 -0.3285 -3.0610 23.1115
#
#
#
# Elastic Compliance Matrix: (Units=1/GPa)
#
#
# Indices 1 2 3 4 5 6 
#
# 1 0.018642 -0.005990 -0.005222 -0.000989 -0.001163 0.004476
# 2 -0.005990 0.016440 -0.005537 0.003706 0.008310 -0.006383
# 3 -0.005222 -0.005537 0.020437 -0.001637 -0.004656 -0.006518
# 4 -0.000989 0.003706 -0.001637 0.040534 -0.002526 -0.001302
# 5 -0.001163 0.008310 -0.004656 -0.002526 0.032022 0.001122
# 6 0.004476 -0.006383 -0.006518 -0.001302 0.001122 0.050377
#
#
# Mechanical properties :
#
#
# Convention : Reuss Voigt Hill
#
# Bulk Modulus (GPa) = 45.41092 51.86850 48.63971
# Shear Modulus (GPa) = 22.80089 26.84181 24.82135
#
# Velocity S-wave (km/s) = 3.26547 3.54304 3.40708
# Velocity P-wave (km/s) = 5.95441 6.40272 6.18263
#
# Compressibility (1/GPa) = 0.02202114
#
# Stress axis : x y z
#
# Youngs Moduli (GPa) = 53.64329 60.82818 48.92970
#
# Poissons Ratio (x) = 0.36434 0.25550
# Poissons Ratio (y) = 0.32130 0.27095
# Poissons Ratio (z) = 0.28012 0.33683
#
# Static dielectric constant tensor:
#      x y z
#    x 3.987460 -0.055810 0.238850 
#    y -0.055810 3.728520 -0.045480 
#    z 0.238850 -0.045480 3.797710 
# 
# 
# High freq. dielectric constant tensor:
#      x y z
#    x 1.844560 -0.006490 0.015740 
#    y -0.006490 1.835160 -0.004700 
#    z 0.015740 -0.004700 1.830950 
# 
# From -- ./inp_files/299734.got.cif
#   From: 2010.06.25/outbox.cif.g09.slc.cpg/sg2_150_cif.got.tgz:299734.got - 2010.06.27 13:26:56.
