data_PCOD8014133
_publ_section_title
;
Structure prediction by ZEFSAII (Michael W. Deem and Ramdas Pophale) SiO2 
 PCOD8014133
Probable space group: P -1
;
_chemical_formula_sum "Si O2"
_cell_formula_units_Z 16
_cell_length_a 12.270378
_cell_length_b 11.951855
_cell_length_c 11.923098
_cell_angle_alpha 104.618860
_cell_angle_beta 79.440076
_cell_angle_gamma 35.394506
_cell_volume 705.478367
_symmetry_space_group_name_H-M "P -1"
_symmetry_group_IT_number 2
_symmetry_cell_setting 'triclinic'
loop_
_space_group_symop_operation_xyz
x,y,z
-x,-y,-z
loop_
_atom_site_type_symbol
_atom_site_label
_atom_site_fract_x
_atom_site_fract_y
_atom_site_fract_z
Si Si1 0.026318 0.038016 0.383648
Si Si2 0.393967 0.022492 0.126443
Si Si3 0.491897 0.425624 0.307738
Si Si4 0.930480 0.605967 0.344002
Si Si5 0.569083 0.586158 0.224614
Si Si6 0.424600 0.156855 0.708605
Si Si7 0.971571 0.149623 0.851772
Si Si8 0.694687 0.557143 0.842475
O O1 0.748392 0.366946 0.506845
O O2 0.280830 0.878956 0.298980
O O3 0.000000 0.000000 0.500000
O O4 0.069157 0.921892 0.236647
O O5 0.087879 0.340864 0.285953
O O6 0.572177 0.868895 0.165455
O O7 0.500000 0.000000 0.000000
O O8 0.440146 0.848359 0.028706
O O9 0.554446 0.504690 0.306801
O O10 0.403496 0.461168 0.212093
O O11 0.732942 0.122973 0.228976
O O12 0.801056 0.707297 0.271611
O O13 0.152660 0.495040 0.276189
O O14 0.708286 0.849708 0.534553
O O15 0.646453 0.642679 0.261022
O O16 0.773081 0.333529 0.038780
O O17 0.913765 0.316709 0.831458
#
# Coordination Sequence:
#
# PCOD8014133 Si02
#       8
#     2   2   2   2   2   2   2   2
#     4  10  21  41  65  90 139 175 216 265 322 393
#     4  10  23  42  69  94 127 170 222 276 329 391
#     4  11  25  42  66 100 136 174 226 262 326 410
#     4  10  25  44  68  94 133 172 225 277 331 395
#     4  11  23  42  68  98 138 172 215 275 328 397
#     4  11  23  44  68  98 131 173 220 277 335 393
#     4  12  23  41  67  98 134 179 216 271 332 387
#     4  11  23  42  67  95 132 174 220 272 330 388
#
# _framework density 22.679646999999999
#
# number of rings (size 3 to 8) (size 9 to 14) (size 15 to 20)
#    0.000    1.250    3.750    2.250    3.500    4.000 
#    2.250    1.250    0.000    0.000    0.000    0.000 
#    0.000    0.000    0.000    0.000    0.000    0.000 
#
# Total GULP energy -198265.369530 kJ/mol
# GULP energy per Si atom -12391.585596 kJ/mol
# Density = 2.262803 g / cm^3
# Si number density = 22.679647 Si / 1000 Ang^3
#
#
#
# Elastic Constant Matrix: (Units=GPa)
#
#
# Indices 1 2 3 4 5 6 
#
# 1 64.7209 14.4549 12.8733 2.7826 9.6510 1.9288
# 2 14.4549 104.7009 17.3673 29.0813 5.0862 4.8884
# 3 12.8733 17.3673 84.5408 31.7082 21.1910 5.8972
# 4 2.7826 29.0813 31.7082 38.8093 -5.4627 4.7213
# 5 9.6510 5.0862 21.1910 -5.4627 30.0174 6.5569
# 6 1.9288 4.8884 5.8972 4.7213 6.5569 24.3046
#
#
#
# Elastic Compliance Matrix: (Units=1/GPa)
#
#
# Indices 1 2 3 4 5 6 
#
# 1 0.016764 -0.002234 -0.001694 0.001314 -0.003632 0.000255
# 2 -0.002234 0.013824 0.005830 -0.016439 -0.009087 0.001627
# 3 -0.001694 0.005830 0.030828 -0.034387 -0.029820 0.006207
# 4 0.001314 -0.016439 -0.034387 0.073938 0.043259 -0.014488
# 5 -0.003632 -0.009087 -0.029820 0.043259 0.068793 -0.017611
# 6 0.000255 0.001627 0.006207 -0.014488 -0.017611 0.046856
#
#
# Mechanical properties :
#
#
# Convention : Reuss Voigt Hill
#
# Bulk Modulus (GPa) = 15.33236 38.15042 26.74139
# Shear Modulus (GPa) = 18.59162 32.57741 25.58452
#
# Velocity S-wave (km/s) = 2.86623 3.79412 3.36234
# Velocity P-wave (km/s) = 4.21056 6.00431 5.18558
#
# Compressibility (1/GPa) = 0.06522151
#
# Stress axis : x y z
#
# Youngs Moduli (GPa) = 59.65040 72.33890 32.43805
#
# Poissons Ratio (x) = 0.16159 0.05494
# Poissons Ratio (y) = 0.13325 -0.18912
# Poissons Ratio (z) = 0.10104 -0.42176
#
# Static dielectric constant tensor:
#      x y z
#    x 3.786440 -0.007710 0.197590 
#    y -0.007710 4.330850 0.559840 
#    z 0.197590 0.559840 4.541500 
# 
# 
# High freq. dielectric constant tensor:
#      x y z
#    x 1.869030 -0.004230 0.016780 
#    y -0.004230 1.893290 0.022010 
#    z 0.016780 0.022010 1.912840 
# 
# From -- ./inp_files/428548.got.cif
#   From: 2010.06.25/outbox.cif.g09.slc.cpg/sg2_215_cif.got.tgz:428548.got - 2010.06.27 13:26:56.
