data_PCOD8014189
_publ_section_title
;
Structure prediction by ZEFSAII (Michael W. Deem and Ramdas Pophale) SiO2 
 PCOD8014189
Probable space group: P -1
;
_chemical_formula_sum "Si O2"
_cell_formula_units_Z 16
_cell_length_a 14.721259
_cell_length_b 10.907985
_cell_length_c 8.133494
_cell_angle_alpha 108.076325
_cell_angle_beta 96.211652
_cell_angle_gamma 135.712555
_cell_volume 752.000587
_symmetry_space_group_name_H-M "P -1"
_symmetry_group_IT_number 2
_symmetry_cell_setting 'triclinic'
loop_
_space_group_symop_operation_xyz
x,y,z
-x,-y,-z
loop_
_atom_site_type_symbol
_atom_site_label
_atom_site_fract_x
_atom_site_fract_y
_atom_site_fract_z
Si Si1 0.187121 0.269516 0.082951
Si Si2 0.264068 0.748716 0.011894
Si Si3 0.719225 0.046120 0.600829
Si Si4 0.999340 0.618553 0.423486
Si Si5 0.453590 0.735924 0.199848
Si Si6 0.353596 0.261926 0.328036
Si Si7 0.660469 0.936157 0.034291
Si Si8 0.032860 0.859127 0.779276
O O1 0.333460 0.493214 0.123399
O O2 0.228439 0.219526 0.219250
O O3 0.083198 0.264915 0.140455
O O4 0.097962 0.078024 0.854434
O O5 0.226847 0.798592 0.179749
O O6 0.371937 0.758262 0.099119
O O7 0.112067 0.520718 0.810582
O O8 0.348435 0.922753 0.957001
O O9 0.831767 0.183318 0.527876
O O10 0.549635 0.891586 0.441196
O O11 0.718501 0.897260 0.600762
O O12 0.954380 0.704150 0.540990
O O13 0.000000 0.500000 0.500000
O O14 0.574564 0.807372 0.131255
O O15 0.500000 0.500000 0.500000
O O16 0.416460 0.232846 0.193111
O O17 0.835371 0.094022 0.135442
#
# Coordination Sequence:
#
# PCOD8014189 Si02
#       8
#     2   2   2   2   2   2   2   2
#     4  10  24  41  69 100 129 178 218 285 330 399
#     4  11  25  41  63 102 138 175 225 275 336 404
#     4  11  24  43  68  99 136 179 223 278 340 401
#     4  12  24  43  70  98 134 184 225 272 336 404
#     4  12  23  42  69 102 131 174 228 279 341 390
#     4  10  21  41  65  94 133 171 222 273 343 395
#     4  10  22  42  66  93 135 176 218 283 329 402
#     4  10  22  44  66  92 136 172 221 269 335 396
#
# _framework density 21.276578000000001
#
# number of rings (size 3 to 8) (size 9 to 14) (size 15 to 20)
#    0.000    1.250    3.750    1.125    1.750    8.000 
#    2.250    1.250    0.000    0.000    0.000    0.000 
#    0.000    0.000    0.000    0.000    0.000    0.000 
#
# Total GULP energy -198337.508139 kJ/mol
# GULP energy per Si atom -12396.094259 kJ/mol
# Density = 2.122815 g / cm^3
# Si number density = 21.276578 Si / 1000 Ang^3
#
#
#
# Elastic Constant Matrix: (Units=GPa)
#
#
# Indices 1 2 3 4 5 6 
#
# 1 105.5647 54.8723 44.4835 0.2687 5.0069 -4.4088
# 2 54.8723 152.6228 55.7207 2.3752 -3.2270 2.3766
# 3 44.4835 55.7207 128.5750 20.3477 -13.7225 -4.9606
# 4 0.2687 2.3752 20.3477 33.0679 -6.0026 -0.4002
# 5 5.0069 -3.2270 -13.7225 -6.0026 38.1384 -3.5298
# 6 -4.4088 2.3766 -4.9606 -0.4002 -3.5298 25.7434
#
#
#
# Elastic Compliance Matrix: (Units=1/GPa)
#
#
# Indices 1 2 3 4 5 6 
#
# 1 0.012955 -0.003492 -0.003498 0.001802 -0.002832 0.001507
# 2 -0.003492 0.008874 -0.002878 0.001171 0.000179 -0.001929
# 3 -0.003498 -0.002878 0.011709 -0.006278 0.003656 0.002326
# 4 0.001802 0.001171 -0.006278 0.034556 0.003037 -0.000055
# 5 -0.002832 0.000179 0.003656 0.003037 0.028789 0.004198
# 6 0.001507 -0.001929 0.002326 -0.000055 0.004198 0.040304
#
#
# Mechanical properties :
#
#
# Convention : Reuss Voigt Hill
#
# Bulk Modulus (GPa) = 72.45910 77.43508 74.94709
# Shear Modulus (GPa) = 30.95551 34.83568 32.89559
#
# Velocity S-wave (km/s) = 3.81847 4.05072 3.93631
# Velocity P-wave (km/s) = 7.31920 7.63880 7.48071
#
# Compressibility (1/GPa) = 0.01380089
#
# Stress axis : x y z
#
# Youngs Moduli (GPa) = 77.19295 112.68948 85.40784
#
# Poissons Ratio (x) = 0.39350 0.29875
# Poissons Ratio (y) = 0.26955 0.24583
# Poissons Ratio (z) = 0.27002 0.32435
#
# Static dielectric constant tensor:
#      x y z
#    x 4.714050 -0.093390 0.814580 
#    y -0.093390 3.862850 0.093970 
#    z 0.814580 0.093970 5.382490 
# 
# 
# High freq. dielectric constant tensor:
#      x y z
#    x 1.822680 -0.003480 -0.003550 
#    y -0.003480 1.833230 0.013090 
#    z -0.003550 0.013090 1.849340 
# 
# From -- ./inp_files/308043.got.cif
#   From: 2010.06.25/outbox.cif.g09.slc.cpg/sg2_155_cif.got.tgz:308043.got - 2010.06.27 13:26:56.
