data_PCOD8014948
_publ_section_title
;
Structure prediction by ZEFSAII (Michael W. Deem and Ramdas Pophale) SiO2 
 PCOD8014948
Probable space group: P -1
;
_chemical_formula_sum "Si O2"
_cell_formula_units_Z 10
_cell_length_a 12.151021
_cell_length_b 15.859518
_cell_length_c 8.858508
_cell_angle_alpha 46.641949
_cell_angle_beta 39.389519
_cell_angle_gamma 26.786534
_cell_volume 488.182785
_symmetry_space_group_name_H-M "P -1"
_symmetry_group_IT_number 2
_symmetry_cell_setting 'triclinic'
loop_
_space_group_symop_operation_xyz
x,y,z
-x,-y,-z
loop_
_atom_site_type_symbol
_atom_site_label
_atom_site_fract_x
_atom_site_fract_y
_atom_site_fract_z
Si Si1 0.682117 0.026473 0.606626
Si Si2 0.749011 0.420629 0.032767
Si Si3 0.302844 0.020465 0.010931
Si Si4 0.752305 0.177888 0.873251
Si Si5 0.512984 0.325552 0.254849
O O1 0.990215 0.885512 0.388605
O O2 0.684203 0.048211 0.756729
O O3 0.461614 0.232400 0.511874
O O4 0.585256 0.945871 0.772355
O O5 0.536595 0.604908 0.139112
O O6 0.619889 0.360859 0.220499
O O7 0.760562 0.481570 0.781177
O O8 0.052795 0.247157 0.996656
O O9 0.256834 0.949140 0.019432
O O10 0.759776 0.174345 0.053453
#
# Coordination Sequence:
#
# PCOD8014948 Si02
#       5
#     2   2   2   2   2
#     4  11  23  40  62  89 124 155 197 252 287 355
#     4   9  21  40  62  91 118 153 203 242 297 354
#     4  11  24  41  59  91 123 157 198 240 304 349
#     4  10  21  42  64  85 118 163 196 243 296 354
#     4   9  20  40  64  89 117 154 204 244 291 352
#
# _framework density 20.484133
#
# number of rings (size 3 to 8) (size 9 to 14) (size 15 to 20)
#    1.200    0.800    2.000    1.200    0.000    2.400 
#    3.600    2.000    0.000    0.000    0.000    0.000 
#    0.000    0.000    0.000    0.000    0.000    0.000 
#
# Total GULP energy -123901.334662 kJ/mol
# GULP energy per Si atom -12390.133466 kJ/mol
# Density = 2.043751 g / cm^3
# Si number density = 20.484133 Si / 1000 Ang^3
#
#
#
# Elastic Constant Matrix: (Units=GPa)
#
#
# Indices 1 2 3 4 5 6 
#
# 1 45.2860 22.1217 38.4407 -5.8433 -6.8128 -8.1710
# 2 22.1217 101.0170 38.6552 -11.5911 -4.0793 1.8456
# 3 38.4407 38.6552 100.8637 -21.9804 0.3684 -5.2012
# 4 -5.8433 -11.5911 -21.9804 20.9194 -10.5349 3.2510
# 5 -6.8128 -4.0793 0.3684 -10.5349 23.9467 -3.4094
# 6 -8.1710 1.8456 -5.2012 3.2510 -3.4094 20.1855
#
#
#
# Elastic Compliance Matrix: (Units=1/GPa)
#
#
# Indices 1 2 3 4 5 6 
#
# 1 0.039481 -0.003459 -0.013121 -0.000621 0.012731 0.015167
# 2 -0.003459 0.012402 -0.002447 0.005417 0.003048 -0.003522
# 3 -0.013121 -0.002447 0.019470 0.017206 0.002783 -0.002372
# 4 -0.000621 0.005417 0.017206 0.089011 0.039064 -0.004051
# 5 0.012731 0.003048 0.002783 0.039064 0.064494 0.010194
# 6 0.015167 -0.003522 -0.002372 -0.004051 0.010194 0.057765
#
#
# Mechanical properties :
#
#
# Convention : Reuss Voigt Hill
#
# Bulk Modulus (GPa) = 30.03095 49.51133 39.77114
# Shear Modulus (GPa) = 15.07034 22.87360 18.97197
#
# Velocity S-wave (km/s) = 2.71534 3.34526 3.04662
# Velocity P-wave (km/s) = 4.95209 6.25652 5.64213
#
# Compressibility (1/GPa) = 0.03329898
#
# Stress axis : x y z
#
# Youngs Moduli (GPa) = 25.32867 80.63069 51.36158
#
# Poissons Ratio (x) = 0.27893 0.67390
# Poissons Ratio (y) = 0.08762 0.12568
# Poissons Ratio (z) = 0.33233 0.19730
#
# Static dielectric constant tensor:
#      x y z
#    x 3.489040 -0.112680 0.046800 
#    y -0.112680 3.862640 -0.183790 
#    z 0.046800 -0.183790 3.464330 
# 
# 
# High freq. dielectric constant tensor:
#      x y z
#    x 1.788260 -0.003540 0.001080 
#    y -0.003540 1.804300 -0.020740 
#    z 0.001080 -0.020740 1.782440 
# 
# From -- ./inp_files/146816.got.cif
#   From: 2010.06.25/outbox.cif.g09.slc.cpg/sg2_74_cif.got.tgz:146816.got - 2010.06.27 13:26:56.
