data_PCOD8014853
_publ_section_title
;
Structure prediction by ZEFSAII (Michael W. Deem and Ramdas Pophale) SiO2 
 PCOD8014853
Probable space group: P -1
;
_chemical_formula_sum "Si O2"
_cell_formula_units_Z 16
_cell_length_a 6.481828
_cell_length_b 20.606342
_cell_length_c 19.545624
_cell_angle_alpha 153.223197
_cell_angle_beta 139.405932
_cell_angle_gamma 40.458341
_cell_volume 734.019406
_symmetry_space_group_name_H-M "P -1"
_symmetry_group_IT_number 2
_symmetry_cell_setting 'triclinic'
loop_
_space_group_symop_operation_xyz
x,y,z
-x,-y,-z
loop_
_atom_site_type_symbol
_atom_site_label
_atom_site_fract_x
_atom_site_fract_y
_atom_site_fract_z
Si Si1 0.306639 0.583261 0.724605
Si Si2 0.761503 0.091006 0.724239
Si Si3 0.248118 0.592918 0.223320
Si Si4 0.033303 0.079871 0.514325
Si Si5 0.204776 0.602736 0.563248
Si Si6 0.524226 0.581130 0.012319
Si Si7 0.833043 0.095321 0.233409
Si Si8 0.126609 0.097911 0.068897
O O1 0.652754 0.516320 0.788417
O O2 0.357061 0.612737 0.685624
O O3 0.104638 0.462835 0.572508
O O4 0.131446 0.743748 0.862868
O O5 0.390305 0.106379 0.622736
O O6 0.764149 0.258545 0.907281
O O7 0.002803 0.026413 0.659096
O O8 0.880570 0.972564 0.703842
O O9 0.252220 0.760216 0.405475
O O10 0.880042 0.608695 0.120765
O O11 0.503435 0.522959 0.158713
O O12 0.000000 0.000000 0.500000
O O13 0.500000 0.500000 0.500000
O O14 0.087986 0.761841 0.646003
O O15 0.500000 0.500000 0.000000
O O16 0.470652 0.128657 0.209350
O O17 0.833793 0.975998 0.063787
O O18 0.000000 0.000000 0.000000
#
# Coordination Sequence:
#
# PCOD8014853 Si02
#       8
#     2   2   2   2   2   2   2   2
#     4  11  24  41  63  93 126 164 209 255 313 366
#     4  10  23  39  62  91 121 156 206 246 305 370
#     4  10  23  38  63  91 120 157 205 249 305 366
#     4  10  22  40  59  91 123 153 198 253 300 367
#     4  11  24  41  61  90 130 162 208 258 302 378
#     4  10  21  42  62  89 123 159 205 254 300 371
#     4  11  24  41  65  91 125 167 206 255 315 365
#     4  11  23  42  61  90 126 161 210 256 300 370
#
# _framework density 21.797789000000002
#
# number of rings (size 3 to 8) (size 9 to 14) (size 15 to 20)
#    0.000    1.500    2.500    1.500    3.500    3.000 
#    0.000    0.000    0.000    0.000    0.000    0.000 
#    0.000    0.000    0.000    0.000    0.000    0.000 
#
# Total GULP energy -198336.306349 kJ/mol
# GULP energy per Si atom -12396.019147 kJ/mol
# Density = 2.174818 g / cm^3
# Si number density = 21.797789 Si / 1000 Ang^3
#
#
#
# Elastic Constant Matrix: (Units=GPa)
#
#
# Indices 1 2 3 4 5 6 
#
# 1 93.2825 33.1421 40.8256 20.5596 -24.2106 20.1560
# 2 33.1421 151.2540 46.0468 33.8616 -22.0745 18.4595
# 3 40.8256 46.0468 92.5457 35.5945 -30.8367 -0.7185
# 4 20.5596 33.8616 35.5945 42.1456 -4.7683 0.6205
# 5 -24.2106 -22.0745 -30.8367 -4.7683 43.0554 5.9478
# 6 20.1560 18.4595 -0.7185 0.6205 5.9478 36.6840
#
#
#
# Elastic Compliance Matrix: (Units=1/GPa)
#
#
# Indices 1 2 3 4 5 6 
#
# 1 0.018041 0.001166 -0.003305 -0.005706 0.009400 -0.011991
# 2 0.001166 0.009691 -0.001163 -0.006726 0.004906 -0.006222
# 3 -0.003305 -0.001163 0.022727 -0.015311 0.011966 0.001165
# 4 -0.005706 -0.006726 -0.015311 0.043158 -0.013914 0.007746
# 5 0.009400 0.004906 0.011966 -0.013914 0.039940 -0.013639
# 6 -0.011991 -0.006222 0.001165 0.007746 -0.013639 0.039082
#
#
# Mechanical properties :
#
#
# Convention : Reuss Voigt Hill
#
# Bulk Modulus (GPa) = 22.80234 64.12347 43.46290
# Shear Modulus (GPa) = 25.79160 38.84818 32.31989
#
# Velocity S-wave (km/s) = 3.44353 4.22620 3.85478
# Velocity P-wave (km/s) = 5.12778 7.30039 6.30832
#
# Compressibility (1/GPa) = 0.04385516
#
# Stress axis : x y z
#
# Youngs Moduli (GPa) = 55.43051 103.18834 44.00026
#
# Poissons Ratio (x) = -0.12031 0.14542
# Poissons Ratio (y) = -0.06463 0.05116
# Poissons Ratio (z) = 0.18319 0.11998
#
# Static dielectric constant tensor:
#      x y z
#    x 4.006350 -0.210480 -0.457290 
#    y -0.210480 3.933920 0.148230 
#    z -0.457290 0.148230 4.165050 
# 
# 
# High freq. dielectric constant tensor:
#      x y z
#    x 1.855630 0.005290 -0.024160 
#    y 0.005290 1.859540 0.019140 
#    z -0.024160 0.019140 1.856780 
# 
# From -- ./inp_files/78280.got.cif
#   From: 2010.06.25/outbox.cif.g09.slc.cpg/sg2_40_cif.got.tgz:78280.got - 2010.06.27 13:26:56.
