data_PCOD8014663
_publ_section_title
;
Structure prediction by ZEFSAII (Michael W. Deem and Ramdas Pophale) SiO2 
 PCOD8014663
Probable space group: P -1
;
_chemical_formula_sum "Si O2"
_cell_formula_units_Z 16
_cell_length_a 15.555447
_cell_length_b 6.689362
_cell_length_c 18.578509
_cell_angle_alpha 41.904799
_cell_angle_beta 34.449392
_cell_angle_gamma 43.520047
_cell_volume 697.919091
_symmetry_space_group_name_H-M "P -1"
_symmetry_group_IT_number 2
_symmetry_cell_setting 'triclinic'
loop_
_space_group_symop_operation_xyz
x,y,z
-x,-y,-z
loop_
_atom_site_type_symbol
_atom_site_label
_atom_site_fract_x
_atom_site_fract_y
_atom_site_fract_z
Si Si1 0.161305 0.381114 0.736174
Si Si2 0.613317 0.361538 0.559471
Si Si3 0.176887 0.299729 0.913330
Si Si4 0.091037 0.309567 0.274987
Si Si5 0.176667 0.642991 0.449927
Si Si6 0.650802 0.203323 0.303203
Si Si7 0.540084 0.771635 0.713294
Si Si8 0.632541 0.392255 0.997621
O O1 0.274190 0.609650 0.592379
O O2 0.174922 0.242315 0.843741
O O3 0.982537 0.570704 0.785233
O O4 0.212582 0.128480 0.701130
O O5 0.712996 0.266743 0.589423
O O6 0.487457 0.714694 0.561982
O O7 0.523298 0.105210 0.673533
O O8 0.283453 0.502147 0.815547
O O9 0.000000 0.500000 0.000000
O O10 0.244244 0.961560 0.995879
O O11 0.258971 0.377034 0.146430
O O12 0.968074 0.458116 0.385983
O O13 0.112893 0.940765 0.362460
O O14 0.278274 0.371940 0.399567
O O15 0.579384 0.179878 0.281702
O O16 0.475849 0.556504 0.869800
O O17 0.500000 0.500000 0.000000
#
# Coordination Sequence:
#
# PCOD8014663 Si02
#       8
#     2   2   2   2   2   2   2   2
#     4  11  24  43  69 101 136 184 226 283 346 411
#     4  10  21  41  70 102 136 171 232 285 345 409
#     4  12  28  45  66 101 146 184 234 289 342 421
#     4  10  23  44  72  99 142 182 232 280 350 418
#     4   9  22  45  70 102 136 181 228 290 339 415
#     4  11  22  42  68  97 135 178 225 285 344 406
#     4  11  23  42  72 101 139 179 226 290 349 407
#     4  12  26  46  71 103 140 185 233 289 345 419
#
# _framework density 22.925293
#
# number of rings (size 3 to 8) (size 9 to 14) (size 15 to 20)
#    0.000    1.250    2.500    1.875    3.500    8.500 
#    0.000   10.000    0.000    0.000    0.000    0.000 
#    0.000    0.000    0.000    0.000    0.000    0.000 
#
# Total GULP energy -198247.968151 kJ/mol
# GULP energy per Si atom -12390.498009 kJ/mol
# Density = 2.287311 g / cm^3
# Si number density = 22.925293 Si / 1000 Ang^3
#
#
#
# Elastic Constant Matrix: (Units=GPa)
#
#
# Indices 1 2 3 4 5 6 
#
# 1 113.1838 42.7041 38.1859 -4.8614 -2.2702 -9.7729
# 2 42.7041 100.2408 23.7236 16.1778 7.2721 -8.4344
# 3 38.1859 23.7236 110.9979 9.4543 -3.4834 5.3841
# 4 -4.8614 16.1778 9.4543 38.6429 -4.6430 3.2526
# 5 -2.2702 7.2721 -3.4834 -4.6430 29.5152 -7.1187
# 6 -9.7729 -8.4344 5.3841 3.2526 -7.1187 37.6572
#
#
#
# Elastic Compliance Matrix: (Units=1/GPa)
#
#
# Indices 1 2 3 4 5 6 
#
# 1 0.012570 -0.005276 -0.003642 0.004839 0.003274 0.002802
# 2 -0.005276 0.014025 -0.000808 -0.007035 -0.004675 0.001612
# 3 -0.003642 -0.000808 0.010774 -0.002527 0.000212 -0.002408
# 4 0.004839 -0.007035 -0.002527 0.030931 0.006327 -0.001434
# 5 0.003274 -0.004675 0.000212 0.006327 0.037844 0.006380
# 6 0.002802 0.001612 -0.002408 -0.001434 0.006380 0.029318
#
#
# Mechanical properties :
#
#
# Convention : Reuss Voigt Hill
#
# Bulk Modulus (GPa) = 55.81481 59.29440 57.55460
# Shear Modulus (GPa) = 31.07814 35.81697 33.44755
#
# Velocity S-wave (km/s) = 3.68588 3.95693 3.82380
# Velocity P-wave (km/s) = 6.52024 6.84081 6.68245
#
# Compressibility (1/GPa) = 0.01791639
#
# Stress axis : x y z
#
# Youngs Moduli (GPa) = 79.55523 71.30225 92.81908
#
# Poissons Ratio (x) = 0.37616 0.33806
# Poissons Ratio (y) = 0.41970 0.07502
# Poissons Ratio (z) = 0.28975 0.05763
#
# Static dielectric constant tensor:
#      x y z
#    x 4.121830 -0.241850 -0.139110 
#    y -0.241850 4.629690 0.042480 
#    z -0.139110 0.042480 4.803310 
# 
# 
# High freq. dielectric constant tensor:
#      x y z
#    x 1.902970 -0.019140 -0.006260 
#    y -0.019140 1.906440 0.009430 
#    z -0.006260 0.009430 1.911850 
# 
# From -- ./inp_files/571587.got.cif
#   From: 2010.06.25/outbox.cif.g09.slc.cpg/sg2_286_cif.got.tgz:571587.got - 2010.06.27 13:26:56.
