data_PCOD8014505
_publ_section_title
;
Structure prediction by ZEFSAII (Michael W. Deem and Ramdas Pophale) SiO2 
 PCOD8014505
Probable space group: P -1
;
_chemical_formula_sum "Si O2"
_cell_formula_units_Z 16
_cell_length_a 9.801516
_cell_length_b 9.479971
_cell_length_c 11.204675
_cell_angle_alpha 90.789331
_cell_angle_beta 98.805766
_cell_angle_gamma 45.742678
_cell_volume 730.474978
_symmetry_space_group_name_H-M "P -1"
_symmetry_group_IT_number 2
_symmetry_cell_setting 'triclinic'
loop_
_space_group_symop_operation_xyz
x,y,z
-x,-y,-z
loop_
_atom_site_type_symbol
_atom_site_label
_atom_site_fract_x
_atom_site_fract_y
_atom_site_fract_z
Si Si1 0.484266 0.369477 0.251403
Si Si2 0.598222 0.577317 0.012903
Si Si3 0.914957 0.019159 0.363475
Si Si4 0.539771 0.660915 0.261756
Si Si5 0.049847 0.661118 0.249944
Si Si6 0.005292 0.166420 0.008665
Si Si7 0.161164 0.068231 0.270924
Si Si8 0.045592 0.536113 0.633089
O O1 0.476165 0.298574 0.118988
O O2 0.481029 0.540411 0.247345
O O3 0.282870 0.469929 0.288268
O O4 0.679949 0.180798 0.341545
O O5 0.823462 0.378257 0.042219
O O6 0.500000 0.500000 0.000000
O O7 0.545951 0.708077 0.123964
O O8 0.992170 0.807633 0.349218
O O9 0.000000 0.000000 0.500000
O O10 0.995273 0.069200 0.274572
O O11 0.747870 0.533779 0.349405
O O12 0.379868 0.856613 0.323108
O O13 0.963333 0.788186 0.116947
O O14 0.946621 0.587195 0.263311
O O15 0.164874 0.093873 0.128483
O O16 0.000000 0.000000 0.000000
O O17 0.121415 0.232114 0.349856
O O18 0.000000 0.500000 0.500000
#
# Coordination Sequence:
#
# PCOD8014505 Si02
#       8
#     2   2   2   2   2   2   2   2
#     4  10  21  41  68 101 134 169 224 289 330 397
#     4   9  17  33  62 100 131 163 215 275 337 390
#     4  12  24  40  68 102 132 178 234 275 328 404
#     4  11  22  41  71  99 129 183 227 270 343 408
#     4  11  26  42  68 106 133 175 229 283 341 392
#     4  11  19  38  69 102 137 165 224 288 336 401
#     4  12  23  43  72  97 130 188 222 274 348 397
#     4  12  28  49  65  94 147 185 224 279 335 406
#
# _framework density 21.903555999999998
#
# number of rings (size 3 to 8) (size 9 to 14) (size 15 to 20)
#    0.000    1.000    5.000    3.000    1.750    3.500 
#    0.000    0.625    0.000    0.000    0.000    0.000 
#    0.000    0.000    0.000    0.000    0.000    0.000 
#
# Total GULP energy -198262.826598 kJ/mol
# GULP energy per Si atom -12391.426662 kJ/mol
# Density = 2.185370 g / cm^3
# Si number density = 21.903556 Si / 1000 Ang^3
#
#
#
# Elastic Constant Matrix: (Units=GPa)
#
#
# Indices 1 2 3 4 5 6 
#
# 1 51.4190 13.9620 5.8980 1.1586 -4.8036 -0.7923
# 2 13.9620 102.2857 29.8774 19.7891 2.6103 -14.9511
# 3 5.8980 29.8774 87.7578 8.9531 13.6433 -12.7014
# 4 1.1586 19.7891 8.9531 35.6127 4.3284 5.9662
# 5 -4.8036 2.6103 13.6433 4.3284 27.3957 -5.0507
# 6 -0.7923 -14.9511 -12.7014 5.9662 -5.0507 33.4665
#
#
#
# Elastic Compliance Matrix: (Units=1/GPa)
#
#
# Indices 1 2 3 4 5 6 
#
# 1 0.020735 -0.002837 -0.001289 0.000835 0.004274 -0.000770
# 2 -0.002837 0.013492 -0.002968 -0.008028 0.002179 0.006594
# 3 -0.001289 -0.002968 0.014097 -0.001680 -0.006076 0.003376
# 4 0.000835 -0.008028 -0.001680 0.035582 -0.005985 -0.011451
# 5 0.004274 0.002179 -0.006076 -0.005985 0.042158 0.006198
# 6 -0.000770 0.006594 0.003376 -0.011451 0.006198 0.037066
#
#
# Mechanical properties :
#
#
# Convention : Reuss Voigt Hill
#
# Bulk Modulus (GPa) = 29.29466 37.88194 33.58830
# Shear Modulus (GPa) = 26.49758 32.07667 29.28713
#
# Velocity S-wave (km/s) = 3.48190 3.83097 3.66060
# Velocity P-wave (km/s) = 5.43767 6.07460 5.76494
#
# Compressibility (1/GPa) = 0.03413592
#
# Stress axis : x y z
#
# Youngs Moduli (GPa) = 48.22799 74.11641 70.93869
#
# Poissons Ratio (x) = 0.21027 0.09142
# Poissons Ratio (y) = 0.13683 0.21056
# Poissons Ratio (z) = 0.06215 0.21999
#
# Static dielectric constant tensor:
#      x y z
#    x 3.855870 -0.190910 -0.101650 
#    y -0.190910 4.170910 0.530620 
#    z -0.101650 0.530620 5.132520 
# 
# 
# High freq. dielectric constant tensor:
#      x y z
#    x 1.833190 -0.018810 0.002980 
#    y -0.018810 1.863420 0.010710 
#    z 0.002980 0.010710 1.864910 
# 
# From -- ./inp_files/354501.got.cif
#   From: 2010.06.25/outbox.cif.g09.slc.cpg/sg2_178_cif.got.tgz:354501.got - 2010.06.27 13:26:56.
