data_PCOD8014413
_publ_section_title
;
Structure prediction by ZEFSAII (Michael W. Deem and Ramdas Pophale) SiO2 
 PCOD8014413
Probable space group: P -1
;
_chemical_formula_sum "Si O2"
_cell_formula_units_Z 14
_cell_length_a 9.417069
_cell_length_b 17.164897
_cell_length_c 16.681874
_cell_angle_alpha 23.674871
_cell_angle_beta 131.630072
_cell_angle_gamma 114.763483
_cell_volume 627.526047
_symmetry_space_group_name_H-M "P -1"
_symmetry_group_IT_number 2
_symmetry_cell_setting 'triclinic'
loop_
_space_group_symop_operation_xyz
x,y,z
-x,-y,-z
loop_
_atom_site_type_symbol
_atom_site_label
_atom_site_fract_x
_atom_site_fract_y
_atom_site_fract_z
Si Si1 0.480817 0.883074 0.976191
Si Si2 0.645861 0.835764 0.916417
Si Si3 0.949830 0.109174 0.226344
Si Si4 0.255151 0.429316 0.185470
Si Si5 0.507770 0.255081 0.714361
Si Si6 0.928423 0.203845 0.958531
Si Si7 0.590668 0.354098 0.088148
O O1 0.666800 0.743447 0.102387
O O2 0.225716 0.962102 0.775037
O O3 0.431685 0.138181 0.735301
O O4 0.576915 0.728784 0.240143
O O5 0.597782 0.683290 0.983583
O O6 0.443195 0.135729 0.552258
O O7 0.909217 0.759424 0.068149
O O8 0.796574 0.398958 0.919997
O O9 0.071456 0.057859 0.231711
O O10 0.158599 0.927194 0.540573
O O11 0.370555 0.488825 0.103340
O O12 0.000000 0.500000 0.000000
O O13 0.807284 0.096573 0.967661
O O14 0.334330 0.540623 0.350810
O O15 0.500000 0.500000 0.000000
#
# Coordination Sequence:
#
# PCOD8014413 Si02
#       7
#     2   2   2   2   2   2   2
#     4  10  21  41  67  93 126 170 219 266 327 384
#     4  12  25  42  65 102 134 171 213 272 327 379
#     4  11  22  43  66  93 133 177 216 260 324 397
#     4  12  24  42  66  92 134 179 217 257 314 389
#     4   9  21  44  66  92 126 172 219 271 323 393
#     4  10  23  40  66  95 126 172 219 266 329 383
#     4  12  27  42  62 101 139 169 217 269 319 388
#
# _framework density 22.309830000000002
#
# number of rings (size 3 to 8) (size 9 to 14) (size 15 to 20)
#    0.000    1.143    2.857    3.000    4.000    2.286 
#    2.571    0.000    0.000    0.000    0.000    0.000 
#    0.000    0.000    0.000    0.000    0.000    0.000 
#
# Total GULP energy -173477.916620 kJ/mol
# GULP energy per Si atom -12391.279759 kJ/mol
# Density = 2.225905 g / cm^3
# Si number density = 22.309830 Si / 1000 Ang^3
#
#
#
# Elastic Constant Matrix: (Units=GPa)
#
#
# Indices 1 2 3 4 5 6 
#
# 1 150.3171 61.1568 -4.9578 8.2435 13.3611 9.1608
# 2 61.1568 155.7500 21.1687 -5.0293 8.7362 15.1462
# 3 -4.9578 21.1687 36.2800 -3.0828 7.1806 7.2755
# 4 8.2435 -5.0293 -3.0828 30.6992 4.0751 -0.9683
# 5 13.3611 8.7362 7.1806 4.0751 26.7130 2.7149
# 6 9.1608 15.1462 7.2755 -0.9683 2.7149 39.8297
#
#
#
# Elastic Compliance Matrix: (Units=1/GPa)
#
#
# Indices 1 2 3 4 5 6 
#
# 1 0.008870 -0.003797 0.004254 -0.002095 -0.003901 -0.001158
# 2 -0.003797 0.008815 -0.005266 0.001848 0.000302 -0.001493
# 3 0.004254 -0.005266 0.034228 0.002556 -0.009537 -0.004516
# 4 -0.002095 0.001848 0.002556 0.034450 -0.005552 0.000528
# 5 -0.003901 0.000302 -0.009537 -0.005552 0.042751 -0.000525
# 6 -0.001158 -0.001493 -0.004516 0.000528 -0.000525 0.026814
#
#
# Mechanical properties :
#
#
# Convention : Reuss Voigt Hill
#
# Bulk Modulus (GPa) = 23.64359 55.23141 39.43750
# Shear Modulus (GPa) = 27.83266 37.11366 32.47316
#
# Velocity S-wave (km/s) = 3.53590 4.08310 3.81931
# Velocity P-wave (km/s) = 5.22408 6.85851 6.09632
#
# Compressibility (1/GPa) = 0.04229475
#
# Stress axis : x y z
#
# Youngs Moduli (GPa) = 112.73810 113.44011 29.21618
#
# Poissons Ratio (x) = 0.43077 -0.12429
# Poissons Ratio (y) = 0.42811 0.15385
# Poissons Ratio (z) = -0.47960 0.59736
#
# Static dielectric constant tensor:
#      x y z
#    x 4.143200 0.142490 -0.144090 
#    y 0.142490 4.345010 0.000570 
#    z -0.144090 0.000570 3.821740 
# 
# 
# High freq. dielectric constant tensor:
#      x y z
#    x 1.888660 0.012360 -0.015920 
#    y 0.012360 1.897610 0.006720 
#    z -0.015920 0.006720 1.858450 
# 
# From -- ./inp_files/176995.got.cif
#   From: 2010.06.25/outbox.cif.g09.slc.cpg/sg2_89_cif.got.tgz:176995.got - 2010.06.27 13:26:56.
