data_PCOD8014298
_publ_section_title
;
Structure prediction by ZEFSAII (Michael W. Deem and Ramdas Pophale) SiO2 
 PCOD8014298
Probable space group: P -1
;
_chemical_formula_sum "Si O2"
_cell_formula_units_Z 16
_cell_length_a 11.401711
_cell_length_b 27.354643
_cell_length_c 6.943481
_cell_angle_alpha 65.118817
_cell_angle_beta 89.629548
_cell_angle_gamma 147.484986
_cell_volume 709.307391
_symmetry_space_group_name_H-M "P -1"
_symmetry_group_IT_number 2
_symmetry_cell_setting 'triclinic'
loop_
_space_group_symop_operation_xyz
x,y,z
-x,-y,-z
loop_
_atom_site_type_symbol
_atom_site_label
_atom_site_fract_x
_atom_site_fract_y
_atom_site_fract_z
Si Si1 0.377627 0.655948 0.713984
Si Si2 0.641131 0.267514 0.707518
Si Si3 0.228904 0.344333 0.841975
Si Si4 0.138232 0.858612 0.170583
Si Si5 0.925607 0.682850 0.716567
Si Si6 0.347095 0.535557 0.099984
Si Si7 0.600946 0.920322 0.246354
Si Si8 0.638399 0.851820 0.682112
O O1 0.458914 0.715911 0.402603
O O2 0.551072 0.763817 0.699432
O O3 0.469305 0.632333 0.782158
O O4 0.000000 0.500000 0.000000
O O5 0.380268 0.114156 0.872122
O O6 0.002772 0.405952 0.408137
O O7 0.610675 0.253524 0.960648
O O8 0.500000 0.500000 0.500000
O O9 0.399677 0.363556 0.894888
O O10 0.952845 0.208569 0.919909
O O11 0.049813 0.301852 0.080184
O O12 0.887211 0.726510 0.549957
O O13 0.500000 0.000000 0.000000
O O14 0.111014 0.912091 0.061211
O O15 0.257930 0.802447 0.431233
O O16 0.652386 0.523332 0.908439
O O17 0.616852 0.898163 0.489084
O O18 0.000000 0.000000 0.500000
#
# Coordination Sequence:
#
# PCOD8014298 Si02
#       8
#     2   2   2   2   2   2   2   2
#     4   9  21  43  62  94 126 161 210 255 315 377
#     4   9  21  44  66  88 128 168 204 259 317 376
#     4  12  25  39  63  98 129 165 215 262 309 370
#     4  10  23  43  61  91 128 168 214 255 312 374
#     4  10  22  43  63  92 131 168 209 260 309 379
#     4  10  21  41  66  94 127 167 210 261 317 368
#     4   9  22  40  67  89 123 170 206 253 320 369
#     4  11  24  41  64  97 124 159 215 260 311 377
#
# _framework density 22.557216
#
# number of rings (size 3 to 8) (size 9 to 14) (size 15 to 20)
#    0.000    2.000    1.250    1.125    3.500    7.000 
#    4.500    0.000    0.000    0.000    0.000    0.000 
#    0.000    0.000    0.000    0.000    0.000    0.000 
#
# Total GULP energy -198307.200993 kJ/mol
# GULP energy per Si atom -12394.200062 kJ/mol
# Density = 2.250588 g / cm^3
# Si number density = 22.557216 Si / 1000 Ang^3
#
#
#
# Elastic Constant Matrix: (Units=GPa)
#
#
# Indices 1 2 3 4 5 6 
#
# 1 100.9042 27.0425 44.4620 0.9476 47.3571 -3.1695
# 2 27.0425 139.7748 28.5124 1.0422 20.7144 -1.3787
# 3 44.4620 28.5124 105.5724 11.2849 39.6395 -11.1919
# 4 0.9476 1.0422 11.2849 36.6770 -0.7720 6.8841
# 5 47.3571 20.7144 39.6395 -0.7720 45.5342 -0.7792
# 6 -3.1695 -1.3787 -11.1919 6.8841 -0.7792 27.7366
#
#
#
# Elastic Compliance Matrix: (Units=1/GPa)
#
#
# Indices 1 2 3 4 5 6 
#
# 1 0.019584 -0.000774 -0.000320 -0.001138 -0.019726 0.001799
# 2 -0.000774 0.007795 -0.001184 0.000178 -0.001712 -0.000271
# 3 -0.000320 -0.001184 0.016580 -0.006829 -0.013543 0.007909
# 4 -0.001138 0.000178 -0.006829 0.031515 0.007403 -0.010491
# 5 -0.019726 -0.001712 -0.013543 0.007403 0.055032 -0.008095
# 6 0.001799 -0.000271 0.007909 -0.010491 -0.008095 0.041813
#
#
# Mechanical properties :
#
#
# Convention : Reuss Voigt Hill
#
# Bulk Modulus (GPa) = 25.37892 60.69836 43.03864
# Shear Modulus (GPa) = 26.31424 38.40519 32.35971
#
# Velocity S-wave (km/s) = 3.41919 4.13069 3.79167
# Velocity P-wave (km/s) = 5.18297 7.05104 6.18791
#
# Compressibility (1/GPa) = 0.03940278
#
# Stress axis : x y z
#
# Youngs Moduli (GPa) = 51.06248 128.28063 60.31338
#
# Poissons Ratio (x) = 0.09930 0.01929
# Poissons Ratio (y) = 0.03953 0.07143
# Poissons Ratio (z) = 0.01633 0.15192
#
# Static dielectric constant tensor:
#      x y z
#    x 3.846790 -0.304390 -0.032200 
#    y -0.304390 4.063730 -0.381670 
#    z -0.032200 -0.381670 3.418750 
# 
# 
# High freq. dielectric constant tensor:
#      x y z
#    x 1.890910 0.006260 0.023100 
#    y 0.006260 1.891510 -0.005460 
#    z 0.023100 -0.005460 1.895860 
# 
# From -- ./inp_files/85384.got.cif
#   From: 2010.06.25/outbox.cif.g09.slc.cpg/sg2_43_cif.got.tgz:85384.got - 2010.06.27 13:26:56.
