data_PCOD8014469
_publ_section_title
;
Structure prediction by ZEFSAII (Michael W. Deem and Ramdas Pophale) SiO2 
 PCOD8014469
Probable space group: P -1
;
_chemical_formula_sum "Si O2"
_cell_formula_units_Z 16
_cell_length_a 17.146293
_cell_length_b 17.030275
_cell_length_c 8.416700
_cell_angle_alpha 42.538232
_cell_angle_beta 42.400961
_cell_angle_gamma 25.032268
_cell_volume 681.190736
_symmetry_space_group_name_H-M "P -1"
_symmetry_group_IT_number 2
_symmetry_cell_setting 'triclinic'
loop_
_space_group_symop_operation_xyz
x,y,z
-x,-y,-z
loop_
_atom_site_type_symbol
_atom_site_label
_atom_site_fract_x
_atom_site_fract_y
_atom_site_fract_z
Si Si1 0.095511 0.989030 0.226220
Si Si2 0.305184 0.443442 0.386768
Si Si3 0.090748 0.401472 0.678403
Si Si4 0.471350 0.304709 0.996932
Si Si5 0.547015 0.016460 0.155070
Si Si6 0.114654 0.650534 0.851232
Si Si7 0.037054 0.825555 0.371147
Si Si8 0.369359 0.946953 0.359802
O O1 0.320462 0.812955 0.173356
O O2 0.046185 0.959023 0.180876
O O3 0.000000 0.000000 0.500000
O O4 0.011855 0.186465 0.061570
O O5 0.131879 0.488635 0.578539
O O6 0.205124 0.646860 0.269372
O O7 0.457935 0.281725 0.531342
O O8 0.414783 0.365852 0.172709
O O9 0.000000 0.500000 0.500000
O O10 0.290789 0.174776 0.700691
O O11 0.944321 0.437706 0.942226
O O12 0.333218 0.487797 0.817567
O O13 0.447679 0.187114 0.166958
O O14 0.395329 0.042432 0.283758
O O15 0.639052 0.012774 0.873013
O O16 0.087326 0.730713 0.605642
O O17 0.827694 0.955329 0.435418
#
# Coordination Sequence:
#
# PCOD8014469 Si02
#       8
#     2   2   2   2   2   2   2   2
#     4  10  24  46  72  95 127 177 230 278 324 387
#     4  11  27  38  62 105 138 176 216 268 341 399
#     4  11  21  41  67 102 140 167 219 273 333 400
#     4  12  24  43  68 101 134 172 222 279 330 395
#     4  10  21  41  67  97 134 179 218 274 331 391
#     4  11  23  43  71 100 128 175 229 274 325 396
#     4  11  24  43  68  95 133 181 222 273 327 392
#     4  10  22  42  64  96 138 173 224 273 325 392
#
# _framework density 23.488282999999999
#
# number of rings (size 3 to 8) (size 9 to 14) (size 15 to 20)
#    0.000    1.250    3.750    1.500    1.750    8.000 
#    0.000    1.250    0.000    0.000    0.000    0.000 
#    0.000    0.000    0.000    0.000    0.000    0.000 
#
# Total GULP energy -198397.044487 kJ/mol
# GULP energy per Si atom -12399.815280 kJ/mol
# Density = 2.343482 g / cm^3
# Si number density = 23.488283 Si / 1000 Ang^3
#
#
#
# Elastic Constant Matrix: (Units=GPa)
#
#
# Indices 1 2 3 4 5 6 
#
# 1 113.8564 65.9587 20.6064 5.6599 -8.5500 -5.3758
# 2 65.9587 125.3439 11.6326 14.4090 -7.9916 -6.2019
# 3 20.6064 11.6326 38.0192 12.0852 -7.0541 -5.4917
# 4 5.6599 14.4090 12.0852 29.5357 -10.7261 0.1922
# 5 -8.5500 -7.9916 -7.0541 -10.7261 38.9054 0.1620
# 6 -5.3758 -6.2019 -5.4917 0.1922 0.1620 53.5470
#
#
#
# Elastic Compliance Matrix: (Units=1/GPa)
#
#
# Indices 1 2 3 4 5 6 
#
# 1 0.013983 -0.007128 -0.006388 0.003974 0.001546 -0.000096
# 2 -0.007128 0.012208 0.001962 -0.005477 -0.000217 0.000920
# 3 -0.006388 0.001962 0.034077 -0.013136 0.001543 0.003123
# 4 0.003974 -0.005477 -0.013136 0.044674 0.009690 -0.001772
# 5 0.001546 -0.000217 0.001543 0.009690 0.028949 0.000166
# 6 -0.000096 0.000920 0.003123 -0.001772 0.000166 0.019098
#
#
# Mechanical properties :
#
#
# Convention : Reuss Voigt Hill
#
# Bulk Modulus (GPa) = 26.91036 52.62388 39.76712
# Shear Modulus (GPa) = 26.52744 36.33241 31.42992
#
# Velocity S-wave (km/s) = 3.36429 3.93724 3.66199
# Velocity P-wave (km/s) = 5.15490 6.56674 5.90318
#
# Compressibility (1/GPa) = 0.03716042
#
# Stress axis : x y z
#
# Youngs Moduli (GPa) = 71.51791 81.91178 29.34489
#
# Poissons Ratio (x) = 0.58387 0.18744
# Poissons Ratio (y) = 0.50978 -0.05757
# Poissons Ratio (z) = 0.45683 -0.16069
#
# Static dielectric constant tensor:
#      x y z
#    x 5.081790 0.380460 -0.821780 
#    y 0.380460 4.612740 -0.482320 
#    z -0.821780 -0.482320 4.558520 
# 
# 
# High freq. dielectric constant tensor:
#      x y z
#    x 1.937570 -0.008020 -0.007130 
#    y -0.008020 1.936710 -0.008700 
#    z -0.007130 -0.008700 1.911610 
# 
# From -- ./inp_files/314601.got.cif
#   From: 2010.06.25/outbox.cif.g09.slc.cpg/sg2_158_cif.got.tgz:314601.got - 2010.06.27 13:26:56.
