data_PCOD8014390
_publ_section_title
;
Structure prediction by ZEFSAII (Michael W. Deem and Ramdas Pophale) SiO2 
 PCOD8014390
Probable space group: P -1
;
_chemical_formula_sum "Si O2"
_cell_formula_units_Z 16
_cell_length_a 12.338165
_cell_length_b 27.976538
_cell_length_c 9.165801
_cell_angle_alpha 44.891286
_cell_angle_beta 31.761145
_cell_angle_gamma 29.255017
_cell_volume 806.996915
_symmetry_space_group_name_H-M "P -1"
_symmetry_group_IT_number 2
_symmetry_cell_setting 'triclinic'
loop_
_space_group_symop_operation_xyz
x,y,z
-x,-y,-z
loop_
_atom_site_type_symbol
_atom_site_label
_atom_site_fract_x
_atom_site_fract_y
_atom_site_fract_z
Si Si1 0.929373 0.757293 0.968672
Si Si2 0.124984 0.611495 0.817542
Si Si3 0.507612 0.394849 0.814748
Si Si4 0.351743 0.296066 0.086559
Si Si5 0.887271 0.153327 0.587191
Si Si6 0.457701 0.018943 0.677529
Si Si7 0.072361 0.243088 0.694035
Si Si8 0.714411 0.071624 0.772163
O O1 0.014105 0.723569 0.111489
O O2 0.576885 0.857404 0.149501
O O3 0.006880 0.672240 0.970516
O O4 0.113334 0.777161 0.653717
O O5 0.297868 0.501348 0.899692
O O6 0.350452 0.609811 0.485987
O O7 0.850772 0.659976 0.920229
O O8 0.762508 0.311021 0.816061
O O9 0.301929 0.379695 0.042614
O O10 0.273751 0.256232 0.376160
O O11 0.701354 0.207722 0.831836
O O12 0.716488 0.137571 0.725249
O O13 0.220882 0.049207 0.467144
O O14 0.256916 0.130574 0.706363
O O15 0.500000 0.000000 0.500000
O O16 0.287518 0.993258 0.982831
O O17 0.000000 0.000000 0.500000
#
# Coordination Sequence:
#
# PCOD8014390 Si02
#       8
#     2   2   2   2   2   2   2   2
#     4  11  23  41  61  92 128 159 199 253 307 364
#     4  10  21  41  67  90 119 159 207 252 303 364
#     4  10  22  41  65  91 120 160 204 255 304 359
#     4  11  21  40  65  91 118 157 211 251 297 361
#     4  11  22  38  64  87 117 166 205 244 297 362
#     4  11  24  39  59  88 126 161 205 251 298 357
#     4  11  25  39  59  93 129 157 198 257 308 356
#     4  11  23  39  60  87 121 164 207 241 296 364
#
# _framework density 19.826592999999999
#
# number of rings (size 3 to 8) (size 9 to 14) (size 15 to 20)
#    0.000    1.250    2.500    3.375    3.500    8.500 
#    0.000    0.625    0.000    0.000    0.000    0.000 
#    0.000    0.000    0.000    0.000    0.000    0.000 
#
# Total GULP energy -198491.273531 kJ/mol
# GULP energy per Si atom -12405.704596 kJ/mol
# Density = 1.978147 g / cm^3
# Si number density = 19.826593 Si / 1000 Ang^3
#
#
#
# Elastic Constant Matrix: (Units=GPa)
#
#
# Indices 1 2 3 4 5 6 
#
# 1 99.6317 40.8310 47.3680 -17.2870 5.8215 21.0906
# 2 40.8310 121.0686 43.0450 -4.7380 0.5298 16.4945
# 3 47.3680 43.0450 116.0053 -7.0076 -2.6744 12.5283
# 4 -17.2870 -4.7380 -7.0076 24.0629 8.6249 -1.0938
# 5 5.8215 0.5298 -2.6744 8.6249 38.2330 -1.2027
# 6 21.0906 16.4945 12.5283 -1.0938 -1.2027 27.2587
#
#
#
# Elastic Compliance Matrix: (Units=1/GPa)
#
#
# Indices 1 2 3 4 5 6 
#
# 1 0.018027 -0.002506 -0.004715 0.012872 -0.006259 -0.010024
# 2 -0.002506 0.010418 -0.002532 -0.000673 0.000111 -0.003223
# 3 -0.004715 -0.002532 0.011460 -0.001205 0.001825 -0.000055
# 4 0.012872 -0.000673 -0.001205 0.055266 -0.014736 -0.007431
# 5 -0.006259 0.000111 0.001825 -0.014736 0.030707 0.004701
# 6 -0.010024 -0.003223 -0.000055 -0.007431 0.004701 0.046326
#
#
# Mechanical properties :
#
#
# Convention : Reuss Voigt Hill
#
# Bulk Modulus (GPa) = 49.02564 66.57704 57.80134
# Shear Modulus (GPa) = 25.18782 31.60835 28.39809
#
# Velocity S-wave (km/s) = 3.56814 3.99713 3.78871
# Velocity P-wave (km/s) = 6.46192 7.41318 6.95384
#
# Compressibility (1/GPa) = 0.02039749
#
# Stress axis : x y z
#
# Youngs Moduli (GPa) = 55.47330 95.99082 87.25770
#
# Poissons Ratio (x) = 0.24060 0.41141
# Poissons Ratio (y) = 0.13904 0.22095
# Poissons Ratio (z) = 0.26155 0.24306
#
# Static dielectric constant tensor:
#      x y z
#    x 3.711000 0.097250 -0.136860 
#    y 0.097250 3.721340 0.003460 
#    z -0.136860 0.003460 3.739540 
# 
# 
# High freq. dielectric constant tensor:
#      x y z
#    x 1.776190 0.008440 -0.010490 
#    y 0.008440 1.780680 -0.000380 
#    z -0.010490 -0.000380 1.776930 
# 
# From -- ./inp_files/37430.got.cif
#   From: 2010.06.25/outbox.cif.g09.slc.cpg/sg2_19_cif.got.tgz:37430.got - 2010.06.27 13:26:56.
