data_PCOD8014947
_publ_section_title
;
Structure prediction by ZEFSAII (Michael W. Deem and Ramdas Pophale) SiO2 
 PCOD8014947
Probable space group: P -1
;
_chemical_formula_sum "Si O2"
_cell_formula_units_Z 14
_cell_length_a 8.333672
_cell_length_b 21.571577
_cell_length_c 17.911443
_cell_angle_alpha 16.735132
_cell_angle_beta 141.043229
_cell_angle_gamma 135.798676
_cell_volume 576.038403
_symmetry_space_group_name_H-M "P -1"
_symmetry_group_IT_number 2
_symmetry_cell_setting 'triclinic'
loop_
_space_group_symop_operation_xyz
x,y,z
-x,-y,-z
loop_
_atom_site_type_symbol
_atom_site_label
_atom_site_fract_x
_atom_site_fract_y
_atom_site_fract_z
Si Si1 0.634489 0.214280 0.743694
Si Si2 0.911420 0.776984 0.196970
Si Si3 0.682410 0.302879 0.124669
Si Si4 0.515509 0.979415 0.332128
Si Si5 0.313538 0.572927 0.780585
Si Si6 0.222360 0.286888 0.617405
Si Si7 0.795360 0.708395 0.619150
O O1 0.844077 0.342705 0.628005
O O2 0.501675 0.337274 0.628527
O O3 0.388625 0.188395 0.632319
O O4 0.774625 0.972947 0.092447
O O5 0.842056 0.644003 0.398911
O O6 0.654865 0.822559 0.002032
O O7 0.000000 0.000000 0.000000
O O8 0.657054 0.070892 0.347705
O O9 0.900260 0.276230 0.300598
O O10 0.407374 0.408241 0.937094
O O11 0.764513 0.457615 0.910506
O O12 0.327964 0.819459 0.478555
O O13 0.731683 0.847041 0.511433
O O14 0.004423 0.577312 0.673353
O O15 0.500000 0.500000 0.000000
#
# Coordination Sequence:
#
# PCOD8014947 Si02
#       7
#     2   2   2   2   2   2   2
#     4  10  18  33  65  90 116 171 207 251 322 373
#     4  10  16  35  62  88 122 162 208 255 307 375
#     4  10  23  36  61  95 118 170 211 256 321 377
#     4  11  20  38  63  89 124 165 212 260 315 375
#     4  11  22  39  60  86 128 165 207 265 315 377
#     4  10  19  34  62  93 119 165 212 251 317 376
#     4  10  19  39  60  88 129 155 211 261 314 379
#
# _framework density 24.303934999999999
#
# number of rings (size 3 to 8) (size 9 to 14) (size 15 to 20)
#    0.000    1.714    5.714    2.143    0.000    0.571 
#    0.000    2.857    0.000    3.429    0.000    0.000 
#    0.000    0.000    0.000    0.000    0.000    0.000 
#
# Total GULP energy -173500.914697 kJ/mol
# GULP energy per Si atom -12392.922478 kJ/mol
# Density = 2.424862 g / cm^3
# Si number density = 24.303935 Si / 1000 Ang^3
#
#
#
# Elastic Constant Matrix: (Units=GPa)
#
#
# Indices 1 2 3 4 5 6 
#
# 1 164.9012 13.9294 29.5926 6.3156 29.1248 -2.3014
# 2 13.9294 33.4268 13.7982 10.6717 6.0134 -7.9224
# 3 29.5926 13.7982 87.9395 31.6538 16.1963 -1.2556
# 4 6.3156 10.6717 31.6538 45.2955 -1.9738 3.0134
# 5 29.1248 6.0134 16.1963 -1.9738 33.0767 12.6472
# 6 -2.3014 -7.9224 -1.2556 3.0134 12.6472 27.5774
#
#
#
# Elastic Compliance Matrix: (Units=1/GPa)
#
#
# Indices 1 2 3 4 5 6 
#
# 1 0.007767 0.000068 -0.000464 -0.001459 -0.008512 0.004710
# 2 0.000068 0.041641 0.001733 -0.013225 -0.017495 0.021516
# 3 -0.000464 0.001733 0.019389 -0.015121 -0.013881 0.009360
# 4 -0.001459 -0.013225 -0.015121 0.038048 0.020270 -0.018063
# 5 -0.008512 -0.017495 -0.013881 0.020270 0.063296 -0.037611
# 6 0.004710 0.021516 0.009360 -0.018063 -0.037611 0.062484
#
#
# Mechanical properties :
#
#
# Convention : Reuss Voigt Hill
#
# Bulk Modulus (GPa) = 13.99176 44.54532 29.26854
# Shear Modulus (GPa) = 19.70253 36.45307 28.07780
#
# Velocity S-wave (km/s) = 2.85032 3.87703 3.40263
# Velocity P-wave (km/s) = 4.07455 6.19759 5.24462
#
# Compressibility (1/GPa) = 0.07147066
#
# Stress axis : x y z
#
# Youngs Moduli (GPa) = 128.75462 24.01467 51.57651
#
# Poissons Ratio (x) = -0.00164 0.02395
# Poissons Ratio (y) = -0.00880 -0.08939
# Poissons Ratio (z) = 0.05979 -0.04162
#
# Static dielectric constant tensor:
#      x y z
#    x 5.042300 -0.074890 0.374110 
#    y -0.074890 3.837590 0.147760 
#    z 0.374110 0.147760 4.124160 
# 
# 
# High freq. dielectric constant tensor:
#      x y z
#    x 1.969870 -0.008090 0.026880 
#    y -0.008090 1.939590 0.020440 
#    z 0.026880 0.020440 1.959100 
# 
# From -- ./inp_files/390237.got.cif
#   From: 2010.06.25/outbox.cif.g09.slc.cpg/sg2_196_cif.got.tgz:390237.got - 2010.06.27 13:26:56.
