data_PCOD8014160
_publ_section_title
;
Structure prediction by ZEFSAII (Michael W. Deem and Ramdas Pophale) SiO2 
 PCOD8014160
Probable space group: P -1
;
_chemical_formula_sum "Si O2"
_cell_formula_units_Z 12
_cell_length_a 7.751544
_cell_length_b 10.339641
_cell_length_c 10.696544
_cell_angle_alpha 117.451035
_cell_angle_beta 44.080119
_cell_angle_gamma 99.467703
_cell_volume 509.593652
_symmetry_space_group_name_H-M "P -1"
_symmetry_group_IT_number 2
_symmetry_cell_setting 'triclinic'
loop_
_space_group_symop_operation_xyz
x,y,z
-x,-y,-z
loop_
_atom_site_type_symbol
_atom_site_label
_atom_site_fract_x
_atom_site_fract_y
_atom_site_fract_z
Si Si1 0.312187 0.095647 0.910062
Si Si2 0.171632 0.972440 0.519687
Si Si3 0.132323 0.860390 0.028548
Si Si4 0.116237 0.422094 0.214748
Si Si5 0.310687 0.530297 0.727466
Si Si6 0.728139 0.362246 0.594717
O O1 0.543099 0.019648 0.661718
O O2 0.038527 0.129923 0.001304
O O3 0.334795 0.259943 0.018626
O O4 0.309153 0.977964 0.972449
O O5 0.176399 0.814664 0.510558
O O6 0.000000 0.000000 0.500000
O O7 0.045448 0.104909 0.740966
O O8 0.310631 0.689700 0.863908
O O9 0.254733 0.547411 0.245304
O O10 0.972142 0.474066 0.178465
O O11 0.904932 0.405810 0.417216
O O12 0.500000 0.500000 0.500000
O O13 0.431961 0.405964 0.716523
#
# Coordination Sequence:
#
# PCOD8014160 Si02
#       6
#     2   2   2   2   2   2
#     4  10  22  42  72  91 133 174 221 277 332 386
#     4  12  27  42  62 103 135 174 224 268 335 400
#     4  10  22  46  68  96 130 174 224 274 329 396
#     4   9  19  40  67  97 123 178 219 267 334 389
#     4   9  20  39  71  96 123 174 222 268 337 390
#     4  10  21  41  65  92 137 167 219 277 322 395
#
# _framework density 23.548176000000002
#
# number of rings (size 3 to 8) (size 9 to 14) (size 15 to 20)
#    0.000    2.000    1.667    0.500    4.667    5.333 
#    3.000    1.667    0.000    0.000    0.000    0.000 
#    0.000    0.000    0.000    0.000    0.000    0.000 
#
# Total GULP energy -148765.220137 kJ/mol
# GULP energy per Si atom -12397.101678 kJ/mol
# Density = 2.349458 g / cm^3
# Si number density = 23.548176 Si / 1000 Ang^3
#
#
#
# Elastic Constant Matrix: (Units=GPa)
#
#
# Indices 1 2 3 4 5 6 
#
# 1 97.6692 28.1979 11.3231 21.5433 5.7408 -17.3200
# 2 28.1979 46.8762 26.0555 20.7965 -4.4445 -10.0747
# 3 11.3231 26.0555 151.7716 22.3829 16.7239 4.2079
# 4 21.5433 20.7965 22.3829 38.6397 5.3720 -7.8836
# 5 5.7408 -4.4445 16.7239 5.3720 27.5610 8.9968
# 6 -17.3200 -10.0747 4.2079 -7.8836 8.9968 27.1656
#
#
#
# Elastic Compliance Matrix: (Units=1/GPa)
#
#
# Indices 1 2 3 4 5 6 
#
# 1 0.014559 -0.007308 0.001039 -0.002142 -0.007079 0.008134
# 2 -0.007308 0.036235 -0.005048 -0.014016 0.012745 0.001272
# 3 0.001039 -0.005048 0.008320 -0.002258 -0.005168 -0.001442
# 4 -0.002142 -0.014016 -0.002258 0.039248 -0.010970 0.008809
# 5 -0.007079 0.012745 -0.005168 -0.010970 0.051347 -0.019175
# 6 0.008134 0.001272 -0.001442 0.008809 -0.019175 0.051599
#
#
# Mechanical properties :
#
#
# Convention : Reuss Voigt Hill
#
# Bulk Modulus (GPa) = 27.41246 47.49665 37.45456
# Shear Modulus (GPa) = 21.17724 34.05596 27.61660
#
# Velocity S-wave (km/s) = 3.00211 3.80705 3.42829
# Velocity P-wave (km/s) = 4.86654 6.28798 5.62236
#
# Compressibility (1/GPa) = 0.03647976
#
# Stress axis : x y z
#
# Youngs Moduli (GPa) = 68.68555 27.59790 120.18598
#
# Poissons Ratio (x) = 0.20169 -0.12485
# Poissons Ratio (y) = 0.50195 0.60671
# Poissons Ratio (z) = -0.07135 0.13932
#
# Static dielectric constant tensor:
#      x y z
#    x 4.552800 -0.097140 0.120020 
#    y -0.097140 4.088010 0.342370 
#    z 0.120020 0.342370 4.626550 
# 
# 
# High freq. dielectric constant tensor:
#      x y z
#    x 1.925750 -0.009550 0.005270 
#    y -0.009550 1.911410 0.014350 
#    z 0.005270 0.014350 1.945020 
# 
# From -- ./inp_files/149541.got.cif
#   From: 2010.06.25/outbox.cif.g09.slc.cpg/sg2_75_cif.got.tgz:149541.got - 2010.06.27 13:26:56.
