data_PCOD8014396
_publ_section_title
;
Structure prediction by ZEFSAII (Michael W. Deem and Ramdas Pophale) SiO2 
 PCOD8014396
Probable space group: P -1
;
_chemical_formula_sum "Si O2"
_cell_formula_units_Z 12
_cell_length_a 13.514914
_cell_length_b 11.989039
_cell_length_c 10.408538
_cell_angle_alpha 56.338165
_cell_angle_beta 147.033519
_cell_angle_gamma 139.918974
_cell_volume 572.096254
_symmetry_space_group_name_H-M "P -1"
_symmetry_group_IT_number 2
_symmetry_cell_setting 'triclinic'
loop_
_space_group_symop_operation_xyz
x,y,z
-x,-y,-z
loop_
_atom_site_type_symbol
_atom_site_label
_atom_site_fract_x
_atom_site_fract_y
_atom_site_fract_z
Si Si1 0.344942 0.901057 0.519826
Si Si2 0.880839 0.829902 0.393681
Si Si3 0.506412 0.598148 0.322440
Si Si4 0.207862 0.350109 0.938196
Si Si5 0.518452 0.323206 0.146673
Si Si6 0.605245 0.958528 0.252837
O O1 0.327591 0.734155 0.627649
O O2 0.074010 0.826292 0.254108
O O3 0.500000 0.000000 0.500000
O O4 0.480197 0.036745 0.701870
O O5 0.733765 0.662374 0.439420
O O6 0.688311 0.802665 0.105274
O O7 0.000000 0.000000 0.500000
O O8 0.103689 0.869312 0.537850
O O9 0.500000 0.500000 0.500000
O O10 0.527812 0.765820 0.273793
O O11 0.264366 0.455516 0.065302
O O12 0.281336 0.470485 0.813283
O O13 0.377687 0.300061 0.138994
O O14 0.500000 0.000000 0.000000
#
# Coordination Sequence:
#
# PCOD8014396 Si02
#       6
#     2   2   2   2   2   2
#     4  12  26  40  65 101 133 167 217 275 326 379
#     4   9  18  38  65  89 121 173 214 256 316 393
#     4  10  23  41  66  95 129 169 214 272 335 379
#     4  10  22  43  66  92 126 173 215 263 322 396
#     4  10  21  41  67  91 125 172 218 260 321 389
#     4  11  23  43  65  95 131 175 222 264 320 401
#
# _framework density 20.975490000000001
#
# number of rings (size 3 to 8) (size 9 to 14) (size 15 to 20)
#    0.000    1.667    1.667    3.500    2.333    4.667 
#    0.000    1.667    0.000    0.000    0.000    0.000 
#    0.000    0.000    0.000    0.000    0.000    0.000 
#
# Total GULP energy -148715.041604 kJ/mol
# GULP energy per Si atom -12392.920134 kJ/mol
# Density = 2.092775 g / cm^3
# Si number density = 20.975490 Si / 1000 Ang^3
#
#
#
# Elastic Constant Matrix: (Units=GPa)
#
#
# Indices 1 2 3 4 5 6 
#
# 1 132.3376 42.4762 39.1870 -2.1411 -15.9965 5.8420
# 2 42.4762 80.2291 36.5593 -3.6013 -10.9711 1.1772
# 3 39.1870 36.5593 73.6405 3.5910 -9.7642 11.0503
# 4 -2.1411 -3.6013 3.5910 37.9223 -2.1671 -0.3097
# 5 -15.9965 -10.9711 -9.7642 -2.1671 34.4888 -0.8341
# 6 5.8420 1.1772 11.0503 -0.3097 -0.8341 40.5100
#
#
#
# Elastic Compliance Matrix: (Units=1/GPa)
#
#
# Indices 1 2 3 4 5 6 
#
# 1 0.009954 -0.003397 -0.003233 0.000694 0.002655 -0.000395
# 2 -0.003397 0.017935 -0.007208 0.002341 0.002285 0.002000
# 3 -0.003233 -0.007208 0.019930 -0.002704 0.001565 -0.004749
# 4 0.000694 0.002341 -0.002704 0.027009 0.002018 0.000817
# 5 0.002655 0.002285 0.001565 0.002018 0.031518 -0.000212
# 6 -0.000395 0.002000 -0.004749 0.000817 -0.000212 0.025981
#
#
# Mechanical properties :
#
#
# Convention : Reuss Voigt Hill
#
# Bulk Modulus (GPa) = 49.64195 58.07247 53.85721
# Shear Modulus (GPa) = 29.99083 33.78321 31.88702
#
# Velocity S-wave (km/s) = 3.78538 4.01759 3.90321
# Velocity P-wave (km/s) = 6.54396 7.01907 6.78567
#
# Compressibility (1/GPa) = 0.02014425
#
# Stress axis : x y z
#
# Youngs Moduli (GPa) = 100.46696 55.75604 50.17456
#
# Poissons Ratio (x) = 0.18938 0.16221
# Poissons Ratio (y) = 0.34124 0.36166
# Poissons Ratio (z) = 0.32481 0.40189
#
# Static dielectric constant tensor:
#      x y z
#    x 4.511160 0.054280 0.211390 
#    y 0.054280 4.049360 0.407500 
#    z 0.211390 0.407500 3.963680 
# 
# 
# High freq. dielectric constant tensor:
#      x y z
#    x 1.838580 -0.005300 -0.010530 
#    y -0.005300 1.809640 0.019440 
#    z -0.010530 0.019440 1.811100 
# 
# From -- ./inp_files/173839.got.cif
#   From: 2010.06.25/outbox.cif.g09.slc.cpg/sg2_87_cif.got.tgz:173839.got - 2010.06.27 13:26:56.
