data_PCOD8014815
_publ_section_title
;
Structure prediction by ZEFSAII (Michael W. Deem and Ramdas Pophale) SiO2 
 PCOD8014815
Probable space group: P -1
;
_chemical_formula_sum "Si O2"
_cell_formula_units_Z 16
_cell_length_a 16.330148
_cell_length_b 11.676170
_cell_length_c 10.298711
_cell_angle_alpha 106.318386
_cell_angle_beta 131.369303
_cell_angle_gamma 37.841275
_cell_volume 770.363551
_symmetry_space_group_name_H-M "P -1"
_symmetry_group_IT_number 2
_symmetry_cell_setting 'triclinic'
loop_
_space_group_symop_operation_xyz
x,y,z
-x,-y,-z
loop_
_atom_site_type_symbol
_atom_site_label
_atom_site_fract_x
_atom_site_fract_y
_atom_site_fract_z
Si Si1 0.961824 0.600826 0.735009
Si Si2 0.724307 0.670582 0.308547
Si Si3 0.020841 0.752255 0.690734
Si Si4 0.631363 0.137046 0.924309
Si Si5 0.407639 0.151556 0.080434
Si Si6 0.661689 0.138304 0.253607
Si Si7 0.391840 0.584805 0.049947
Si Si8 0.318026 0.150845 0.258238
O O1 0.796125 0.694810 0.499056
O O2 0.945798 0.762072 0.751350
O O3 0.891670 0.631866 0.817540
O O4 0.181063 0.344790 0.848546
O O5 0.606793 0.665692 0.244318
O O6 0.907560 0.441778 0.354564
O O7 0.557469 0.900832 0.121116
O O8 0.186368 0.700077 0.865776
O O9 0.852680 0.962069 0.490156
O O10 0.715767 0.949594 0.871472
O O11 0.727789 0.059394 0.146553
O O12 0.660022 0.232739 0.900836
O O13 0.496831 0.194346 0.141756
O O14 0.369182 0.194225 0.208969
O O15 0.551918 0.366631 0.235930
O O16 0.500000 0.500000 0.000000
O O17 0.500000 0.000000 0.500000
#
# Coordination Sequence:
#
# PCOD8014815 Si02
#       8
#     2   2   2   2   2   2   2   2
#     4  12  23  39  62  90 127 163 201 243 310 367
#     4  11  22  37  59  96 121 153 199 257 303 360
#     4  12  23  37  65  94 123 161 201 251 311 356
#     4  10  22  41  63  88 126 161 197 255 302 353
#     4  11  23  39  62  90 129 159 199 250 313 357
#     4  11  22  39  64  93 125 158 203 253 305 359
#     4  10  21  42  60  88 125 159 202 252 300 360
#     4  11  22  42  62  89 126 161 200 251 300 366
#
# _framework density 20.769414000000001
#
# number of rings (size 3 to 8) (size 9 to 14) (size 15 to 20)
#    0.000    1.000    7.500    0.750    3.500    4.500 
#    0.000    0.625    0.000    1.500    0.000    0.000 
#    0.000    0.000    0.000    0.000    0.000    0.000 
#
# Total GULP energy -198216.899434 kJ/mol
# GULP energy per Si atom -12388.556215 kJ/mol
# Density = 2.072214 g / cm^3
# Si number density = 20.769414 Si / 1000 Ang^3
#
#
#
# Elastic Constant Matrix: (Units=GPa)
#
#
# Indices 1 2 3 4 5 6 
#
# 1 114.1483 42.0024 34.3504 -6.2156 -8.5408 18.4913
# 2 42.0024 80.7339 26.1954 -11.4501 -9.8770 9.5787
# 3 34.3504 26.1954 116.7598 -21.5181 -9.5436 8.4016
# 4 -6.2156 -11.4501 -21.5181 30.2156 5.7242 5.2687
# 5 -8.5408 -9.8770 -9.5436 5.7242 20.1587 -8.5426
# 6 18.4913 9.5787 8.4016 5.2687 -8.5426 34.7073
#
#
#
# Elastic Compliance Matrix: (Units=1/GPa)
#
#
# Indices 1 2 3 4 5 6 
#
# 1 0.011958 -0.005053 -0.002103 -0.000109 -0.000291 -0.004522
# 2 -0.005053 0.016546 -0.001095 0.003957 0.003782 -0.001279
# 3 -0.002103 -0.001095 0.010972 0.007178 0.000831 -0.002119
# 4 -0.000109 0.003957 0.007178 0.044272 -0.012619 -0.012598
# 5 -0.000291 0.003782 0.000831 -0.012619 0.062145 0.016121
# 6 -0.004522 -0.001279 -0.002119 -0.012598 0.016121 0.037968
#
#
# Mechanical properties :
#
#
# Convention : Reuss Voigt Hill
#
# Bulk Modulus (GPa) = 43.52706 57.41536 50.47121
# Shear Modulus (GPa) = 24.03604 30.95592 27.49598
#
# Velocity S-wave (km/s) = 3.40557 3.86483 3.64245
# Velocity P-wave (km/s) = 6.03877 6.90073 6.48409
#
# Compressibility (1/GPa) = 0.02297421
#
# Stress axis : x y z
#
# Youngs Moduli (GPa) = 83.62917 60.43621 91.13985
#
# Poissons Ratio (x) = 0.30540 0.19163
# Poissons Ratio (y) = 0.42260 0.09981
# Poissons Ratio (z) = 0.17584 0.06618
#
# Static dielectric constant tensor:
#      x y z
#    x 4.444640 0.221420 -0.135470 
#    y 0.221420 3.906930 -0.157980 
#    z -0.135470 -0.157980 3.893980 
# 
# 
# High freq. dielectric constant tensor:
#      x y z
#    x 1.832410 0.006730 -0.000210 
#    y 0.006730 1.783250 -0.016240 
#    z -0.000210 -0.016240 1.815760 
# 
# From -- ./inp_files/464637.got.cif
#   From: 2010.06.25/outbox.cif.g09.slc.cpg/sg2_233_cif.got.tgz:464637.got - 2010.06.27 13:26:56.
