data_PCOD8014259
_publ_section_title
;
Structure prediction by ZEFSAII (Michael W. Deem and Ramdas Pophale) SiO2 
 PCOD8014259
Probable space group: P -1
;
_chemical_formula_sum "Si O2"
_cell_formula_units_Z 16
_cell_length_a 8.992786
_cell_length_b 16.960312
_cell_length_c 11.473924
_cell_angle_alpha 129.119976
_cell_angle_beta 35.381758
_cell_angle_gamma 130.557696
_cell_volume 749.360232
_symmetry_space_group_name_H-M "P -1"
_symmetry_group_IT_number 2
_symmetry_cell_setting 'triclinic'
loop_
_space_group_symop_operation_xyz
x,y,z
-x,-y,-z
loop_
_atom_site_type_symbol
_atom_site_label
_atom_site_fract_x
_atom_site_fract_y
_atom_site_fract_z
Si Si1 0.133598 0.991063 0.286482
Si Si2 0.654954 0.275978 0.753846
Si Si3 0.166575 0.621897 0.499435
Si Si4 0.412082 0.628600 0.589970
Si Si5 0.694485 0.164630 0.098018
Si Si6 0.931660 0.556361 0.211309
Si Si7 0.199792 0.922622 0.603438
Si Si8 0.048196 0.198576 0.133459
O O1 0.430578 0.066722 0.185739
O O2 0.976641 0.022364 0.308546
O O3 0.000000 0.000000 0.500000
O O4 0.137259 0.869005 0.146081
O O5 0.660887 0.346872 0.700083
O O6 0.807277 0.188191 0.556119
O O7 0.795035 0.355779 0.842361
O O8 0.353185 0.210586 0.918301
O O9 0.374178 0.651019 0.500246
O O10 0.000000 0.500000 0.500000
O O11 0.956700 0.689606 0.703132
O O12 0.387140 0.728494 0.776427
O O13 0.705968 0.615010 0.393017
O O14 0.176439 0.527567 0.693619
O O15 0.863011 0.173888 0.116075
O O16 0.000000 0.500000 0.000000
O O17 0.060939 0.897893 0.795830
O O18 0.500000 0.000000 0.500000
#
# Coordination Sequence:
#
# PCOD8014259 Si02
#       8
#     2   2   2   2   2   2   2   2
#     4  11  24  41  68  93 129 171 220 266 330 394
#     4  11  24  41  66  99 129 174 219 269 336 388
#     4  10  21  41  66  90 128 169 215 270 319 381
#     4  10  23  43  63  90 132 168 220 275 318 393
#     4  10  23  43  63  94 125 171 214 272 327 381
#     4  11  25  40  63  94 131 177 218 266 332 392
#     4  11  24  43  68  97 133 171 216 277 330 391
#     4  10  24  41  66  97 130 166 221 270 326 392
#
# _framework density 21.351545999999999
#
# number of rings (size 3 to 8) (size 9 to 14) (size 15 to 20)
#    0.000    1.500    1.250    2.250    1.750   12.500 
#    0.000    0.000    0.000    0.000    0.000    0.000 
#    0.000    0.000    0.000    0.000    0.000    0.000 
#
# Total GULP energy -198375.812918 kJ/mol
# GULP energy per Si atom -12398.488307 kJ/mol
# Density = 2.130295 g / cm^3
# Si number density = 21.351546 Si / 1000 Ang^3
#
#
#
# Elastic Constant Matrix: (Units=GPa)
#
#
# Indices 1 2 3 4 5 6 
#
# 1 81.2737 38.7900 59.9061 4.1435 2.1060 12.5965
# 2 38.7900 107.3290 58.3418 9.9429 1.2660 7.6247
# 3 59.9061 58.3418 146.5624 8.5581 5.3480 -1.8654
# 4 4.1435 9.9429 8.5581 47.6597 0.9250 -0.6541
# 5 2.1060 1.2660 5.3480 0.9250 33.2812 -2.7292
# 6 12.5965 7.6247 -1.8654 -0.6541 -2.7292 35.9675
#
#
#
# Elastic Compliance Matrix: (Units=1/GPa)
#
#
# Indices 1 2 3 4 5 6 
#
# 1 0.019964 -0.002882 -0.007082 0.000055 -0.000574 -0.006791
# 2 -0.002882 0.012729 -0.003819 -0.001749 0.000204 -0.001904
# 3 -0.007082 -0.003819 0.011352 -0.000556 -0.000904 0.003800
# 4 0.000055 -0.001749 -0.000556 0.021459 -0.000388 0.000684
# 5 -0.000574 0.000204 -0.000904 -0.000388 0.030429 0.002413
# 6 -0.006791 -0.001904 0.003800 0.000684 0.002413 0.030977
#
#
# Mechanical properties :
#
#
# Convention : Reuss Voigt Hill
#
# Bulk Modulus (GPa) = 60.67782 72.13786 66.40784
# Shear Modulus (GPa) = 31.25623 35.25683 33.25653
#
# Velocity S-wave (km/s) = 3.83023 4.06797 3.95089
# Velocity P-wave (km/s) = 6.93116 7.47821 7.20988
#
# Compressibility (1/GPa) = 0.01648049
#
# Stress axis : x y z
#
# Youngs Moduli (GPa) = 50.09066 78.55871 88.09368
#
# Poissons Ratio (x) = 0.22638 0.62385
# Poissons Ratio (y) = 0.14434 0.33641
# Poissons Ratio (z) = 0.35472 0.30000
#
# Static dielectric constant tensor:
#      x y z
#    x 3.968600 0.021840 0.158040 
#    y 0.021840 4.015280 0.316390 
#    z 0.158040 0.316390 4.277570 
# 
# 
# High freq. dielectric constant tensor:
#      x y z
#    x 1.841650 0.005530 0.002550 
#    y 0.005530 1.846200 0.012110 
#    z 0.002550 0.012110 1.847500 
# 
# From -- ./inp_files/46305.got.cif
#   From: 2010.06.25/outbox.cif.g09.slc.cpg/sg2_24_cif.got.tgz:46305.got - 2010.06.27 13:26:56.
