data_PCOD8014644
_publ_section_title
;
Structure prediction by ZEFSAII (Michael W. Deem and Ramdas Pophale) SiO2 
 PCOD8014644
Probable space group: P -1
;
_chemical_formula_sum "Si O2"
_cell_formula_units_Z 14
_cell_length_a 8.654342
_cell_length_b 19.017334
_cell_length_c 13.042768
_cell_angle_alpha 35.095414
_cell_angle_beta 37.668659
_cell_angle_gamma 64.573348
_cell_volume 590.958469
_symmetry_space_group_name_H-M "P -1"
_symmetry_group_IT_number 2
_symmetry_cell_setting 'triclinic'
loop_
_space_group_symop_operation_xyz
x,y,z
-x,-y,-z
loop_
_atom_site_type_symbol
_atom_site_label
_atom_site_fract_x
_atom_site_fract_y
_atom_site_fract_z
Si Si1 0.815666 0.459566 0.749158
Si Si2 0.676933 0.354266 0.398163
Si Si3 0.724406 0.264723 0.707817
Si Si4 0.230628 0.375278 0.713648
Si Si5 0.296418 0.223176 0.166907
Si Si6 0.422935 0.920519 0.321754
Si Si7 0.297998 0.951600 0.561899
O O1 0.000000 0.500000 0.500000
O O2 0.912958 0.612425 0.578630
O O3 0.934451 0.379550 0.850025
O O4 0.444433 0.340014 0.049355
O O5 0.739464 0.331177 0.509817
O O6 0.422902 0.391949 0.488787
O O7 0.491466 0.186928 0.638769
O O8 0.000000 0.500000 0.000000
O O9 0.510354 0.283485 0.877830
O O10 0.618337 0.090900 0.961963
O O11 0.500000 0.500000 0.500000
O O12 0.064720 0.204457 0.049640
O O13 0.959934 0.184451 0.367054
O O14 0.236679 0.069221 0.418038
O O15 0.496501 0.942675 0.378001
O O16 0.500000 0.000000 0.500000
#
# Coordination Sequence:
#
# PCOD8014644 Si02
#       7
#     2   2   2   2   2   2   2
#     4  10  22  37  69  96 123 164 228 266 317 375
#     4  12  26  39  65 100 135 173 219 271 330 383
#     4  10  21  42  66  92 127 177 220 263 316 390
#     4  12  23  42  70  93 133 170 223 273 324 385
#     4  10  21  41  69  98 125 168 224 268 322 393
#     4  11  24  42  68  98 133 173 215 264 335 398
#     4  11  22  41  70 103 128 166 224 278 322 384
#
# _framework density 23.690329999999999
#
# number of rings (size 3 to 8) (size 9 to 14) (size 15 to 20)
#    0.000    1.143    2.857    4.714    6.000    0.000 
#    0.000    1.429    6.286    0.000    0.000    0.000 
#    0.000    0.000    0.000    0.000    0.000    0.000 
#
# Total GULP energy -173451.338923 kJ/mol
# GULP energy per Si atom -12389.381352 kJ/mol
# Density = 2.363641 g / cm^3
# Si number density = 23.690330 Si / 1000 Ang^3
#
#
#
# Elastic Constant Matrix: (Units=GPa)
#
#
# Indices 1 2 3 4 5 6 
#
# 1 101.9420 24.8992 29.8188 -7.9668 3.8205 31.0140
# 2 24.8992 112.4112 30.0116 -24.3807 -11.0837 16.8698
# 3 29.8188 30.0116 129.2894 -19.4842 8.3853 19.5424
# 4 -7.9668 -24.3807 -19.4842 31.0640 15.2439 -12.2260
# 5 3.8205 -11.0837 8.3853 15.2439 29.7198 -1.0358
# 6 31.0140 16.8698 19.5424 -12.2260 -1.0358 30.7587
#
#
#
# Elastic Compliance Matrix: (Units=1/GPa)
#
#
# Indices 1 2 3 4 5 6 
#
# 1 0.014799 -0.001594 -0.001335 -0.003727 -0.000721 -0.014705
# 2 -0.001594 0.011302 -0.001165 0.006628 0.001308 -0.001173
# 3 -0.001335 -0.001165 0.010265 0.008235 -0.007436 -0.001514
# 4 -0.003727 0.006628 0.008235 0.065087 -0.032072 0.019682
# 5 -0.000721 0.001308 -0.007436 -0.032072 0.052559 -0.006244
# 6 -0.014705 -0.001173 -0.001514 0.019682 -0.006244 0.056556
#
#
# Mechanical properties :
#
#
# Convention : Reuss Voigt Hill
#
# Bulk Modulus (GPa) = 35.48862 57.01130 46.24996
# Shear Modulus (GPa) = 21.91550 35.56938 28.74244
#
# Velocity S-wave (km/s) = 3.04482 3.87903 3.48696
# Velocity P-wave (km/s) = 5.23201 6.64680 5.98139
#
# Compressibility (1/GPa) = 0.02817805
#
# Stress axis : x y z
#
# Youngs Moduli (GPa) = 67.57307 88.47621 97.41827
#
# Poissons Ratio (x) = 0.14104 0.13009
# Poissons Ratio (y) = 0.10772 0.11346
# Poissons Ratio (z) = 0.09023 0.10305
#
# Static dielectric constant tensor:
#      x y z
#    x 4.843590 0.379590 -0.736310 
#    y 0.379590 4.644350 -0.432220 
#    z -0.736310 -0.432220 4.635400 
# 
# 
# High freq. dielectric constant tensor:
#      x y z
#    x 1.934730 0.024410 0.011790 
#    y 0.024410 1.928880 -0.033020 
#    z 0.011790 -0.033020 1.947320 
# 
# From -- ./inp_files/402801.got.cif
#   From: 2010.06.25/outbox.cif.g09.slc.cpg/sg2_202_cif.got.tgz:402801.got - 2010.06.27 13:26:56.
