data_PCOD8014328
_publ_section_title
;
Structure prediction by ZEFSAII (Michael W. Deem and Ramdas Pophale) SiO2 
 PCOD8014328
Probable space group: P -1
;
_chemical_formula_sum "Si O2"
_cell_formula_units_Z 12
_cell_length_a 9.153452
_cell_length_b 18.454067
_cell_length_c 14.408956
_cell_angle_alpha 159.041279
_cell_angle_beta 134.538430
_cell_angle_gamma 45.846202
_cell_volume 612.234429
_symmetry_space_group_name_H-M "P -1"
_symmetry_group_IT_number 2
_symmetry_cell_setting 'triclinic'
loop_
_space_group_symop_operation_xyz
x,y,z
-x,-y,-z
loop_
_atom_site_type_symbol
_atom_site_label
_atom_site_fract_x
_atom_site_fract_y
_atom_site_fract_z
Si Si1 0.953095 0.919107 0.782173
Si Si2 0.524126 0.917557 0.281714
Si Si3 0.738484 0.935389 0.050934
Si Si4 0.589255 0.312038 0.880671
Si Si5 0.994165 0.564025 0.780256
Si Si6 0.148116 0.122699 0.769818
O O1 0.985562 0.675013 0.507080
O O2 0.719936 0.009298 0.756846
O O3 0.000000 0.000000 0.000000
O O4 0.121508 0.968232 0.843630
O O5 0.555930 0.731987 0.149695
O O6 0.630214 0.105572 0.591097
O O7 0.647080 0.841373 0.152458
O O8 0.802247 0.684723 0.777564
O O9 0.500000 0.000000 0.000000
O O10 0.781444 0.009506 0.263541
O O11 0.500000 0.500000 0.000000
O O12 0.800392 0.360214 0.077228
O O13 0.966299 0.648427 0.975995
O O14 0.000000 0.000000 0.500000
#
# Coordination Sequence:
#
# PCOD8014328 Si02
#       6
#     2   2   2   2   2   2
#     4  12  25  43  69  94 129 178 228 274 322 394
#     4  11  21  40  65  96 129 168 216 271 324 389
#     4  10  23  46  65  93 138 174 219 280 324 397
#     4  11  21  39  68  95 130 168 215 271 329 390
#     4  10  23  43  65  97 132 170 223 266 338 393
#     4  10  21  41  66  96 135 170 214 273 336 391
#
# _framework density 19.600335000000001
#
# number of rings (size 3 to 8) (size 9 to 14) (size 15 to 20)
#    1.000    0.333    5.000    1.000    2.333    1.333 
#    3.000    1.667    0.000    0.000    0.000    0.000 
#    0.000    0.000    0.000    0.000    0.000    0.000 
#
# Total GULP energy -148671.247064 kJ/mol
# GULP energy per Si atom -12389.270589 kJ/mol
# Density = 1.955572 g / cm^3
# Si number density = 19.600335 Si / 1000 Ang^3
#
#
#
# Elastic Constant Matrix: (Units=GPa)
#
#
# Indices 1 2 3 4 5 6 
#
# 1 154.7037 48.8353 63.9621 1.7122 14.9282 14.2336
# 2 48.8353 126.3604 54.7064 1.3112 11.1121 2.0808
# 3 63.9621 54.7064 135.2905 7.1966 1.5767 9.6549
# 4 1.7122 1.3112 7.1966 34.6024 8.1300 -0.2278
# 5 14.9282 11.1121 1.5767 8.1300 23.4898 -1.3561
# 6 14.2336 2.0808 9.6549 -0.2278 -1.3561 39.8739
#
#
#
# Elastic Compliance Matrix: (Units=1/GPa)
#
#
# Indices 1 2 3 4 5 6 
#
# 1 0.009162 -0.001475 -0.003578 0.001646 -0.005599 -0.002508
# 2 -0.001475 0.010372 -0.003574 0.001409 -0.004176 0.000717
# 3 -0.003578 -0.003574 0.010706 -0.002906 0.004194 -0.001002
# 4 0.001646 0.001409 -0.002906 0.032359 -0.012729 -0.000205
# 5 -0.005599 -0.004176 0.004194 -0.012729 0.052397 0.002910
# 6 -0.002508 0.000717 -0.001002 -0.000205 0.002910 0.026277
#
#
# Mechanical properties :
#
#
# Convention : Reuss Voigt Hill
#
# Bulk Modulus (GPa) = 77.01430 83.48470 80.24950
# Shear Modulus (GPa) = 30.70184 36.18327 33.44256
#
# Velocity S-wave (km/s) = 3.96206 4.30123 4.13513
# Velocity P-wave (km/s) = 7.76584 8.20692 7.98942
#
# Compressibility (1/GPa) = 0.01298460
#
# Stress axis : x y z
#
# Youngs Moduli (GPa) = 109.14781 96.41225 93.40755
#
# Poissons Ratio (x) = 0.14221 0.33425
# Poissons Ratio (y) = 0.16100 0.33385
# Poissons Ratio (z) = 0.39057 0.34459
#
# Static dielectric constant tensor:
#      x y z
#    x 3.875800 0.021820 0.051040 
#    y 0.021820 3.626200 0.003500 
#    z 0.051040 0.003500 3.412650 
# 
# 
# High freq. dielectric constant tensor:
#      x y z
#    x 1.777950 -0.000440 0.008880 
#    y -0.000440 1.764670 0.000040 
#    z 0.008880 0.000040 1.747240 
# 
# From -- ./inp_files/258041.got.cif
#   From: 2010.06.25/outbox.cif.g09.slc.cpg/sg2_130_cif.got.tgz:258041.got - 2010.06.27 13:26:56.
