data_PCOD8014531
_publ_section_title
;
Structure prediction by ZEFSAII (Michael W. Deem and Ramdas Pophale) SiO2 
 PCOD8014531
Probable space group: P -1
;
_chemical_formula_sum "Si O2"
_cell_formula_units_Z 12
_cell_length_a 22.275868
_cell_length_b 19.230248
_cell_length_c 12.926919
_cell_angle_alpha 152.328555
_cell_angle_beta 160.682541
_cell_angle_gamma 18.606934
_cell_volume 582.475208
_symmetry_space_group_name_H-M "P -1"
_symmetry_group_IT_number 2
_symmetry_cell_setting 'triclinic'
loop_
_space_group_symop_operation_xyz
x,y,z
-x,-y,-z
loop_
_atom_site_type_symbol
_atom_site_label
_atom_site_fract_x
_atom_site_fract_y
_atom_site_fract_z
Si Si1 0.141978 0.288987 0.749175
Si Si2 0.318602 0.596473 0.233724
Si Si3 0.251428 0.324091 0.746868
Si Si4 0.699313 0.953261 0.683317
Si Si5 0.582846 0.176997 0.449073
Si Si6 0.543419 0.643168 0.289849
O O1 0.197127 0.346893 0.810545
O O2 0.850187 0.498700 0.590016
O O3 0.180353 0.086892 0.526309
O O4 0.323661 0.245629 0.078868
O O5 0.500000 0.500000 0.500000
O O6 0.356982 0.711040 0.371018
O O7 0.420369 0.373505 0.061514
O O8 0.004146 0.766153 0.972006
O O9 0.370690 0.095917 0.601395
O O10 0.000000 0.500000 0.500000
O O11 0.500000 0.000000 0.500000
O O12 0.623262 0.168914 0.820342
O O13 0.559223 0.250676 0.623884
O O14 0.500000 0.500000 0.000000
#
# Coordination Sequence:
#
# PCOD8014531 Si02
#       6
#     2   2   2   2   2   2
#     4  11  23  46  67  95 137 179 220 275 339 400
#     4  11  23  43  67  97 128 175 221 274 335 396
#     4  10  21  41  68  92 131 176 219 269 338 392
#     4  11  25  43  66  97 135 173 225 275 334 402
#     4  11  25  43  68  97 137 176 224 276 338 400
#     4  12  26  41  69 101 132 174 227 280 331 399
#
# _framework density 20.601737
#
# number of rings (size 3 to 8) (size 9 to 14) (size 15 to 20)
#    0.000    1.000    3.333    3.500    7.000    1.333 
#    0.000    0.833    0.000    0.000    0.000    0.000 
#    0.000    0.000    0.000    0.000    0.000    0.000 
#
# Total GULP energy -148672.623036 kJ/mol
# GULP energy per Si atom -12389.385253 kJ/mol
# Density = 2.055485 g / cm^3
# Si number density = 20.601737 Si / 1000 Ang^3
#
#
#
# Elastic Constant Matrix: (Units=GPa)
#
#
# Indices 1 2 3 4 5 6 
#
# 1 112.4761 40.4707 39.0357 5.6357 2.3513 13.0722
# 2 40.4707 114.1670 51.5958 14.3820 5.8217 18.7597
# 3 39.0357 51.5958 114.0368 14.5860 -3.4284 1.4576
# 4 5.6357 14.3820 14.5860 48.2382 4.0658 8.0159
# 5 2.3513 5.8217 -3.4284 4.0658 37.7279 3.1504
# 6 13.0722 18.7597 1.4576 8.0159 3.1504 40.1502
#
#
#
# Elastic Compliance Matrix: (Units=1/GPa)
#
#
# Indices 1 2 3 4 5 6 
#
# 1 0.010941 -0.002272 -0.002788 0.000696 -0.000451 -0.002503
# 2 -0.002272 0.012754 -0.004839 -0.001149 -0.001752 -0.004677
# 3 -0.002788 -0.004839 0.012271 -0.002629 0.002061 0.003086
# 4 0.000696 -0.001149 -0.002629 0.022628 -0.002215 -0.003938
# 5 -0.000451 -0.001752 0.002061 -0.002215 0.027297 -0.000809
# 6 -0.002503 -0.004677 0.003086 -0.003938 -0.000809 0.028644
#
#
# Mechanical properties :
#
#
# Convention : Reuss Voigt Hill
#
# Bulk Modulus (GPa) = 61.84500 66.98714 64.41607
# Shear Modulus (GPa) = 35.78514 39.19513 37.49013
#
# Velocity S-wave (km/s) = 4.17225 4.36652 4.27049
# Velocity P-wave (km/s) = 7.30032 7.61629 7.45998
#
# Compressibility (1/GPa) = 0.01616946
#
# Stress axis : x y z
#
# Youngs Moduli (GPa) = 91.39676 78.40811 81.49029
#
# Poissons Ratio (x) = 0.17814 0.22719
# Poissons Ratio (y) = 0.20765 0.39430
# Poissons Ratio (z) = 0.25481 0.37939
#
# Static dielectric constant tensor:
#      x y z
#    x 3.843430 -0.412370 -0.526690 
#    y -0.412370 10.502160 5.715450 
#    z -0.526690 5.715450 8.736140 
# 
# 
# High freq. dielectric constant tensor:
#      x y z
#    x 1.801210 0.020340 -0.004000 
#    y 0.020340 1.822640 0.017870 
#    z -0.004000 0.017870 1.817330 
# 
# From -- ./inp_files/164295.got.cif
#   From: 2010.06.25/outbox.cif.g09.slc.cpg/sg2_83_cif.got.tgz:164295.got - 2010.06.27 13:26:56.
