data_PCOD8014850
_publ_section_title
;
Structure prediction by ZEFSAII (Michael W. Deem and Ramdas Pophale) SiO2 
 PCOD8014850
Probable space group: P -1
;
_chemical_formula_sum "Si O2"
_cell_formula_units_Z 14
_cell_length_a 12.256159
_cell_length_b 10.289245
_cell_length_c 10.075663
_cell_angle_alpha 78.382090
_cell_angle_beta 137.336038
_cell_angle_gamma 75.529359
_cell_volume 675.059354
_symmetry_space_group_name_H-M "P -1"
_symmetry_group_IT_number 2
_symmetry_cell_setting 'triclinic'
loop_
_space_group_symop_operation_xyz
x,y,z
-x,-y,-z
loop_
_atom_site_type_symbol
_atom_site_label
_atom_site_fract_x
_atom_site_fract_y
_atom_site_fract_z
Si Si1 0.151189 0.460710 0.455134
Si Si2 0.698650 0.485713 0.672962
Si Si3 0.084390 0.211886 0.433559
Si Si4 0.697815 0.117125 0.429992
Si Si5 0.904579 0.819281 0.843456
Si Si6 0.729624 0.374444 0.276279
Si Si7 0.266456 0.314797 0.111419
O O1 0.303252 0.424557 0.480038
O O2 0.189624 0.290336 0.575465
O O3 0.194051 0.530625 0.605241
O O4 0.920599 0.584278 0.176031
O O5 0.500000 0.500000 0.500000
O O6 0.722040 0.566304 0.804955
O O7 0.882283 0.288556 0.867226
O O8 0.047792 0.275329 0.235329
O O9 0.872155 0.278687 0.297106
O O10 0.230519 0.010278 0.604712
O O11 0.753955 0.241273 0.428293
O O12 0.460923 0.214682 0.213156
O O13 0.814127 0.010882 0.691242
O O14 0.743131 0.814812 0.783690
O O15 0.500000 0.500000 0.000000
#
# Coordination Sequence:
#
# PCOD8014850 Si02
#       7
#     2   2   2   2   2   2   2
#     4  11  22  40  64  90 118 165 204 252 301 364
#     4  11  20  35  64  96 126 156 199 254 308 365
#     4  10  21  42  62  86 124 163 204 246 302 353
#     4  10  22  39  65  89 125 161 199 260 307 353
#     4   9  20  37  64  88 125 158 194 251 309 358
#     4  12  26  42  63  90 121 165 213 255 296 358
#     4  11  18  40  63  94 121 158 203 246 309 380
#
# _framework density 20.738916
#
# number of rings (size 3 to 8) (size 9 to 14) (size 15 to 20)
#    0.857    0.571    2.857    3.857    2.000    0.000 
#    0.000   13.571    0.000    0.000    0.000    0.000 
#    0.000    0.000    0.000    0.000    0.000    0.000 
#
# Total GULP energy -173492.995519 kJ/mol
# GULP energy per Si atom -12392.356823 kJ/mol
# Density = 2.069171 g / cm^3
# Si number density = 20.738916 Si / 1000 Ang^3
#
#
#
# Elastic Constant Matrix: (Units=GPa)
#
#
# Indices 1 2 3 4 5 6 
#
# 1 99.6346 7.0838 9.0102 1.2373 28.6834 -0.5089
# 2 7.0838 63.8642 15.7363 -5.5009 0.3505 7.5699
# 3 9.0102 15.7363 53.2280 6.7210 13.0210 -1.9400
# 4 1.2373 -5.5009 6.7210 27.9340 1.2509 -2.8211
# 5 28.6834 0.3505 13.0210 1.2509 37.3727 -4.0935
# 6 -0.5089 7.5699 -1.9400 -2.8211 -4.0935 41.3377
#
#
#
# Elastic Compliance Matrix: (Units=1/GPa)
#
#
# Indices 1 2 3 4 5 6 
#
# 1 0.013056 -0.001594 0.000858 -0.000694 -0.010345 -0.000579
# 2 -0.001594 0.018200 -0.006519 0.004788 0.002829 -0.003051
# 3 0.000858 -0.006519 0.023494 -0.006492 -0.008453 0.001027
# 4 -0.000694 0.004788 -0.006492 0.038422 0.001638 0.001594
# 5 -0.010345 0.002829 -0.008453 0.001638 0.037870 0.002820
# 6 -0.000579 -0.003051 0.001027 0.001594 0.002820 0.025179
#
#
# Mechanical properties :
#
#
# Convention : Reuss Voigt Hill
#
# Bulk Modulus (GPa) = 24.85011 31.15412 28.00212
# Shear Modulus (GPa) = 27.15273 33.65533 30.40403
#
# Velocity S-wave (km/s) = 3.62230 4.03278 3.83304
# Velocity P-wave (km/s) = 5.43168 6.06128 5.75510
#
# Compressibility (1/GPa) = 0.04024127
#
# Stress axis : x y z
#
# Youngs Moduli (GPa) = 76.59197 54.94550 42.56381
#
# Poissons Ratio (x) = 0.08759 -0.03653
# Poissons Ratio (y) = 0.12209 0.27746
# Poissons Ratio (z) = -0.06574 0.35817
#
# Static dielectric constant tensor:
#      x y z
#    x 3.947810 0.203010 0.259230 
#    y 0.203010 3.809100 0.096440 
#    z 0.259230 0.096440 4.089850 
# 
# 
# High freq. dielectric constant tensor:
#      x y z
#    x 1.827220 0.011040 0.009590 
#    y 0.011040 1.803760 -0.010280 
#    z 0.009590 -0.010280 1.788580 
# 
# From -- ./inp_files/416970.got.cif
#   From: 2010.06.25/outbox.cif.g09.slc.cpg/sg2_209_cif.got.tgz:416970.got - 2010.06.27 13:26:56.
