data_PCOD8014766
_publ_section_title
;
Structure prediction by ZEFSAII (Michael W. Deem and Ramdas Pophale) SiO2 
 PCOD8014766
Probable space group: P -1
;
_chemical_formula_sum "Si O2"
_cell_formula_units_Z 16
_cell_length_a 17.371205
_cell_length_b 8.875666
_cell_length_c 9.028630
_cell_angle_alpha 118.500470
_cell_angle_beta 47.324200
_cell_angle_gamma 96.818942
_cell_volume 853.065707
_symmetry_space_group_name_H-M "P -1"
_symmetry_group_IT_number 2
_symmetry_cell_setting 'triclinic'
loop_
_space_group_symop_operation_xyz
x,y,z
-x,-y,-z
loop_
_atom_site_type_symbol
_atom_site_label
_atom_site_fract_x
_atom_site_fract_y
_atom_site_fract_z
Si Si1 0.690103 0.665069 0.878988
Si Si2 0.257069 0.201773 0.695029
Si Si3 0.252074 0.560209 0.034829
Si Si4 0.316438 0.867565 0.960854
Si Si5 0.997761 0.192753 0.533990
Si Si6 0.500100 0.993779 0.320862
Si Si7 0.176272 0.098400 0.032407
Si Si8 0.194755 0.225910 0.458194
O O1 0.707514 0.484035 0.867369
O O2 0.746565 0.635928 0.628479
O O3 0.751582 0.783033 0.943485
O O4 0.561186 0.786262 0.092521
O O5 0.376799 0.054448 0.446085
O O6 0.182752 0.112525 0.853002
O O7 0.193705 0.249061 0.645644
O O8 0.273417 0.380315 0.826845
O O9 0.123760 0.671119 0.253892
O O10 0.325928 0.672755 0.922816
O O11 0.438225 0.871260 0.763030
O O12 0.238210 0.900595 0.930092
O O13 0.259768 0.020248 0.228773
O O14 0.068239 0.276533 0.592242
O O15 0.050575 0.171709 0.289432
O O16 0.000000 0.000000 0.500000
O O17 0.500000 0.000000 0.500000
#
# Coordination Sequence:
#
# PCOD8014766 Si02
#       8
#     2   2   2   2   2   2   2   2
#     4   8  18  32  53  76 107 139 186 205 250 331
#     4  11  21  33  56  82 112 134 177 231 267 297
#     4  11  19  33  58  83 101 138 185 226 254 308
#     4   9  18  33  57  78 104 141 190 203 254 337
#     4  10  18  35  60  74 104 146 178 216 266 319
#     4  10  16  35  56  78 107 149 175 215 260 318
#     4   8  16  32  51  77  99 142 178 206 254 332
#     4   9  20  37  52  80 109 144 175 216 268 326
#
# _framework density 18.755882
#
# number of rings (size 3 to 8) (size 9 to 14) (size 15 to 20)
#    0.000    3.000    6.250    0.000    0.000    7.500 
#    0.000    1.875    0.000    1.500    0.000    0.000 
#    0.000    0.000    0.000    0.000    0.000    0.000 
#
# Total GULP energy -198250.630292 kJ/mol
# GULP energy per Si atom -12390.664393 kJ/mol
# Density = 1.871319 g / cm^3
# Si number density = 18.755882 Si / 1000 Ang^3
#
#
#
# Elastic Constant Matrix: (Units=GPa)
#
#
# Indices 1 2 3 4 5 6 
#
# 1 52.6352 26.3795 36.0479 -14.7177 -4.2980 -18.8943
# 2 26.3795 124.0700 36.3457 -23.8171 2.5374 -20.6091
# 3 36.0479 36.3457 81.9318 -23.6928 -12.6657 -12.4755
# 4 -14.7177 -23.8171 -23.6928 34.2221 -9.3344 3.3244
# 5 -4.2980 2.5374 -12.6657 -9.3344 35.4253 -4.8508
# 6 -18.8943 -20.6091 -12.4755 3.3244 -4.8508 24.6533
#
#
#
# Elastic Compliance Matrix: (Units=1/GPa)
#
#
# Indices 1 2 3 4 5 6 
#
# 1 0.036765 0.000496 -0.008813 0.009647 0.007134 0.024235
# 2 0.000496 0.010996 -0.001896 0.006130 0.001311 0.008045
# 3 -0.008813 -0.001896 0.023284 0.013786 0.011552 0.003857
# 4 0.009647 0.006130 0.013786 0.051416 0.021508 0.016793
# 5 0.007134 0.001311 0.011552 0.021508 0.041210 0.017618
# 6 0.024235 0.008045 0.003857 0.016793 0.017618 0.069015
#
#
# Mechanical properties :
#
#
# Convention : Reuss Voigt Hill
#
# Bulk Modulus (GPa) = 19.75524 50.68703 35.22113
# Shear Modulus (GPa) = 18.51958 29.51774 24.01866
#
# Velocity S-wave (km/s) = 3.14570 3.97140 3.58242
# Velocity P-wave (km/s) = 4.87336 6.93633 5.99426
#
# Compressibility (1/GPa) = 0.05061949
#
# Stress axis : x y z
#
# Youngs Moduli (GPa) = 27.19945 90.94189 42.94835
#
# Poissons Ratio (x) = -0.04515 0.37851
# Poissons Ratio (y) = -0.01350 0.08144
# Poissons Ratio (z) = 0.23972 0.17244
#
# Static dielectric constant tensor:
#      x y z
#    x 3.235020 -0.446470 -0.247790 
#    y -0.446470 3.978280 -0.390360 
#    z -0.247790 -0.390360 3.774990 
# 
# 
# High freq. dielectric constant tensor:
#      x y z
#    x 1.686670 -0.025560 -0.020980 
#    y -0.025560 1.727470 -0.028700 
#    z -0.020980 -0.028700 1.725350 
# 
# From -- ./inp_files/326401.got.cif
#   From: 2010.06.25/outbox.cif.g09.slc.cpg/sg2_164_cif.got.tgz:326401.got - 2010.06.27 13:26:56.
