data_PCOD8014268
_publ_section_title
;
Structure prediction by ZEFSAII (Michael W. Deem and Ramdas Pophale) SiO2 
 PCOD8014268
Probable space group: P -1
;
_chemical_formula_sum "Si O2"
_cell_formula_units_Z 12
_cell_length_a 5.501061
_cell_length_b 8.979568
_cell_length_c 12.081046
_cell_angle_alpha 84.439249
_cell_angle_beta 114.322966
_cell_angle_gamma 70.625532
_cell_volume 493.709905
_symmetry_space_group_name_H-M "P -1"
_symmetry_group_IT_number 2
_symmetry_cell_setting 'triclinic'
loop_
_space_group_symop_operation_xyz
x,y,z
-x,-y,-z
loop_
_atom_site_type_symbol
_atom_site_label
_atom_site_fract_x
_atom_site_fract_y
_atom_site_fract_z
Si Si1 0.292758 0.757924 0.107108
Si Si2 0.613342 0.917366 0.290448
Si Si3 0.991325 0.659621 0.547306
Si Si4 0.782459 0.003642 0.106546
Si Si5 0.140113 0.239398 0.249709
Si Si6 0.472879 0.615400 0.794281
O O1 0.564096 0.789966 0.206363
O O2 0.382834 0.567787 0.118397
O O3 0.041372 0.825825 0.147289
O O4 0.161418 0.852635 0.959293
O O5 0.854262 0.818929 0.432692
O O6 0.738595 0.026469 0.230580
O O7 0.309739 0.041260 0.282537
O O8 0.801127 0.699263 0.622742
O O9 0.000000 0.500000 0.500000
O O10 0.325184 0.626924 0.644191
O O11 0.500000 0.000000 0.000000
O O12 0.266664 0.322431 0.172851
O O13 0.788326 0.284950 0.173340
#
# Coordination Sequence:
#
# PCOD8014268 Si02
#       6
#     2   2   2   2   2   2
#     4  10  21  41  66  91 123 166 220 262 308 379
#     4  11  21  41  65  92 129 168 208 264 313 379
#     4  10  22  40  62  98 125 170 212 254 313 377
#     4   9  22  37  66  92 120 163 220 261 317 367
#     4  10  25  41  60 100 131 168 206 258 323 371
#     4  10  24  42  65  91 134 165 211 258 314 376
#
# _framework density 24.305772999999999
#
# number of rings (size 3 to 8) (size 9 to 14) (size 15 to 20)
#    1.000    1.000    1.667    0.500    9.333    2.667 
#    0.000    1.667    0.000    0.000    0.000    0.000 
#    0.000    0.000    0.000    0.000    0.000    0.000 
#
# Total GULP energy -148673.429246 kJ/mol
# GULP energy per Si atom -12389.452437 kJ/mol
# Density = 2.425045 g / cm^3
# Si number density = 24.305773 Si / 1000 Ang^3
#
#
#
# Elastic Constant Matrix: (Units=GPa)
#
#
# Indices 1 2 3 4 5 6 
#
# 1 133.1553 32.1280 17.4193 -18.0287 -28.5200 -6.4677
# 2 32.1280 116.4057 30.4817 -14.5861 -20.2833 -13.3026
# 3 17.4193 30.4817 74.8856 -19.2280 -22.7003 -24.7105
# 4 -18.0287 -14.5861 -19.2280 48.5988 -4.1224 2.5922
# 5 -28.5200 -20.2833 -22.7003 -4.1224 32.3458 1.8923
# 6 -6.4677 -13.3026 -24.7105 2.5922 1.8923 36.9152
#
#
#
# Elastic Compliance Matrix: (Units=1/GPa)
#
#
# Indices 1 2 3 4 5 6 
#
# 1 0.010938 -0.000712 0.004562 0.006563 0.013026 0.003585
# 2 -0.000712 0.010672 -0.000792 0.002968 0.005730 0.002689
# 3 0.004562 -0.000792 0.030119 0.014551 0.025444 0.018349
# 4 0.006563 0.002968 0.014551 0.031002 0.021302 0.008690
# 5 0.013026 0.005730 0.025444 0.021302 0.065600 0.016520
# 6 0.003585 0.002689 0.018349 0.008690 0.016520 0.039511
#
#
# Mechanical properties :
#
#
# Convention : Reuss Voigt Hill
#
# Bulk Modulus (GPa) = 17.28763 53.83385 35.56074
# Shear Modulus (GPa) = 24.87476 39.86645 32.37060
#
# Velocity S-wave (km/s) = 3.20255 4.05434 3.65335
# Velocity P-wave (km/s) = 4.56104 6.64180 5.69722
#
# Compressibility (1/GPa) = 0.05784483
#
# Stress axis : x y z
#
# Youngs Moduli (GPa) = 91.42756 93.70239 33.20192
#
# Poissons Ratio (x) = 0.06668 -0.15147
# Poissons Ratio (y) = 0.06506 0.02631
# Poissons Ratio (z) = -0.41711 0.07424
#
# Static dielectric constant tensor:
#      x y z
#    x 4.700950 0.160450 -0.336340 
#    y 0.160450 4.464800 -0.129060 
#    z -0.336340 -0.129060 4.500290 
# 
# 
# High freq. dielectric constant tensor:
#      x y z
#    x 1.961140 -0.008780 -0.005370 
#    y -0.008780 1.971930 0.008110 
#    z -0.005370 0.008110 1.959330 
# 
# From -- ./inp_files/36932.got.cif
#   From: 2010.06.25/outbox.cif.g09.slc.cpg/sg2_19_cif.got.tgz:36932.got - 2010.06.27 13:26:56.
