data_PCOD8014454
_publ_section_title
;
Structure prediction by ZEFSAII (Michael W. Deem and Ramdas Pophale) SiO2 
 PCOD8014454
Probable space group: P -1
;
_chemical_formula_sum "Si O2"
_cell_formula_units_Z 16
_cell_length_a 13.630653
_cell_length_b 16.996442
_cell_length_c 7.738340
_cell_angle_alpha 87.587202
_cell_angle_beta 102.342883
_cell_angle_gamma 154.372102
_cell_volume 707.718468
_symmetry_space_group_name_H-M "P -1"
_symmetry_group_IT_number 2
_symmetry_cell_setting 'triclinic'
loop_
_space_group_symop_operation_xyz
x,y,z
-x,-y,-z
loop_
_atom_site_type_symbol
_atom_site_label
_atom_site_fract_x
_atom_site_fract_y
_atom_site_fract_z
Si Si1 0.532911 0.344261 0.484623
Si Si2 0.709130 0.933106 0.034054
Si Si3 0.941067 0.083468 0.767222
Si Si4 0.867036 0.478626 0.783319
Si Si5 0.830681 0.448220 0.165432
Si Si6 0.760376 0.820232 0.308660
Si Si7 0.270569 0.881648 0.838438
Si Si8 0.991040 0.282585 0.583666
O O1 0.637002 0.334629 0.588788
O O2 0.474158 0.356202 0.632336
O O3 0.739568 0.535305 0.425881
O O4 0.275699 0.137586 0.315106
O O5 0.447819 0.745377 0.843755
O O6 0.938105 0.098627 0.969580
O O7 0.723941 0.870214 0.171968
O O8 0.719754 0.019013 0.141649
O O9 0.904767 0.137723 0.642222
O O10 0.201621 0.229469 0.794234
O O11 0.013362 0.516747 0.724711
O O12 0.031743 0.674326 0.860230
O O13 0.778850 0.392774 0.948282
O O14 0.982806 0.635126 0.259024
O O15 0.000000 0.000000 0.500000
O O16 0.222921 0.838344 0.616681
O O17 0.500000 0.000000 0.000000
#
# Coordination Sequence:
#
# PCOD8014454 Si02
#       8
#     2   2   2   2   2   2   2   2
#     4  10  21  41  67  96 137 174 217 276 331 394
#     4  12  22  43  71  95 138 174 222 277 331 398
#     4  11  24  43  68  97 135 176 226 278 334 385
#     4  10  22  39  66  93 138 176 214 267 337 390
#     4  11  22  40  66  97 133 175 219 270 334 395
#     4  10  22  42  70  97 128 178 225 277 338 387
#     4  11  23  40  65 100 131 179 221 266 326 403
#     4  11  25  42  67 101 139 171 225 273 331 395
#
# _framework density 22.607859999999999
#
# number of rings (size 3 to 8) (size 9 to 14) (size 15 to 20)
#    0.000    1.250    3.750    2.625    0.000    3.500 
#    0.000    3.750    0.000    0.000    0.000    0.000 
#    0.000    0.000    0.000    0.000    0.000    0.000 
#
# Total GULP energy -198227.678720 kJ/mol
# GULP energy per Si atom -12389.229920 kJ/mol
# Density = 2.255640 g / cm^3
# Si number density = 22.607860 Si / 1000 Ang^3
#
#
#
# Elastic Constant Matrix: (Units=GPa)
#
#
# Indices 1 2 3 4 5 6 
#
# 1 117.3058 11.2964 34.5770 3.4119 -4.5295 6.5998
# 2 11.2964 62.1555 15.8706 -7.2403 -8.2077 -0.2657
# 3 34.5770 15.8706 66.4395 -7.2874 -7.2184 5.3375
# 4 3.4119 -7.2403 -7.2874 32.4805 3.1958 -5.3694
# 5 -4.5295 -8.2077 -7.2184 3.1958 28.2668 1.4018
# 6 6.5998 -0.2657 5.3375 -5.3694 1.4018 33.0426
#
#
#
# Elastic Compliance Matrix: (Units=1/GPa)
#
#
# Indices 1 2 3 4 5 6 
#
# 1 0.010364 -0.000794 -0.005323 -0.002786 0.000470 -0.001689
# 2 -0.000794 0.017933 -0.003198 0.003179 0.003846 0.001173
# 3 -0.005323 -0.003198 0.019426 0.003656 0.002847 -0.001627
# 4 -0.002786 0.003179 0.003656 0.033799 -0.002689 0.005598
# 5 0.000470 0.003846 0.002847 -0.002689 0.037727 -0.002560
# 6 -0.001689 0.001173 -0.001627 0.005598 -0.002560 0.031892
#
#
# Mechanical properties :
#
#
# Convention : Reuss Voigt Hill
#
# Bulk Modulus (GPa) = 34.37252 41.04320 37.70786
# Shear Modulus (GPa) = 27.85984 31.03509 29.44746
#
# Velocity S-wave (km/s) = 3.51423 3.70909 3.61298
# Velocity P-wave (km/s) = 5.63056 6.04458 5.84124
#
# Compressibility (1/GPa) = 0.02909300
#
# Stress axis : x y z
#
# Youngs Moduli (GPa) = 96.48406 55.76397 51.47617
#
# Poissons Ratio (x) = 0.04429 0.27401
# Poissons Ratio (y) = 0.07663 0.16463
# Poissons Ratio (z) = 0.51359 0.17834
#
# Static dielectric constant tensor:
#      x y z
#    x 5.130630 0.820740 0.045660 
#    y 0.820740 4.339050 0.004630 
#    z 0.045660 0.004630 4.033400 
# 
# 
# High freq. dielectric constant tensor:
#      x y z
#    x 1.896260 0.011080 -0.000890 
#    y 0.011080 1.879550 -0.009330 
#    z -0.000890 -0.009330 1.888780 
# 
# From -- ./inp_files/273209.got.cif
#   From: 2010.06.25/outbox.cif.g09.slc.cpg/sg2_137_cif.got.tgz:273209.got - 2010.06.27 13:26:56.
