data_PCOD8014973
_publ_section_title
;
Structure prediction by ZEFSAII (Michael W. Deem and Ramdas Pophale) SiO2 
 PCOD8014973
Probable space group: P -1
;
_chemical_formula_sum "Si O2"
_cell_formula_units_Z 16
_cell_length_a 8.972979
_cell_length_b 18.837202
_cell_length_c 10.399608
_cell_angle_alpha 34.830248
_cell_angle_beta 94.301119
_cell_angle_gamma 71.488450
_cell_volume 747.198587
_symmetry_space_group_name_H-M "P -1"
_symmetry_group_IT_number 2
_symmetry_cell_setting 'triclinic'
loop_
_space_group_symop_operation_xyz
x,y,z
-x,-y,-z
loop_
_atom_site_type_symbol
_atom_site_label
_atom_site_fract_x
_atom_site_fract_y
_atom_site_fract_z
Si Si1 0.030065 0.123291 0.776392
Si Si2 0.425046 0.894862 0.994273
Si Si3 0.350411 0.551528 0.803237
Si Si4 0.406983 0.422195 0.389773
Si Si5 0.133741 0.280884 0.716087
Si Si6 0.758726 0.620746 0.814414
Si Si7 0.657137 0.907287 0.532495
Si Si8 0.995641 0.626809 0.145257
O O1 0.015823 0.224608 0.745430
O O2 0.847247 0.255459 0.473190
O O3 0.238795 0.044271 0.843301
O O4 0.000000 0.000000 0.000000
O O5 0.457476 0.732472 0.272777
O O6 0.630414 0.853786 0.102589
O O7 0.364115 0.950194 0.757670
O O8 0.461161 0.529943 0.709901
O O9 0.500000 0.500000 0.000000
O O10 0.288760 0.441974 0.972671
O O11 0.335567 0.380709 0.321771
O O12 0.212052 0.573907 0.230978
O O13 0.119292 0.286257 0.860245
O O14 0.029860 0.459338 0.380399
O O15 0.636067 0.813959 0.557061
O O16 0.000000 0.500000 0.000000
O O17 0.500000 0.000000 0.500000
O O18 0.873679 0.756982 0.828246
#
# Coordination Sequence:
#
# PCOD8014973 Si02
#       8
#     2   2   2   2   2   2   2   2
#     4  12  24  41  64  97 133 163 215 271 332 390
#     4  11  24  38  65  96 132 163 215 273 328 382
#     4  10  23  42  61  93 132 167 213 264 321 389
#     4  10  22  41  64  94 124 172 215 264 321 397
#     4  10  23  41  67  92 128 174 210 273 325 393
#     4  11  22  39  69  96 124 171 222 267 322 386
#     4  12  24  38  62 100 132 163 215 282 327 375
#     4  10  21  42  64  91 129 169 224 261 327 393
#
# _framework density 21.413315000000001
#
# number of rings (size 3 to 8) (size 9 to 14) (size 15 to 20)
#    0.000    1.250    3.750    1.875    8.750    0.000 
#    0.000    1.875    0.000    1.500    0.000    0.000 
#    0.000    0.000    0.000    0.000    0.000    0.000 
#
# Total GULP energy -198235.283823 kJ/mol
# GULP energy per Si atom -12389.705239 kJ/mol
# Density = 2.136458 g / cm^3
# Si number density = 21.413315 Si / 1000 Ang^3
#
#
#
# Elastic Constant Matrix: (Units=GPa)
#
#
# Indices 1 2 3 4 5 6 
#
# 1 123.1308 44.8879 51.2040 0.8648 -7.9403 -24.5235
# 2 44.8879 70.3377 36.1154 -0.7662 -3.3780 -17.3377
# 3 51.2040 36.1154 148.3267 24.6568 2.4475 -7.7836
# 4 0.8648 -0.7662 24.6568 38.9968 -12.2938 -1.0116
# 5 -7.9403 -3.3780 2.4475 -12.2938 40.5944 6.2361
# 6 -24.5235 -17.3377 -7.7836 -1.0116 6.2361 31.5473
#
#
#
# Elastic Compliance Matrix: (Units=1/GPa)
#
#
# Indices 1 2 3 4 5 6 
#
# 1 0.012526 -0.004672 -0.003331 0.002559 0.002114 0.006012
# 2 -0.004672 0.020855 -0.003677 0.003332 0.001003 0.006831
# 3 -0.003331 -0.003677 0.010004 -0.007493 -0.003572 -0.001676
# 4 0.002559 0.003332 -0.007493 0.034006 0.011404 0.000808
# 5 0.002114 0.001003 -0.003572 0.011404 0.029436 -0.004140
# 6 0.006012 0.006831 -0.001676 0.000808 -0.004140 0.040556
#
#
# Mechanical properties :
#
#
# Convention : Reuss Voigt Hill
#
# Bulk Modulus (GPa) = 49.94013 67.35663 58.64838
# Shear Modulus (GPa) = 28.18223 36.20025 32.19124
#
# Velocity S-wave (km/s) = 3.63176 4.11609 3.88148
# Velocity P-wave (km/s) = 6.39991 7.35618 6.89464
#
# Compressibility (1/GPa) = 0.02002398
#
# Stress axis : x y z
#
# Youngs Moduli (GPa) = 79.83713 47.95060 99.96269
#
# Poissons Ratio (x) = 0.22402 0.33299
# Poissons Ratio (y) = 0.37299 0.36756
# Poissons Ratio (z) = 0.26595 0.17631
#
# Static dielectric constant tensor:
#      x y z
#    x 4.290370 -0.523850 -0.048390 
#    y -0.523850 3.832090 0.177360 
#    z -0.048390 0.177360 4.317590 
# 
# 
# High freq. dielectric constant tensor:
#      x y z
#    x 1.831640 -0.035020 0.010580 
#    y -0.035020 1.817400 0.014530 
#    z 0.010580 0.014530 1.863310 
# 
# From -- ./inp_files/295540.got.cif
#   From: 2010.06.25/outbox.cif.g09.slc.cpg/sg2_148_cif.got.tgz:295540.got - 2010.06.27 13:26:56.
