data_PCOD8014496
_publ_section_title
;
Structure prediction by ZEFSAII (Michael W. Deem and Ramdas Pophale) SiO2 
 PCOD8014496
Probable space group: P -1
;
_chemical_formula_sum "Si O2"
_cell_formula_units_Z 14
_cell_length_a 20.667179
_cell_length_b 8.993938
_cell_length_c 13.903788
_cell_angle_alpha 128.083747
_cell_angle_beta 30.126370
_cell_angle_gamma 147.855791
_cell_volume 622.224897
_symmetry_space_group_name_H-M "P -1"
_symmetry_group_IT_number 2
_symmetry_cell_setting 'triclinic'
loop_
_space_group_symop_operation_xyz
x,y,z
-x,-y,-z
loop_
_atom_site_type_symbol
_atom_site_label
_atom_site_fract_x
_atom_site_fract_y
_atom_site_fract_z
Si Si1 0.871388 0.230573 0.483813
Si Si2 0.500850 0.071757 0.274452
Si Si3 0.320802 0.379620 0.462228
Si Si4 0.910238 0.730135 0.933218
Si Si5 0.288389 0.063804 0.703070
Si Si6 0.920761 0.083596 0.917323
Si Si7 0.558449 0.707571 0.093851
O O1 0.000000 0.500000 0.500000
O O2 0.018518 0.374794 0.258490
O O3 0.652768 0.081512 0.680252
O O4 0.819033 0.969630 0.495084
O O5 0.372189 0.987964 0.501905
O O6 0.562442 0.925929 0.140245
O O7 0.710413 0.441912 0.140751
O O8 0.510117 0.583166 0.376917
O O9 0.389649 0.492221 0.309968
O O10 0.168226 0.376428 0.690014
O O11 0.857099 0.826912 0.961478
O O12 0.126180 0.021214 0.837326
O O13 0.157939 0.838486 0.877000
O O14 0.790846 0.927839 0.922979
O O15 0.500000 0.500000 0.000000
#
# Coordination Sequence:
#
# PCOD8014496 Si02
#       7
#     2   2   2   2   2   2   2
#     4  10  24  41  65  97 128 168 220 263 318 375
#     4  11  24  41  65  96 133 169 208 273 314 378
#     4  10  23  44  68  95 131 170 209 273 316 379
#     4  10  22  39  67  99 126 167 211 266 321 378
#     4  10  21  41  68 100 129 162 219 260 328 379
#     4  10  22  40  65  95 126 170 210 259 320 377
#     4  11  27  43  62  93 130 177 219 255 321 384
#
# _framework density 22.499903
#
# number of rings (size 3 to 8) (size 9 to 14) (size 15 to 20)
#    0.000    1.714    0.000    3.000    6.000   13.714 
#    0.000    4.286    0.000    0.000    0.000    0.000 
#    0.000    0.000    0.000    0.000    0.000    0.000 
#
# Total GULP energy -173520.582270 kJ/mol
# GULP energy per Si atom -12394.327305 kJ/mol
# Density = 2.244869 g / cm^3
# Si number density = 22.499903 Si / 1000 Ang^3
#
#
#
# Elastic Constant Matrix: (Units=GPa)
#
#
# Indices 1 2 3 4 5 6 
#
# 1 105.4674 39.0465 52.3685 -0.3926 -8.9142 16.2627
# 2 39.0465 78.8027 36.3510 -2.3494 -4.4076 14.8379
# 3 52.3685 36.3510 159.0319 -14.2273 -3.9525 10.2321
# 4 -0.3926 -2.3494 -14.2273 25.6864 -1.1544 -6.7417
# 5 -8.9142 -4.4076 -3.9525 -1.1544 36.2686 -2.1409
# 6 16.2627 14.8379 10.2321 -6.7417 -2.1409 37.5362
#
#
#
# Elastic Compliance Matrix: (Units=1/GPa)
#
#
# Indices 1 2 3 4 5 6 
#
# 1 0.013543 -0.004422 -0.003429 -0.002945 0.002112 -0.003593
# 2 -0.004422 0.016662 -0.002144 -0.000816 0.000430 -0.004208
# 3 -0.003429 -0.002144 0.008257 0.004561 -0.000005 0.000901
# 4 -0.002945 -0.000816 0.004561 0.043578 0.001549 0.008270
# 5 0.002112 0.000430 -0.000005 0.001549 0.028240 0.000805
# 6 -0.003593 -0.004208 0.000901 0.008270 0.000805 0.031147
#
#
# Mechanical properties :
#
#
# Convention : Reuss Voigt Hill
#
# Bulk Modulus (GPa) = 54.13342 66.53712 60.33527
# Shear Modulus (GPa) = 29.83767 34.26730 32.05249
#
# Velocity S-wave (km/s) = 3.64555 3.90679 3.77843
# Velocity P-wave (km/s) = 6.46774 7.07016 6.77565
#
# Compressibility (1/GPa) = 0.01847288
#
# Stress axis : x y z
#
# Youngs Moduli (GPa) = 73.84048 60.01648 121.10794
#
# Poissons Ratio (x) = 0.26539 0.41523
# Poissons Ratio (y) = 0.32651 0.25966
# Poissons Ratio (z) = 0.25317 0.12868
#
# Static dielectric constant tensor:
#      x y z
#    x 4.079420 0.222570 0.023060 
#    y 0.222570 3.652180 0.150450 
#    z 0.023060 0.150450 4.831090 
# 
# 
# High freq. dielectric constant tensor:
#      x y z
#    x 1.887770 0.016180 -0.006580 
#    y 0.016180 1.857470 0.005320 
#    z -0.006580 0.005320 1.921020 
# 
# From -- ./inp_files/337786.got.cif
#   From: 2010.06.25/outbox.cif.g09.slc.cpg/sg2_169_cif.got.tgz:337786.got - 2010.06.27 13:26:56.
