data_PCOD8014278
_publ_section_title
;
Structure prediction by ZEFSAII (Michael W. Deem and Ramdas Pophale) SiO2 
 PCOD8014278
Probable space group: P -1
;
_chemical_formula_sum "Si O2"
_cell_formula_units_Z 12
_cell_length_a 14.409836
_cell_length_b 9.735681
_cell_length_c 17.065992
_cell_angle_alpha 148.614175
_cell_angle_beta 155.608067
_cell_angle_gamma 45.751321
_cell_volume 478.266784
_symmetry_space_group_name_H-M "P -1"
_symmetry_group_IT_number 2
_symmetry_cell_setting 'triclinic'
loop_
_space_group_symop_operation_xyz
x,y,z
-x,-y,-z
loop_
_atom_site_type_symbol
_atom_site_label
_atom_site_fract_x
_atom_site_fract_y
_atom_site_fract_z
Si Si1 0.114643 0.791088 0.775748
Si Si2 0.875752 0.192172 0.719085
Si Si3 0.397371 0.979152 0.824586
Si Si4 0.028969 0.344881 0.226362
Si Si5 0.203874 0.403944 0.942397
Si Si6 0.464248 0.180691 0.489834
O O1 0.000000 0.500000 0.500000
O O2 0.102582 0.729694 0.828550
O O3 0.392804 0.956809 0.047330
O O4 0.951336 0.971490 0.719433
O O5 0.589091 0.118601 0.476759
O O6 0.947966 0.200916 0.687204
O O7 0.000000 0.500000 0.000000
O O8 0.281459 0.222573 0.849335
O O9 0.193056 0.675357 0.505232
O O10 0.500000 0.000000 0.000000
O O11 0.192771 0.153615 0.242580
O O12 0.827152 0.321119 0.991757
O O13 0.397372 0.501990 0.211272
O O14 0.500000 0.000000 0.500000
#
# Coordination Sequence:
#
# PCOD8014278 Si02
#       6
#     2   2   2   2   2   2
#     4  12  22  40  72  97 129 181 222 266 336 399
#     4  10  21  41  66  92 130 176 215 266 335 393
#     4  12  21  42  69  94 135 173 214 269 338 392
#     4  12  25  43  68 101 131 171 224 277 323 394
#     4  11  24  43  66  98 132 169 220 276 328 392
#     4  11  22  42  66  91 131 173 216 268 329 389
#
# _framework density 25.090599000000001
#
# number of rings (size 3 to 8) (size 9 to 14) (size 15 to 20)
#    0.000    0.667    6.667    1.500    0.000    2.000 
#    3.000    0.000    0.000    0.000    0.000    0.000 
#    0.000    0.000    0.000    0.000    0.000    0.000 
#
# Total GULP energy -148795.460349 kJ/mol
# GULP energy per Si atom -12399.621696 kJ/mol
# Density = 2.503349 g / cm^3
# Si number density = 25.090599 Si / 1000 Ang^3
#
#
#
# Elastic Constant Matrix: (Units=GPa)
#
#
# Indices 1 2 3 4 5 6 
#
# 1 167.7490 40.5881 38.0643 -29.3168 42.0122 0.8125
# 2 40.5881 161.2177 34.0572 -19.2695 6.3178 -7.1963
# 3 38.0643 34.0572 76.6187 -22.7964 15.2978 -2.3907
# 4 -29.3168 -19.2695 -22.7964 41.2584 0.8332 1.7179
# 5 42.0122 6.3178 15.2978 0.8332 36.3194 -5.0281
# 6 0.8125 -7.1963 -2.3907 1.7179 -5.0281 52.6412
#
#
#
# Elastic Compliance Matrix: (Units=1/GPa)
#
#
# Indices 1 2 3 4 5 6 
#
# 1 0.010745 -0.001405 -0.000106 0.007249 -0.012556 -0.001799
# 2 -0.001405 0.007177 -0.002503 0.000897 0.001550 0.001008
# 3 -0.000106 -0.002503 0.018398 0.009093 -0.007471 -0.000515
# 4 0.007249 0.000897 0.009093 0.035187 -0.013457 -0.002010
# 5 -0.012556 0.001550 -0.007471 -0.013457 0.045920 0.004892
# 6 -0.001799 0.001008 -0.000515 -0.002010 0.004892 0.019671
#
#
# Mechanical properties :
#
#
# Convention : Reuss Voigt Hill
#
# Bulk Modulus (GPa) = 35.34575 70.11163 52.72869
# Shear Modulus (GPa) = 32.35020 45.56887 38.95954
#
# Velocity S-wave (km/s) = 3.59463 4.26628 3.94478
# Velocity P-wave (km/s) = 5.59878 7.22996 6.46601
#
# Compressibility (1/GPa) = 0.02829194
#
# Stress axis : x y z
#
# Youngs Moduli (GPa) = 93.06268 139.33902 54.35312
#
# Poissons Ratio (x) = 0.19572 0.00578
# Poissons Ratio (y) = 0.13072 0.13606
# Poissons Ratio (z) = 0.00990 0.34879
#
# Static dielectric constant tensor:
#      x y z
#    x 5.384490 -0.257600 0.054310 
#    y -0.257600 4.861790 0.117290 
#    z 0.054310 0.117290 5.528730 
# 
# 
# High freq. dielectric constant tensor:
#      x y z
#    x 1.999910 -0.008060 0.014030 
#    y -0.008060 2.025700 0.012770 
#    z 0.014030 0.012770 2.009860 
# 
# From -- ./inp_files/160810.got.cif
#   From: 2010.06.25/outbox.cif.g09.slc.cpg/sg2_81_cif.got.tgz:160810.got - 2010.06.27 13:26:56.
