data_PCOD8014692
_publ_section_title
;
Structure prediction by ZEFSAII (Michael W. Deem and Ramdas Pophale) SiO2 
 PCOD8014692
Probable space group: P -1
;
_chemical_formula_sum "Si O2"
_cell_formula_units_Z 14
_cell_length_a 12.469671
_cell_length_b 9.295072
_cell_length_c 15.104918
_cell_angle_alpha 51.794807
_cell_angle_beta 153.476019
_cell_angle_gamma 119.956249
_cell_volume 607.040789
_symmetry_space_group_name_H-M "P -1"
_symmetry_group_IT_number 2
_symmetry_cell_setting 'triclinic'
loop_
_space_group_symop_operation_xyz
x,y,z
-x,-y,-z
loop_
_atom_site_type_symbol
_atom_site_label
_atom_site_fract_x
_atom_site_fract_y
_atom_site_fract_z
Si Si1 0.464975 0.229493 0.309758
Si Si2 0.547855 0.435091 0.960788
Si Si3 0.969221 0.101582 0.047343
Si Si4 0.087176 0.316415 0.388513
Si Si5 0.110703 0.046048 0.356082
Si Si6 0.276765 0.162721 0.769442
Si Si7 0.203455 0.722746 0.309035
O O1 0.443082 0.393600 0.161656
O O2 0.209519 0.166330 0.160090
O O3 0.554477 0.294503 0.446546
O O4 0.647413 0.054841 0.473827
O O5 0.331096 0.327558 0.810802
O O6 0.500000 0.500000 0.000000
O O7 0.803828 0.297200 0.198955
O O8 0.934941 0.146510 0.109383
O O9 0.993745 0.878771 0.137251
O O10 0.750653 0.212128 0.783926
O O11 0.183265 0.199358 0.417597
O O12 0.246968 0.234375 0.620259
O O13 0.105830 0.529605 0.307683
O O14 0.974215 0.898462 0.361714
O O15 0.500000 0.000000 0.000000
#
# Coordination Sequence:
#
# PCOD8014692 Si02
#       7
#     2   2   2   2   2   2   2
#     4  11  23  47  67 103 137 177 233 280 336 406
#     4  12  27  42  74 102 133 182 230 285 338 407
#     4  10  23  45  69 100 139 180 228 281 336 401
#     4  12  25  47  66 105 138 178 229 283 338 411
#     4  11  25  43  72 100 141 183 225 280 343 408
#     4  12  27  48  67 101 144 177 225 287 348 401
#     4  10  21  41  70  95 137 176 226 276 332 398
#
# _framework density 23.062701000000001
#
# number of rings (size 3 to 8) (size 9 to 14) (size 15 to 20)
#    0.000    0.857    4.286    3.000    6.000    1.714 
#    2.571    2.857    0.000    0.000    0.000    0.000 
#    0.000    0.000    0.000    0.000    0.000    0.000 
#
# Total GULP energy -173611.530413 kJ/mol
# GULP energy per Si atom -12400.823601 kJ/mol
# Density = 2.301021 g / cm^3
# Si number density = 23.062701 Si / 1000 Ang^3
#
#
#
# Elastic Constant Matrix: (Units=GPa)
#
#
# Indices 1 2 3 4 5 6 
#
# 1 95.3412 57.1300 32.6517 -3.4414 -43.4059 -24.6929
# 2 57.1300 160.6009 32.3601 4.6114 -21.6163 -11.3425
# 3 32.6517 32.3601 98.5629 -4.5061 -42.6524 -13.0920
# 4 -3.4414 4.6114 -4.5061 29.1529 3.4771 -16.2759
# 5 -43.4059 -21.6163 -42.6524 3.4771 49.7812 11.5360
# 6 -24.6929 -11.3425 -13.0920 -16.2759 11.5360 36.4003
#
#
#
# Elastic Compliance Matrix: (Units=1/GPa)
#
#
# Indices 1 2 3 4 5 6 
#
# 1 0.026808 -0.006998 0.004694 0.012087 0.019601 0.016886
# 2 -0.006998 0.008651 -0.002751 -0.004374 -0.003496 -0.003889
# 3 0.004694 -0.002751 0.017497 0.004930 0.016229 0.005681
# 4 0.012087 -0.004374 0.004930 0.055424 0.001354 0.032963
# 5 0.019601 -0.003496 0.016229 0.001354 0.048727 0.003207
# 6 0.016886 -0.003889 0.005681 0.032963 0.003207 0.053481
#
#
# Mechanical properties :
#
#
# Convention : Reuss Voigt Hill
#
# Bulk Modulus (GPa) = 23.34013 66.53206 44.93610
# Shear Modulus (GPa) = 21.27837 38.55775 29.91806
#
# Velocity S-wave (km/s) = 3.04078 4.09328 3.60564
# Velocity P-wave (km/s) = 4.74033 7.15897 6.07131
#
# Compressibility (1/GPa) = 0.04284467
#
# Stress axis : x y z
#
# Youngs Moduli (GPa) = 37.30286 115.59554 57.15258
#
# Poissons Ratio (x) = 0.80898 -0.26830
# Poissons Ratio (y) = 0.26106 0.15725
# Poissons Ratio (z) = -0.17512 0.31805
#
# Static dielectric constant tensor:
#      x y z
#    x 4.214150 -0.063790 -0.492990 
#    y -0.063790 4.368390 0.151790 
#    z -0.492990 0.151790 4.462320 
# 
# 
# High freq. dielectric constant tensor:
#      x y z
#    x 1.902140 -0.001210 -0.035330 
#    y -0.001210 1.924660 0.009380 
#    z -0.035330 0.009380 1.916830 
# 
# From -- ./inp_files/200091.got.cif
#   From: 2010.06.25/outbox.cif.g09.slc.cpg/sg2_101_cif.got.tgz:200091.got - 2010.06.27 13:26:56.
