data_PCOD8014906
_publ_section_title
;
Structure prediction by ZEFSAII (Michael W. Deem and Ramdas Pophale) SiO2 
 PCOD8014906
Probable space group: P -1
;
_chemical_formula_sum "Si O2"
_cell_formula_units_Z 16
_cell_length_a 12.479280
_cell_length_b 13.139024
_cell_length_c 9.106311
_cell_angle_alpha 86.142199
_cell_angle_beta 52.656300
_cell_angle_gamma 51.942991
_cell_volume 814.850254
_symmetry_space_group_name_H-M "P -1"
_symmetry_group_IT_number 2
_symmetry_cell_setting 'triclinic'
loop_
_space_group_symop_operation_xyz
x,y,z
-x,-y,-z
loop_
_atom_site_type_symbol
_atom_site_label
_atom_site_fract_x
_atom_site_fract_y
_atom_site_fract_z
Si Si1 0.984483 0.627856 0.338707
Si Si2 0.007764 0.114992 0.986819
Si Si3 0.288655 0.625456 0.012219
Si Si4 0.685139 0.937810 0.437717
Si Si5 0.666220 0.299950 0.737791
Si Si6 0.160182 0.322561 0.220780
Si Si7 0.044224 0.170296 0.275931
Si Si8 0.391907 0.903900 0.210540
O O1 0.822731 0.763028 0.352167
O O2 0.880702 0.664046 0.574843
O O3 0.066025 0.477492 0.218433
O O4 0.162257 0.610218 0.206313
O O5 0.821763 0.266930 0.045442
O O6 0.004173 0.145692 0.155176
O O7 0.209933 0.035467 0.750831
O O8 0.000000 0.000000 0.000000
O O9 0.487254 0.464011 0.803441
O O10 0.337662 0.688173 0.082290
O O11 0.500000 0.000000 0.500000
O O12 0.638737 0.012805 0.626037
O O13 0.645862 0.194191 0.715542
O O14 0.869515 0.234070 0.520905
O O15 0.057370 0.284533 0.229134
O O16 0.391681 0.195947 0.018290
O O17 0.245733 0.021117 0.194203
#
# Coordination Sequence:
#
# PCOD8014906 Si02
#       8
#     2   2   2   2   2   2   2   2
#     4  10  21  42  63  91 131 161 204 255 316 362
#     4  11  24  43  62  89 129 164 205 256 318 364
#     4  10  21  43  62  91 129 165 204 253 317 372
#     4  11  24  44  63  91 129 166 202 256 316 370
#     4  11  22  40  67  91 122 167 208 255 313 365
#     4  11  22  39  66  95 123 161 211 259 301 365
#     4  12  23  39  64  96 122 160 213 263 297 367
#     4  12  23  40  67  94 123 160 217 253 307 372
#
# _framework density 19.635511000000001
#
# number of rings (size 3 to 8) (size 9 to 14) (size 15 to 20)
#    0.000    1.000    3.750    3.750    1.750    0.500 
#    4.500    1.875    0.000    0.000    0.000    0.000 
#    0.000    0.000    0.000    0.000    0.000    0.000 
#
# Total GULP energy -198439.827319 kJ/mol
# GULP energy per Si atom -12402.489207 kJ/mol
# Density = 1.959082 g / cm^3
# Si number density = 19.635511 Si / 1000 Ang^3
#
#
#
# Elastic Constant Matrix: (Units=GPa)
#
#
# Indices 1 2 3 4 5 6 
#
# 1 124.3454 68.5506 29.7555 7.1800 5.6594 -2.1301
# 2 68.5506 125.0409 51.8703 3.3532 4.5087 8.1415
# 3 29.7555 51.8703 79.2471 13.6521 -11.3627 -1.8030
# 4 7.1800 3.3532 13.6521 25.9947 3.5455 -5.4563
# 5 5.6594 4.5087 -11.3627 3.5455 36.6578 -1.7963
# 6 -2.1301 8.1415 -1.8030 -5.4563 -1.7963 31.3127
#
#
#
# Elastic Compliance Matrix: (Units=1/GPa)
#
#
# Indices 1 2 3 4 5 6 
#
# 1 0.011832 -0.006630 0.000192 -0.001971 -0.000655 0.002159
# 2 -0.006630 0.015880 -0.009406 0.004366 -0.004494 -0.004618
# 3 0.000192 -0.009406 0.021986 -0.011148 0.009133 0.002306
# 4 -0.001971 0.004366 -0.011148 0.046592 -0.007913 0.005754
# 5 -0.000655 -0.004494 0.009133 -0.007913 0.031632 0.002086
# 6 0.002159 -0.004618 0.002306 0.005754 0.002086 0.034539
#
#
# Mechanical properties :
#
#
# Convention : Reuss Voigt Hill
#
# Bulk Modulus (GPa) = 55.52847 69.88736 62.70791
# Shear Modulus (GPa) = 24.98100 30.69017 27.83559
#
# Velocity S-wave (km/s) = 3.57071 3.95776 3.76921
# Velocity P-wave (km/s) = 6.73357 7.52029 7.13778
#
# Compressibility (1/GPa) = 0.01800878
#
# Stress axis : x y z
#
# Youngs Moduli (GPa) = 84.51620 62.97318 45.48380
#
# Poissons Ratio (x) = 0.41753 -0.00872
# Poissons Ratio (y) = 0.56037 0.42782
# Poissons Ratio (z) = -0.01621 0.59233
#
# Static dielectric constant tensor:
#      x y z
#    x 3.611990 0.146950 -0.163520 
#    y 0.146950 3.822470 0.075670 
#    z -0.163520 0.075670 3.606780 
# 
# 
# High freq. dielectric constant tensor:
#      x y z
#    x 1.767690 0.010380 -0.012210 
#    y 0.010380 1.775780 0.008390 
#    z -0.012210 0.008390 1.772310 
# 
# From -- ./inp_files/184166.got.cif
#   From: 2010.06.25/outbox.cif.g09.slc.cpg/sg2_93_cif.got.tgz:184166.got - 2010.06.27 13:26:56.
