data_PCOD8014634
_publ_section_title
;
Structure prediction by ZEFSAII (Michael W. Deem and Ramdas Pophale) SiO2 
 PCOD8014634
Probable space group: P -1
;
_chemical_formula_sum "Si O2"
_cell_formula_units_Z 16
_cell_length_a 5.244918
_cell_length_b 24.430369
_cell_length_c 9.094050
_cell_angle_alpha 49.964448
_cell_angle_beta 120.039405
_cell_angle_gamma 102.415789
_cell_volume 762.213340
_symmetry_space_group_name_H-M "P -1"
_symmetry_group_IT_number 2
_symmetry_cell_setting 'triclinic'
loop_
_space_group_symop_operation_xyz
x,y,z
-x,-y,-z
loop_
_atom_site_type_symbol
_atom_site_label
_atom_site_fract_x
_atom_site_fract_y
_atom_site_fract_z
Si Si1 0.457696 0.715355 0.011735
Si Si2 0.794392 0.587056 0.152572
Si Si3 0.238733 0.037496 0.584926
Si Si4 0.775391 0.655110 0.481728
Si Si5 0.451035 0.176756 0.382009
Si Si6 0.118712 0.961391 0.245405
Si Si7 0.841743 0.700415 0.741914
Si Si8 0.267177 0.570995 0.558070
O O1 0.587161 0.780821 0.857633
O O2 0.105149 0.728368 0.861740
O O3 0.570217 0.637353 0.107008
O O4 0.558221 0.712186 0.217511
O O5 0.677443 0.511362 0.226914
O O6 0.117882 0.575162 0.345640
O O7 0.799835 0.622764 0.931320
O O8 0.195004 0.124924 0.398591
O O9 0.577561 0.004214 0.689603
O O10 0.163121 0.021722 0.758453
O O11 0.000000 0.000000 0.500000
O O12 0.884776 0.695128 0.587624
O O13 0.588135 0.595076 0.591496
O O14 0.066579 0.620642 0.534021
O O15 0.774444 0.125814 0.585259
O O16 0.430570 0.235518 0.407370
O O17 0.000000 0.000000 0.000000
#
# Coordination Sequence:
#
# PCOD8014634 Si02
#       8
#     2   2   2   2   2   2   2   2
#     4  10  21  43  61  89 129 174 215 263 323 383
#     4   9  21  37  66  84 128 173 209 274 331 378
#     4  10  21  41  69  98 129 166 206 263 316 382
#     4  11  25  39  65  88 129 164 225 269 314 387
#     4   9  23  39  68  89 135 167 214 255 323 384
#     4  10  21  41  69  96 131 166 202 262 316 383
#     4  11  22  41  63  90 128 176 214 265 323 379
#     4  10  22  41  59  97 122 166 220 271 328 377
#
# _framework density 20.991496000000001
#
# number of rings (size 3 to 8) (size 9 to 14) (size 15 to 20)
#    0.750    1.250    1.250    1.500    5.250    2.500 
#    0.000    5.000    0.000    0.000    0.000    0.000 
#    0.000    0.000    0.000    0.000    0.000    0.000 
#
# Total GULP energy -198231.349776 kJ/mol
# GULP energy per Si atom -12389.459361 kJ/mol
# Density = 2.094372 g / cm^3
# Si number density = 20.991496 Si / 1000 Ang^3
#
#
#
# Elastic Constant Matrix: (Units=GPa)
#
#
# Indices 1 2 3 4 5 6 
#
# 1 68.6025 4.9162 16.6314 -2.7407 -17.5606 11.8796
# 2 4.9162 65.4739 52.2238 -5.1527 -16.0713 4.1632
# 3 16.6314 52.2238 121.2487 3.7877 -21.8995 -5.8918
# 4 -2.7407 -5.1527 3.7877 25.6016 -1.7593 -5.9477
# 5 -17.5606 -16.0713 -21.8995 -1.7593 35.0340 0.4713
# 6 11.8796 4.1632 -5.8918 -5.9477 0.4713 30.3294
#
#
#
# Elastic Compliance Matrix: (Units=1/GPa)
#
#
# Indices 1 2 3 4 5 6 
#
# 1 0.019056 0.004128 -0.003108 0.002051 0.009718 -0.008383
# 2 0.004128 0.026691 -0.011174 0.006538 0.007741 -0.006290
# 3 -0.003108 -0.011174 0.014178 -0.003430 0.001942 0.004803
# 4 0.002051 0.006538 -0.003430 0.042758 0.003950 0.005957
# 5 0.009718 0.007741 0.001942 0.003950 0.038436 -0.004314
# 6 -0.008383 -0.006290 0.004803 0.005957 -0.004314 0.039286
#
#
# Mechanical properties :
#
#
# Convention : Reuss Voigt Hill
#
# Bulk Modulus (GPa) = 25.24214 44.76310 35.00262
# Shear Modulus (GPa) = 23.37343 30.29658 26.83501
#
# Velocity S-wave (km/s) = 3.34049 3.80317 3.57932
# Velocity P-wave (km/s) = 5.18937 6.37622 5.81316
#
# Compressibility (1/GPa) = 0.03961629
#
# Stress axis : x y z
#
# Youngs Moduli (GPa) = 52.47808 37.46635 70.53224
#
# Poissons Ratio (x) = -0.15467 0.21921
# Poissons Ratio (y) = -0.21664 0.78813
# Poissons Ratio (z) = 0.16310 0.41865
#
# Static dielectric constant tensor:
#      x y z
#    x 6.606770 -0.611700 -0.614650 
#    y -0.611700 3.599160 -0.003390 
#    z -0.614650 -0.003390 3.981650 
# 
# 
# High freq. dielectric constant tensor:
#      x y z
#    x 1.829980 0.001760 -0.013420 
#    y 0.001760 1.793810 -0.009240 
#    z -0.013420 -0.009240 1.819470 
# 
# From -- ./inp_files/122650.got.cif
#   From: 2010.06.25/outbox.cif.g09.slc.cpg/sg2_62_cif.got.tgz:122650.got - 2010.06.27 13:26:56.
