data_PCOD8014063
_publ_section_title
;
Structure prediction by ZEFSAII (Michael W. Deem and Ramdas Pophale) SiO2 
 PCOD8014063
Probable space group: P -1
;
_chemical_formula_sum "Si O2"
_cell_formula_units_Z 16
_cell_length_a 10.498838
_cell_length_b 9.041617
_cell_length_c 18.543401
_cell_angle_alpha 73.452406
_cell_angle_beta 136.301834
_cell_angle_gamma 136.062697
_cell_volume 734.653290
_symmetry_space_group_name_H-M "P -1"
_symmetry_group_IT_number 2
_symmetry_cell_setting 'triclinic'
loop_
_space_group_symop_operation_xyz
x,y,z
-x,-y,-z
loop_
_atom_site_type_symbol
_atom_site_label
_atom_site_fract_x
_atom_site_fract_y
_atom_site_fract_z
Si Si1 0.208482 0.276446 0.565222
Si Si2 0.583919 0.399009 0.509965
Si Si3 0.227432 0.749837 0.965404
Si Si4 0.327234 0.497522 0.731467
Si Si5 0.121262 0.353642 0.031372
Si Si6 0.246200 0.934584 0.366133
Si Si7 0.682809 0.361435 0.705691
Si Si8 0.350946 0.990940 0.234388
O O1 0.170233 0.395790 0.477605
O O2 0.170641 0.316535 0.623834
O O3 0.533064 0.417199 0.668143
O O4 0.000000 0.000000 0.500000
O O5 0.500000 0.500000 0.500000
O O6 0.699826 0.360016 0.625427
O O7 0.302394 0.143920 0.390122
O O8 0.085918 0.770412 0.965030
O O9 0.012273 0.575052 0.836355
O O10 0.287759 0.624646 0.046744
O O11 0.500000 0.000000 0.000000
O O12 0.626377 0.607560 0.859508
O O13 0.081321 0.333386 0.714362
O O14 0.394833 0.721606 0.716704
O O15 0.921953 0.166079 0.909725
O O16 0.247535 0.945831 0.279687
O O17 0.500000 0.000000 0.500000
O O18 0.521457 0.101620 0.706130
#
# Coordination Sequence:
#
# PCOD8014063 Si02
#       8
#     2   2   2   2   2   2   2   2
#     4  11  23  39  66 100 129 175 226 276 341 398
#     4  10  21  41  64  95 134 167 224 279 329 402
#     4  10  22  42  71 101 133 174 222 287 341 390
#     4  12  25  44  70  96 138 185 220 284 336 396
#     4  10  24  45  66 104 135 174 236 272 336 409
#     4  12  26  45  65 100 139 176 229 275 338 407
#     4  10  21  43  64  95 134 173 224 280 334 404
#     4  11  25  44  69  96 139 183 224 278 337 406
#
# _framework density 21.778981999999999
#
# number of rings (size 3 to 8) (size 9 to 14) (size 15 to 20)
#    0.000    1.250    3.750    1.875    0.000    8.000 
#    0.000    0.000    0.000    0.000    0.000    0.000 
#    0.000    0.000    0.000    0.000    0.000    0.000 
#
# Total GULP energy -198294.174664 kJ/mol
# GULP energy per Si atom -12393.385916 kJ/mol
# Density = 2.172941 g / cm^3
# Si number density = 21.778982 Si / 1000 Ang^3
#
#
#
# Elastic Constant Matrix: (Units=GPa)
#
#
# Indices 1 2 3 4 5 6 
#
# 1 91.1011 39.5401 38.0459 8.3625 -11.9685 14.2238
# 2 39.5401 155.2341 42.4415 20.6535 0.5643 16.0530
# 3 38.0459 42.4415 84.4703 1.7647 -23.4774 6.0972
# 4 8.3625 20.6535 1.7647 36.1667 -2.5109 -1.4865
# 5 -11.9685 0.5643 -23.4774 -2.5109 41.2104 2.8017
# 6 14.2238 16.0530 6.0972 -1.4865 2.8017 39.7600
#
#
#
# Elastic Compliance Matrix: (Units=1/GPa)
#
#
# Indices 1 2 3 4 5 6 
#
# 1 0.014880 -0.001685 -0.005072 -0.002287 0.001592 -0.004063
# 2 -0.001685 0.008960 -0.004378 -0.004833 -0.003245 -0.002296
# 3 -0.005072 -0.004378 0.018896 0.003420 0.009551 0.000139
# 4 -0.002287 -0.004833 0.003420 0.031113 0.003029 0.003195
# 5 0.001592 -0.003245 0.009551 0.003029 0.030586 -0.002766
# 6 -0.004063 -0.002296 0.000139 0.003195 -0.002766 0.027824
#
#
# Mechanical properties :
#
#
# Convention : Reuss Voigt Hill
#
# Bulk Modulus (GPa) = 48.86231 63.42893 56.14562
# Shear Modulus (GPa) = 30.98829 37.47930 34.23379
#
# Velocity S-wave (km/s) = 3.77616 4.15287 3.96899
# Velocity P-wave (km/s) = 6.44180 7.22372 6.84394
#
# Compressibility (1/GPa) = 0.02046567
#
# Stress axis : x y z
#
# Youngs Moduli (GPa) = 67.20619 111.60308 52.92184
#
# Poissons Ratio (x) = 0.18801 0.26842
# Poissons Ratio (y) = 0.11322 0.23171
# Poissons Ratio (z) = 0.34087 0.48865
#
# Static dielectric constant tensor:
#      x y z
#    x 4.110690 0.199790 -0.285200 
#    y 0.199790 5.131060 -0.159380 
#    z -0.285200 -0.159380 4.054230 
# 
# 
# High freq. dielectric constant tensor:
#      x y z
#    x 1.852730 -0.005680 -0.025020 
#    y -0.005680 1.877030 -0.003800 
#    z -0.025020 -0.003800 1.848960 
# 
# From -- ./inp_files/532582.got.cif
#   From: 2010.06.25/outbox.cif.g09.slc.cpg/sg2_267_cif.got.tgz:532582.got - 2010.06.27 13:26:56.
