data_PCOD8014907
_publ_section_title
;
Structure prediction by ZEFSAII (Michael W. Deem and Ramdas Pophale) SiO2 
 PCOD8014907
Probable space group: P -1
;
_chemical_formula_sum "Si O2"
_cell_formula_units_Z 16
_cell_length_a 11.875840
_cell_length_b 11.643169
_cell_length_c 6.673167
_cell_angle_alpha 99.162133
_cell_angle_beta 124.426779
_cell_angle_gamma 81.310859
_cell_volume 749.275661
_symmetry_space_group_name_H-M "P -1"
_symmetry_group_IT_number 2
_symmetry_cell_setting 'triclinic'
loop_
_space_group_symop_operation_xyz
x,y,z
-x,-y,-z
loop_
_atom_site_type_symbol
_atom_site_label
_atom_site_fract_x
_atom_site_fract_y
_atom_site_fract_z
Si Si1 0.825647 0.341522 0.601141
Si Si2 0.733539 0.512190 0.202786
Si Si3 0.659652 0.963924 0.637406
Si Si4 0.869393 0.649647 0.053411
Si Si5 0.852915 0.078723 0.579804
Si Si6 0.667982 0.702797 0.507948
Si Si7 0.586680 0.402977 0.680954
Si Si8 0.845915 0.911475 0.160686
O O1 0.798960 0.418022 0.397840
O O2 0.820873 0.207283 0.490130
O O3 0.722119 0.364559 0.685509
O O4 0.971308 0.367892 0.850789
O O5 0.842105 0.549442 0.157691
O O6 0.676317 0.628817 0.291861
O O7 0.615541 0.452460 0.945081
O O8 0.693788 0.837477 0.532084
O O9 0.500000 0.000000 0.500000
O O10 0.744378 0.059920 0.639797
O O11 0.714491 0.957912 0.915984
O O12 0.837205 0.775032 0.160522
O O13 0.776397 0.640911 0.758528
O O14 0.011957 0.068335 0.809263
O O15 0.835072 0.979504 0.373930
O O16 0.511444 0.703336 0.429282
O O17 0.500000 0.500000 0.500000
#
# Coordination Sequence:
#
# PCOD8014907 Si02
#       8
#     2   2   2   2   2   2   2   2
#     4  11  25  39  64  94 126 163 207 254 302 364
#     4  12  23  40  67  89 122 164 210 248 310 364
#     4  11  23  40  63  94 125 159 204 256 308 360
#     4  10  22  42  63  94 127 158 204 260 307 360
#     4  10  21  42  63  92 123 163 207 249 303 364
#     4  11  24  42  65  90 125 166 205 253 311 365
#     4  12  24  44  60  87 126 165 203 253 304 366
#     4   9  21  41  66  89 124 163 203 252 307 363
#
# _framework density 21.353956
#
# number of rings (size 3 to 8) (size 9 to 14) (size 15 to 20)
#    0.000    1.250    2.500    2.625    0.000    5.500 
#    0.000    2.500    0.000    0.000    0.000    0.000 
#    0.000    0.000    0.000    0.000    0.000    0.000 
#
# Total GULP energy -198378.711631 kJ/mol
# GULP energy per Si atom -12398.669477 kJ/mol
# Density = 2.130535 g / cm^3
# Si number density = 21.353956 Si / 1000 Ang^3
#
#
#
# Elastic Constant Matrix: (Units=GPa)
#
#
# Indices 1 2 3 4 5 6 
#
# 1 107.7389 20.6583 34.0912 -13.1519 20.1720 2.0820
# 2 20.6583 66.1518 35.7492 -9.9597 7.2730 10.4432
# 3 34.0912 35.7492 119.5574 1.1978 21.9058 -6.0322
# 4 -13.1519 -9.9597 1.1978 32.2746 -0.2335 1.5935
# 5 20.1720 7.2730 21.9058 -0.2335 30.6337 0.4582
# 6 2.0820 10.4432 -6.0322 1.5935 0.4582 37.3255
#
#
#
# Elastic Compliance Matrix: (Units=1/GPa)
#
#
# Indices 1 2 3 4 5 6 
#
# 1 0.011837 -0.001136 -0.002015 0.004543 -0.006038 -0.000788
# 2 -0.001136 0.021054 -0.006502 0.006634 0.000556 -0.007168
# 3 -0.002015 -0.006502 0.012218 -0.003528 -0.005955 0.004130
# 4 0.004543 0.006634 -0.003528 0.035207 -0.001713 -0.004162
# 5 -0.006038 0.000556 -0.005955 -0.001713 0.040751 -0.001208
# 6 -0.000788 -0.007168 0.004130 -0.004162 -0.001208 0.029701
#
#
# Mechanical properties :
#
#
# Convention : Reuss Voigt Hill
#
# Bulk Modulus (GPa) = 38.75221 52.71618 45.73420
# Shear Modulus (GPa) = 27.98406 33.57671 30.78039
#
# Velocity S-wave (km/s) = 3.62399 3.96964 3.80075
# Velocity P-wave (km/s) = 5.97478 6.76396 6.38158
#
# Compressibility (1/GPa) = 0.02580498
#
# Stress axis : x y z
#
# Youngs Moduli (GPa) = 84.47886 47.49655 81.84923
#
# Poissons Ratio (x) = 0.05393 0.16491
# Poissons Ratio (y) = 0.09593 0.53216
# Poissons Ratio (z) = 0.17021 0.30881
#
# Static dielectric constant tensor:
#      x y z
#    x -1.361080 1.690760 0.438470 
#    y 1.690760 3.609150 0.128410 
#    z 0.438470 0.128410 3.844450 
# 
# 
# High freq. dielectric constant tensor:
#      x y z
#    x 1.842490 0.009770 0.014820 
#    y 0.009770 1.847680 0.011720 
#    z 0.014820 0.011720 1.834090 
# 
# From -- ./inp_files/71492.got.cif
#   From: 2010.06.25/outbox.cif.g09.slc.cpg/sg2_36_cif.got.tgz:71492.got - 2010.06.27 13:26:56.
