data_PCOD8014657
_publ_section_title
;
Structure prediction by ZEFSAII (Michael W. Deem and Ramdas Pophale) SiO2 
 PCOD8014657
Probable space group: P -1
;
_chemical_formula_sum "Si O2"
_cell_formula_units_Z 14
_cell_length_a 7.482195
_cell_length_b 16.525934
_cell_length_c 8.231240
_cell_angle_alpha 117.397151
_cell_angle_beta 144.157168
_cell_angle_gamma 62.507023
_cell_volume 521.392163
_symmetry_space_group_name_H-M "P -1"
_symmetry_group_IT_number 2
_symmetry_cell_setting 'triclinic'
loop_
_space_group_symop_operation_xyz
x,y,z
-x,-y,-z
loop_
_atom_site_type_symbol
_atom_site_label
_atom_site_fract_x
_atom_site_fract_y
_atom_site_fract_z
Si Si1 0.696712 0.880879 0.879645
Si Si2 0.376787 0.106702 0.526356
Si Si3 0.305046 0.901835 0.926139
Si Si4 0.662706 0.635630 0.700492
Si Si5 0.889219 0.430683 0.586858
Si Si6 0.560928 0.399253 0.025780
Si Si7 0.782492 0.270349 0.785572
O O1 0.594247 0.847292 0.590934
O O2 0.709543 0.988508 0.974084
O O3 0.473018 0.861895 0.845962
O O4 0.048143 0.833569 0.141798
O O5 0.551021 0.145700 0.843166
O O6 0.500000 0.000000 0.500000
O O7 0.028869 0.125128 0.352401
O O8 0.812661 0.541773 0.633959
O O9 0.385617 0.614307 0.584008
O O10 0.499325 0.720092 0.542383
O O11 0.950516 0.672909 0.031815
O O12 0.870135 0.394928 0.356038
O O13 0.234358 0.393437 0.876077
O O14 0.500000 0.500000 0.000000
O O15 0.626007 0.315534 0.873862
#
# Coordination Sequence:
#
# PCOD8014657 Si02
#       7
#     2   2   2   2   2   2   2
#     4  10  24  44  67  97 137 170 214 277 327 384
#     4  10  21  41  70 100 125 169 228 264 310 405
#     4  10  23  43  72  94 125 183 220 254 330 397
#     4  11  23  41  63  90 123 167 209 266 310 382
#     4  11  22  41  65  85 121 169 218 250 313 383
#     4  12  21  39  65  90 119 166 209 259 314 385
#     4  12  25  40  62  96 129 157 209 270 326 366
#
# _framework density 26.851191
#
# number of rings (size 3 to 8) (size 9 to 14) (size 15 to 20)
#    0.000    1.143    2.857    3.857    0.000   13.143 
#    7.714    0.000    0.000    0.000    0.000    0.000 
#    0.000    0.000    0.000    0.000    0.000    0.000 
#
# Total GULP energy -173438.158944 kJ/mol
# GULP energy per Si atom -12388.439925 kJ/mol
# Density = 2.679008 g / cm^3
# Si number density = 26.851191 Si / 1000 Ang^3
#
#
#
# Elastic Constant Matrix: (Units=GPa)
#
#
# Indices 1 2 3 4 5 6 
#
# 1 126.6832 42.1965 28.3864 -11.6463 2.8947 -16.9042
# 2 42.1965 90.0528 65.6374 -45.8871 -18.4112 -32.8775
# 3 28.3864 65.6374 323.1347 -89.1606 -31.2471 -86.8554
# 4 -11.6463 -45.8871 -89.1606 48.9902 6.0793 27.7054
# 5 2.8947 -18.4112 -31.2471 6.0793 60.2074 11.9184
# 6 -16.9042 -32.8775 -86.8554 27.7054 11.9184 67.1400
#
#
#
# Elastic Compliance Matrix: (Units=1/GPa)
#
#
# Indices 1 2 3 4 5 6 
#
# 1 0.010430 -0.008422 -0.001746 -0.008331 -0.003191 0.000247
# 2 -0.008422 0.032540 0.006418 0.035790 0.008932 0.005762
# 3 -0.001746 0.006418 0.008865 0.017779 0.003627 0.006191
# 4 -0.008331 0.035790 0.017779 0.081264 0.011813 0.002797
# 5 -0.003191 0.008932 0.003627 0.011813 0.020223 -0.000203
# 6 0.000247 0.005762 0.006191 0.002797 -0.000203 0.024668
#
#
# Mechanical properties :
#
#
# Convention : Reuss Voigt Hill
#
# Bulk Modulus (GPa) = 22.55585 90.25682 56.40633
# Shear Modulus (GPa) = 24.96648 62.17755 43.57202
#
# Velocity S-wave (km/s) = 3.05259 4.81732 4.03267
# Velocity P-wave (km/s) = 4.56540 8.03921 6.53727
#
# Compressibility (1/GPa) = 0.04433440
#
# Stress axis : x y z
#
# Youngs Moduli (GPa) = 95.87574 30.73162 112.80706
#
# Poissons Ratio (x) = 0.25881 0.19701
# Poissons Ratio (y) = 0.80743 -0.72399
# Poissons Ratio (z) = 0.16744 -0.19723
#
# Static dielectric constant tensor:
#      x y z
#    x 9.286490 0.426710 -3.094440 
#    y 0.426710 5.047900 -0.910870 
#    z -3.094440 -0.910870 7.977400 
# 
# 
# High freq. dielectric constant tensor:
#      x y z
#    x 2.095420 0.006180 0.014390 
#    y 0.006180 2.075870 -0.006340 
#    z 0.014390 -0.006340 2.092110 
# 
# From -- ./inp_files/218441.got.cif
#   From: 2010.06.25/outbox.cif.g09.slc.cpg/sg2_110_cif.got.tgz:218441.got - 2010.06.27 13:26:56.
