data_PCOD8014902
_publ_section_title
;
Structure prediction by ZEFSAII (Michael W. Deem and Ramdas Pophale) SiO2 
 PCOD8014902
Probable space group: P -1
;
_chemical_formula_sum "Si O2"
_cell_formula_units_Z 16
_cell_length_a 8.961590
_cell_length_b 9.325139
_cell_length_c 13.572365
_cell_angle_alpha 105.888280
_cell_angle_beta 75.802653
_cell_angle_gamma 134.860512
_cell_volume 770.982666
_symmetry_space_group_name_H-M "P -1"
_symmetry_group_IT_number 2
_symmetry_cell_setting 'triclinic'
loop_
_space_group_symop_operation_xyz
x,y,z
-x,-y,-z
loop_
_atom_site_type_symbol
_atom_site_label
_atom_site_fract_x
_atom_site_fract_y
_atom_site_fract_z
Si Si1 0.760751 0.495267 0.588552
Si Si2 0.480559 0.117887 0.444917
Si Si3 0.920680 0.300988 0.596737
Si Si4 0.448358 0.606463 0.093218
Si Si5 0.729790 0.369691 0.267157
Si Si6 0.198934 0.051949 0.022771
Si Si7 0.397620 0.370394 0.224607
Si Si8 0.978794 0.369676 0.064058
O O1 0.547379 0.316773 0.525554
O O2 0.964995 0.645081 0.515389
O O3 0.742695 0.644228 0.671167
O O4 0.801623 0.383138 0.634714
O O5 0.632574 0.205687 0.340988
O O6 0.500000 0.000000 0.500000
O O7 0.241214 0.946067 0.411400
O O8 0.079369 0.400915 0.681373
O O9 0.611017 0.837264 0.068408
O O10 0.496621 0.580953 0.191584
O O11 0.204849 0.491453 0.100814
O O12 0.500000 0.500000 0.000000
O O13 0.568541 0.378413 0.247520
O O14 0.812724 0.310104 0.161794
O O15 0.121982 0.835305 0.016704
O O16 0.260445 0.178039 0.136781
O O17 0.000000 0.000000 0.000000
O O18 0.000000 0.500000 0.000000
#
# Coordination Sequence:
#
# PCOD8014902 Si02
#       8
#     2   2   2   2   2   2   2   2
#     4   9  19  39  64  90 123 168 212 276 331 392
#     4   9  20  41  64  94 129 166 226 273 328 402
#     4   9  19  39  64  90 125 165 219 271 331 391
#     4  10  21  42  63  90 127 169 217 274 332 391
#     4  11  25  39  62  97 133 173 223 274 339 391
#     4  11  24  44  68  94 131 179 228 272 337 404
#     4  11  23  42  63  95 139 174 224 281 335 400
#     4  12  25  43  70  97 134 177 225 283 332 391
#
# _framework density 20.752735000000001
#
# number of rings (size 3 to 8) (size 9 to 14) (size 15 to 20)
#    0.000    1.750    2.500    3.000    0.000    8.000 
#    2.250    1.250    0.000    0.000    0.000    0.000 
#    0.000    0.000    0.000    0.000    0.000    0.000 
#
# Total GULP energy -198239.525900 kJ/mol
# GULP energy per Si atom -12389.970369 kJ/mol
# Density = 2.070550 g / cm^3
# Si number density = 20.752735 Si / 1000 Ang^3
#
#
#
# Elastic Constant Matrix: (Units=GPa)
#
#
# Indices 1 2 3 4 5 6 
#
# 1 129.5377 43.5199 60.3413 8.8887 -2.2950 5.4731
# 2 43.5199 140.9465 57.1162 6.4418 2.2982 10.6055
# 3 60.3413 57.1162 130.5045 8.6906 -4.6402 -0.0340
# 4 8.8887 6.4418 8.6906 28.3079 2.1432 7.4543
# 5 -2.2950 2.2982 -4.6402 2.1432 36.8007 2.4046
# 6 5.4731 10.6055 -0.0340 7.4543 2.4046 32.4627
#
#
#
# Elastic Compliance Matrix: (Units=1/GPa)
#
#
# Indices 1 2 3 4 5 6 
#
# 1 0.010195 -0.001397 -0.003994 -0.001431 0.000366 -0.000965
# 2 -0.001397 0.009110 -0.003387 0.000191 -0.000916 -0.002720
# 3 -0.003994 -0.003387 0.011179 -0.002081 0.001351 0.002169
# 4 -0.001431 0.000191 -0.002081 0.038785 -0.002062 -0.008577
# 5 0.000366 -0.000916 0.001351 -0.002062 0.027631 -0.001334
# 6 -0.000965 -0.002720 0.002169 -0.008577 -0.001334 0.033927
#
#
# Mechanical properties :
#
#
# Convention : Reuss Voigt Hill
#
# Bulk Modulus (GPa) = 77.35921 80.32709 78.84315
# Shear Modulus (GPa) = 32.74553 35.51500 34.13027
#
# Velocity S-wave (km/s) = 3.97658 4.14132 4.05979
# Velocity P-wave (km/s) = 7.64472 7.85227 7.74919
#
# Compressibility (1/GPa) = 0.01292671
#
# Stress axis : x y z
#
# Youngs Moduli (GPa) = 98.08425 109.77332 89.45388
#
# Poissons Ratio (x) = 0.15338 0.35732
# Poissons Ratio (y) = 0.13705 0.30297
# Poissons Ratio (z) = 0.39179 0.37179
#
# Static dielectric constant tensor:
#      x y z
#    x 3.201090 -0.618220 1.408530 
#    y -0.618220 3.009200 2.088160 
#    z 1.408530 2.088160 -0.450510 
# 
# 
# High freq. dielectric constant tensor:
#      x y z
#    x 1.803260 0.011380 0.005850 
#    y 0.011380 1.811970 -0.003740 
#    z 0.005850 -0.003740 1.815510 
# 
# From -- ./inp_files/493367.got.cif
#   From: 2010.06.25/outbox.cif.g09.slc.cpg/sg2_247_cif.got.tgz:493367.got - 2010.06.27 13:26:56.
