data_PCOD8014743
_publ_section_title
;
Structure prediction by ZEFSAII (Michael W. Deem and Ramdas Pophale) SiO2 
 PCOD8014743
Probable space group: P -1
;
_chemical_formula_sum "Si O2"
_cell_formula_units_Z 14
_cell_length_a 12.048465
_cell_length_b 9.154154
_cell_length_c 18.202294
_cell_angle_alpha 131.650033
_cell_angle_beta 25.903391
_cell_angle_gamma 120.299306
_cell_volume 627.996548
_symmetry_space_group_name_H-M "P -1"
_symmetry_group_IT_number 2
_symmetry_cell_setting 'triclinic'
loop_
_space_group_symop_operation_xyz
x,y,z
-x,-y,-z
loop_
_atom_site_type_symbol
_atom_site_label
_atom_site_fract_x
_atom_site_fract_y
_atom_site_fract_z
Si Si1 0.391693 0.632602 0.256620
Si Si2 0.595774 0.816097 0.935669
Si Si3 0.134798 0.885164 0.630970
Si Si4 0.046377 0.311975 0.066986
Si Si5 0.164665 0.247787 0.643856
Si Si6 0.757680 0.087387 0.263720
Si Si7 0.261307 0.709674 0.209236
O O1 0.407451 0.394990 0.171898
O O2 0.311859 0.726284 0.415051
O O3 0.187522 0.756729 0.355489
O O4 0.672413 0.654654 0.070683
O O5 0.893478 0.806512 0.777178
O O6 0.398096 0.865566 0.140092
O O7 0.500000 0.000000 0.000000
O O8 0.304007 0.889944 0.605162
O O9 0.039814 0.108451 0.724270
O O10 0.856890 0.535151 0.231123
O O11 0.922374 0.237518 0.188048
O O12 0.071897 0.146174 0.931871
O O13 0.474169 0.133606 0.406398
O O14 0.004464 0.293879 0.677411
O O15 0.500000 0.500000 0.000000
#
# Coordination Sequence:
#
# PCOD8014743 Si02
#       7
#     2   2   2   2   2   2   2
#     4  11  23  43  69  97 136 182 215 280 345 393
#     4  11  21  43  65 100 132 176 230 275 338 404
#     4  12  25  44  66 102 144 170 227 281 337 404
#     4  11  23  48  71  97 135 180 232 272 341 395
#     4  12  23  45  72 101 134 178 230 278 331 413
#     4  11  27  46  70 101 137 181 226 284 329 407
#     4  10  21  41  71  93 134 178 220 279 333 397
#
# _framework density 22.293115
#
# number of rings (size 3 to 8) (size 9 to 14) (size 15 to 20)
#    0.000    0.857    5.714    2.143    2.000    1.143 
#    2.571    0.000    0.000    0.000    0.000    0.000 
#    0.000    0.000    0.000    0.000    0.000    0.000 
#
# Total GULP energy -173514.361316 kJ/mol
# GULP energy per Si atom -12393.882951 kJ/mol
# Density = 2.224237 g / cm^3
# Si number density = 22.293115 Si / 1000 Ang^3
#
#
#
# Elastic Constant Matrix: (Units=GPa)
#
#
# Indices 1 2 3 4 5 6 
#
# 1 119.8086 35.3994 40.8657 -3.7830 13.2368 -20.0767
# 2 35.3994 164.4167 39.3121 3.0984 7.4888 -2.2608
# 3 40.8657 39.3121 87.0020 -0.3981 10.7129 -3.9586
# 4 -3.7830 3.0984 -0.3981 39.7190 7.8805 -4.4138
# 5 13.2368 7.4888 10.7129 7.8805 37.9363 -5.3747
# 6 -20.0767 -2.2608 -3.9586 -4.4138 -5.3747 25.9379
#
#
#
# Elastic Compliance Matrix: (Units=1/GPa)
#
#
# Indices 1 2 3 4 5 6 
#
# 1 0.011962 -0.001375 -0.004353 0.002543 -0.001998 0.008494
# 2 -0.001375 0.006995 -0.002544 -0.000782 -0.000163 -0.001010
# 3 -0.004353 -0.002544 0.014915 0.000229 -0.002492 -0.001793
# 4 0.002543 -0.000782 0.000229 0.027209 -0.005687 0.005387
# 5 -0.001998 -0.000163 -0.002492 -0.005687 0.029426 0.003189
# 6 0.008494 -0.001010 -0.001793 0.005387 0.003189 0.046344
#
#
# Mechanical properties :
#
#
# Convention : Reuss Voigt Hill
#
# Bulk Modulus (GPa) = 57.71407 66.93128 62.32267
# Shear Modulus (GPa) = 31.41272 37.76198 34.58735
#
# Velocity S-wave (km/s) = 3.75784 4.12015 3.94316
# Velocity P-wave (km/s) = 6.69129 7.26104 6.98198
#
# Compressibility (1/GPa) = 0.01732680
#
# Stress axis : x y z
#
# Youngs Moduli (GPa) = 83.59749 142.96515 67.04742
#
# Poissons Ratio (x) = 0.19653 0.29189
# Poissons Ratio (y) = 0.11492 0.17059
# Poissons Ratio (z) = 0.36394 0.36374
#
# Static dielectric constant tensor:
#      x y z
#    x 4.092330 -0.065870 0.162020 
#    y -0.065870 4.708450 -0.288460 
#    z 0.162020 -0.288460 4.196260 
# 
# 
# High freq. dielectric constant tensor:
#      x y z
#    x 1.865680 0.002490 -0.003710 
#    y 0.002490 1.898620 -0.006610 
#    z -0.003710 -0.006610 1.868750 
# 
# From -- ./inp_files/566879.got.cif
#   From: 2010.06.25/outbox.cif.g09.slc.cpg/sg2_284_cif.got.tgz:566879.got - 2010.06.27 13:26:56.
