data_PCOD8014243
_publ_section_title
;
Structure prediction by ZEFSAII (Michael W. Deem and Ramdas Pophale) SiO2 
 PCOD8014243
Probable space group: P -1
;
_chemical_formula_sum "Si O2"
_cell_formula_units_Z 16
_cell_length_a 8.614396
_cell_length_b 9.093375
_cell_length_c 13.944638
_cell_angle_alpha 53.447811
_cell_angle_beta 61.685294
_cell_angle_gamma 60.771435
_cell_volume 739.066693
_symmetry_space_group_name_H-M "P -1"
_symmetry_group_IT_number 2
_symmetry_cell_setting 'triclinic'
loop_
_space_group_symop_operation_xyz
x,y,z
-x,-y,-z
loop_
_atom_site_type_symbol
_atom_site_label
_atom_site_fract_x
_atom_site_fract_y
_atom_site_fract_z
Si Si1 0.220501 0.332806 0.731576
Si Si2 0.608597 0.364507 0.655560
Si Si3 0.807651 0.016488 0.496504
Si Si4 0.175930 0.382039 0.942018
Si Si5 0.533688 0.026753 0.274358
Si Si6 0.974909 0.380756 0.463929
Si Si7 0.609728 0.323150 0.283122
Si Si8 0.619022 0.972752 0.882007
O O1 0.411980 0.390420 0.651646
O O2 0.159756 0.304290 0.869273
O O3 0.046338 0.492102 0.675722
O O4 0.270652 0.140931 0.725397
O O5 0.776653 0.338730 0.543012
O O6 0.578962 0.558001 0.653362
O O7 0.668682 0.169925 0.775801
O O8 0.758087 0.183173 0.365992
O O9 0.631096 0.049506 0.604633
O O10 0.000000 0.000000 0.500000
O O11 0.849582 0.806871 0.517383
O O12 0.314651 0.511573 0.848083
O O13 0.212076 0.207200 0.073540
O O14 0.000000 0.500000 0.000000
O O15 0.558978 0.201088 0.260531
O O16 0.481597 0.086818 0.157009
O O17 0.000000 0.500000 0.500000
O O18 0.500000 0.000000 0.000000
#
# Coordination Sequence:
#
# PCOD8014243 Si02
#       8
#     2   2   2   2   2   2   2   2
#     4  10  21  43  63  86 123 168 204 238 313 371
#     4  10  21  41  66  85 123 168 202 243 300 377
#     4  12  24  38  64 100 125 160 206 256 307 371
#     4  11  25  42  65  89 122 162 209 261 297 367
#     4  11  23  40  68  91 127 163 202 261 304 369
#     4  12  24  38  60  96 129 154 198 260 311 358
#     4  11  23  42  63  95 126 162 206 253 317 360
#     4  11  21  44  64  89 116 164 219 241 298 376
#
# _framework density 21.648925999999999
#
# number of rings (size 3 to 8) (size 9 to 14) (size 15 to 20)
#    0.000    1.000    3.750    6.000    5.250    0.500 
#    0.000    0.625    0.000    0.000    0.000    0.000 
#    0.000    0.000    0.000    0.000    0.000    0.000 
#
# Total GULP energy -198214.807762 kJ/mol
# GULP energy per Si atom -12388.425485 kJ/mol
# Density = 2.159965 g / cm^3
# Si number density = 21.648926 Si / 1000 Ang^3
#
#
#
# Elastic Constant Matrix: (Units=GPa)
#
#
# Indices 1 2 3 4 5 6 
#
# 1 39.6610 25.4786 30.3567 -3.6654 16.4196 2.7161
# 2 25.4786 154.2251 41.3569 -10.8479 17.7548 -7.7113
# 3 30.3567 41.3569 96.1078 -10.8418 26.6993 -5.8432
# 4 -3.6654 -10.8479 -10.8418 46.1974 -9.6414 3.4749
# 5 16.4196 17.7548 26.6993 -9.6414 30.1105 4.2662
# 6 2.7161 -7.7113 -5.8432 3.4749 4.2662 45.2290
#
#
#
# Elastic Compliance Matrix: (Units=1/GPa)
#
#
# Indices 1 2 3 4 5 6 
#
# 1 0.038209 -0.003084 -0.007633 -0.001908 -0.012509 -0.002480
# 2 -0.003084 0.007750 -0.001868 0.000795 -0.001163 0.001314
# 3 -0.007633 -0.001868 0.016568 0.000586 -0.009686 0.003149
# 4 -0.001908 0.000795 0.000586 0.023645 0.007941 -0.002240
# 5 -0.012509 -0.001163 -0.009686 0.007941 0.052740 -0.006283
# 6 -0.002480 0.001314 0.003149 -0.002240 -0.006283 0.023654
#
#
# Mechanical properties :
#
#
# Convention : Reuss Voigt Hill
#
# Bulk Modulus (GPa) = 26.76807 53.81981 40.29394
# Shear Modulus (GPa) = 24.97663 37.16084 31.06873
#
# Velocity S-wave (km/s) = 3.40032 4.14759 3.79240
# Velocity P-wave (km/s) = 5.27330 6.91743 6.15055
#
# Compressibility (1/GPa) = 0.03735795
#
# Stress axis : x y z
#
# Youngs Moduli (GPa) = 26.17191 129.03286 60.35697
#
# Poissons Ratio (x) = 0.39789 0.46069
# Poissons Ratio (y) = 0.08070 0.11276
# Poissons Ratio (z) = 0.19976 0.24106
#
# Static dielectric constant tensor:
#      x y z
#    x 3.645350 0.022000 0.149030 
#    y 0.022000 5.125660 0.649980 
#    z 0.149030 0.649980 3.534100 
# 
# 
# High freq. dielectric constant tensor:
#      x y z
#    x 1.817240 -0.007070 0.013270 
#    y -0.007070 1.888750 0.003830 
#    z 0.013270 0.003830 1.848730 
# 
# From -- ./inp_files/216575.got.cif
#   From: 2010.06.25/outbox.cif.g09.slc.cpg/sg2_109_cif.got.tgz:216575.got - 2010.06.27 13:26:56.
