data_PCOD8014742
_publ_section_title
;
Structure prediction by ZEFSAII (Michael W. Deem and Ramdas Pophale) SiO2 
 PCOD8014742
Probable space group: P -1
;
_chemical_formula_sum "Si O2"
_cell_formula_units_Z 14
_cell_length_a 9.268330
_cell_length_b 6.093487
_cell_length_c 12.223449
_cell_angle_alpha 73.550505
_cell_angle_beta 87.077622
_cell_angle_gamma 73.638235
_cell_volume 634.957549
_symmetry_space_group_name_H-M "P -1"
_symmetry_group_IT_number 2
_symmetry_cell_setting 'triclinic'
loop_
_space_group_symop_operation_xyz
x,y,z
-x,-y,-z
loop_
_atom_site_type_symbol
_atom_site_label
_atom_site_fract_x
_atom_site_fract_y
_atom_site_fract_z
Si Si1 0.867071 0.501924 0.420616
Si Si2 0.094995 0.556960 0.821075
Si Si3 0.104983 0.137571 0.034693
Si Si4 0.385524 0.663637 0.847993
Si Si5 0.419235 0.034760 0.650163
Si Si6 0.589281 0.188086 0.940726
Si Si7 0.625291 0.262820 0.503083
O O1 0.944739 0.460956 0.303166
O O2 0.728545 0.741942 0.387937
O O3 0.793973 0.293745 0.495720
O O4 0.000000 0.500000 0.500000
O O5 0.225548 0.686480 0.796490
O O6 0.957388 0.717125 0.873980
O O7 0.148110 0.300860 0.915205
O O8 0.254113 0.949296 0.101569
O O9 0.000000 0.000000 0.000000
O O10 0.495111 0.407888 0.837966
O O11 0.435451 0.902716 0.784799
O O12 0.368200 0.671142 0.977338
O O13 0.582335 0.080964 0.616783
O O14 0.400647 0.823814 0.603463
O O15 0.500000 0.000000 0.000000
O O16 0.500000 0.500000 0.500000
#
# Coordination Sequence:
#
# PCOD8014742 Si02
#       7
#     2   2   2   2   2   2   2
#     4  11  24  43  70  99 135 178 232 278 334 406
#     4  11  23  41  71  97 135 187 221 271 345 412
#     4  11  23  43  68  98 140 176 222 273 348 403
#     4  11  22  39  70  98 130 178 227 265 346 405
#     4  10  21  41  71  92 127 180 220 280 341 391
#     4  11  23  40  66 102 133 168 223 286 321 407
#     4   9  20  41  67  95 123 168 225 278 329 394
#
# _framework density 22.048717
#
# number of rings (size 3 to 8) (size 9 to 14) (size 15 to 20)
#    0.000    1.429    4.286    0.857    0.000    0.571 
#    0.000   11.429    0.000    0.000    0.000    0.000 
#    0.000    0.000    0.000    0.000    0.000    0.000 
#
# Total GULP energy -173445.562638 kJ/mol
# GULP energy per Si atom -12388.968760 kJ/mol
# Density = 2.199853 g / cm^3
# Si number density = 22.048717 Si / 1000 Ang^3
#
#
#
# Elastic Constant Matrix: (Units=GPa)
#
#
# Indices 1 2 3 4 5 6 
#
# 1 127.6899 44.7030 53.7817 -8.5136 -11.4392 3.4575
# 2 44.7030 98.6767 35.1252 -4.1976 -8.2467 -3.9004
# 3 53.7817 35.1252 110.3855 1.3712 -12.8005 -0.6886
# 4 -8.5136 -4.1976 1.3712 45.6279 7.1570 -5.1078
# 5 -11.4392 -8.2467 -12.8005 7.1570 31.0473 -2.2390
# 6 3.4575 -3.9004 -0.6886 -5.1078 -2.2390 44.8020
#
#
#
# Elastic Compliance Matrix: (Units=1/GPa)
#
#
# Indices 1 2 3 4 5 6 
#
# 1 0.011004 -0.003379 -0.004198 0.001605 0.000986 -0.000976
# 2 -0.003379 0.012641 -0.002240 0.000580 0.001160 0.001451
# 3 -0.004198 -0.002240 0.012230 -0.001851 0.003347 0.000273
# 4 0.001605 0.000580 -0.001851 0.023406 -0.005247 0.002304
# 5 0.000986 0.001160 0.003347 -0.005247 0.035560 0.001255
# 6 -0.000976 0.001451 0.000273 0.002304 0.001255 0.022852
#
#
# Mechanical properties :
#
#
# Convention : Reuss Voigt Hill
#
# Bulk Modulus (GPa) = 61.56839 67.10801 64.33820
# Shear Modulus (GPa) = 35.02855 37.83828 36.43341
#
# Velocity S-wave (km/s) = 3.99016 4.14710 4.06939
# Velocity P-wave (km/s) = 7.01519 7.30983 7.16403
#
# Compressibility (1/GPa) = 0.01624210
#
# Stress axis : x y z
#
# Youngs Moduli (GPa) = 90.87403 79.10716 81.76557
#
# Poissons Ratio (x) = 0.26729 0.34325
# Poissons Ratio (y) = 0.30704 0.18314
# Poissons Ratio (z) = 0.38149 0.17719
#
# Static dielectric constant tensor:
#      x y z
#    x 4.178760 0.148950 -0.379030 
#    y 0.148950 4.363930 -0.056930 
#    z -0.379030 -0.056930 4.030810 
# 
# 
# High freq. dielectric constant tensor:
#      x y z
#    x 1.860860 0.010220 -0.018540 
#    y 0.010220 1.888260 0.007810 
#    z -0.018540 0.007810 1.851760 
# 
# From -- ./inp_files/28459.got.cif
#   From: 2010.06.25/outbox.cif.g09.slc.cpg/sg2_15_cif.got.tgz:28459.got - 2010.06.27 13:26:56.
