data_PCOD8014701
_publ_section_title
;
Structure prediction by ZEFSAII (Michael W. Deem and Ramdas Pophale) SiO2 
 PCOD8014701
Probable space group: P -1
;
_chemical_formula_sum "Si O2"
_cell_formula_units_Z 16
_cell_length_a 8.571446
_cell_length_b 11.930321
_cell_length_c 12.601643
_cell_angle_alpha 125.053534
_cell_angle_beta 125.917187
_cell_angle_gamma 88.304509
_cell_volume 756.991066
_symmetry_space_group_name_H-M "P -1"
_symmetry_group_IT_number 2
_symmetry_cell_setting 'triclinic'
loop_
_space_group_symop_operation_xyz
x,y,z
-x,-y,-z
loop_
_atom_site_type_symbol
_atom_site_label
_atom_site_fract_x
_atom_site_fract_y
_atom_site_fract_z
Si Si1 0.584669 0.566067 0.186956
Si Si2 0.776720 0.848254 0.848811
Si Si3 0.301935 0.743547 0.620015
Si Si4 0.805979 0.849276 0.108329
Si Si5 0.324548 0.693697 0.846541
Si Si6 0.160116 0.436930 0.062258
Si Si7 0.891339 0.598248 0.728984
Si Si8 0.012319 0.117873 0.478716
O O1 0.702817 0.479746 0.248679
O O2 0.396951 0.560488 0.185233
O O3 0.748559 0.745313 0.343185
O O4 0.500000 0.500000 0.000000
O O5 0.548458 0.848249 0.730528
O O6 0.778884 0.704643 0.708199
O O7 0.763194 0.820344 0.952577
O O8 0.000000 0.000000 0.000000
O O9 0.284488 0.743176 0.740532
O O10 0.217562 0.564417 0.461522
O O11 0.160907 0.815260 0.546483
O O12 0.975232 0.022991 0.302053
O O13 0.571259 0.808112 0.046065
O O14 0.891021 0.725047 0.106525
O O15 0.147094 0.699697 0.857924
O O16 0.142290 0.425771 0.173841
O O17 0.000000 0.500000 0.000000
O O18 0.000000 0.000000 0.500000
#
# Coordination Sequence:
#
# PCOD8014701 Si02
#       8
#     2   2   2   2   2   2   2   2
#     4  11  23  44  70  96 130 178 225 273 329 401
#     4  10  24  41  63  97 138 172 205 274 349 402
#     4  11  25  42  66 101 132 178 228 280 328 396
#     4   9  23  41  62  94 131 167 221 269 330 395
#     4  10  21  41  70  97 126 173 229 273 332 397
#     4  10  22  41  66  91 128 174 219 271 332 393
#     4  11  22  39  67  98 132 167 221 277 331 398
#     4  12  26  42  67  97 134 172 230 281 323 393
#
# _framework density 21.136313000000001
#
# number of rings (size 3 to 8) (size 9 to 14) (size 15 to 20)
#    0.000    1.500    1.250    3.750    5.250    2.000 
#    2.250    0.625    0.000    0.000    0.000    0.000 
#    0.000    0.000    0.000    0.000    0.000    0.000 
#
# Total GULP energy -198261.570260 kJ/mol
# GULP energy per Si atom -12391.348141 kJ/mol
# Density = 2.108821 g / cm^3
# Si number density = 21.136313 Si / 1000 Ang^3
#
#
#
# Elastic Constant Matrix: (Units=GPa)
#
#
# Indices 1 2 3 4 5 6 
#
# 1 164.8165 53.2387 50.3143 0.4064 24.5919 0.8792
# 2 53.2387 110.8544 37.1220 6.0289 17.7171 -10.6743
# 3 50.3143 37.1220 104.3652 25.1347 5.2417 -5.8134
# 4 0.4064 6.0289 25.1347 38.4767 0.9208 4.3066
# 5 24.5919 17.7171 5.2417 0.9208 28.7822 2.6338
# 6 0.8792 -10.6743 -5.8134 4.3066 2.6338 39.0548
#
#
#
# Elastic Compliance Matrix: (Units=1/GPa)
#
#
# Indices 1 2 3 4 5 6 
#
# 1 0.008851 -0.002367 -0.004002 0.003180 -0.005348 -0.001432
# 2 -0.002367 0.012251 -0.002660 -0.000411 -0.005334 0.003411
# 3 -0.004002 -0.002660 0.014763 -0.009517 0.002449 0.002445
# 4 0.003180 -0.000411 -0.009517 0.032843 -0.001312 -0.005134
# 5 -0.005348 -0.005334 0.002449 -0.001312 0.042530 -0.003696
# 6 -0.001432 0.003411 0.002445 -0.005134 -0.003696 0.027749
#
#
# Mechanical properties :
#
#
# Convention : Reuss Voigt Hill
#
# Bulk Modulus (GPa) = 56.15676 73.48733 64.82204
# Shear Modulus (GPa) = 30.67824 37.22015 33.94919
#
# Velocity S-wave (km/s) = 3.81392 4.20093 4.01209
# Velocity P-wave (km/s) = 6.78389 7.64030 7.22480
#
# Compressibility (1/GPa) = 0.01780730
#
# Stress axis : x y z
#
# Youngs Moduli (GPa) = 112.97589 81.62268 67.73907
#
# Poissons Ratio (x) = 0.19319 0.27113
# Poissons Ratio (y) = 0.26739 0.18017
# Poissons Ratio (z) = 0.45219 0.21710
#
# Static dielectric constant tensor:
#      x y z
#    x 4.717160 0.067920 0.548710 
#    y 0.067920 4.177680 0.352640 
#    z 0.548710 0.352640 4.241300 
# 
# 
# High freq. dielectric constant tensor:
#      x y z
#    x 1.839920 -0.003230 0.007800 
#    y -0.003230 1.834000 0.005270 
#    z 0.007800 0.005270 1.815690 
# 
# From -- ./inp_files/190896.got.cif
#   From: 2010.06.25/outbox.cif.g09.slc.cpg/sg2_96_cif.got.tgz:190896.got - 2010.06.27 13:26:56.
