data_PCOD8014052
_publ_section_title
;
Structure prediction by ZEFSAII (Michael W. Deem and Ramdas Pophale) SiO2 
 PCOD8014052
Probable space group: P -1
;
_chemical_formula_sum "Si O2"
_cell_formula_units_Z 16
_cell_length_a 17.849874
_cell_length_b 9.267257
_cell_length_c 18.228812
_cell_angle_alpha 39.345526
_cell_angle_beta 29.366391
_cell_angle_gamma 27.217005
_cell_volume 676.295570
_symmetry_space_group_name_H-M "P -1"
_symmetry_group_IT_number 2
_symmetry_cell_setting 'triclinic'
loop_
_space_group_symop_operation_xyz
x,y,z
-x,-y,-z
loop_
_atom_site_type_symbol
_atom_site_label
_atom_site_fract_x
_atom_site_fract_y
_atom_site_fract_z
Si Si1 0.833235 0.629969 0.184699
Si Si2 0.245635 0.441940 0.336523
Si Si3 0.565873 0.457550 0.276782
Si Si4 0.715983 0.765221 0.065478
Si Si5 0.354460 0.726276 0.882304
Si Si6 0.451476 0.772852 0.481928
Si Si7 0.900403 0.921141 0.560519
Si Si8 0.742618 0.606779 0.819630
O O1 0.730042 0.701560 0.164560
O O2 0.681658 0.638138 0.362500
O O3 0.829891 0.897057 0.105299
O O4 0.078223 0.300465 0.109444
O O5 0.447927 0.399259 0.187099
O O6 0.163036 0.535475 0.286269
O O7 0.052679 0.736655 0.433374
O O8 0.308027 0.115756 0.431262
O O9 0.712883 0.527108 0.120776
O O10 0.552940 0.376119 0.238287
O O11 0.661480 0.178663 0.363681
O O12 0.332334 0.755403 0.391491
O O13 0.510355 0.115764 0.081731
O O14 0.233791 0.625289 0.052872
O O15 0.500000 0.500000 0.500000
O O16 0.857441 0.712320 0.714418
O O17 0.000000 0.000000 0.500000
#
# Coordination Sequence:
#
# PCOD8014052 Si02
#       8
#     2   2   2   2   2   2   2   2
#     4  10  22  41  65  97 130 165 228 266 322 401
#     4  11  23  44  68 101 131 170 229 270 328 398
#     4  11  24  44  67  91 139 173 215 274 333 387
#     4  10  21  41  64  95 126 170 219 270 327 390
#     4  11  24  43  65  98 135 173 218 271 329 391
#     4  11  21  43  70  96 129 175 220 274 330 388
#     4  11  24  46  65 101 136 172 226 270 329 396
#     4  11  23  44  69  93 134 177 217 273 330 388
#
# _framework density 23.658294999999999
#
# number of rings (size 3 to 8) (size 9 to 14) (size 15 to 20)
#    0.000    1.250    5.000    1.500    0.000    6.500 
#    4.500    0.000    0.000    0.000    0.000    0.000 
#    0.000    0.000    0.000    0.000    0.000    0.000 
#
# Total GULP energy -198305.051334 kJ/mol
# GULP energy per Si atom -12394.065708 kJ/mol
# Density = 2.360445 g / cm^3
# Si number density = 23.658295 Si / 1000 Ang^3
#
#
#
# Elastic Constant Matrix: (Units=GPa)
#
#
# Indices 1 2 3 4 5 6 
#
# 1 87.8844 47.1141 65.2552 -17.8317 12.8817 39.1853
# 2 47.1141 36.8872 -10.2823 23.3143 -23.6613 0.0744
# 3 65.2552 -10.2823 41.2801 10.0154 -34.3658 -23.7150
# 4 -17.8317 23.3143 10.0154 35.1496 12.1262 8.5293
# 5 12.8817 -23.6613 -34.3658 12.1262 21.9867 -20.1321
# 6 39.1853 0.0744 -23.7150 8.5293 -20.1321 6.5804
#
#
#
# Elastic Compliance Matrix: (Units=1/GPa)
#
#
# Indices 1 2 3 4 5 6 
#
# 1 0.005133 0.000787 0.002353 -0.002607 0.007872 0.005370
# 2 0.000787 0.028960 -0.008244 -0.009494 -0.001405 -0.026714
# 3 0.002353 -0.008244 0.009185 0.007188 -0.005092 -0.005716
# 4 -0.002607 -0.009494 0.007188 0.026396 0.002945 0.016335
# 5 0.007872 -0.001405 -0.005092 0.002945 0.018560 -0.012247
# 6 0.005370 -0.026714 -0.005716 0.016335 -0.012247 0.041054
#
#
# Mechanical properties :
#
#
# Convention : Reuss Voigt Hill
#
# Bulk Modulus (GPa) = 30.23939 41.13620 35.68779
# Shear Modulus (GPa) = 33.21848 17.00766 25.11307
#
# Velocity S-wave (km/s) = 3.75119 2.68412 3.26159
# Velocity P-wave (km/s) = 5.61884 5.19917 5.41307
#
# Compressibility (1/GPa) = 0.03306945
#
# Stress axis : x y z
#
# Youngs Moduli (GPa) = 194.83045 34.53058 108.87783
#
# Poissons Ratio (x) = -0.02716 -0.25620
# Poissons Ratio (y) = -0.15327 0.89754
# Poissons Ratio (z) = -0.45845 0.28466
#
# Static dielectric constant tensor:
#      x y z
#    x 4.089830 0.207220 -0.189010 
#    y 0.207220 4.268640 0.001790 
#    z -0.189010 0.001790 4.405440 
# 
# 
# High freq. dielectric constant tensor:
#      x y z
#    x 1.922400 0.015760 -0.017990 
#    y 0.015760 1.930130 0.007380 
#    z -0.017990 0.007380 1.948180 
# 
# From -- ./inp_files/575501.got.cif
#   From: 2010.06.25/outbox.cif.g09.slc.cpg/sg2_288_cif.got.tgz:575501.got - 2010.06.27 13:26:56.
