data_PCOD8014583
_publ_section_title
;
Structure prediction by ZEFSAII (Michael W. Deem and Ramdas Pophale) SiO2 
 PCOD8014583
Probable space group: P -1
;
_chemical_formula_sum "Si O2"
_cell_formula_units_Z 10
_cell_length_a 8.983821
_cell_length_b 18.064611
_cell_length_c 12.891773
_cell_angle_alpha 17.512368
_cell_angle_beta 35.910513
_cell_angle_gamma 31.227728
_cell_volume 326.186482
_symmetry_space_group_name_H-M "P -1"
_symmetry_group_IT_number 2
_symmetry_cell_setting 'triclinic'
loop_
_space_group_symop_operation_xyz
x,y,z
-x,-y,-z
loop_
_atom_site_type_symbol
_atom_site_label
_atom_site_fract_x
_atom_site_fract_y
_atom_site_fract_z
Si Si1 0.599245 0.581398 0.731463
Si Si2 0.924359 0.891921 0.456509
Si Si3 0.275407 0.090864 0.098174
Si Si4 0.480986 0.322546 0.952692
Si Si5 0.944485 0.308511 0.570672
O O1 0.636449 0.339563 0.949733
O O2 0.864867 0.649211 0.504323
O O3 0.345695 0.868566 0.445944
O O4 0.500000 0.500000 0.000000
O O5 0.237569 0.629425 0.650447
O O6 0.875490 0.892522 0.357773
O O7 0.969733 0.144981 0.143340
O O8 0.665628 0.876763 0.683130
O O9 0.244038 0.374263 0.790233
O O10 0.500000 0.000000 0.000000
O O11 0.732332 0.197851 0.888250
#
# Coordination Sequence:
#
# PCOD8014583 Si02
#       5
#     2   2   2   2   2
#     4  11  23  45  69 105 144 177 231 295 338 412
#     4  10  22  44  68 104 142 175 233 293 333 417
#     4  11  25  45  73 105 135 183 243 277 342 431
#     4  10  21  41  69 100 141 179 229 286 342 413
#     4  12  23  45  79  94 138 195 222 283 363 391
#
# _framework density 30.657309000000001
#
# number of rings (size 3 to 8) (size 9 to 14) (size 15 to 20)
#    0.000    1.200    6.000    1.200    0.000    0.800 
#    0.000    8.000    0.000    0.000    0.000    0.000 
#    0.000    0.000    0.000    0.000    0.000    0.000 
#
# Total GULP energy -124090.096511 kJ/mol
# GULP energy per Si atom -12409.009651 kJ/mol
# Density = 3.058753 g / cm^3
# Si number density = 30.657309 Si / 1000 Ang^3
#
#
#
# Elastic Constant Matrix: (Units=GPa)
#
#
# Indices 1 2 3 4 5 6 
#
# 1 151.9077 51.7948 78.5779 20.3211 -18.5148 -3.2909
# 2 51.7948 178.0558 69.7201 21.5957 -23.6032 11.5574
# 3 78.5779 69.7201 213.9976 27.3808 -27.3704 22.0736
# 4 20.3211 21.5957 27.3808 57.4706 -6.3211 -19.2703
# 5 -18.5148 -23.6032 -27.3704 -6.3211 63.1175 2.3548
# 6 -3.2909 11.5574 22.0736 -19.2703 2.3548 53.2979
#
#
#
# Elastic Compliance Matrix: (Units=1/GPa)
#
#
# Indices 1 2 3 4 5 6 
#
# 1 0.008682 -0.001399 -0.002747 -0.000575 0.000710 0.001738
# 2 -0.001399 0.007055 -0.001100 -0.002126 0.001613 -0.002000
# 3 -0.002747 -0.001100 0.007084 -0.003175 0.001689 -0.004087
# 4 -0.000575 -0.002126 -0.003175 0.023284 -0.000388 0.010176
# 5 0.000710 0.001613 0.001689 -0.000388 0.017420 -0.001915
# 6 0.001738 -0.002000 -0.004087 0.010176 -0.001915 0.024760
#
#
# Mechanical properties :
#
#
# Convention : Reuss Voigt Hill
#
# Bulk Modulus (GPa) = 81.11192 104.90516 93.00854
# Shear Modulus (GPa) = 48.59636 57.70176 53.14906
#
# Velocity S-wave (km/s) = 3.98571 4.34309 4.16823
# Velocity P-wave (km/s) = 6.90625 7.70992 7.31912
#
# Compressibility (1/GPa) = 0.01232864
#
# Stress axis : x y z
#
# Youngs Moduli (GPa) = 115.18117 141.73441 141.16120
#
# Poissons Ratio (x) = 0.19826 0.38779
# Poissons Ratio (y) = 0.16112 0.15534
# Poissons Ratio (z) = 0.31642 0.15597
#
# Static dielectric constant tensor:
#      x y z
#    x 6.678140 -0.532370 0.120780 
#    y -0.532370 5.871550 -0.791440 
#    z 0.120780 -0.791440 6.256260 
# 
# 
# High freq. dielectric constant tensor:
#      x y z
#    x 2.292860 -0.024990 0.014750 
#    y -0.024990 2.280040 -0.044120 
#    z 0.014750 -0.044120 2.294820 
# 
# From -- ./inp_files/236339.got.cif
#   From: 2010.06.25/outbox.cif.g09.slc.cpg/sg2_119_cif.got.tgz:236339.got - 2010.06.27 13:26:56.
