data_PCOD8014713
_publ_section_title
;
Structure prediction by ZEFSAII (Michael W. Deem and Ramdas Pophale) SiO2 
 PCOD8014713
Probable space group: P -1
;
_chemical_formula_sum "Si O2"
_cell_formula_units_Z 16
_cell_length_a 11.350690
_cell_length_b 9.141540
_cell_length_c 12.134342
_cell_angle_alpha 50.412925
_cell_angle_beta 50.786615
_cell_angle_gamma 73.420652
_cell_volume 737.099262
_symmetry_space_group_name_H-M "P -1"
_symmetry_group_IT_number 2
_symmetry_cell_setting 'triclinic'
loop_
_space_group_symop_operation_xyz
x,y,z
-x,-y,-z
loop_
_atom_site_type_symbol
_atom_site_label
_atom_site_fract_x
_atom_site_fract_y
_atom_site_fract_z
Si Si1 0.090892 0.583748 0.014261
Si Si2 0.251717 0.397377 0.188396
Si Si3 0.404681 0.785496 0.633877
Si Si4 0.549862 0.429149 0.723172
Si Si5 0.448276 0.196151 0.685830
Si Si6 0.101593 0.200451 0.818135
Si Si7 0.527400 0.221178 0.047487
Si Si8 0.875401 0.624531 0.499115
O O1 0.232579 0.753985 0.804443
O O2 0.155269 0.415571 0.124710
O O3 0.000000 0.500000 0.000000
O O4 0.967134 0.649745 0.137059
O O5 0.367453 0.250353 0.180639
O O6 0.153303 0.299094 0.398689
O O7 0.331665 0.616972 0.067782
O O8 0.481040 0.612235 0.722661
O O9 0.414830 0.766970 0.504217
O O10 0.500000 0.000000 0.500000
O O11 0.488772 0.367116 0.668186
O O12 0.733202 0.489901 0.585055
O O13 0.505074 0.245856 0.918386
O O14 0.284324 0.213029 0.722153
O O15 0.437169 0.987038 0.847375
O O16 0.066649 0.209651 0.703729
O O17 0.000000 0.000000 0.000000
O O18 0.000000 0.500000 0.500000
#
# Coordination Sequence:
#
# PCOD8014713 Si02
#       8
#     2   2   2   2   2   2   2   2
#     4  12  26  44  70 105 145 183 225 297 365 409
#     4  10  21  41  70  99 131 184 233 284 341 422
#     4  12  25  43  72 104 136 184 242 288 344 424
#     4  11  24  44  70 100 135 183 237 292 349 412
#     4  12  26  42  72 103 141 180 239 297 346 416
#     4  12  26  44  68 102 141 181 232 288 354 421
#     4  10  22  41  70 100 136 176 239 287 346 412
#     4  11  24  42  69  95 135 184 231 280 352 424
#
# _framework density 21.706710999999999
#
# number of rings (size 3 to 8) (size 9 to 14) (size 15 to 20)
#    0.000    0.750    3.750    3.750    7.000    0.000 
#    0.000    0.000    0.000    2.250    0.000    0.000 
#    0.000    0.000    0.000    0.000    0.000    0.000 
#
# Total GULP energy -198290.381517 kJ/mol
# GULP energy per Si atom -12393.148845 kJ/mol
# Density = 2.165731 g / cm^3
# Si number density = 21.706711 Si / 1000 Ang^3
#
#
#
# Elastic Constant Matrix: (Units=GPa)
#
#
# Indices 1 2 3 4 5 6 
#
# 1 121.0788 31.2867 42.7531 2.2167 23.5063 0.1920
# 2 31.2867 78.2668 26.2644 3.9412 7.5794 -11.3728
# 3 42.7531 26.2644 138.0538 17.9813 26.5029 -4.2791
# 4 2.2167 3.9412 17.9813 37.6729 1.1244 6.4860
# 5 23.5063 7.5794 26.5029 1.1244 40.9877 1.9484
# 6 0.1920 -11.3728 -4.2791 6.4860 1.9484 36.9561
#
#
#
# Elastic Compliance Matrix: (Units=1/GPa)
#
#
# Indices 1 2 3 4 5 6 
#
# 1 0.010643 -0.003416 -0.002031 0.001049 -0.004125 -0.001308
# 2 -0.003416 0.015444 -0.001509 -0.001530 -0.000111 0.004870
# 3 -0.002031 -0.001509 0.009723 -0.004516 -0.004801 0.001718
# 4 0.001049 -0.001530 -0.004516 0.029828 0.002084 -0.006344
# 5 -0.004125 -0.000111 -0.004801 0.002084 0.029950 -0.002513
# 6 -0.001308 0.004870 0.001718 -0.006344 -0.002513 0.030009
#
#
# Mechanical properties :
#
#
# Convention : Reuss Voigt Hill
#
# Bulk Modulus (GPa) = 45.66845 59.77864 52.72355
# Shear Modulus (GPa) = 34.05794 38.92968 36.49381
#
# Velocity S-wave (km/s) = 3.96536 4.23950 4.10472
# Velocity P-wave (km/s) = 6.48460 7.18077 6.84155
#
# Compressibility (1/GPa) = 0.02189695
#
# Stress axis : x y z
#
# Youngs Moduli (GPa) = 93.96046 64.74941 102.85259
#
# Poissons Ratio (x) = 0.22120 0.20892
# Poissons Ratio (y) = 0.32099 0.15519
# Poissons Ratio (z) = 0.19086 0.09770
#
# Static dielectric constant tensor:
#      x y z
#    x 3.689740 -0.223990 0.193590 
#    y -0.223990 3.444170 -0.043630 
#    z 0.193590 -0.043630 4.034900 
# 
# 
# High freq. dielectric constant tensor:
#      x y z
#    x 1.853950 -0.015110 0.022100 
#    y -0.015110 1.842010 0.020520 
#    z 0.022100 0.020520 1.872590 
# 
# From -- ./inp_files/262192.got.cif
#   From: 2010.06.25/outbox.cif.g09.slc.cpg/sg2_132_cif.got.tgz:262192.got - 2010.06.27 13:26:56.
