data_PCOD8014787
_publ_section_title
;
Structure prediction by ZEFSAII (Michael W. Deem and Ramdas Pophale) SiO2 
 PCOD8014787
Probable space group: P -1
;
_chemical_formula_sum "Si O2"
_cell_formula_units_Z 14
_cell_length_a 10.716616
_cell_length_b 8.445626
_cell_length_c 13.096013
_cell_angle_alpha 68.324871
_cell_angle_beta 54.744898
_cell_angle_gamma 111.893359
_cell_volume 571.378201
_symmetry_space_group_name_H-M "P -1"
_symmetry_group_IT_number 2
_symmetry_cell_setting 'triclinic'
loop_
_space_group_symop_operation_xyz
x,y,z
-x,-y,-z
loop_
_atom_site_type_symbol
_atom_site_label
_atom_site_fract_x
_atom_site_fract_y
_atom_site_fract_z
Si Si1 0.296509 0.523729 0.476526
Si Si2 0.871240 0.900330 0.837973
Si Si3 0.740243 0.709677 0.163006
Si Si4 0.714020 0.312769 0.351986
Si Si5 0.173355 0.400950 0.341756
Si Si6 0.834125 0.509256 0.892049
Si Si7 0.325774 0.167472 0.259261
O O1 0.551187 0.649429 0.334543
O O2 0.297886 0.674435 0.522828
O O3 0.252884 0.556767 0.374226
O O4 0.090196 0.213993 0.681367
O O5 0.975083 0.810446 0.768015
O O6 0.685124 0.807058 0.863433
O O7 0.706504 0.726655 0.056036
O O8 0.694784 0.470831 0.260556
O O9 0.000000 0.000000 0.000000
O O10 0.981639 0.474287 0.159238
O O11 0.500000 0.000000 0.500000
O O12 0.237794 0.576343 0.173486
O O13 0.289348 0.311354 0.305641
O O14 0.883100 0.141373 0.537239
O O15 0.585974 0.302632 0.124476
#
# Coordination Sequence:
#
# PCOD8014787 Si02
#       7
#     2   2   2   2   2   2   2
#     4  11  23  46  70  95 136 177 236 281 329 409
#     4  10  21  41  73 101 131 179 228 280 332 411
#     4  12  25  45  73  96 125 189 240 270 326 407
#     4  12  29  47  65  99 147 184 222 287 344 393
#     4   9  19  39  70 101 130 179 221 275 348 400
#     4  11  22  40  66 104 141 171 220 282 346 402
#     4   9  18  37  69 105 134 169 225 281 334 412
#
# _framework density 24.50216
#
# number of rings (size 3 to 8) (size 9 to 14) (size 15 to 20)
#    0.000    1.429    1.429    5.571    2.000    2.286 
#    2.571    2.857    0.000    0.000    0.000    0.000 
#    0.000    0.000    0.000    0.000    0.000    0.000 
#
# Total GULP energy -173545.841456 kJ/mol
# GULP energy per Si atom -12396.131533 kJ/mol
# Density = 2.444639 g / cm^3
# Si number density = 24.502160 Si / 1000 Ang^3
#
#
#
# Elastic Constant Matrix: (Units=GPa)
#
#
# Indices 1 2 3 4 5 6 
#
# 1 27.9732 11.6194 37.3401 3.9952 -23.8047 -8.1763
# 2 11.6194 118.6878 44.6206 -6.1100 -11.4365 20.6997
# 3 37.3401 44.6206 123.5769 -0.5861 -30.9435 0.5342
# 4 3.9952 -6.1100 -0.5861 40.4943 1.4102 0.1037
# 5 -23.8047 -11.4365 -30.9435 1.4102 55.0689 10.8581
# 6 -8.1763 20.6997 0.5342 0.1037 10.8581 31.9549
#
#
#
# Elastic Compliance Matrix: (Units=1/GPa)
#
#
# Indices 1 2 3 4 5 6 
#
# 1 0.091993 -0.002301 -0.020982 -0.010620 0.024393 0.017125
# 2 -0.002301 0.011504 -0.003096 0.001895 0.001268 -0.008426
# 3 -0.020982 -0.003096 0.015481 0.001849 -0.000371 -0.003502
# 4 -0.010620 0.001895 0.001849 0.026176 -0.003245 -0.002958
# 5 0.024393 0.001268 -0.000371 -0.003245 0.029764 -0.004677
# 6 0.017125 -0.008426 -0.003502 -0.002958 -0.004677 0.042791
#
#
# Mechanical properties :
#
#
# Convention : Reuss Voigt Hill
#
# Bulk Modulus (GPa) = 15.10107 50.82204 32.96156
# Shear Modulus (GPa) = 17.09171 37.28081 27.18626
#
# Velocity S-wave (km/s) = 2.64400 3.90491 3.33460
# Velocity P-wave (km/s) = 3.93669 6.41233 5.32050
#
# Compressibility (1/GPa) = 0.06622046
#
# Stress axis : x y z
#
# Youngs Moduli (GPa) = 10.87038 86.92816 64.59541
#
# Poissons Ratio (x) = 0.19999 1.35536
# Poissons Ratio (y) = 0.02501 0.19997
# Poissons Ratio (z) = 0.22809 0.26910
#
# Static dielectric constant tensor:
#      x y z
#    x 4.250270 0.342440 0.030310 
#    y 0.342440 4.368990 0.255100 
#    z 0.030310 0.255100 4.598190 
# 
# 
# High freq. dielectric constant tensor:
#      x y z
#    x 1.958850 0.026180 -0.011310 
#    y 0.026180 1.962750 0.010340 
#    z -0.011310 0.010340 1.988030 
# 
# From -- ./inp_files/515335.got.cif
#   From: 2010.06.25/outbox.cif.g09.slc.cpg/sg2_258_cif.got.tgz:515335.got - 2010.06.27 13:26:56.
