data_PCOD8014227
_publ_section_title
;
Structure prediction by ZEFSAII (Michael W. Deem and Ramdas Pophale) SiO2 
 PCOD8014227
Probable space group: P -1
;
_chemical_formula_sum "Si O2"
_cell_formula_units_Z 16
_cell_length_a 17.618258
_cell_length_b 6.015133
_cell_length_c 14.631256
_cell_angle_alpha 71.973520
_cell_angle_beta 30.303765
_cell_angle_gamma 79.558518
_cell_volume 731.954276
_symmetry_space_group_name_H-M "P -1"
_symmetry_group_IT_number 2
_symmetry_cell_setting 'triclinic'
loop_
_space_group_symop_operation_xyz
x,y,z
-x,-y,-z
loop_
_atom_site_type_symbol
_atom_site_label
_atom_site_fract_x
_atom_site_fract_y
_atom_site_fract_z
Si Si1 0.536655 0.663368 0.293731
Si Si2 0.992793 0.055217 0.274911
Si Si3 0.130159 0.680100 0.292395
Si Si4 0.395225 0.159722 0.538559
Si Si5 0.356955 0.023709 0.387446
Si Si6 0.213779 0.989666 0.901608
Si Si7 0.203802 0.495578 0.051021
Si Si8 0.456328 0.770362 0.003842
O O1 0.470446 0.429218 0.449490
O O2 0.389185 0.756353 0.395063
O O3 0.632638 0.862266 0.232519
O O4 0.649951 0.629691 0.097140
O O5 0.812160 0.978336 0.473399
O O6 0.042777 0.329585 0.214464
O O7 0.062458 0.905117 0.298580
O O8 0.058689 0.023873 0.108813
O O9 0.199550 0.558530 0.151933
O O10 0.000000 0.500000 0.500000
O O11 0.272813 0.750183 0.202782
O O12 0.225521 0.080418 0.772108
O O13 0.500000 0.000000 0.500000
O O14 0.379877 0.145201 0.447310
O O15 0.478709 0.158626 0.172921
O O16 0.226898 0.714670 0.928935
O O17 0.500000 0.500000 0.000000
O O18 0.500000 0.000000 0.000000
#
# Coordination Sequence:
#
# PCOD8014227 Si02
#       8
#     2   2   2   2   2   2   2   2
#     4  11  21  39  69  98 138 176 243 296 370 430
#     4  10  25  44  67  97 145 190 239 297 377 448
#     4  11  25  46  76 103 140 195 243 309 384 450
#     4  12  23  40  72 103 139 184 246 304 373 445
#     4  12  27  44  69 107 144 192 242 309 374 442
#     4  10  21  41  65  99 128 186 230 295 356 445
#     4  10  21  41  68  93 137 178 241 287 366 444
#     4  12  30  51  80 118 153 194 258 320 379 452
#
# _framework density 21.859289
#
# number of rings (size 3 to 8) (size 9 to 14) (size 15 to 20)
#    0.000    1.000    2.500    4.125    7.000    3.000 
#    0.000    1.250    0.000    0.000    0.000    0.000 
#    0.000    0.000    0.000    0.000    0.000    0.000 
#
# Total GULP energy -198210.260127 kJ/mol
# GULP energy per Si atom -12388.141258 kJ/mol
# Density = 2.180954 g / cm^3
# Si number density = 21.859289 Si / 1000 Ang^3
#
#
#
# Elastic Constant Matrix: (Units=GPa)
#
#
# Indices 1 2 3 4 5 6 
#
# 1 91.6881 46.8791 48.3213 -7.2671 -2.1383 -0.3817
# 2 46.8791 134.5051 40.9814 -22.7340 -4.9642 -2.9225
# 3 48.3213 40.9814 142.0099 -23.9512 0.7408 -6.9550
# 4 -7.2671 -22.7340 -23.9512 34.2970 -8.1670 -0.0093
# 5 -2.1383 -4.9642 0.7408 -8.1670 49.0877 3.5991
# 6 -0.3817 -2.9225 -6.9550 -0.0093 3.5991 30.5538
#
#
#
# Elastic Compliance Matrix: (Units=1/GPa)
#
#
# Indices 1 2 3 4 5 6 
#
# 1 0.015322 -0.004498 -0.004461 -0.002876 -0.000108 -0.001242
# 2 -0.004498 0.010209 -0.000388 0.005970 0.001790 0.000623
# 3 -0.004461 -0.000388 0.009731 0.005693 0.000415 0.002075
# 4 -0.002876 0.005970 0.005693 0.038064 0.006648 0.001060
# 5 -0.000108 0.001790 0.000415 0.006648 0.021817 -0.002304
# 6 -0.001242 0.000623 0.002075 0.001060 -0.002304 0.033517
#
#
# Mechanical properties :
#
#
# Convention : Reuss Voigt Hill
#
# Bulk Modulus (GPa) = 60.35372 71.17408 65.76390
# Shear Modulus (GPa) = 32.70643 38.25579 35.48111
#
# Velocity S-wave (km/s) = 3.87230 4.18795 4.03322
# Velocity P-wave (km/s) = 6.90384 7.48439 7.19997
#
# Compressibility (1/GPa) = 0.01656899
#
# Stress axis : x y z
#
# Youngs Moduli (GPa) = 65.26739 97.95232 102.76327
#
# Poissons Ratio (x) = 0.44059 0.45840
# Poissons Ratio (y) = 0.29357 0.03983
# Poissons Ratio (z) = 0.29114 0.03796
#
# Static dielectric constant tensor:
#      x y z
#    x 3.880410 0.153050 0.310880 
#    y 0.153050 4.465660 -0.005750 
#    z 0.310880 -0.005750 4.372050 
# 
# 
# High freq. dielectric constant tensor:
#      x y z
#    x 1.834890 0.005510 0.013430 
#    y 0.005510 1.874630 -0.005160 
#    z 0.013430 -0.005160 1.881250 
# 
# From -- ./inp_files/288618.got.cif
#   From: 2010.06.25/outbox.cif.g09.slc.cpg/sg2_145_cif.got.tgz:288618.got - 2010.06.27 13:26:56.
