data_PCOD8014219
_publ_section_title
;
Structure prediction by ZEFSAII (Michael W. Deem and Ramdas Pophale) SiO2 
 PCOD8014219
Probable space group: P -1
;
_chemical_formula_sum "Si O2"
_cell_formula_units_Z 14
_cell_length_a 9.640855
_cell_length_b 9.527979
_cell_length_c 12.641467
_cell_angle_alpha 67.323722
_cell_angle_beta 126.712868
_cell_angle_gamma 134.354476
_cell_volume 664.541892
_symmetry_space_group_name_H-M "P -1"
_symmetry_group_IT_number 2
_symmetry_cell_setting 'triclinic'
loop_
_space_group_symop_operation_xyz
x,y,z
-x,-y,-z
loop_
_atom_site_type_symbol
_atom_site_label
_atom_site_fract_x
_atom_site_fract_y
_atom_site_fract_z
Si Si1 0.275404 0.893595 0.992616
Si Si2 0.907165 0.343989 0.210650
Si Si3 0.408024 0.618226 0.439139
Si Si4 0.450370 0.015160 0.714975
Si Si5 0.491405 0.243603 0.321063
Si Si6 0.698031 0.527883 0.142814
Si Si7 0.010711 0.032607 0.871391
O O1 0.323486 0.873314 0.142014
O O2 0.091636 0.689606 0.905656
O O3 0.500000 0.000000 0.000000
O O4 0.195036 0.022046 0.911848
O O5 0.772803 0.424719 0.139942
O O6 0.156505 0.489668 0.322372
O O7 0.773565 0.138440 0.274456
O O8 0.500000 0.500000 0.500000
O O9 0.561448 0.820910 0.383796
O O10 0.401930 0.670551 0.541439
O O11 0.468053 0.905027 0.658667
O O12 0.612148 0.432033 0.246172
O O13 0.228606 0.132869 0.241366
O O14 0.912249 0.755576 0.185674
O O15 0.500000 0.500000 0.000000
O O16 0.000000 0.000000 0.000000
#
# Coordination Sequence:
#
# PCOD8014219 Si02
#       7
#     2   2   2   2   2   2   2
#     4  10  21  41  65  97 130 165 208 267 334 379
#     4  10  24  42  65  93 130 171 207 263 334 373
#     4  12  27  42  60  93 127 173 223 259 311 386
#     4  10  22  43  64  89 126 165 214 268 316 380
#     4  11  24  41  64  94 127 169 217 260 315 389
#     4  11  22  40  68  99 129 160 214 269 322 390
#     4  12  21  39  67  96 128 164 212 266 325 376
#
# _framework density 21.067145
#
# number of rings (size 3 to 8) (size 9 to 14) (size 15 to 20)
#    0.000    1.143    2.857    3.857    0.000    8.000 
#    0.000    0.000    0.000    0.000    0.000    0.000 
#    0.000    0.000    0.000    0.000    0.000    0.000 
#
# Total GULP energy -173610.016153 kJ/mol
# GULP energy per Si atom -12400.715440 kJ/mol
# Density = 2.101920 g / cm^3
# Si number density = 21.067145 Si / 1000 Ang^3
#
#
#
# Elastic Constant Matrix: (Units=GPa)
#
#
# Indices 1 2 3 4 5 6 
#
# 1 84.4864 46.3389 20.6422 -1.2140 -0.5355 -13.1746
# 2 46.3389 142.0406 62.9123 -14.6999 -9.4098 -3.4490
# 3 20.6422 62.9123 90.6270 12.0847 -12.0190 -15.5668
# 4 -1.2140 -14.6999 12.0847 52.4591 -7.3733 1.6118
# 5 -0.5355 -9.4098 -12.0190 -7.3733 34.2455 8.1253
# 6 -13.1746 -3.4490 -15.5668 1.6118 8.1253 33.5489
#
#
#
# Elastic Compliance Matrix: (Units=1/GPa)
#
#
# Indices 1 2 3 4 5 6 
#
# 1 0.015943 -0.006371 0.001990 -0.002539 -0.003106 0.007403
# 2 -0.006371 0.014423 -0.010224 0.006942 0.003413 -0.006923
# 3 0.001990 -0.010224 0.020396 -0.007742 0.000471 0.009452
# 4 -0.002539 0.006942 -0.007742 0.023743 0.005785 -0.006417
# 5 -0.003106 0.003413 0.000471 0.005785 0.033655 -0.009080
# 6 0.007403 -0.006923 0.009452 -0.006417 -0.009080 0.038896
#
#
# Mechanical properties :
#
#
# Convention : Reuss Voigt Hill
#
# Bulk Modulus (GPa) = 46.39818 64.10456 55.25137
# Shear Modulus (GPa) = 27.25531 36.53472 31.89502
#
# Velocity S-wave (km/s) = 3.60076 4.16890 3.89520
# Velocity P-wave (km/s) = 6.27368 7.32582 6.82007
#
# Compressibility (1/GPa) = 0.02155257
#
# Stress axis : x y z
#
# Youngs Moduli (GPa) = 62.72432 69.33219 49.02811
#
# Poissons Ratio (x) = 0.44173 -0.09755
# Poissons Ratio (y) = 0.39963 0.50124
# Poissons Ratio (z) = -0.12480 0.70882
#
# Static dielectric constant tensor:
#      x y z
#    x 4.176930 0.078650 -0.060560 
#    y 0.078650 3.910030 0.006530 
#    z -0.060560 0.006530 3.946090 
# 
# 
# High freq. dielectric constant tensor:
#      x y z
#    x 1.828700 -0.005020 -0.001780 
#    y -0.005020 1.834650 0.007470 
#    z -0.001780 0.007470 1.824360 
# 
# From -- ./inp_files/185617.got.cif
#   From: 2010.06.25/outbox.cif.g09.slc.cpg/sg2_93_cif.got.tgz:185617.got - 2010.06.27 13:26:56.
