data_PCOD8014859
_publ_section_title
;
Structure prediction by ZEFSAII (Michael W. Deem and Ramdas Pophale) SiO2 
 PCOD8014859
Probable space group: P -1
;
_chemical_formula_sum "Si O2"
_cell_formula_units_Z 16
_cell_length_a 6.578248
_cell_length_b 16.639974
_cell_length_c 9.411686
_cell_angle_alpha 56.584401
_cell_angle_beta 57.406676
_cell_angle_gamma 76.835924
_cell_volume 721.011634
_symmetry_space_group_name_H-M "P -1"
_symmetry_group_IT_number 2
_symmetry_cell_setting 'triclinic'
loop_
_space_group_symop_operation_xyz
x,y,z
-x,-y,-z
loop_
_atom_site_type_symbol
_atom_site_label
_atom_site_fract_x
_atom_site_fract_y
_atom_site_fract_z
Si Si1 0.592730 0.225287 0.129955
Si Si2 0.235857 0.454282 0.666563
Si Si3 0.148569 0.247178 0.831606
Si Si4 0.402691 0.122999 0.043056
Si Si5 0.110242 0.961460 0.142492
Si Si6 0.252534 0.207271 0.524657
Si Si7 0.412562 0.427824 0.919164
Si Si8 0.184106 0.423646 0.302456
O O1 0.425821 0.143372 0.183315
O O2 0.510440 0.209799 0.341820
O O3 0.550142 0.332832 0.990524
O O4 0.873194 0.208329 0.016851
O O5 0.500000 0.500000 0.500000
O O6 0.162568 0.361690 0.684201
O O7 0.223736 0.415776 0.871515
O O8 0.070303 0.537203 0.608246
O O9 0.254614 0.193694 0.707454
O O10 0.337953 0.225300 0.903925
O O11 0.183503 0.045665 0.148230
O O12 0.658544 0.094908 0.920922
O O13 0.920665 0.885961 0.371646
O O14 0.000000 0.000000 0.000000
O O15 0.141849 0.308256 0.442210
O O16 0.612262 0.520645 0.725295
O O17 0.253470 0.453819 0.086815
#
# Coordination Sequence:
#
# PCOD8014859 Si02
#       8
#     2   2   2   2   2   2   2   2
#     4  11  23  45  69  99 137 182 223 274 338 395
#     4  12  25  36  64  99 130 183 227 263 332 401
#     4  12  24  45  68  97 144 174 219 286 330 396
#     4  11  23  44  74  97 132 179 217 274 350 392
#     4  11  23  46  75 100 133 176 220 284 346 395
#     4  11  25  44  70 100 134 178 228 276 334 401
#     4  10  21  42  62  90 137 180 218 269 329 385
#     4  10  23  41  62  95 137 174 219 276 320 395
#
# _framework density 22.191040999999998
#
# number of rings (size 3 to 8) (size 9 to 14) (size 15 to 20)
#    0.000    1.000    5.000    1.125    3.500    1.500 
#    4.500    2.500    0.000    0.000    0.000    0.000 
#    0.000    0.000    0.000    0.000    0.000    0.000 
#
# Total GULP energy -198296.688867 kJ/mol
# GULP energy per Si atom -12393.543054 kJ/mol
# Density = 2.214053 g / cm^3
# Si number density = 22.191041 Si / 1000 Ang^3
#
#
#
# Elastic Constant Matrix: (Units=GPa)
#
#
# Indices 1 2 3 4 5 6 
#
# 1 88.7169 35.1986 35.1708 3.3354 -8.2003 -0.5503
# 2 35.1986 102.7152 37.4137 -2.4077 -12.2336 7.2021
# 3 35.1708 37.4137 95.8582 1.1595 -19.6735 7.1059
# 4 3.3354 -2.4077 1.1595 44.6045 6.8105 0.4478
# 5 -8.2003 -12.2336 -19.6735 6.8105 22.5405 -5.4806
# 6 -0.5503 7.2021 7.1059 0.4478 -5.4806 40.2291
#
#
#
# Elastic Compliance Matrix: (Units=1/GPa)
#
#
# Indices 1 2 3 4 5 6 
#
# 1 0.014330 -0.003578 -0.003817 -0.001293 0.000725 0.001624
# 2 -0.003578 0.012435 -0.002970 0.000680 0.002298 -0.001445
# 3 -0.003817 -0.002970 0.015270 -0.001902 0.010723 -0.000736
# 4 -0.001293 0.000680 -0.001902 0.024044 -0.009353 -0.001345
# 5 0.000725 0.002298 0.010723 -0.009353 0.059499 0.005914
# 6 0.001624 -0.001445 -0.000736 -0.001345 0.005914 0.026089
#
#
# Mechanical properties :
#
#
# Convention : Reuss Voigt Hill
#
# Bulk Modulus (GPa) = 46.93838 55.87295 51.40566
# Shear Modulus (GPa) = 27.85537 33.44197 30.64867
#
# Velocity S-wave (km/s) = 3.54680 3.88623 3.72038
# Velocity P-wave (km/s) = 6.16205 6.73571 6.45526
#
# Compressibility (1/GPa) = 0.02130453
#
# Stress axis : x y z
#
# Youngs Moduli (GPa) = 69.78147 80.42113 65.48773
#
# Poissons Ratio (x) = 0.28776 0.24999
# Poissons Ratio (y) = 0.24969 0.19449
# Poissons Ratio (z) = 0.26638 0.23884
#
# Static dielectric constant tensor:
#      x y z
#    x 4.237280 0.371750 0.206220 
#    y 0.371750 4.232090 0.084440 
#    z 0.206220 0.084440 4.010920 
# 
# 
# High freq. dielectric constant tensor:
#      x y z
#    x 1.864620 0.008680 0.001550 
#    y 0.008680 1.893640 0.000490 
#    z 0.001550 0.000490 1.862690 
# 
# From -- ./inp_files/38647.got.cif
#   From: 2010.06.25/outbox.cif.g09.slc.cpg/sg2_20_cif.got.tgz:38647.got - 2010.06.27 13:26:56.
