data_PCOD8014124
_publ_section_title
;
Structure prediction by ZEFSAII (Michael W. Deem and Ramdas Pophale) SiO2 
 PCOD8014124
Probable space group: P -1
;
_chemical_formula_sum "Si O2"
_cell_formula_units_Z 10
_cell_length_a 8.628733
_cell_length_b 6.604140
_cell_length_c 13.110198
_cell_angle_alpha 140.153897
_cell_angle_beta 110.454970
_cell_angle_gamma 49.352356
_cell_volume 345.308697
_symmetry_space_group_name_H-M "P -1"
_symmetry_group_IT_number 2
_symmetry_cell_setting 'triclinic'
loop_
_space_group_symop_operation_xyz
x,y,z
-x,-y,-z
loop_
_atom_site_type_symbol
_atom_site_label
_atom_site_fract_x
_atom_site_fract_y
_atom_site_fract_z
Si Si1 0.100931 0.777549 0.576242
Si Si2 0.921745 0.458902 0.303172
Si Si3 0.924941 0.646413 0.902551
Si Si4 0.516262 0.100752 0.739648
Si Si5 0.302375 0.440064 0.027206
O O1 0.021721 0.793005 0.678055
O O2 0.932460 0.820456 0.474881
O O3 0.094054 0.164066 0.720201
O O4 0.340821 0.361976 0.447152
O O5 0.113189 0.154602 0.142373
O O6 0.697209 0.616626 0.267826
O O7 0.707228 0.779949 0.958543
O O8 0.052060 0.728720 0.039197
O O9 0.638303 0.280704 0.816515
O O10 0.464489 0.112660 0.852141
#
# Coordination Sequence:
#
# PCOD8014124 Si02
#       5
#     2   2   2   2   2
#     4  11  22  39  66  93 118 161 212 247 296 367
#     4  10  22  39  64  92 124 158 201 257 304 350
#     4  10  21  41  65  90 124 162 201 253 305 358
#     4  10  21  41  65  90 124 162 201 253 305 358
#     4   9  20  40  61  88 129 160 194 255 310 356
#
# _framework density 28.959598
#
# number of rings (size 3 to 8) (size 9 to 14) (size 15 to 20)
#    0.000    2.000    0.000    3.600    0.000    3.200 
#    0.000   42.000    0.000    3.600    0.000    0.000 
#    0.000    0.000    0.000    0.000    0.000    0.000 
#
# Total GULP energy -123949.724530 kJ/mol
# GULP energy per Si atom -12394.972453 kJ/mol
# Density = 2.889368 g / cm^3
# Si number density = 28.959598 Si / 1000 Ang^3
#
#
#
# Elastic Constant Matrix: (Units=GPa)
#
#
# Indices 1 2 3 4 5 6 
#
# 1 179.6122 44.7343 58.1696 -18.4786 -20.4674 -21.0835
# 2 44.7343 52.8575 28.1833 -27.3411 -12.7786 -17.5466
# 3 58.1696 28.1833 141.2273 -30.8398 -21.8096 -9.0232
# 4 -18.4786 -27.3411 -30.8398 48.5874 1.3132 -3.8656
# 5 -20.4674 -12.7786 -21.8096 1.3132 73.9417 -3.0494
# 6 -21.0835 -17.5466 -9.0232 -3.8656 -3.0494 37.0499
#
#
#
# Elastic Compliance Matrix: (Units=1/GPa)
#
#
# Indices 1 2 3 4 5 6 
#
# 1 0.007736 -0.005722 -0.002251 -0.001641 0.000560 0.001019
# 2 -0.005722 0.045276 0.001437 0.025756 0.007106 0.021808
# 3 -0.002251 0.001437 0.009620 0.006198 0.002459 0.002591
# 4 -0.001641 0.025756 0.006198 0.039611 0.005839 0.017387
# 5 0.000560 0.007106 0.002459 0.005839 0.015784 0.006191
# 6 0.001019 0.021808 0.002591 0.017387 0.006191 0.040854
#
#
# Mechanical properties :
#
#
# Convention : Reuss Voigt Hill
#
# Bulk Modulus (GPa) = 20.17795 70.65236 45.41515
# Shear Modulus (GPa) = 26.52883 48.08977 37.30930
#
# Velocity S-wave (km/s) = 3.02994 4.07944 3.59321
# Velocity P-wave (km/s) = 4.38445 6.82927 5.73857
#
# Compressibility (1/GPa) = 0.04955906
#
# Stress axis : x y z
#
# Youngs Moduli (GPa) = 129.25822 22.08691 103.94742
#
# Poissons Ratio (x) = 0.12639 0.23402
# Poissons Ratio (y) = 0.73964 -0.14936
# Poissons Ratio (z) = 0.29101 -0.03174
#
# Static dielectric constant tensor:
#      x y z
#    x 5.695980 0.099730 -0.071770 
#    y 0.099730 5.099320 -0.501760 
#    z -0.071770 -0.501760 5.631230 
# 
# 
# High freq. dielectric constant tensor:
#      x y z
#    x 2.207610 0.009700 -0.002760 
#    y 0.009700 2.159230 -0.025440 
#    z -0.002760 -0.025440 2.207780 
# 
# From -- ./inp_files/148643.got.cif
#   From: 2010.06.25/outbox.cif.g09.slc.cpg/sg2_75_cif.got.tgz:148643.got - 2010.06.27 13:26:56.
