data_PCOD8014477
_publ_section_title
;
Structure prediction by ZEFSAII (Michael W. Deem and Ramdas Pophale) SiO2 
 PCOD8014477
Probable space group: P -1
;
_chemical_formula_sum "Si O2"
_cell_formula_units_Z 16
_cell_length_a 7.583824
_cell_length_b 19.537772
_cell_length_c 15.918346
_cell_angle_alpha 24.093404
_cell_angle_beta 49.394016
_cell_angle_gamma 48.688812
_cell_volume 714.237519
_symmetry_space_group_name_H-M "P -1"
_symmetry_group_IT_number 2
_symmetry_cell_setting 'triclinic'
loop_
_space_group_symop_operation_xyz
x,y,z
-x,-y,-z
loop_
_atom_site_type_symbol
_atom_site_label
_atom_site_fract_x
_atom_site_fract_y
_atom_site_fract_z
Si Si1 0.347707 0.789442 0.744650
Si Si2 0.757913 0.438674 0.828695
Si Si3 0.358922 0.073795 0.778997
Si Si4 0.329749 0.709320 0.646240
Si Si5 0.975784 0.766967 0.425135
Si Si6 0.090749 0.325119 0.717128
Si Si7 0.472511 0.827485 0.154329
Si Si8 0.145567 0.169639 0.419350
O O1 0.382700 0.752985 0.676658
O O2 0.603479 0.774602 0.726744
O O3 0.177009 0.973295 0.602624
O O4 0.227690 0.651724 0.983601
O O5 0.485052 0.518133 0.796902
O O6 0.899816 0.591791 0.618979
O O7 0.873684 0.305080 0.869206
O O8 0.581108 0.161391 0.591460
O O9 0.171789 0.174519 0.793631
O O10 0.202393 0.073368 0.744129
O O11 0.462421 0.881105 0.998038
O O12 0.050098 0.718234 0.708245
O O13 0.242859 0.756341 0.327026
O O14 0.962860 0.803185 0.485994
O O15 0.308707 0.324880 0.715467
O O16 0.000000 0.500000 0.500000
O O17 0.500000 0.000000 0.000000
#
# Coordination Sequence:
#
# PCOD8014477 Si02
#       8
#     2   2   2   2   2   2   2   2
#     4  11  25  46  66 100 132 174 227 281 329 389
#     4  11  25  43  68  93 141 176 214 279 333 397
#     4  10  21  41  67  98 131 174 217 277 331 393
#     4  11  22  44  71  94 137 176 218 275 341 392
#     4  11  22  42  67  97 133 175 219 278 336 397
#     4  11  21  42  62  95 135 176 212 271 334 391
#     4  10  23  38  67  95 127 176 222 264 334 400
#     4  11  24  42  72  97 131 174 231 274 331 395
#
# _framework density 22.401510999999999
#
# number of rings (size 3 to 8) (size 9 to 14) (size 15 to 20)
#    0.000    1.250    5.000    2.625    5.250    1.000 
#    0.000    0.000    0.000    0.000    0.000    0.000 
#    0.000    0.000    0.000    0.000    0.000    0.000 
#
# Total GULP energy -198299.189197 kJ/mol
# GULP energy per Si atom -12393.699325 kJ/mol
# Density = 2.235052 g / cm^3
# Si number density = 22.401511 Si / 1000 Ang^3
#
#
#
# Elastic Constant Matrix: (Units=GPa)
#
#
# Indices 1 2 3 4 5 6 
#
# 1 101.2781 29.7853 33.2769 -18.5566 13.2819 -33.5032
# 2 29.7853 69.3758 30.7141 10.2824 9.5468 -9.9917
# 3 33.2769 30.7141 101.5657 13.1193 24.2770 -5.2243
# 4 -18.5566 10.2824 13.1193 18.2652 -5.5734 8.2452
# 5 13.2819 9.5468 24.2770 -5.5734 28.4014 -6.3346
# 6 -33.5032 -9.9917 -5.2243 8.2452 -6.3346 33.8548
#
#
#
# Elastic Compliance Matrix: (Units=1/GPa)
#
#
# Indices 1 2 3 4 5 6 
#
# 1 0.030221 -0.013273 -0.014875 0.046749 0.015615 0.015230
# 2 -0.013273 0.025346 0.004334 -0.035290 -0.012666 0.001239
# 3 -0.014875 0.004334 0.024103 -0.040184 -0.023974 -0.004422
# 4 0.046749 -0.035290 -0.040184 0.168793 0.057307 -0.000739
# 5 0.015615 -0.012666 -0.023974 0.057307 0.065303 0.006277
# 6 0.015230 0.001239 -0.004422 -0.000739 0.006277 0.045648
#
#
# Mechanical properties :
#
#
# Convention : Reuss Voigt Hill
#
# Bulk Modulus (GPa) = 31.21069 51.08582 41.14825
# Shear Modulus (GPa) = 11.96965 28.00050 19.98507
#
# Velocity S-wave (km/s) = 2.31405 3.53928 2.99010
# Velocity P-wave (km/s) = 4.59374 6.28937 5.50720
#
# Compressibility (1/GPa) = 0.03204031
#
# Stress axis : x y z
#
# Youngs Moduli (GPa) = 33.08958 39.45377 41.48924
#
# Poissons Ratio (x) = 0.52368 0.61716
# Poissons Ratio (y) = 0.43921 -0.17980
# Poissons Ratio (z) = 0.49221 -0.17098
#
# Static dielectric constant tensor:
#      x y z
#    x 4.327530 -0.316350 0.548550 
#    y -0.316350 4.516980 0.019950 
#    z 0.548550 0.019950 4.170990 
# 
# 
# High freq. dielectric constant tensor:
#      x y z
#    x 1.880250 -0.015860 0.026490 
#    y -0.015860 1.881440 0.014170 
#    z 0.026490 0.014170 1.876070 
# 
# From -- ./inp_files/563228.got.cif
#   From: 2010.06.25/outbox.cif.g09.slc.cpg/sg2_282_cif.got.tgz:563228.got - 2010.06.27 13:26:56.
