data_PCOD8014260
_publ_section_title
;
Structure prediction by ZEFSAII (Michael W. Deem and Ramdas Pophale) SiO2 
 PCOD8014260
Probable space group: P -1
;
_chemical_formula_sum "Si O2"
_cell_formula_units_Z 16
_cell_length_a 9.278383
_cell_length_b 18.714382
_cell_length_c 9.903079
_cell_angle_alpha 38.112453
_cell_angle_beta 61.674716
_cell_angle_gamma 44.843488
_cell_volume 734.551534
_symmetry_space_group_name_H-M "P -1"
_symmetry_group_IT_number 2
_symmetry_cell_setting 'triclinic'
loop_
_space_group_symop_operation_xyz
x,y,z
-x,-y,-z
loop_
_atom_site_type_symbol
_atom_site_label
_atom_site_fract_x
_atom_site_fract_y
_atom_site_fract_z
Si Si1 0.982071 0.571531 0.041071
Si Si2 0.540175 0.451819 0.398718
Si Si3 0.776414 0.069353 0.435643
Si Si4 0.551685 0.587313 0.932418
Si Si5 0.362946 0.102873 0.282379
Si Si6 0.865540 0.484871 0.476604
Si Si7 0.086703 0.777320 0.286271
Si Si8 0.741121 0.074712 0.129710
O O1 0.860236 0.744025 0.808259
O O2 0.218330 0.482597 0.116741
O O3 0.854294 0.557768 0.231920
O O4 0.000000 0.500000 0.000000
O O5 0.500000 0.500000 0.500000
O O6 0.532290 0.564914 0.133166
O O7 0.362327 0.433291 0.472920
O O8 0.779865 0.303391 0.514667
O O9 0.802683 0.032631 0.320474
O O10 0.686770 0.986523 0.658625
O O11 0.608879 0.241189 0.287141
O O12 0.000000 0.000000 0.500000
O O13 0.500000 0.500000 0.000000
O O14 0.504469 0.142149 0.095457
O O15 0.500000 0.000000 0.500000
O O16 0.956003 0.317031 0.648610
O O17 0.000000 0.500000 0.500000
O O18 0.224524 0.806583 0.094813
O O19 0.872100 0.928969 0.196782
#
# Coordination Sequence:
#
# PCOD8014260 Si02
#       8
#     2   2   2   2   2   2   2   2
#     4  12  24  40  68 100 126 169 226 275 317 394
#     4  10  21  41  66  90 129 174 223 263 332 390
#     4  11  24  41  65  93 139 174 207 270 347 391
#     4  12  26  41  66 100 132 170 222 272 327 397
#     4  10  23  39  64  93 136 167 217 271 335 383
#     4  11  24  41  65  96 136 169 218 280 346 382
#     4  10  22  39  70  89 125 174 225 273 310 410
#     4  10  22  42  63  95 127 171 228 261 328 392
#
# _framework density 21.781998000000002
#
# number of rings (size 3 to 8) (size 9 to 14) (size 15 to 20)
#    0.000    1.250    0.000    6.750   10.500    1.000 
#    0.000    0.000    0.000    3.750    0.000    0.000 
#    0.000    0.000    0.000    0.000    0.000    0.000 
#
# Total GULP energy -198241.777251 kJ/mol
# GULP energy per Si atom -12390.111078 kJ/mol
# Density = 2.173242 g / cm^3
# Si number density = 21.781998 Si / 1000 Ang^3
#
#
#
# Elastic Constant Matrix: (Units=GPa)
#
#
# Indices 1 2 3 4 5 6 
#
# 1 159.4758 40.4721 47.5068 -24.1658 -25.0919 -10.4184
# 2 40.4721 88.3850 44.7639 -27.0529 -7.0635 -9.5861
# 3 47.5068 44.7639 109.6534 -24.6739 -12.7763 -3.5502
# 4 -24.1658 -27.0529 -24.6739 45.6483 -0.6695 -0.0344
# 5 -25.0919 -7.0635 -12.7763 -0.6695 38.0300 -5.5135
# 6 -10.4184 -9.5861 -3.5502 -0.0344 -5.5135 44.2053
#
#
#
# Elastic Compliance Matrix: (Units=1/GPa)
#
#
# Indices 1 2 3 4 5 6 
#
# 1 0.008556 -0.001523 -0.001804 0.002729 0.005121 0.002182
# 2 -0.001523 0.016743 -0.004419 0.006747 0.001184 0.003070
# 3 -0.001804 -0.004419 0.012723 0.003337 0.002312 -0.000071
# 4 0.002729 0.006747 0.003337 0.029231 0.005129 0.003037
# 5 0.005121 0.001184 0.002312 0.005129 0.031571 0.005591
# 6 0.002182 0.003070 -0.000071 0.003037 0.005591 0.024496
#
#
# Mechanical properties :
#
#
# Convention : Reuss Voigt Hill
#
# Bulk Modulus (GPa) = 44.38741 69.22221 56.80481
# Shear Modulus (GPa) = 34.17119 40.56149 37.36634
#
# Velocity S-wave (km/s) = 3.96508 4.31995 4.14632
# Velocity P-wave (km/s) = 6.43310 7.53201 7.00414
#
# Compressibility (1/GPa) = 0.02252891
#
# Stress axis : x y z
#
# Youngs Moduli (GPa) = 116.87436 59.72822 78.59626
#
# Poissons Ratio (x) = 0.09098 0.14177
# Poissons Ratio (y) = 0.17804 0.34735
# Poissons Ratio (z) = 0.21082 0.26396
#
# Static dielectric constant tensor:
#      x y z
#    x 4.573430 -0.848390 -1.050460 
#    y -0.848390 5.308740 2.531340 
#    z -1.050460 2.531340 8.952700 
# 
# 
# High freq. dielectric constant tensor:
#      x y z
#    x 1.862610 -0.019550 -0.016940 
#    y -0.019550 1.850310 -0.008040 
#    z -0.016940 -0.008040 1.863890 
# 
# From -- ./inp_files/405276.got.cif
#   From: 2010.06.25/outbox.cif.g09.slc.cpg/sg2_203_cif.got.tgz:405276.got - 2010.06.27 13:26:56.
