data_PCOD8014562
_publ_section_title
;
Structure prediction by ZEFSAII (Michael W. Deem and Ramdas Pophale) SiO2 
 PCOD8014562
Probable space group: P -1
;
_chemical_formula_sum "Si O2"
_cell_formula_units_Z 16
_cell_length_a 11.768481
_cell_length_b 18.622932
_cell_length_c 9.020732
_cell_angle_alpha 148.081368
_cell_angle_beta 57.819778
_cell_angle_gamma 134.092709
_cell_volume 741.915798
_symmetry_space_group_name_H-M "P -1"
_symmetry_group_IT_number 2
_symmetry_cell_setting 'triclinic'
loop_
_space_group_symop_operation_xyz
x,y,z
-x,-y,-z
loop_
_atom_site_type_symbol
_atom_site_label
_atom_site_fract_x
_atom_site_fract_y
_atom_site_fract_z
Si Si1 0.338000 0.624227 0.113458
Si Si2 0.681838 0.563057 0.937969
Si Si3 0.888108 0.051058 0.230108
Si Si4 0.082009 0.418719 0.724511
Si Si5 0.674463 0.096838 0.250723
Si Si6 0.692244 0.113765 0.926769
Si Si7 0.286652 0.145802 0.705117
Si Si8 0.141566 0.533057 0.567136
O O1 0.252210 0.474708 0.028033
O O2 0.283951 0.746974 0.408251
O O3 0.528887 0.724536 0.156045
O O4 0.268991 0.534830 0.847413
O O5 0.714783 0.472585 0.623487
O O6 0.500000 0.500000 0.000000
O O7 0.775561 0.752621 0.158486
O O8 0.757329 0.017598 0.137729
O O9 0.996472 0.237769 0.530136
O O10 0.802956 0.934822 0.223913
O O11 0.000000 0.000000 0.000000
O O12 0.071028 0.407757 0.534013
O O13 0.000000 0.500000 0.000000
O O14 0.487821 0.962865 0.134661
O O15 0.733031 0.147812 0.131812
O O16 0.747494 0.996618 0.631248
O O17 0.787632 0.291023 0.098543
O O18 0.000000 0.500000 0.500000
#
# Coordination Sequence:
#
# PCOD8014562 Si02
#       8
#     2   2   2   2   2   2   2   2
#     4  10  21  43  70  98 128 175 223 285 326 401
#     4  10  22  45  68  96 139 174 225 288 337 400
#     4  12  26  45  62  96 145 179 215 284 347 403
#     4  12  24  41  68  99 135 177 228 275 343 401
#     4  10  21  41  68  96 134 167 225 276 336 398
#     4  10  22  40  71 100 121 179 229 278 335 402
#     4  10  24  43  67  98 135 177 224 274 343 406
#     4  12  24  42  69 100 136 178 231 279 341 416
#
# _framework density 21.565788999999999
#
# number of rings (size 3 to 8) (size 9 to 14) (size 15 to 20)
#    0.000    1.250    2.500    3.000    3.500    2.000 
#    2.250    5.000    0.000    0.000    0.000    0.000 
#    0.000    0.000    0.000    0.000    0.000    0.000 
#
# Total GULP energy -198298.769837 kJ/mol
# GULP energy per Si atom -12393.673115 kJ/mol
# Density = 2.151670 g / cm^3
# Si number density = 21.565789 Si / 1000 Ang^3
#
#
#
# Elastic Constant Matrix: (Units=GPa)
#
#
# Indices 1 2 3 4 5 6 
#
# 1 84.9056 49.8483 53.9438 -2.7054 -6.1878 -15.8506
# 2 49.8483 133.0443 54.9770 7.8962 -10.2845 -14.7983
# 3 53.9438 54.9770 131.1014 11.4667 -11.2505 0.2222
# 4 -2.7054 7.8962 11.4667 36.3678 -7.1261 -10.2610
# 5 -6.1878 -10.2845 -11.2505 -7.1261 38.4106 -2.2602
# 6 -15.8506 -14.7983 0.2222 -10.2610 -2.2602 21.1309
#
#
#
# Elastic Compliance Matrix: (Units=1/GPa)
#
#
# Indices 1 2 3 4 5 6 
#
# 1 0.024878 -0.003163 -0.009734 0.012978 0.004088 0.023288
# 2 -0.003163 0.010705 -0.003067 0.000323 0.001843 0.005511
# 3 -0.009734 -0.003067 0.013609 -0.008376 -0.000766 -0.013742
# 4 0.012978 0.000323 -0.008376 0.041682 0.009298 0.031284
# 5 0.004088 0.001843 -0.000766 0.009298 0.029395 0.012024
# 6 0.023288 0.005511 -0.013742 0.031284 0.012024 0.085274
#
#
# Mechanical properties :
#
#
# Convention : Reuss Voigt Hill
#
# Bulk Modulus (GPa) = 57.92289 74.06550 65.99420
# Shear Modulus (GPa) = 20.55714 31.86734 26.21224
#
# Velocity S-wave (km/s) = 3.09079 3.84823 3.49012
# Velocity P-wave (km/s) = 6.29717 7.35960 6.84902
#
# Compressibility (1/GPa) = 0.01726433
#
# Stress axis : x y z
#
# Youngs Moduli (GPa) = 40.19631 93.41465 73.47917
#
# Poissons Ratio (x) = 0.29545 0.71524
# Poissons Ratio (y) = 0.12713 0.22538
# Poissons Ratio (z) = 0.39127 0.28652
#
# Static dielectric constant tensor:
#      x y z
#    x 4.040280 -0.328350 0.064760 
#    y -0.328350 3.832260 0.215190 
#    z 0.064760 0.215190 3.880830 
# 
# 
# High freq. dielectric constant tensor:
#      x y z
#    x 1.845100 -0.005840 -0.006540 
#    y -0.005840 1.856560 0.009220 
#    z -0.006540 0.009220 1.848520 
# 
# From -- ./inp_files/280244.got.cif
#   From: 2010.06.25/outbox.cif.g09.slc.cpg/sg2_141_cif.got.tgz:280244.got - 2010.06.27 13:26:56.
