data_PCOD8014980
_publ_section_title
;
Structure prediction by ZEFSAII (Michael W. Deem and Ramdas Pophale) SiO2 
 PCOD8014980
Probable space group: P -1
;
_chemical_formula_sum "Si O2"
_cell_formula_units_Z 16
_cell_length_a 15.508142
_cell_length_b 15.486853
_cell_length_c 8.993774
_cell_angle_alpha 74.742398
_cell_angle_beta 93.155710
_cell_angle_gamma 28.093987
_cell_volume 760.394359
_symmetry_space_group_name_H-M "P -1"
_symmetry_group_IT_number 2
_symmetry_cell_setting 'triclinic'
loop_
_space_group_symop_operation_xyz
x,y,z
-x,-y,-z
loop_
_atom_site_type_symbol
_atom_site_label
_atom_site_fract_x
_atom_site_fract_y
_atom_site_fract_z
Si Si1 0.748608 0.236652 0.700559
Si Si2 0.134341 0.637205 0.942557
Si Si3 0.928970 0.971383 0.564591
Si Si4 0.090524 0.304577 0.477955
Si Si5 0.150544 0.270815 0.171849
Si Si6 0.317520 0.904479 0.748952
Si Si7 0.078186 0.059165 0.928547
Si Si8 0.616075 0.850483 0.226676
O O1 0.500000 0.500000 0.500000
O O2 0.893844 0.189210 0.739771
O O3 0.822705 0.087924 0.663076
O O4 0.755356 0.182251 0.886327
O O5 0.404659 0.345290 0.118443
O O6 0.056163 0.759331 0.034769
O O7 0.122357 0.710115 0.756237
O O8 0.980654 0.696156 0.883458
O O9 0.743650 0.118310 0.356363
O O10 0.000000 0.000000 0.500000
O O11 0.183981 0.256287 0.355736
O O12 0.228115 0.219380 0.662595
O O13 0.803996 0.589201 0.333409
O O14 0.159243 0.135579 0.563554
O O15 0.409396 0.015459 0.239446
O O16 0.000000 0.500000 0.000000
O O17 0.240775 0.965444 0.885648
O O18 0.500000 0.000000 0.000000
#
# Coordination Sequence:
#
# PCOD8014980 Si02
#       8
#     2   2   2   2   2   2   2   2
#     4  10  21  42  64  92 130 172 229 280 341 402
#     4  11  27  44  65 104 140 175 234 278 340 411
#     4  11  23  44  66  99 133 178 233 276 340 408
#     4  11  26  45  69 107 134 183 231 274 348 413
#     4  12  24  46  74  98 143 184 223 288 346 400
#     4  12  25  43  70  98 141 179 228 281 340 410
#     4  10  24  41  63  97 131 176 224 281 340 396
#     4  11  25  46  73 102 137 177 231 281 339 419
#
# _framework density 21.041713999999999
#
# number of rings (size 3 to 8) (size 9 to 14) (size 15 to 20)
#    0.000    1.000    3.750    1.875    3.500    1.500 
#    4.500    0.000    0.000    0.000    0.000    0.000 
#    0.000    0.000    0.000    0.000    0.000    0.000 
#
# Total GULP energy -198265.725487 kJ/mol
# GULP energy per Si atom -12391.607843 kJ/mol
# Density = 2.099382 g / cm^3
# Si number density = 21.041714 Si / 1000 Ang^3
#
#
#
# Elastic Constant Matrix: (Units=GPa)
#
#
# Indices 1 2 3 4 5 6 
#
# 1 96.4530 37.0638 49.7641 -17.1921 -8.8528 -3.6462
# 2 37.0638 122.8072 58.9849 -11.4692 -0.2049 -17.5294
# 3 49.7641 58.9849 132.5147 -13.9398 2.6903 -8.3492
# 4 -17.1921 -11.4692 -13.9398 42.4429 -1.2457 0.2475
# 5 -8.8528 -0.2049 2.6903 -1.2457 38.9471 1.9503
# 6 -3.6462 -17.5294 -8.3492 0.2475 1.9503 35.0000
#
#
#
# Elastic Compliance Matrix: (Units=1/GPa)
#
#
# Indices 1 2 3 4 5 6 
#
# 1 0.014331 -0.002051 -0.004172 0.003994 0.003701 -0.000764
# 2 -0.002051 0.011372 -0.003900 0.000925 -0.000336 0.004564
# 3 -0.004172 -0.003900 0.010990 0.000813 -0.001718 0.000324
# 4 0.003994 0.000925 0.000813 0.025739 0.001640 0.000800
# 5 0.003701 -0.000336 -0.001718 0.001640 0.026771 -0.001696
# 6 -0.000764 0.004564 0.000324 0.000800 -0.001696 0.030944
#
#
# Mechanical properties :
#
#
# Convention : Reuss Voigt Hill
#
# Bulk Modulus (GPa) = 60.80243 71.48897 66.14570
# Shear Modulus (GPa) = 34.27555 37.00881 35.64218
#
# Velocity S-wave (km/s) = 4.04038 4.19839 4.12014
# Velocity P-wave (km/s) = 7.12216 7.58621 7.35784
#
# Compressibility (1/GPa) = 0.01644671
#
# Stress axis : x y z
#
# Youngs Moduli (GPa) = 69.77834 87.93195 90.99271
#
# Poissons Ratio (x) = 0.18038 0.37962
# Poissons Ratio (y) = 0.14314 0.35488
# Poissons Ratio (z) = 0.29111 0.34294
#
# Static dielectric constant tensor:
#      x y z
#    x 4.035380 -0.513150 -0.574780 
#    y -0.513150 4.963420 1.159510 
#    z -0.574780 1.159510 5.089740 
# 
# 
# High freq. dielectric constant tensor:
#      x y z
#    x 1.822730 0.012610 -0.001050 
#    y 0.012610 1.826380 0.007560 
#    z -0.001050 0.007560 1.847370 
# 
# From -- ./inp_files/124830.got.cif
#   From: 2010.06.25/outbox.cif.g09.slc.cpg/sg2_63_cif.got.tgz:124830.got - 2010.06.27 13:26:56.
