data_PCOD8014191
_publ_section_title
;
Structure prediction by ZEFSAII (Michael W. Deem and Ramdas Pophale) SiO2 
 PCOD8014191
Probable space group: P -1
;
_chemical_formula_sum "Si O2"
_cell_formula_units_Z 16
_cell_length_a 17.838586
_cell_length_b 8.549895
_cell_length_c 7.036091
_cell_angle_alpha 124.718522
_cell_angle_beta 119.705410
_cell_angle_gamma 61.693810
_cell_volume 737.942673
_symmetry_space_group_name_H-M "P -1"
_symmetry_group_IT_number 2
_symmetry_cell_setting 'triclinic'
loop_
_space_group_symop_operation_xyz
x,y,z
-x,-y,-z
loop_
_atom_site_type_symbol
_atom_site_label
_atom_site_fract_x
_atom_site_fract_y
_atom_site_fract_z
Si Si1 0.241364 0.950381 0.000794
Si Si2 0.971378 0.442379 0.225665
Si Si3 0.498371 0.611448 0.876403
Si Si4 0.895754 0.110819 0.905800
Si Si5 0.804140 0.291044 0.569368
Si Si6 0.572540 0.995827 0.750199
Si Si7 0.120727 0.351884 0.084485
Si Si8 0.375675 0.446076 0.334485
O O1 0.233935 0.793410 0.721611
O O2 0.179139 0.939045 0.092648
O O3 0.344459 0.925878 0.173753
O O4 0.208642 0.174702 0.038602
O O5 0.000000 0.500000 0.500000
O O6 0.058832 0.295265 0.132901
O O7 0.891731 0.340200 0.090703
O O8 0.933967 0.627727 0.168086
O O9 0.426322 0.561091 0.614268
O O10 0.593700 0.548738 0.843237
O O11 0.500000 0.500000 0.000000
O O12 0.474039 0.847510 0.038945
O O13 0.863865 0.105946 0.641236
O O14 0.000000 0.000000 0.000000
O O15 0.861796 0.440743 0.682452
O O16 0.726744 0.428745 0.698773
O O17 0.607485 0.779348 0.732443
O O18 0.500000 0.000000 0.500000
#
# Coordination Sequence:
#
# PCOD8014191 Si02
#       8
#     2   2   2   2   2   2   2   2
#     4  12  25  43  70  95 142 179 228 281 342 397
#     4  10  21  41  65  94 133 172 226 276 342 394
#     4  11  24  44  72  99 135 178 223 289 350 404
#     4  11  25  43  65 103 137 175 230 278 332 408
#     4  11  25  43  66 100 137 182 225 278 342 400
#     4  12  25  46  71 104 137 184 232 283 350 410
#     4  10  22  41  64  96 131 177 223 278 329 413
#     4  11  24  44  69  98 138 176 231 280 341 417
#
# _framework density 21.681899999999999
#
# number of rings (size 3 to 8) (size 9 to 14) (size 15 to 20)
#    0.000    1.000    5.000    1.125    3.500    0.500 
#    2.250    1.250    0.000    0.000    0.000    0.000 
#    0.000    0.000    0.000    0.000    0.000    0.000 
#
# Total GULP energy -198272.704610 kJ/mol
# GULP energy per Si atom -12392.044038 kJ/mol
# Density = 2.163255 g / cm^3
# Si number density = 21.681900 Si / 1000 Ang^3
#
#
#
# Elastic Constant Matrix: (Units=GPa)
#
#
# Indices 1 2 3 4 5 6 
#
# 1 121.4675 33.7860 46.3585 -11.9653 7.7993 3.5140
# 2 33.7860 85.8457 39.5920 4.3981 -4.4617 -5.5992
# 3 46.3585 39.5920 117.2647 0.6591 10.6423 9.8115
# 4 -11.9653 4.3981 0.6591 32.9491 0.7550 0.7379
# 5 7.7993 -4.4617 10.6423 0.7550 32.4955 -3.5847
# 6 3.5140 -5.5992 9.8115 0.7379 -3.5847 31.3619
#
#
#
# Elastic Compliance Matrix: (Units=1/GPa)
#
#
# Indices 1 2 3 4 5 6 
#
# 1 0.010918 -0.003425 -0.002856 0.004564 -0.002407 -0.001324
# 2 -0.003425 0.016136 -0.005025 -0.003544 0.005376 0.005535
# 3 -0.002856 -0.005025 0.012176 -0.000397 -0.004523 -0.004894
# 4 0.004564 -0.003544 -0.000397 0.032590 -0.002437 -0.002065
# 5 -0.002407 0.005376 -0.004523 -0.002437 0.034358 0.006629
# 6 -0.001324 0.005535 -0.004894 -0.002065 0.006629 0.035360
#
#
# Mechanical properties :
#
#
# Convention : Reuss Voigt Hill
#
# Bulk Modulus (GPa) = 60.17871 62.67234 61.42552
# Shear Modulus (GPa) = 29.46550 33.01740 31.24145
#
# Velocity S-wave (km/s) = 3.69045 3.90655 3.80004
# Velocity P-wave (km/s) = 6.78047 7.02256 6.90257
#
# Compressibility (1/GPa) = 0.01661717
#
# Stress axis : x y z
#
# Youngs Moduli (GPa) = 91.59352 61.97190 82.13083
#
# Poissons Ratio (x) = 0.21224 0.23459
# Poissons Ratio (y) = 0.31369 0.41273
# Poissons Ratio (z) = 0.26161 0.31142
#
# Static dielectric constant tensor:
#      x y z
#    x 4.201300 0.012090 0.009610 
#    y 0.012090 4.122470 0.046710 
#    z 0.009610 0.046710 3.887730 
# 
# 
# High freq. dielectric constant tensor:
#      x y z
#    x 1.865750 0.002230 0.008450 
#    y 0.002230 1.857410 0.001380 
#    z 0.008450 0.001380 1.842690 
# 
# From -- ./inp_files/55474.got.cif
#   From: 2010.06.25/outbox.cif.g09.slc.cpg/sg2_28_cif.got.tgz:55474.got - 2010.06.27 13:26:56.
