data_PCOD8014365
_publ_section_title
;
Structure prediction by ZEFSAII (Michael W. Deem and Ramdas Pophale) SiO2 
 PCOD8014365
Probable space group: P -1
;
_chemical_formula_sum "Si O2"
_cell_formula_units_Z 14
_cell_length_a 10.252250
_cell_length_b 8.678902
_cell_length_c 16.380009
_cell_angle_alpha 129.927747
_cell_angle_beta 30.697812
_cell_angle_gamma 135.024729
_cell_volume 523.619539
_symmetry_space_group_name_H-M "P -1"
_symmetry_group_IT_number 2
_symmetry_cell_setting 'triclinic'
loop_
_space_group_symop_operation_xyz
x,y,z
-x,-y,-z
loop_
_atom_site_type_symbol
_atom_site_label
_atom_site_fract_x
_atom_site_fract_y
_atom_site_fract_z
Si Si1 0.653868 0.580840 0.803140
Si Si2 0.385085 0.855250 0.106071
Si Si3 0.550383 0.686994 0.719779
Si Si4 0.063737 0.447208 0.632861
Si Si5 0.523141 0.909512 0.545226
Si Si6 0.783183 0.856818 0.133208
Si Si7 0.067536 0.229537 0.800730
O O1 0.692172 0.640520 0.708080
O O2 0.901550 0.511747 0.670272
O O3 0.350406 0.385933 0.913632
O O4 0.644310 0.781990 0.931433
O O5 0.138108 0.674128 0.227109
O O6 0.255005 0.839751 0.077675
O O7 0.490455 0.086381 0.174996
O O8 0.248357 0.492084 0.797490
O O9 0.774684 0.702267 0.534795
O O10 0.291006 0.677479 0.618152
O O11 0.815666 0.881229 0.372295
O O12 0.500000 0.000000 0.500000
O O13 0.483446 0.073403 0.688978
O O14 0.931777 0.873689 0.146260
O O15 0.000000 0.000000 0.000000
#
# Coordination Sequence:
#
# PCOD8014365 Si02
#       7
#     2   2   2   2   2   2   2
#     4  11  25  44  65 102 136 178 226 276 341 410
#     4  12  25  45  68 102 141 180 218 289 344 390
#     4  10  24  45  71  98 132 183 227 279 344 394
#     4  11  24  45  69 100 136 174 237 276 328 416
#     4   9  20  40  68  98 127 176 224 275 333 392
#     4  10  21  41  67 101 131 176 224 279 336 397
#     4   9  23  44  69  97 135 177 232 271 336 415
#
# _framework density 26.736968999999998
#
# number of rings (size 3 to 8) (size 9 to 14) (size 15 to 20)
#    0.000    1.714    0.000    3.429    6.000    4.571 
#   10.286    0.000    0.000    0.000    0.000    0.000 
#    0.000    0.000    0.000    0.000    0.000    0.000 
#
# Total GULP energy -173552.379816 kJ/mol
# GULP energy per Si atom -12396.598558 kJ/mol
# Density = 2.667611 g / cm^3
# Si number density = 26.736969 Si / 1000 Ang^3
#
#
#
# Elastic Constant Matrix: (Units=GPa)
#
#
# Indices 1 2 3 4 5 6 
#
# 1 50.6735 14.9452 13.4773 9.2414 -7.9342 11.6556
# 2 14.9452 117.4932 27.4987 25.4444 2.4851 3.8345
# 3 13.4773 27.4987 110.7415 16.6190 2.4121 5.7852
# 4 9.2414 25.4444 16.6190 43.2549 -3.2186 8.1759
# 5 -7.9342 2.4851 2.4121 -3.2186 33.9642 -9.1396
# 6 11.6556 3.8345 5.7852 8.1759 -9.1396 24.3898
#
#
#
# Elastic Compliance Matrix: (Units=1/GPa)
#
#
# Indices 1 2 3 4 5 6 
#
# 1 0.023607 -0.002107 -0.001777 -0.001195 0.003288 -0.008896
# 2 -0.002107 0.010280 -0.001524 -0.005306 -0.001365 0.001019
# 3 -0.001777 -0.001524 0.010090 -0.002519 -0.001538 -0.001036
# 4 -0.001195 -0.005306 -0.002519 0.028921 0.001066 -0.007292
# 5 0.003288 -0.001365 -0.001538 0.001066 0.033540 0.011219
# 6 -0.008896 0.001019 -0.001036 -0.007292 0.011219 0.051986
#
#
# Mechanical properties :
#
#
# Convention : Reuss Voigt Hill
#
# Bulk Modulus (GPa) = 30.15511 43.41672 36.78592
# Shear Modulus (GPa) = 27.73220 35.18758 31.45989
#
# Velocity S-wave (km/s) = 3.22409 3.63170 3.43395
# Velocity P-wave (km/s) = 5.01623 5.81888 5.43240
#
# Compressibility (1/GPa) = 0.03316187
#
# Stress axis : x y z
#
# Youngs Moduli (GPa) = 42.35963 97.27206 99.10424
#
# Poissons Ratio (x) = 0.20498 0.17614
# Poissons Ratio (y) = 0.08927 0.15099
# Poissons Ratio (z) = 0.07529 0.14820
#
# Static dielectric constant tensor:
#      x y z
#    x 4.551780 -0.171180 -0.139330 
#    y -0.171180 5.323810 0.295370 
#    z -0.139330 0.295370 5.284080 
# 
# 
# High freq. dielectric constant tensor:
#      x y z
#    x 2.044160 -0.005100 0.001150 
#    y -0.005100 2.094440 -0.002660 
#    z 0.001150 -0.002660 2.093440 
# 
# From -- ./inp_files/263432.got.cif
#   From: 2010.06.25/outbox.cif.g09.slc.cpg/sg2_132_cif.got.tgz:263432.got - 2010.06.27 13:26:56.
