data_PCOD8014587
_publ_section_title
;
Structure prediction by ZEFSAII (Michael W. Deem and Ramdas Pophale) SiO2 
 PCOD8014587
Probable space group: P -1
;
_chemical_formula_sum "Si O2"
_cell_formula_units_Z 16
_cell_length_a 6.065074
_cell_length_b 28.615520
_cell_length_c 5.167132
_cell_angle_alpha 95.605005
_cell_angle_beta 98.880109
_cell_angle_gamma 50.799287
_cell_volume 686.619875
_symmetry_space_group_name_H-M "P -1"
_symmetry_group_IT_number 2
_symmetry_cell_setting 'triclinic'
loop_
_space_group_symop_operation_xyz
x,y,z
-x,-y,-z
loop_
_atom_site_type_symbol
_atom_site_label
_atom_site_fract_x
_atom_site_fract_y
_atom_site_fract_z
Si Si1 0.663210 0.625117 0.398651
Si Si2 0.176288 0.074651 0.211705
Si Si3 0.377535 0.265432 0.641252
Si Si4 0.168558 0.018908 0.685466
Si Si5 0.839862 0.303610 0.312981
Si Si6 0.252577 0.785917 0.837875
Si Si7 0.358156 0.593445 0.992137
Si Si8 0.248479 0.521805 0.273986
O O1 0.705029 0.669259 0.288988
O O2 0.502398 0.653416 0.656842
O O3 0.962791 0.557079 0.416407
O O4 0.426779 0.623832 0.225142
O O5 0.143395 0.063963 0.497949
O O6 0.016989 0.144423 0.179384
O O7 0.512526 0.040185 0.217673
O O8 0.053358 0.053157 0.963149
O O9 0.584187 0.232805 0.415201
O O10 0.084766 0.273857 0.561941
O O11 0.533693 0.225691 0.903141
O O12 0.000000 0.000000 0.500000
O O13 0.877243 0.249041 0.142524
O O14 0.879398 0.348494 0.195444
O O15 0.658617 0.539811 0.872267
O O16 0.214202 0.566052 0.070438
O O17 0.500000 0.500000 0.500000
#
# Coordination Sequence:
#
# PCOD8014587 Si02
#       8
#     2   2   2   2   2   2   2   2
#     4  11  23  42  64  91 128 169 220 282 345 413
#     4  10  22  40  66 103 142 177 235 277 330 398
#     4  11  25  43  69  95 137 179 232 279 344 405
#     4  10  21  41  69 101 141 187 223 279 336 389
#     4  11  26  44  68  93 132 178 227 278 350 411
#     4  11  25  44  67 102 138 183 228 288 332 402
#     4  11  23  41  65  91 127 168 218 280 350 417
#     4  11  25  41  63  95 125 165 220 280 350 418
#
# _framework density 23.302558000000001
#
# number of rings (size 3 to 8) (size 9 to 14) (size 15 to 20)
#    0.000    1.250    1.250    3.750    3.500    6.000 
#    0.000    0.000    0.000    0.000    0.000    0.000 
#    0.000    0.000    0.000    0.000    0.000    0.000 
#
# Total GULP energy -198241.415905 kJ/mol
# GULP energy per Si atom -12390.088494 kJ/mol
# Density = 2.324952 g / cm^3
# Si number density = 23.302558 Si / 1000 Ang^3
#
#
#
# Elastic Constant Matrix: (Units=GPa)
#
#
# Indices 1 2 3 4 5 6 
#
# 1 63.0734 37.0949 12.0652 -3.5530 21.9551 2.1024
# 2 37.0949 159.4056 49.7300 -13.1413 6.6524 6.2226
# 3 12.0652 49.7300 110.7094 -4.7870 17.5159 -4.0726
# 4 -3.5530 -13.1413 -4.7870 36.7605 -1.9647 2.3923
# 5 21.9551 6.6524 17.5159 -1.9647 33.1208 0.1678
# 6 2.1024 6.2226 -4.0726 2.3923 0.1678 20.0149
#
#
#
# Elastic Compliance Matrix: (Units=1/GPa)
#
#
# Indices 1 2 3 4 5 6 
#
# 1 0.024501 -0.005824 0.002530 -0.000257 -0.016424 -0.000080
# 2 -0.005824 0.009089 -0.004158 0.002602 0.004405 -0.003408
# 3 0.002530 -0.004158 0.011874 -0.000309 -0.007158 0.003540
# 4 -0.000257 0.002602 -0.000309 0.028426 0.001519 -0.004255
# 5 -0.016424 0.004405 -0.007158 0.001519 0.044079 -0.001652
# 6 -0.000080 -0.003408 0.003540 -0.004255 -0.001652 0.052274
#
#
# Mechanical properties :
#
#
# Convention : Reuss Voigt Hill
#
# Bulk Modulus (GPa) = 32.72066 58.99650 45.85858
# Shear Modulus (GPa) = 25.59725 33.59911 29.59818
#
# Velocity S-wave (km/s) = 3.31792 3.80131 3.56781
# Velocity P-wave (km/s) = 5.36193 6.68125 6.05762
#
# Compressibility (1/GPa) = 0.03056173
#
# Stress axis : x y z
#
# Youngs Moduli (GPa) = 40.81487 110.01774 84.21700
#
# Poissons Ratio (x) = 0.64070 -0.21310
# Poissons Ratio (y) = 0.23769 0.35018
# Poissons Ratio (z) = -0.10328 0.45747
#
# Static dielectric constant tensor:
#      x y z
#    x 4.015560 -0.197120 -0.065800 
#    y -0.197120 5.088950 0.335800 
#    z -0.065800 0.335800 4.510070 
# 
# 
# High freq. dielectric constant tensor:
#      x y z
#    x 1.902570 -0.002290 0.009420 
#    y -0.002290 1.924370 0.005210 
#    z 0.009420 0.005210 1.928990 
# 
# From -- ./inp_files/14379.got.cif
#   From: 2010.06.25/outbox.cif.g09.slc.cpg/sg2_8_cif.got.tgz:14379.got - 2010.06.27 13:26:56.
