data_PCOD8014616
_publ_section_title
;
Structure prediction by ZEFSAII (Michael W. Deem and Ramdas Pophale) SiO2 
 PCOD8014616
Probable space group: P -1
;
_chemical_formula_sum "Si O2"
_cell_formula_units_Z 16
_cell_length_a 13.528679
_cell_length_b 9.298642
_cell_length_c 4.997359
_cell_angle_alpha 69.615019
_cell_angle_beta 104.030637
_cell_angle_gamma 98.563644
_cell_volume 570.269969
_symmetry_space_group_name_H-M "P -1"
_symmetry_group_IT_number 2
_symmetry_cell_setting 'triclinic'
loop_
_space_group_symop_operation_xyz
x,y,z
-x,-y,-z
loop_
_atom_site_type_symbol
_atom_site_label
_atom_site_fract_x
_atom_site_fract_y
_atom_site_fract_z
Si Si1 0.564877 0.159581 0.646270
Si Si2 0.038478 0.247396 0.235883
Si Si3 0.937339 0.339884 0.600041
Si Si4 0.789915 0.485593 0.751852
Si Si5 0.692591 0.240447 0.199886
Si Si6 0.415345 0.367173 0.604638
Si Si7 0.350092 0.154499 0.116506
Si Si8 0.777494 0.928776 0.435108
O O1 0.628128 0.269050 0.406120
O O2 0.447953 0.216323 0.545255
O O3 0.568545 0.977454 0.702968
O O4 0.611945 0.195502 0.943435
O O5 0.110390 0.405335 0.191506
O O6 0.103534 0.103546 0.449629
O O7 0.943551 0.252173 0.377875
O O8 0.990212 0.232349 0.920917
O O9 0.821549 0.368494 0.608151
O O10 0.000000 0.500000 0.500000
O O11 0.697417 0.584669 0.548897
O O12 0.761893 0.392365 0.065433
O O13 0.765817 0.104071 0.400320
O O14 0.500000 0.500000 0.500000
O O15 0.413956 0.310501 0.951872
O O16 0.283480 0.184443 0.316331
O O17 0.267452 0.102598 0.867629
#
# Coordination Sequence:
#
# PCOD8014616 Si02
#       8
#     2   2   2   2   2   2   2   2
#     4  10  23  43  62  89 129 173 216 256 305 383
#     4  11  22  42  69  95 123 163 223 258 315 383
#     4  10  23  41  64  98 126 165 208 268 319 381
#     4  11  23  42  65  95 134 168 206 268 327 371
#     4  10  23  42  63  92 132 167 208 261 324 369
#     4  12  24  42  65 100 131 169 218 261 313 383
#     4  10  22  42  64  91 128 171 213 258 316 364
#     4  10  21  41  69  94 121 168 217 262 307 384
#
# _framework density 28.056884
#
# number of rings (size 3 to 8) (size 9 to 14) (size 15 to 20)
#    0.000    1.500    2.500    2.625    1.750    5.500 
#    0.000    5.000    0.000    0.000    0.000    0.000 
#    0.000    0.000    0.000    0.000    0.000    0.000 
#
# Total GULP energy -198395.912012 kJ/mol
# GULP energy per Si atom -12399.744501 kJ/mol
# Density = 2.799303 g / cm^3
# Si number density = 28.056884 Si / 1000 Ang^3
#
#
#
# Elastic Constant Matrix: (Units=GPa)
#
#
# Indices 1 2 3 4 5 6 
#
# 1 167.7158 31.0783 69.6229 -8.7616 2.1518 -36.7993
# 2 31.0783 48.7727 16.6903 -14.4366 -1.0532 -30.0125
# 3 69.6229 16.6903 155.8426 -15.7203 -10.5773 -26.3383
# 4 -8.7616 -14.4366 -15.7203 36.5216 -3.4465 -1.1464
# 5 2.1518 -1.0532 -10.5773 -3.4465 48.3896 -6.4679
# 6 -36.7993 -30.0125 -26.3383 -1.1464 -6.4679 44.5477
#
#
#
# Elastic Compliance Matrix: (Units=1/GPa)
#
#
# Indices 1 2 3 4 5 6 
#
# 1 0.008387 -0.002063 -0.002936 -0.000003 -0.000562 0.003721
# 2 -0.002063 0.049587 0.004666 0.023075 0.008689 0.036317
# 3 -0.002936 0.004666 0.009191 0.005646 0.003554 0.006814
# 4 -0.000003 0.023075 0.005646 0.040290 0.007412 0.020994
# 5 -0.000562 0.008689 0.003554 0.007412 0.023671 0.011118
# 6 0.003721 0.036317 0.006814 0.020994 0.011118 0.056172
#
#
# Mechanical properties :
#
#
# Convention : Reuss Voigt Hill
#
# Bulk Modulus (GPa) = 15.03768 67.45711 41.24740
# Shear Modulus (GPa) = 23.79494 42.88775 33.34135
#
# Velocity S-wave (km/s) = 2.91537 3.91397 3.45098
# Velocity P-wave (km/s) = 4.08703 6.67239 5.53284
#
# Compressibility (1/GPa) = 0.06649962
#
# Stress axis : x y z
#
# Youngs Moduli (GPa) = 119.23474 20.16660 108.80496
#
# Poissons Ratio (x) = 0.04161 0.31940
# Poissons Ratio (y) = 0.24600 -0.50772
# Poissons Ratio (z) = 0.35002 -0.09410
#
# Static dielectric constant tensor:
#      x y z
#    x 5.399800 -0.531350 -0.148920 
#    y -0.531350 5.100680 -0.097930 
#    z -0.148920 -0.097930 5.618310 
# 
# 
# High freq. dielectric constant tensor:
#      x y z
#    x 2.151710 -0.014460 0.003000 
#    y -0.014460 2.119710 -0.000050 
#    z 0.003000 -0.000050 2.156860 
# 
# From -- ./inp_files/68561.got.cif
#   From: 2010.06.25/outbox.cif.g09.slc.cpg/sg2_35_cif.got.tgz:68561.got - 2010.06.27 13:26:56.
