data_PCOD8014464
_publ_section_title
;
Structure prediction by ZEFSAII (Michael W. Deem and Ramdas Pophale) SiO2 
 PCOD8014464
Probable space group: P -1
;
_chemical_formula_sum "Si O2"
_cell_formula_units_Z 16
_cell_length_a 8.115544
_cell_length_b 10.691366
_cell_length_c 20.218505
_cell_angle_alpha 32.960103
_cell_angle_beta 130.403315
_cell_angle_gamma 120.335516
_cell_volume 723.605911
_symmetry_space_group_name_H-M "P -1"
_symmetry_group_IT_number 2
_symmetry_cell_setting 'triclinic'
loop_
_space_group_symop_operation_xyz
x,y,z
-x,-y,-z
loop_
_atom_site_type_symbol
_atom_site_label
_atom_site_fract_x
_atom_site_fract_y
_atom_site_fract_z
Si Si1 0.661350 0.657446 0.439373
Si Si2 0.982045 0.891637 0.291839
Si Si3 0.802750 0.684689 0.849051
Si Si4 0.376773 0.251644 0.364912
Si Si5 0.601557 0.135589 0.159760
Si Si6 0.777369 0.472999 0.406477
Si Si7 0.936817 0.742746 0.596460
Si Si8 0.356373 0.542872 0.856442
O O1 0.500000 0.500000 0.500000
O O2 0.744132 0.539519 0.445691
O O3 0.861656 0.681780 0.530731
O O4 0.533043 0.907871 0.279874
O O5 0.899665 0.688459 0.312545
O O6 0.079313 0.774690 0.438244
O O7 0.778547 0.069507 0.179135
O O8 0.150727 0.055089 0.229651
O O9 0.788549 0.688516 0.764076
O O10 0.576408 0.627864 0.845981
O O11 0.000000 0.500000 0.000000
O O12 0.555391 0.440009 0.325547
O O13 0.252022 0.282830 0.388035
O O14 0.500000 0.000000 0.500000
O O15 0.708682 0.302162 0.165358
O O16 0.395396 0.275299 0.007956
O O17 0.154240 0.570158 0.741628
O O18 0.000000 0.000000 0.500000
#
# Coordination Sequence:
#
# PCOD8014464 Si02
#       8
#     2   2   2   2   2   2   2   2
#     4  11  23  43  69  99 136 175 230 273 340 410
#     4  10  21  41  67  97 130 173 222 274 339 396
#     4  12  25  41  68  98 135 178 228 275 332 408
#     4  12  25  42  68  99 137 170 233 282 334 401
#     4  10  22  41  67  94 137 173 222 278 334 403
#     4  10  23  41  70  95 132 180 219 282 343 391
#     4  12  25  41  68 105 133 177 226 288 333 399
#     4  11  24  40  66 100 136 178 222 279 344 386
#
# _framework density 22.111483
#
# number of rings (size 3 to 8) (size 9 to 14) (size 15 to 20)
#    0.000    1.000    5.000    1.500    5.250    3.000 
#    0.000    1.250    5.500    0.000    0.000    0.000 
#    0.000    0.000    0.000    0.000    0.000    0.000 
#
# Total GULP energy -198293.948661 kJ/mol
# GULP energy per Si atom -12393.371791 kJ/mol
# Density = 2.206116 g / cm^3
# Si number density = 22.111483 Si / 1000 Ang^3
#
#
#
# Elastic Constant Matrix: (Units=GPa)
#
#
# Indices 1 2 3 4 5 6 
#
# 1 47.2045 20.4751 29.5468 -2.4068 3.8379 9.0298
# 2 20.4751 125.0130 59.8000 2.6157 -5.8510 23.0122
# 3 29.5468 59.8000 165.1697 -0.2670 -0.9173 13.8144
# 4 -2.4068 2.6157 -0.2670 35.0569 2.8423 -4.8585
# 5 3.8379 -5.8510 -0.9173 2.8423 32.9736 -4.0203
# 6 9.0298 23.0122 13.8144 -4.8585 -4.0203 44.9341
#
#
#
# Elastic Compliance Matrix: (Units=1/GPa)
#
#
# Indices 1 2 3 4 5 6 
#
# 1 0.025307 -0.002114 -0.003523 0.001761 -0.003946 -0.003083
# 2 -0.002114 0.010729 -0.003154 -0.001680 0.001703 -0.004130
# 3 -0.003523 -0.003154 0.007833 0.000038 0.000056 -0.000076
# 4 0.001761 -0.001680 0.000038 0.029462 -0.002621 0.003446
# 5 -0.003946 0.001703 0.000056 -0.002621 0.031615 0.002449
# 6 -0.003083 -0.004130 -0.000076 0.003446 0.002449 0.025604
#
#
# Mechanical properties :
#
#
# Convention : Reuss Voigt Hill
#
# Bulk Modulus (GPa) = 38.04123 61.89231 49.96677
# Shear Modulus (GPa) = 31.86852 37.76393 34.81622
#
# Velocity S-wave (km/s) = 3.80052 4.13714 3.97240
# Velocity P-wave (km/s) = 6.04154 7.13254 6.60959
#
# Compressibility (1/GPa) = 0.02628727
#
# Stress axis : x y z
#
# Youngs Moduli (GPa) = 39.51515 93.20312 127.65956
#
# Poissons Ratio (x) = 0.19700 0.44975
# Poissons Ratio (y) = 0.08352 0.40268
# Poissons Ratio (z) = 0.13921 0.29399
#
# Static dielectric constant tensor:
#      x y z
#    x 3.524190 0.105640 0.334830 
#    y 0.105640 4.428120 0.053690 
#    z 0.334830 0.053690 4.159380 
# 
# 
# High freq. dielectric constant tensor:
#      x y z
#    x 1.870250 0.010680 0.008200 
#    y 0.010680 1.866080 -0.009510 
#    z 0.008200 -0.009510 1.871560 
# 
# From -- ./inp_files/607509.got.cif
#   From: 2010.06.25/outbox.cif.g09.slc.cpg/sg2_304_cif.got.tgz:607509.got - 2010.06.27 13:26:56.
