data_PCOD8014440
_publ_section_title
;
Structure prediction by ZEFSAII (Michael W. Deem and Ramdas Pophale) SiO2 
 PCOD8014440
Probable space group: P -1
;
_chemical_formula_sum "Si O2"
_cell_formula_units_Z 16
_cell_length_a 13.632975
_cell_length_b 14.338946
_cell_length_c 9.172199
_cell_angle_alpha 150.594622
_cell_angle_beta 55.809975
_cell_angle_gamma 126.277538
_cell_volume 704.786028
_symmetry_space_group_name_H-M "P -1"
_symmetry_group_IT_number 2
_symmetry_cell_setting 'triclinic'
loop_
_space_group_symop_operation_xyz
x,y,z
-x,-y,-z
loop_
_atom_site_type_symbol
_atom_site_label
_atom_site_fract_x
_atom_site_fract_y
_atom_site_fract_z
Si Si1 0.399818 0.208772 0.275140
Si Si2 0.618649 0.790288 0.373921
Si Si3 0.347231 0.555513 0.609423
Si Si4 0.345390 0.565599 0.298235
Si Si5 0.198891 0.889589 0.513794
Si Si6 0.783653 0.111110 0.169570
Si Si7 0.039141 0.065274 0.395362
Si Si8 0.139136 0.500633 0.898741
O O1 0.351587 0.168361 0.425006
O O2 0.371944 0.406394 0.507095
O O3 0.547740 0.239605 0.189163
O O4 0.342351 0.024877 0.972307
O O5 0.473823 0.721477 0.365891
O O6 0.679166 0.983699 0.493697
O O7 0.680772 0.615367 0.037387
O O8 0.347631 0.475384 0.335872
O O9 0.213783 0.585695 0.803998
O O10 0.232854 0.668532 0.522409
O O11 0.196561 0.951956 0.768333
O O12 0.078124 0.922626 0.583161
O O13 0.198722 0.657394 0.188868
O O14 0.897861 0.089144 0.946322
O O15 0.141803 0.273525 0.608820
O O16 0.000000 0.000000 0.500000
O O17 0.000000 0.500000 0.000000
#
# Coordination Sequence:
#
# PCOD8014440 Si02
#       8
#     2   2   2   2   2   2   2   2
#     4  10  22  39  69  94 134 178 221 275 337 400
#     4  10  23  46  64  99 139 177 224 274 340 391
#     4  10  21  41  67  95 132 174 225 275 336 392
#     4  10  25  41  68  99 138 178 222 280 331 403
#     4  11  26  43  69  97 137 179 221 279 330 404
#     4  12  25  42  65 103 133 177 227 272 335 402
#     4  11  25  48  72  96 133 175 227 282 338 397
#     4  10  24  43  69  94 130 174 223 275 337 397
#
# _framework density 22.701926
#
# number of rings (size 3 to 8) (size 9 to 14) (size 15 to 20)
#    0.000    1.500    1.250    1.875    8.750    2.500 
#    0.000    1.250    0.000    0.000    0.000    0.000 
#    0.000    0.000    0.000    0.000    0.000    0.000 
#
# Total GULP energy -198360.873260 kJ/mol
# GULP energy per Si atom -12397.554579 kJ/mol
# Density = 2.265026 g / cm^3
# Si number density = 22.701926 Si / 1000 Ang^3
#
#
#
# Elastic Constant Matrix: (Units=GPa)
#
#
# Indices 1 2 3 4 5 6 
#
# 1 76.6328 46.1084 40.6801 -14.3958 13.5106 -8.2721
# 2 46.1084 136.0994 54.3549 -34.0572 16.7498 3.6980
# 3 40.6801 54.3549 130.6712 -17.9314 8.8781 0.5595
# 4 -14.3958 -34.0572 -17.9314 39.0108 2.5952 1.5315
# 5 13.5106 16.7498 8.8781 2.5952 39.6517 -5.9161
# 6 -8.2721 3.6980 0.5595 1.5315 -5.9161 38.6367
#
#
#
# Elastic Compliance Matrix: (Units=1/GPa)
#
#
# Indices 1 2 3 4 5 6 
#
# 1 0.018855 -0.004190 -0.003686 0.001676 -0.003356 0.003911
# 2 -0.004190 0.012520 -0.002402 0.008690 -0.004350 -0.003071
# 3 -0.003686 -0.002402 0.009974 0.001168 -0.000154 -0.000774
# 4 0.001676 0.008690 0.001168 0.034974 -0.007237 -0.002984
# 5 -0.003356 -0.004350 -0.000154 -0.007237 0.029378 0.004485
# 6 0.003911 -0.003071 -0.000774 -0.002984 0.004485 0.027830
#
#
# Mechanical properties :
#
#
# Convention : Reuss Voigt Hill
#
# Bulk Modulus (GPa) = 48.09425 69.52113 58.80769
# Shear Modulus (GPa) = 31.05258 36.94383 33.99821
#
# Velocity S-wave (km/s) = 3.70244 4.03841 3.87407
# Velocity P-wave (km/s) = 6.28558 7.24120 6.78025
#
# Compressibility (1/GPa) = 0.02079251
#
# Stress axis : x y z
#
# Youngs Moduli (GPa) = 53.03513 79.87411 100.26485
#
# Poissons Ratio (x) = 0.33466 0.36957
# Poissons Ratio (y) = 0.22221 0.24087
# Poissons Ratio (z) = 0.19549 0.19188
#
# Static dielectric constant tensor:
#      x y z
#    x 3.985870 0.211390 0.026810 
#    y 0.211390 4.309870 0.010680 
#    z 0.026810 0.010680 4.324820 
# 
# 
# High freq. dielectric constant tensor:
#      x y z
#    x 1.885410 0.010610 0.000860 
#    y 0.010610 1.900590 -0.010670 
#    z 0.000860 -0.010670 1.902920 
# 
# From -- ./inp_files/316172.got.cif
#   From: 2010.06.25/outbox.cif.g09.slc.cpg/sg2_159_cif.got.tgz:316172.got - 2010.06.27 13:26:56.
