data_PCOD8014475
_publ_section_title
;
Structure prediction by ZEFSAII (Michael W. Deem and Ramdas Pophale) SiO2 
 PCOD8014475
Probable space group: P -1
;
_chemical_formula_sum "Si O2"
_cell_formula_units_Z 16
_cell_length_a 18.811976
_cell_length_b 8.836695
_cell_length_c 8.088133
_cell_angle_alpha 49.401954
_cell_angle_beta 88.804440
_cell_angle_gamma 122.659280
_cell_volume 698.930473
_symmetry_space_group_name_H-M "P -1"
_symmetry_group_IT_number 2
_symmetry_cell_setting 'triclinic'
loop_
_space_group_symop_operation_xyz
x,y,z
-x,-y,-z
loop_
_atom_site_type_symbol
_atom_site_label
_atom_site_fract_x
_atom_site_fract_y
_atom_site_fract_z
Si Si1 0.831365 0.426515 0.047047
Si Si2 0.492223 0.660593 0.260711
Si Si3 0.822047 0.772606 0.579904
Si Si4 0.317188 0.153558 0.395049
Si Si5 0.164262 0.851209 0.054508
Si Si6 0.302682 0.913660 0.244583
Si Si7 0.684844 0.477122 0.512483
Si Si8 0.991470 0.164815 0.009391
O O1 0.866934 0.351263 0.953625
O O2 0.714700 0.119989 0.319955
O O3 0.839377 0.670174 0.811648
O O4 0.897685 0.542831 0.130861
O O5 0.500000 0.500000 0.500000
O O6 0.418667 0.455331 0.255339
O O7 0.438574 0.734021 0.312173
O O8 0.607086 0.944718 0.993810
O O9 0.785545 0.916197 0.541128
O O10 0.727921 0.489776 0.678931
O O11 0.922537 0.984099 0.305754
O O12 0.341856 0.156054 0.201256
O O13 0.059758 0.764966 0.150694
O O14 0.258671 0.200403 0.767990
O O15 0.197640 0.780780 0.256927
O O16 0.288216 0.660608 0.506807
O O17 0.000000 0.000000 0.000000
#
# Coordination Sequence:
#
# PCOD8014475 Si02
#       8
#     2   2   2   2   2   2   2   2
#     4  12  22  45  70  90 136 179 215 270 339 385
#     4  11  21  45  68  95 135 178 219 271 331 394
#     4  10  23  44  67  93 133 172 216 266 335 394
#     4  11  26  42  66 103 133 171 226 272 324 396
#     4  11  23  44  66  97 134 176 224 266 332 397
#     4  12  24  41  71  96 137 177 219 276 331 380
#     4  10  21  41  67  98 129 171 223 264 321 401
#     4  11  26  43  68 102 133 167 227 281 323 400
#
# _framework density 22.892118
#
# number of rings (size 3 to 8) (size 9 to 14) (size 15 to 20)
#    0.000    1.000    6.250    1.500    5.250    0.000 
#    0.000    1.875    0.000    0.000    0.000    0.000 
#    0.000    0.000    0.000    0.000    0.000    0.000 
#
# Total GULP energy -198238.918835 kJ/mol
# GULP energy per Si atom -12389.932427 kJ/mol
# Density = 2.284001 g / cm^3
# Si number density = 22.892118 Si / 1000 Ang^3
#
#
#
# Elastic Constant Matrix: (Units=GPa)
#
#
# Indices 1 2 3 4 5 6 
#
# 1 113.0069 35.9141 8.1816 7.7202 21.2323 -5.7729
# 2 35.9141 102.2524 -10.7669 -1.4104 11.3852 -17.5352
# 3 8.1816 -10.7669 39.7197 -5.2035 15.4744 -5.3891
# 4 7.7202 -1.4104 -5.2035 24.3487 0.6952 -2.1292
# 5 21.2323 11.3852 15.4744 0.6952 29.7161 -2.0095
# 6 -5.7729 -17.5352 -5.3891 -2.1292 -2.0095 36.2214
#
#
#
# Elastic Compliance Matrix: (Units=1/GPa)
#
#
# Indices 1 2 3 4 5 6 
#
# 1 0.011514 -0.003788 -0.001798 -0.004162 -0.005798 -0.000832
# 2 -0.003788 0.014195 0.009015 0.004807 -0.007032 0.007502
# 3 -0.001798 0.009015 0.039384 0.010963 -0.022303 0.009345
# 4 -0.004162 0.004807 0.010963 0.045658 -0.005261 0.005687
# 5 -0.005798 -0.007032 -0.022303 -0.005261 0.051883 -0.005078
# 6 -0.000832 0.007502 0.009345 0.005687 -0.005078 0.032550
#
#
# Mechanical properties :
#
#
# Convention : Reuss Voigt Hill
#
# Bulk Modulus (GPa) = 13.89803 35.73739 24.81771
# Shear Modulus (GPa) = 23.55061 32.83394 28.19227
#
# Velocity S-wave (km/s) = 3.21092 3.79131 3.51312
# Velocity P-wave (km/s) = 4.45319 5.90004 5.22692
#
# Compressibility (1/GPa) = 0.07195264
#
# Stress axis : x y z
#
# Youngs Moduli (GPa) = 86.84905 70.44595 25.39131
#
# Poissons Ratio (x) = 0.26685 0.04565
# Poissons Ratio (y) = 0.32898 -0.22891
# Poissons Ratio (z) = 0.15613 -0.63510
#
# Static dielectric constant tensor:
#      x y z
#    x 4.514950 -0.038000 0.091080 
#    y -0.038000 4.407480 -0.295790 
#    z 0.091080 -0.295790 4.021570 
# 
# 
# High freq. dielectric constant tensor:
#      x y z
#    x 1.917670 -0.007920 0.007150 
#    y -0.007920 1.898270 -0.010610 
#    z 0.007150 -0.010610 1.884250 
# 
# From -- ./inp_files/327134.got.cif
#   From: 2010.06.25/outbox.cif.g09.slc.cpg/sg2_164_cif.got.tgz:327134.got - 2010.06.27 13:26:56.
