data_PCOD8014681
_publ_section_title
;
Structure prediction by ZEFSAII (Michael W. Deem and Ramdas Pophale) SiO2 
 PCOD8014681
Probable space group: P -1
;
_chemical_formula_sum "Si O2"
_cell_formula_units_Z 16
_cell_length_a 14.358109
_cell_length_b 10.780249
_cell_length_c 13.986138
_cell_angle_alpha 70.187778
_cell_angle_beta 30.211514
_cell_angle_gamma 51.496190
_cell_volume 735.523219
_symmetry_space_group_name_H-M "P -1"
_symmetry_group_IT_number 2
_symmetry_cell_setting 'triclinic'
loop_
_space_group_symop_operation_xyz
x,y,z
-x,-y,-z
loop_
_atom_site_type_symbol
_atom_site_label
_atom_site_fract_x
_atom_site_fract_y
_atom_site_fract_z
Si Si1 0.595222 0.279550 0.169780
Si Si2 0.515726 0.933385 0.229162
Si Si3 0.193421 0.587136 0.953914
Si Si4 0.492760 0.312050 0.587956
Si Si5 0.328081 0.205618 0.066539
Si Si6 0.972709 0.866463 0.921826
Si Si7 0.713896 0.684954 0.724023
Si Si8 0.165937 0.464148 0.651670
O O1 0.645689 0.407845 0.112688
O O2 0.473552 0.323289 0.161476
O O3 0.402917 0.314106 0.411199
O O4 0.858472 0.066289 0.994800
O O5 0.450937 0.871805 0.393277
O O6 0.308765 0.152279 0.337693
O O7 0.543136 0.819572 0.143315
O O8 0.789633 0.870830 0.015257
O O9 0.390459 0.430048 0.743362
O O10 0.997898 0.781360 0.022836
O O11 0.031107 0.561138 0.163013
O O12 0.751526 0.256175 0.341669
O O13 0.272483 0.441246 0.668964
O O14 0.350622 0.297117 0.110404
O O15 0.020819 0.330114 0.283621
O O16 0.500000 0.000000 0.000000
O O17 0.000000 0.500000 0.500000
#
# Coordination Sequence:
#
# PCOD8014681 Si02
#       8
#     2   2   2   2   2   2   2   2
#     4  11  26  42  62  95 134 178 213 261 325 387
#     4  10  22  42  68  98 129 169 212 271 327 381
#     4  12  24  39  65  98 134 171 213 263 326 394
#     4  12  24  39  69 104 132 165 214 268 332 392
#     4  10  21  41  70  92 124 170 224 271 316 375
#     4  11  24  41  62  98 142 171 206 262 329 399
#     4  10  21  42  69  90 123 178 224 264 316 376
#     4  12  23  40  71  96 129 173 215 264 328 387
#
# _framework density 21.753222000000001
#
# number of rings (size 3 to 8) (size 9 to 14) (size 15 to 20)
#    0.000    1.000    5.000    1.875    1.750    2.500 
#    0.000    0.625    5.500    9.000    0.000    0.000 
#    0.000    0.000    0.000    0.000    0.000    0.000 
#
# Total GULP energy -198261.350004 kJ/mol
# GULP energy per Si atom -12391.334375 kJ/mol
# Density = 2.170371 g / cm^3
# Si number density = 21.753222 Si / 1000 Ang^3
#
#
#
# Elastic Constant Matrix: (Units=GPa)
#
#
# Indices 1 2 3 4 5 6 
#
# 1 148.6902 51.4230 38.2496 8.9319 5.1902 6.5551
# 2 51.4230 88.4247 40.8720 10.0987 -17.5491 -10.0878
# 3 38.2496 40.8720 98.5649 2.2754 -6.1088 6.2412
# 4 8.9319 10.0987 2.2754 36.7583 -3.5455 -6.7101
# 5 5.1902 -17.5491 -6.1088 -3.5455 24.1433 5.0815
# 6 6.5551 -10.0878 6.2412 -6.7101 5.0815 34.7629
#
#
#
# Elastic Compliance Matrix: (Units=1/GPa)
#
#
# Indices 1 2 3 4 5 6 
#
# 1 0.009807 -0.006619 -0.001268 -0.001672 -0.006884 -0.002859
# 2 -0.006619 0.021527 -0.005845 -0.001454 0.014071 0.006207
# 3 -0.001268 -0.005845 0.013309 0.000421 0.000253 -0.003802
# 4 -0.001672 -0.001454 0.000421 0.029162 0.002626 0.005063
# 5 -0.006884 0.014071 0.000253 0.002626 0.054009 -0.002052
# 6 -0.002859 0.006207 -0.003802 0.005063 -0.002052 0.033066
#
#
# Mechanical properties :
#
#
# Convention : Reuss Voigt Hill
#
# Bulk Modulus (GPa) = 58.21482 66.30768 62.26125
# Shear Modulus (GPa) = 25.76384 32.80857 29.28620
#
# Velocity S-wave (km/s) = 3.44520 3.88779 3.67317
# Velocity P-wave (km/s) = 6.53035 7.12047 6.83179
#
# Compressibility (1/GPa) = 0.01717776
#
# Stress axis : x y z
#
# Youngs Moduli (GPa) = 101.96365 46.45398 75.13989
#
# Poissons Ratio (x) = 0.30746 0.09531
# Poissons Ratio (y) = 0.67485 0.43923
# Poissons Ratio (z) = 0.12933 0.27154
#
# Static dielectric constant tensor:
#      x y z
#    x 8.128000 -1.326570 0.864730 
#    y -1.326570 4.525450 -0.009380 
#    z 0.864730 -0.009380 4.035840 
# 
# 
# High freq. dielectric constant tensor:
#      x y z
#    x 1.869110 -0.008760 0.007600 
#    y -0.008760 1.854630 0.027440 
#    z 0.007600 0.027440 1.838730 
# 
# From -- ./inp_files/332161.got.cif
#   From: 2010.06.25/outbox.cif.g09.slc.cpg/sg2_167_cif.got.tgz:332161.got - 2010.06.27 13:26:56.
