data_PCOD8014969
_publ_section_title
;
Structure prediction by ZEFSAII (Michael W. Deem and Ramdas Pophale) SiO2 
 PCOD8014969
Probable space group: P -1
;
_chemical_formula_sum "Si O2"
_cell_formula_units_Z 16
_cell_length_a 14.781423
_cell_length_b 8.679125
_cell_length_c 11.939523
_cell_angle_alpha 36.800808
_cell_angle_beta 56.222852
_cell_angle_gamma 63.190393
_cell_volume 762.623320
_symmetry_space_group_name_H-M "P -1"
_symmetry_group_IT_number 2
_symmetry_cell_setting 'triclinic'
loop_
_space_group_symop_operation_xyz
x,y,z
-x,-y,-z
loop_
_atom_site_type_symbol
_atom_site_label
_atom_site_fract_x
_atom_site_fract_y
_atom_site_fract_z
Si Si1 0.164257 0.479707 0.205693
Si Si2 0.300650 0.333058 0.404841
Si Si3 0.054236 0.746562 0.561426
Si Si4 0.694374 0.624944 0.038139
Si Si5 0.267868 0.011041 0.821917
Si Si6 0.279842 0.802165 0.290022
Si Si7 0.762719 0.510145 0.297119
Si Si8 0.531353 0.316347 0.185996
O O1 0.229771 0.324729 0.346354
O O2 0.206736 0.375062 0.118101
O O3 0.036615 0.425090 0.336963
O O4 0.182202 0.783554 0.025264
O O5 0.237851 0.177479 0.634962
O O6 0.319290 0.629084 0.258653
O O7 0.419388 0.201298 0.378945
O O8 0.147143 0.823366 0.362559
O O9 0.111147 0.578061 0.719874
O O10 0.000000 0.000000 0.500000
O O11 0.664177 0.920619 0.916054
O O12 0.730438 0.468574 0.215090
O O13 0.590724 0.480515 0.145222
O O14 0.255179 0.188828 0.836140
O O15 0.391316 0.907445 0.785553
O O16 0.312297 0.662523 0.467388
O O17 0.500000 0.500000 0.000000
#
# Coordination Sequence:
#
# PCOD8014969 Si02
#       8
#     2   2   2   2   2   2   2   2
#     4  11  22  38  64  94 125 164 207 246 311 359
#     4  11  22  44  61  90 130 159 204 261 297 369
#     4  10  21  42  64  91 127 162 204 253 308 361
#     4  11  21  39  65  89 123 165 201 254 307 364
#     4  10  22  42  62  90 127 163 202 258 301 364
#     4   9  22  42  61  89 128 155 206 254 304 354
#     4   9  22  42  59  91 128 154 208 253 298 366
#     4  11  23  41  63  93 122 163 207 248 317 360
#
# _framework density 20.980212999999999
#
# number of rings (size 3 to 8) (size 9 to 14) (size 15 to 20)
#    0.750    1.000    3.750    1.125    0.000    6.000 
#    4.500    1.250    0.000    0.000    0.000    0.000 
#    0.000    0.000    0.000    0.000    0.000    0.000 
#
# Total GULP energy -198367.671446 kJ/mol
# GULP energy per Si atom -12397.979465 kJ/mol
# Density = 2.093246 g / cm^3
# Si number density = 20.980213 Si / 1000 Ang^3
#
#
#
# Elastic Constant Matrix: (Units=GPa)
#
#
# Indices 1 2 3 4 5 6 
#
# 1 137.7317 38.2634 36.8051 2.4453 15.0338 9.5212
# 2 38.2634 89.7060 12.0937 -7.1661 19.3932 -5.3489
# 3 36.8051 12.0937 53.8121 -3.1533 10.8303 8.7133
# 4 2.4453 -7.1661 -3.1533 37.8421 2.4210 8.6492
# 5 15.0338 19.3932 10.8303 2.4210 32.7588 6.0317
# 6 9.5212 -5.3489 8.7133 8.6492 6.0317 25.5604
#
#
#
# Elastic Compliance Matrix: (Units=1/GPa)
#
#
# Indices 1 2 3 4 5 6 
#
# 1 0.009998 -0.003722 -0.005742 -0.001352 -0.000002 -0.002088
# 2 -0.003722 0.015086 0.000070 0.002336 -0.008473 0.005729
# 3 -0.005742 0.000070 0.024760 0.004261 -0.004688 -0.006623
# 4 -0.001352 0.002336 0.004261 0.029741 -0.002542 -0.009924
# 5 -0.000002 -0.008473 -0.004688 -0.002542 0.038842 -0.008480
# 6 -0.002088 0.005729 -0.006623 -0.009924 -0.008480 0.048716
#
#
# Mechanical properties :
#
#
# Convention : Reuss Voigt Hill
#
# Bulk Modulus (GPa) = 32.20108 50.61935 41.41022
# Shear Modulus (GPa) = 25.47330 32.17141 28.82235
#
# Velocity S-wave (km/s) = 3.48826 3.92013 3.71048
# Velocity P-wave (km/s) = 5.62188 6.68352 6.17556
#
# Compressibility (1/GPa) = 0.03105486
#
# Stress axis : x y z
#
# Youngs Moduli (GPa) = 100.02432 66.28772 40.38719
#
# Poissons Ratio (x) = 0.24675 0.23191
# Poissons Ratio (y) = 0.37233 -0.00283
# Poissons Ratio (z) = 0.57436 -0.00465
#
# Static dielectric constant tensor:
#      x y z
#    x 3.737390 -0.103400 0.013760 
#    y -0.103400 3.816300 -0.031810 
#    z 0.013760 -0.031810 3.759290 
# 
# 
# High freq. dielectric constant tensor:
#      x y z
#    x 1.802930 0.002060 0.010650 
#    y 0.002060 1.823960 -0.005710 
#    z 0.010650 -0.005710 1.822330 
# 
# From -- ./inp_files/445461.got.cif
#   From: 2010.06.25/outbox.cif.g09.slc.cpg/sg2_223_cif.got.tgz:445461.got - 2010.06.27 13:26:56.
