data_PCOD8014889
_publ_section_title
;
Structure prediction by ZEFSAII (Michael W. Deem and Ramdas Pophale) SiO2 
 PCOD8014889
Probable space group: P -1
;
_chemical_formula_sum "Si O2"
_cell_formula_units_Z 16
_cell_length_a 14.987310
_cell_length_b 8.875323
_cell_length_c 14.774532
_cell_angle_alpha 102.430331
_cell_angle_beta 38.169823
_cell_angle_gamma 130.003349
_cell_volume 735.125568
_symmetry_space_group_name_H-M "P -1"
_symmetry_group_IT_number 2
_symmetry_cell_setting 'triclinic'
loop_
_space_group_symop_operation_xyz
x,y,z
-x,-y,-z
loop_
_atom_site_type_symbol
_atom_site_label
_atom_site_fract_x
_atom_site_fract_y
_atom_site_fract_z
Si Si1 0.186852 0.816110 0.837915
Si Si2 0.994627 0.781148 0.318379
Si Si3 0.837102 0.312918 0.966284
Si Si4 0.462392 0.230320 0.227822
Si Si5 0.696784 0.689828 0.795528
Si Si6 0.475387 0.667341 0.453717
Si Si7 0.988884 0.315447 0.513550
Si Si8 0.287153 0.439469 0.758615
O O1 0.085175 0.607600 0.819997
O O2 0.404379 0.080588 0.651145
O O3 0.273038 0.806288 0.860784
O O4 0.980042 0.759410 0.025606
O O5 0.720086 0.560562 0.488892
O O6 0.042726 0.712717 0.356913
O O7 0.129415 0.818753 0.130710
O O8 0.090751 0.032856 0.295387
O O9 0.662943 0.276858 0.044231
O O10 0.420424 0.321432 0.196105
O O11 0.536453 0.376938 0.278326
O O12 0.229193 0.941036 0.396768
O O13 0.785494 0.596440 0.681574
O O14 0.500000 0.500000 0.000000
O O15 0.353766 0.600531 0.638980
O O16 0.678513 0.711351 0.313071
O O17 0.000000 0.500000 0.500000
#
# Coordination Sequence:
#
# PCOD8014889 Si02
#       8
#     2   2   2   2   2   2   2   2
#     4  10  22  42  61  98 144 173 228 274 347 394
#     4  11  24  43  68  95 140 174 234 275 344 402
#     4  10  23  41  65 100 135 182 223 289 325 418
#     4  10  23  45  67  89 143 172 223 283 342 398
#     4  11  26  47  71  98 133 180 227 285 344 406
#     4  11  22  38  69  95 133 181 224 281 342 402
#     4  11  26  43  69 101 131 173 231 283 341 408
#     4  10  21  42  62  99 131 178 226 279 336 417
#
# _framework density 21.764989
#
# number of rings (size 3 to 8) (size 9 to 14) (size 15 to 20)
#    0.000    1.500    1.250    3.375    5.250    3.500 
#   11.250    0.000    0.000    0.000    0.000    0.000 
#    0.000    0.000    0.000    0.000    0.000    0.000 
#
# Total GULP energy -198407.996980 kJ/mol
# GULP energy per Si atom -12400.499811 kJ/mol
# Density = 2.171545 g / cm^3
# Si number density = 21.764989 Si / 1000 Ang^3
#
#
#
# Elastic Constant Matrix: (Units=GPa)
#
#
# Indices 1 2 3 4 5 6 
#
# 1 115.4254 59.6367 49.9182 -15.1689 -4.9017 -7.1311
# 2 59.6367 77.4163 35.3776 0.0410 7.5995 -7.6090
# 3 49.9182 35.3776 83.6184 -12.0036 7.7365 -4.7854
# 4 -15.1689 0.0410 -12.0036 43.0155 -12.9151 0.2460
# 5 -4.9017 7.5995 7.7365 -12.9151 39.1924 2.1817
# 6 -7.1311 -7.6090 -4.7854 0.2460 2.1817 42.5369
#
#
#
# Elastic Compliance Matrix: (Units=1/GPa)
#
#
# Indices 1 2 3 4 5 6 
#
# 1 0.019285 -0.013161 -0.005635 0.007847 0.008675 -0.000245
# 2 -0.013161 0.025642 -0.003212 -0.008229 -0.008836 0.002520
# 3 -0.005635 -0.003212 0.017262 0.001968 -0.002872 0.000559
# 4 0.007847 -0.008229 0.001968 0.030237 0.012193 -0.000735
# 5 0.008675 -0.008836 -0.002872 0.012193 0.033022 -0.002214
# 6 -0.000245 0.002520 0.000559 -0.000735 -0.002214 0.024099
#
#
# Mechanical properties :
#
#
# Convention : Reuss Voigt Hill
#
# Bulk Modulus (GPa) = 55.02183 62.92501 58.97342
# Shear Modulus (GPa) = 25.04769 33.71747 29.38258
#
# Velocity S-wave (km/s) = 3.39606 3.94021 3.67821
# Velocity P-wave (km/s) = 6.38063 7.04799 6.72260
#
# Compressibility (1/GPa) = 0.01817461
#
# Stress axis : x y z
#
# Youngs Moduli (GPa) = 51.85495 38.99779 57.93099
#
# Poissons Ratio (x) = 0.51323 0.32642
# Poissons Ratio (y) = 0.68244 0.18607
# Poissons Ratio (z) = 0.29219 0.12526
#
# Static dielectric constant tensor:
#      x y z
#    x 4.096130 0.040890 -0.117820 
#    y 0.040890 3.840240 0.047750 
#    z -0.117820 0.047750 3.830610 
# 
# 
# High freq. dielectric constant tensor:
#      x y z
#    x 1.867190 -0.000010 -0.012460 
#    y -0.000010 1.854810 0.013690 
#    z -0.012460 0.013690 1.850820 
# 
# From -- ./inp_files/529893.got.cif
#   From: 2010.06.25/outbox.cif.g09.slc.cpg/sg2_265_cif.got.tgz:529893.got - 2010.06.27 13:26:56.
