data_PCOD8014627
_publ_section_title
;
Structure prediction by ZEFSAII (Michael W. Deem and Ramdas Pophale) SiO2 
 PCOD8014627
Probable space group: P -1
;
_chemical_formula_sum "Si O2"
_cell_formula_units_Z 16
_cell_length_a 13.129141
_cell_length_b 21.853765
_cell_length_c 18.985979
_cell_angle_alpha 18.481726
_cell_angle_beta 153.318183
_cell_angle_gamma 153.458733
_cell_volume 731.586982
_symmetry_space_group_name_H-M "P -1"
_symmetry_group_IT_number 2
_symmetry_cell_setting 'triclinic'
loop_
_space_group_symop_operation_xyz
x,y,z
-x,-y,-z
loop_
_atom_site_type_symbol
_atom_site_label
_atom_site_fract_x
_atom_site_fract_y
_atom_site_fract_z
Si Si1 0.300735 0.946351 0.132177
Si Si2 0.319872 0.716153 0.937914
Si Si3 0.506440 0.325031 0.058716
Si Si4 0.036796 0.413303 0.336678
Si Si5 0.402907 0.813702 0.196368
Si Si6 0.165043 0.326273 0.359849
Si Si7 0.773201 0.369035 0.458224
Si Si8 0.125011 0.910068 0.293858
O O1 0.256825 0.862803 0.117289
O O2 0.375489 0.802268 0.391572
O O3 0.527992 0.151700 0.048873
O O4 0.061462 0.988495 0.965151
O O5 0.491005 0.710029 0.985021
O O6 0.112906 0.807170 0.683104
O O7 0.216727 0.493129 0.149098
O O8 0.773442 0.426820 0.144061
O O9 0.369442 0.100332 0.253215
O O10 0.372307 0.487063 0.816282
O O11 0.212340 0.613339 0.264526
O O12 0.178787 0.405437 0.361719
O O13 0.996472 0.207754 0.581504
O O14 0.643207 0.788150 0.405279
O O15 0.500000 0.000000 0.000000
O O16 0.837319 0.260666 0.547845
O O17 0.000000 0.500000 0.500000
#
# Coordination Sequence:
#
# PCOD8014627 Si02
#       8
#     2   2   2   2   2   2   2   2
#     4  12  23  40  66  97 133 167 219 269 328 387
#     4  10  21  41  69  96 124 170 213 277 329 380
#     4  11  24  44  67  99 135 173 220 267 326 391
#     4  11  25  44  66  95 132 180 218 268 327 393
#     4  12  25  42  65  97 131 175 220 271 328 395
#     4  10  22  43  67  90 128 168 220 273 331 377
#     4  12  23  40  66  96 133 172 216 267 321 386
#     4  12  24  44  65  97 139 177 216 265 325 394
#
# _framework density 21.870263999999999
#
# number of rings (size 3 to 8) (size 9 to 14) (size 15 to 20)
#    0.000    0.750    2.500    5.625    0.000    2.000 
#    2.250    0.000    0.000    0.000    0.000    0.000 
#    0.000    0.000    0.000    0.000    0.000    0.000 
#
# Total GULP energy -198364.227075 kJ/mol
# GULP energy per Si atom -12397.764192 kJ/mol
# Density = 2.182049 g / cm^3
# Si number density = 21.870264 Si / 1000 Ang^3
#
#
#
# Elastic Constant Matrix: (Units=GPa)
#
#
# Indices 1 2 3 4 5 6 
#
# 1 94.0633 25.3847 32.3040 -5.5630 1.4893 2.0387
# 2 25.3847 75.2367 30.1657 5.8419 14.5095 10.5488
# 3 32.3040 30.1657 116.4070 2.2866 5.4430 9.7805
# 4 -5.5630 5.8419 2.2866 30.3033 5.9908 -4.8967
# 5 1.4893 14.5095 5.4430 5.9908 40.1193 -3.3486
# 6 2.0387 10.5488 9.7805 -4.8967 -3.3486 27.7861
#
#
#
# Elastic Compliance Matrix: (Units=1/GPa)
#
#
# Indices 1 2 3 4 5 6 
#
# 1 0.012821 -0.003981 -0.002837 0.003507 0.001018 0.002310
# 2 -0.003981 0.018170 -0.002645 -0.003984 -0.006063 -0.007108
# 3 -0.002837 -0.002645 0.010329 -0.001145 -0.000391 -0.002672
# 4 0.003507 -0.003984 -0.001145 0.036396 -0.003329 0.007671
# 5 0.001018 -0.006063 -0.000391 -0.003329 0.028062 0.005160
# 6 0.002310 -0.007108 -0.002672 0.007671 0.005160 0.041432
#
#
# Mechanical properties :
#
#
# Convention : Reuss Voigt Hill
#
# Bulk Modulus (GPa) = 44.65401 51.26841 47.96121
# Shear Modulus (GPa) = 28.80196 32.83191 30.81694
#
# Velocity S-wave (km/s) = 3.63291 3.87875 3.75784
# Velocity P-wave (km/s) = 6.16923 6.59944 6.38796
#
# Compressibility (1/GPa) = 0.02239440
#
# Stress axis : x y z
#
# Youngs Moduli (GPa) = 77.99738 55.03521 96.81908
#
# Poissons Ratio (x) = 0.21908 0.27467
# Poissons Ratio (y) = 0.31049 0.25608
# Poissons Ratio (z) = 0.22127 0.14557
#
# Static dielectric constant tensor:
#      x y z
#    x 4.263920 0.501050 1.428040 
#    y 0.501050 4.823090 1.438070 
#    z 1.428040 1.438070 11.130840 
# 
# 
# High freq. dielectric constant tensor:
#      x y z
#    x 1.866670 0.009200 -0.007300 
#    y 0.009200 1.868660 0.003900 
#    z -0.007300 0.003900 1.860930 
# 
# From -- ./inp_files/367912.got.cif
#   From: 2010.06.25/outbox.cif.g09.slc.cpg/sg2_184_cif.got.tgz:367912.got - 2010.06.27 13:26:56.
