data_PCOD8014954
_publ_section_title
;
Structure prediction by ZEFSAII (Michael W. Deem and Ramdas Pophale) SiO2 
 PCOD8014954
Probable space group: P -1
;
_chemical_formula_sum "Si O2"
_cell_formula_units_Z 16
_cell_length_a 15.051038
_cell_length_b 9.523801
_cell_length_c 9.365381
_cell_angle_alpha 105.875458
_cell_angle_beta 142.861092
_cell_angle_gamma 63.507121
_cell_volume 716.985204
_symmetry_space_group_name_H-M "P -1"
_symmetry_group_IT_number 2
_symmetry_cell_setting 'triclinic'
loop_
_space_group_symop_operation_xyz
x,y,z
-x,-y,-z
loop_
_atom_site_type_symbol
_atom_site_label
_atom_site_fract_x
_atom_site_fract_y
_atom_site_fract_z
Si Si1 0.573791 0.163042 0.473577
Si Si2 0.268739 0.872153 0.048376
Si Si3 0.707752 0.347584 0.506734
Si Si4 0.699564 0.894592 0.345490
Si Si5 0.248529 0.412191 0.178906
Si Si6 0.941637 0.791003 0.057053
Si Si7 0.587378 0.188631 0.088470
Si Si8 0.963005 0.265826 0.145374
O O1 0.595224 0.144276 0.665524
O O2 0.695379 0.237252 0.590295
O O3 0.390914 0.280043 0.235815
O O4 0.613561 0.992349 0.404851
O O5 0.352979 0.797316 0.988672
O O6 0.152176 0.790044 0.925571
O O7 0.166953 0.058527 0.949362
O O8 0.666712 0.521619 0.570209
O O9 0.594564 0.337901 0.229497
O O10 0.889637 0.282824 0.665022
O O11 0.878925 0.767023 0.565731
O O12 0.699536 0.021811 0.260293
O O13 0.595470 0.795336 0.137131
O O14 0.138008 0.336354 0.092228
O O15 0.135317 0.549100 0.966249
O O16 0.974653 0.833716 0.949217
#
# Coordination Sequence:
#
# PCOD8014954 Si02
#       8
#     2   2   2   2   2   2   2   2
#     4  11  21  39  71  96 126 165 221 275 309 378
#     4  12  22  38  69 103 126 164 226 268 316 377
#     4  10  21  42  64  88 130 175 206 255 332 382
#     4  10  22  43  67  94 132 171 217 265 323 377
#     4  11  24  40  68 100 130 165 217 273 327 372
#     4  11  22  39  67 100 129 163 218 276 321 371
#     4  10  24  40  63  97 133 174 211 263 322 393
#     4  11  22  40  67 100 126 165 215 277 319 375
#
# _framework density 22.315664000000002
#
# number of rings (size 3 to 8) (size 9 to 14) (size 15 to 20)
#    0.000    1.250    3.750    4.500    1.750    3.000 
#    0.000    0.625    0.000   15.000    0.000    0.000 
#    0.000    0.000    0.000    0.000    0.000    0.000 
#
# Total GULP energy -198367.997950 kJ/mol
# GULP energy per Si atom -12397.999872 kJ/mol
# Density = 2.226487 g / cm^3
# Si number density = 22.315664 Si / 1000 Ang^3
#
#
#
# Elastic Constant Matrix: (Units=GPa)
#
#
# Indices 1 2 3 4 5 6 
#
# 1 84.8603 37.7245 50.8685 12.5948 -6.9779 12.5599
# 2 37.7245 57.0121 17.8354 1.1821 10.5974 9.4368
# 3 50.8685 17.8354 114.4756 4.1605 4.3864 4.5292
# 4 12.5948 1.1821 4.1605 37.9525 -2.4024 14.0070
# 5 -6.9779 10.5974 4.3864 -2.4024 37.9781 -0.6961
# 6 12.5599 9.4368 4.5292 14.0070 -0.6961 26.7525
#
#
#
# Elastic Compliance Matrix: (Units=1/GPa)
#
#
# Indices 1 2 3 4 5 6 
#
# 1 0.026523 -0.016055 -0.009380 -0.005969 0.010026 -0.001815
# 2 -0.016055 0.030456 0.002896 0.005958 -0.011536 -0.007115
# 3 -0.009380 0.002896 0.012537 0.001208 -0.003893 0.000526
# 4 -0.005969 0.005958 0.001208 0.034424 -0.001043 -0.017555
# 5 0.010026 -0.011536 -0.003893 -0.001043 0.031801 0.001395
# 6 -0.001815 -0.007115 0.000526 -0.017555 0.001395 0.049880
#
#
# Mechanical properties :
#
#
# Convention : Reuss Voigt Hill
#
# Bulk Modulus (GPa) = 40.91901 52.13387 46.52644
# Shear Modulus (GPa) = 20.93410 30.53125 25.73268
#
# Velocity S-wave (km/s) = 3.06615 3.70287 3.39945
# Velocity P-wave (km/s) = 5.55979 6.45712 6.02518
#
# Compressibility (1/GPa) = 0.02443852
#
# Stress axis : x y z
#
# Youngs Moduli (GPa) = 37.70354 32.83405 79.76574
#
# Poissons Ratio (x) = 0.52715 0.74818
# Poissons Ratio (y) = 0.60533 -0.23101
# Poissons Ratio (z) = 0.35365 -0.09509
#
# Static dielectric constant tensor:
#      x y z
#    x 3.858130 0.075610 0.131560 
#    y 0.075610 3.874170 0.047020 
#    z 0.131560 0.047020 4.154030 
# 
# 
# High freq. dielectric constant tensor:
#      x y z
#    x 1.873880 0.008260 0.018400 
#    y 0.008260 1.862720 0.005710 
#    z 0.018400 0.005710 1.878250 
# 
# From -- ./inp_files/205157.got.cif
#   From: 2010.06.25/outbox.cif.g09.slc.cpg/sg2_103_cif.got.tgz:205157.got - 2010.06.27 13:26:56.
