data_PCOD8014623
_publ_section_title
;
Structure prediction by ZEFSAII (Michael W. Deem and Ramdas Pophale) SiO2 
 PCOD8014623
Probable space group: P -1
;
_chemical_formula_sum "Si O2"
_cell_formula_units_Z 16
_cell_length_a 15.548943
_cell_length_b 9.575825
_cell_length_c 11.243652
_cell_angle_alpha 78.423855
_cell_angle_beta 71.213615
_cell_angle_gamma 27.617275
_cell_volume 720.906855
_symmetry_space_group_name_H-M "P -1"
_symmetry_group_IT_number 2
_symmetry_cell_setting 'triclinic'
loop_
_space_group_symop_operation_xyz
x,y,z
-x,-y,-z
loop_
_atom_site_type_symbol
_atom_site_label
_atom_site_fract_x
_atom_site_fract_y
_atom_site_fract_z
Si Si1 0.211192 0.463686 0.243763
Si Si2 0.530822 0.789584 0.003405
Si Si3 0.925237 0.389734 0.239716
Si Si4 0.149800 0.668534 0.488360
Si Si5 0.146295 0.183622 0.777796
Si Si6 0.701077 0.129151 0.993122
Si Si7 0.471439 0.701662 0.518814
Si Si8 0.459426 0.214083 0.744375
O O1 0.124896 0.644205 0.371301
O O2 0.065413 0.566432 0.218295
O O3 0.409849 0.107696 0.251331
O O4 0.278583 0.496625 0.117314
O O5 0.557149 0.680729 0.139802
O O6 0.346142 0.971041 0.993613
O O7 0.500000 0.000000 0.000000
O O8 0.920094 0.360466 0.387465
O O9 0.872493 0.627891 0.202749
O O10 0.761150 0.518235 0.234273
O O11 0.129879 0.060085 0.142908
O O12 0.357088 0.452302 0.462586
O O13 0.000000 0.000000 0.500000
O O14 0.217898 0.981424 0.888487
O O15 0.287763 0.968341 0.640293
O O16 0.500000 0.500000 0.000000
O O17 0.500000 0.500000 0.500000
O O18 0.433575 0.834303 0.389500
#
# Coordination Sequence:
#
# PCOD8014623 Si02
#       8
#     2   2   2   2   2   2   2   2
#     4  11  23  42  69 101 135 180 228 277 337 407
#     4  10  21  41  69  94 133 178 220 275 336 411
#     4  11  24  45  72 100 137 183 231 279 344 418
#     4  11  25  42  66  98 143 181 225 283 342 400
#     4  12  25  44  71 101 137 184 232 280 341 421
#     4  12  28  45  71 106 138 178 229 301 351 408
#     4  11  25  42  66 100 142 179 228 284 338 403
#     4  10  22  43  69 101 134 178 226 279 336 409
#
# _framework density 22.194269999999999
#
# number of rings (size 3 to 8) (size 9 to 14) (size 15 to 20)
#    0.000    1.000    0.000    7.125    5.250    6.000 
#    0.000    1.250    0.000    0.000    0.000    0.000 
#    0.000    0.000    0.000    0.000    0.000    0.000 
#
# Total GULP energy -198295.006700 kJ/mol
# GULP energy per Si atom -12393.437919 kJ/mol
# Density = 2.214376 g / cm^3
# Si number density = 22.194270 Si / 1000 Ang^3
#
#
#
# Elastic Constant Matrix: (Units=GPa)
#
#
# Indices 1 2 3 4 5 6 
#
# 1 85.4552 7.7532 34.4896 1.0428 1.9209 -8.7865
# 2 7.7532 87.4223 34.5481 10.9775 5.5770 2.0721
# 3 34.4896 34.5481 182.1059 8.8534 12.2873 -8.6712
# 4 1.0428 10.9775 8.8534 36.6337 -10.7183 0.1219
# 5 1.9209 5.5770 12.2873 -10.7183 31.3750 4.5651
# 6 -8.7865 2.0721 -8.6712 0.1219 4.5651 30.2056
#
#
#
# Elastic Compliance Matrix: (Units=1/GPa)
#
#
# Indices 1 2 3 4 5 6 
#
# 1 0.012965 -0.000352 -0.002228 0.000189 -0.000259 0.003194
# 2 -0.000352 0.013016 -0.002069 -0.004190 -0.002745 -0.001158
# 3 -0.002228 -0.002069 0.006687 -0.001819 -0.003009 0.001875
# 4 0.000189 -0.004190 -0.001819 0.032792 0.012979 -0.002274
# 5 -0.000259 -0.002745 -0.003009 0.012979 0.038962 -0.006692
# 6 0.003194 -0.001158 0.001875 -0.002274 -0.006692 0.035674
#
#
# Mechanical properties :
#
#
# Convention : Reuss Voigt Hill
#
# Bulk Modulus (GPa) = 42.79119 56.50726 49.64922
# Shear Modulus (GPa) = 31.80977 38.18901 34.99939
#
# Velocity S-wave (km/s) = 3.78993 4.15260 3.97540
# Velocity P-wave (km/s) = 6.20270 6.96474 6.59474
#
# Compressibility (1/GPa) = 0.02336930
#
# Stress axis : x y z
#
# Youngs Moduli (GPa) = 77.12901 76.82757 149.55304
#
# Poissons Ratio (x) = 0.02705 0.33325
# Poissons Ratio (y) = 0.02716 0.30941
# Poissons Ratio (z) = 0.17187 0.15895
#
# Static dielectric constant tensor:
#      x y z
#    x 3.934960 -0.122700 0.079050 
#    y -0.122700 3.877890 -0.109150 
#    z 0.079050 -0.109150 6.164440 
# 
# 
# High freq. dielectric constant tensor:
#      x y z
#    x 1.878910 -0.011330 0.000520 
#    y -0.011330 1.860700 0.001890 
#    z 0.000520 0.001890 1.907110 
# 
# From -- ./inp_files/283363.got.cif
#   From: 2010.06.25/outbox.cif.g09.slc.cpg/sg2_142_cif.got.tgz:283363.got - 2010.06.27 13:26:56.
