data_PCOD8014344
_publ_section_title
;
Structure prediction by ZEFSAII (Michael W. Deem and Ramdas Pophale) SiO2 
 PCOD8014344
Probable space group: P -1
;
_chemical_formula_sum "Si O2"
_cell_formula_units_Z 14
_cell_length_a 9.250726
_cell_length_b 22.828654
_cell_length_c 8.447909
_cell_angle_alpha 33.536247
_cell_angle_beta 51.794237
_cell_angle_gamma 38.686498
_cell_volume 613.394353
_symmetry_space_group_name_H-M "P -1"
_symmetry_group_IT_number 2
_symmetry_cell_setting 'triclinic'
loop_
_space_group_symop_operation_xyz
x,y,z
-x,-y,-z
loop_
_atom_site_type_symbol
_atom_site_label
_atom_site_fract_x
_atom_site_fract_y
_atom_site_fract_z
Si Si1 0.832075 0.507412 0.387494
Si Si2 0.807399 0.299977 0.718591
Si Si3 0.238544 0.695343 0.624535
Si Si4 0.281309 0.450781 0.270081
Si Si5 0.336261 0.100399 0.749441
Si Si6 0.824903 0.977600 0.244470
Si Si7 0.486877 0.783028 0.846002
O O1 0.733237 0.444209 0.495178
O O2 0.791081 0.495878 0.623207
O O3 0.112587 0.422504 0.369485
O O4 0.706409 0.658991 0.073434
O O5 0.721272 0.300957 0.598379
O O6 0.082704 0.196052 0.782539
O O7 0.680762 0.254598 0.013824
O O8 0.447590 0.680014 0.614407
O O9 0.990508 0.829311 0.545760
O O10 0.247175 0.567582 0.928183
O O11 0.337388 0.017568 0.789736
O O12 0.419486 0.186683 0.438079
O O13 0.500000 0.000000 0.000000
O O14 0.657631 0.084932 0.245931
O O15 0.000000 0.000000 0.000000
#
# Coordination Sequence:
#
# PCOD8014344 Si02
#       7
#     2   2   2   2   2   2   2
#     4  11  23  42  66 100 131 174 221 269 335 392
#     4  11  24  46  66  96 138 176 219 271 334 401
#     4  10  21  41  66  98 130 174 217 271 333 391
#     4  10  22  39  65 101 133 166 222 277 322 392
#     4  11  27  45  67 103 132 172 228 279 330 390
#     4  11  21  45  72  92 133 180 220 269 331 401
#     4  12  24  45  73  93 136 184 218 269 337 400
#
# _framework density 22.823816000000001
#
# number of rings (size 3 to 8) (size 9 to 14) (size 15 to 20)
#    0.000    1.143    4.286    2.571    0.000    7.429 
#    5.143    0.000    0.000    0.000    0.000    0.000 
#    0.000    0.000    0.000    0.000    0.000    0.000 
#
# Total GULP energy -173584.949703 kJ/mol
# GULP energy per Si atom -12398.924979 kJ/mol
# Density = 2.277187 g / cm^3
# Si number density = 22.823816 Si / 1000 Ang^3
#
#
#
# Elastic Constant Matrix: (Units=GPa)
#
#
# Indices 1 2 3 4 5 6 
#
# 1 130.6713 50.6053 60.8486 -10.1587 -10.1626 -35.0202
# 2 50.6053 56.1819 20.1552 -9.1610 2.8495 -15.7272
# 3 60.8486 20.1552 116.0291 7.9951 1.4286 -19.9553
# 4 -10.1587 -9.1610 7.9951 39.2780 -8.6102 -10.7126
# 5 -10.1626 2.8495 1.4286 -8.6102 37.2001 -3.5666
# 6 -35.0202 -15.7272 -19.9553 -10.7126 -3.5666 33.5076
#
#
#
# Elastic Compliance Matrix: (Units=1/GPa)
#
#
# Indices 1 2 3 4 5 6 
#
# 1 0.022373 -0.010562 -0.007615 0.012756 0.012011 0.019247
# 2 -0.010562 0.028953 0.000968 0.004088 -0.003808 0.004029
# 3 -0.007615 0.000968 0.012489 -0.005863 -0.004220 -0.002391
# 4 0.012756 0.004088 -0.005863 0.041611 0.015590 0.026721
# 5 0.012011 -0.003808 -0.004220 0.015590 0.035860 0.017054
# 6 0.019247 0.004029 -0.002391 0.026721 0.017054 0.060786
#
#
# Mechanical properties :
#
#
# Convention : Reuss Voigt Hill
#
# Bulk Modulus (GPa) = 34.01735 62.90006 48.45871
# Shear Modulus (GPa) = 20.30127 33.41534 26.85831
#
# Velocity S-wave (km/s) = 2.98565 3.83045 3.43412
# Velocity P-wave (km/s) = 5.17901 6.86891 6.08293
#
# Compressibility (1/GPa) = 0.02939676
#
# Stress axis : x y z
#
# Youngs Moduli (GPa) = 44.69618 34.53822 80.07199
#
# Poissons Ratio (x) = 0.36479 0.60975
# Poissons Ratio (y) = 0.47208 -0.07748
# Poissons Ratio (z) = 0.34036 -0.03342
#
# Static dielectric constant tensor:
#      x y z
#    x 4.250870 -0.428240 -0.148880 
#    y -0.428240 4.365410 -0.073610 
#    z -0.148880 -0.073610 4.209780 
# 
# 
# High freq. dielectric constant tensor:
#      x y z
#    x 1.901260 -0.027370 -0.010890 
#    y -0.027370 1.899770 -0.000770 
#    z -0.010890 -0.000770 1.903590 
# 
# From -- ./inp_files/225783.got.cif
#   From: 2010.06.25/outbox.cif.g09.slc.cpg/sg2_113_cif.got.tgz:225783.got - 2010.06.27 13:26:56.
