data_PCOD8014952
_publ_section_title
;
Structure prediction by ZEFSAII (Michael W. Deem and Ramdas Pophale) SiO2 
 PCOD8014952
Probable space group: P -1
;
_chemical_formula_sum "Si O2"
_cell_formula_units_Z 14
_cell_length_a 24.119953
_cell_length_b 9.495357
_cell_length_c 15.024232
_cell_angle_alpha 38.440924
_cell_angle_beta 159.822531
_cell_angle_gamma 143.112369
_cell_volume 703.583484
_symmetry_space_group_name_H-M "P -1"
_symmetry_group_IT_number 2
_symmetry_cell_setting 'triclinic'
loop_
_space_group_symop_operation_xyz
x,y,z
-x,-y,-z
loop_
_atom_site_type_symbol
_atom_site_label
_atom_site_fract_x
_atom_site_fract_y
_atom_site_fract_z
Si Si1 0.453320 0.468180 0.306909
Si Si2 0.283220 0.596751 0.392162
Si Si3 0.626589 0.880601 0.480284
Si Si4 0.090671 0.365494 0.768932
Si Si5 0.064702 0.708043 0.245099
Si Si6 0.994744 0.184148 0.093156
Si Si7 0.392844 0.649931 0.722323
O O1 0.585127 0.356168 0.513801
O O2 0.545451 0.743045 0.336613
O O3 0.379324 0.309433 0.358706
O O4 0.291526 0.461429 0.005529
O O5 0.399269 0.614572 0.644344
O O6 0.147692 0.336690 0.308595
O O7 0.183886 0.792737 0.151272
O O8 0.531205 0.071402 0.272381
O O9 0.826216 0.019687 0.698320
O O10 0.059842 0.415644 0.801890
O O11 0.000000 0.500000 0.500000
O O12 0.014534 0.086856 0.774046
O O13 0.197192 0.557001 0.505412
O O14 0.971723 0.716476 0.007014
O O15 0.500000 0.500000 0.000000
#
# Coordination Sequence:
#
# PCOD8014952 Si02
#       7
#     2   2   2   2   2   2   2
#     4  11  22  37  61  95 119 149 208 253 294 350
#     4  10  22  38  68  89 115 158 208 255 286 353
#     4   9  21  38  61  91 111 161 200 247 299 351
#     4  12  25  37  59  93 129 157 194 253 309 351
#     4   9  20  41  60  83 117 167 200 237 295 365
#     4  10  21  42  64  88 117 164 205 242 302 359
#     4   9  20  39  61  82 117 164 198 237 301 361
#
# _framework density 19.898136999999998
#
# number of rings (size 3 to 8) (size 9 to 14) (size 15 to 20)
#    0.857    1.143    1.429    1.286    6.000    3.429 
#    0.000    2.143    0.000    3.429    0.000    0.000 
#    0.000    0.000    0.000    0.000    0.000    0.000 
#
# Total GULP energy -173515.247569 kJ/mol
# GULP energy per Si atom -12393.946255 kJ/mol
# Density = 1.985285 g / cm^3
# Si number density = 19.898137 Si / 1000 Ang^3
#
#
#
# Elastic Constant Matrix: (Units=GPa)
#
#
# Indices 1 2 3 4 5 6 
#
# 1 96.7751 27.3847 36.6552 -5.8458 5.1800 -7.5692
# 2 27.3847 64.1686 25.1967 -15.5932 -10.4747 -12.4242
# 3 36.6552 25.1967 84.3635 -24.3787 0.2502 -1.7860
# 4 -5.8458 -15.5932 -24.3787 24.0926 4.5025 5.6265
# 5 5.1800 -10.4747 0.2502 4.5025 23.6777 3.0869
# 6 -7.5692 -12.4242 -1.7860 5.6265 3.0869 22.5186
#
#
#
# Elastic Compliance Matrix: (Units=1/GPa)
#
#
# Indices 1 2 3 4 5 6 
#
# 1 0.014407 -0.005213 -0.006464 -0.006412 -0.004652 0.003694
# 2 -0.005213 0.023710 -0.002300 0.008226 0.009066 0.007849
# 3 -0.006464 -0.002300 0.021095 0.020329 -0.002850 -0.006457
# 4 -0.006412 0.008226 0.020329 0.070063 -0.006857 -0.012570
# 5 -0.004652 0.009066 -0.002850 -0.006857 0.048827 -0.001767
# 6 0.003694 0.007849 -0.006457 -0.012570 -0.001767 0.052851
#
#
# Mechanical properties :
#
#
# Convention : Reuss Voigt Hill
#
# Bulk Modulus (GPa) = 31.99035 47.08673 39.53854
# Shear Modulus (GPa) = 18.56485 24.46247 21.51366
#
# Velocity S-wave (km/s) = 3.05781 3.51006 3.29171
# Velocity P-wave (km/s) = 5.34592 6.33582 5.86181
#
# Compressibility (1/GPa) = 0.03125943
#
# Stress axis : x y z
#
# Youngs Moduli (GPa) = 69.41019 42.17569 47.40389
#
# Poissons Ratio (x) = 0.21984 0.30641
# Poissons Ratio (y) = 0.36180 0.10905
# Poissons Ratio (z) = 0.44865 0.09702
#
# Static dielectric constant tensor:
#      x y z
#    x 3.593710 -0.332710 0.145820 
#    y -0.332710 3.576480 0.159440 
#    z 0.145820 0.159440 3.509140 
# 
# 
# High freq. dielectric constant tensor:
#      x y z
#    x 1.770120 -0.025200 0.016960 
#    y -0.025200 1.760020 0.007610 
#    z 0.016960 0.007610 1.772710 
# 
# From -- ./inp_files/380458.got.cif
#   From: 2010.06.25/outbox.cif.g09.slc.cpg/sg2_191_cif.got.tgz:380458.got - 2010.06.27 13:26:56.
