data_PCOD8014474
_publ_section_title
;
Structure prediction by ZEFSAII (Michael W. Deem and Ramdas Pophale) SiO2 
 PCOD8014474
Probable space group: P -1
;
_chemical_formula_sum "Si O2"
_cell_formula_units_Z 14
_cell_length_a 14.047051
_cell_length_b 11.957672
_cell_length_c 9.309409
_cell_angle_alpha 56.643330
_cell_angle_beta 56.842760
_cell_angle_gamma 30.408024
_cell_volume 651.235789
_symmetry_space_group_name_H-M "P -1"
_symmetry_group_IT_number 2
_symmetry_cell_setting 'triclinic'
loop_
_space_group_symop_operation_xyz
x,y,z
-x,-y,-z
loop_
_atom_site_type_symbol
_atom_site_label
_atom_site_fract_x
_atom_site_fract_y
_atom_site_fract_z
Si Si1 0.305565 0.279423 0.823330
Si Si2 0.965128 0.041902 0.830006
Si Si3 0.680032 0.233867 0.711863
Si Si4 0.254884 0.620272 0.695999
Si Si5 0.255173 0.108461 0.214317
Si Si6 0.717593 0.782674 0.426201
Si Si7 0.974000 0.711303 0.444475
O O1 0.204381 0.520020 0.748729
O O2 0.257045 0.245107 0.744850
O O3 0.529982 0.094344 0.762869
O O4 0.226520 0.263762 0.027801
O O5 0.750000 0.212805 0.829142
O O6 0.016736 0.139536 0.663949
O O7 0.100010 0.807649 0.807679
O O8 0.000000 0.000000 0.000000
O O9 0.452697 0.435472 0.752170
O O10 0.748226 0.277952 0.508179
O O11 0.782074 0.996523 0.760738
O O12 0.108930 0.265826 0.353707
O O13 0.829211 0.808327 0.368551
O O14 0.818898 0.552583 0.569496
O O15 0.500000 0.000000 0.500000
#
# Coordination Sequence:
#
# PCOD8014474 Si02
#       7
#     2   2   2   2   2   2   2
#     4  10  22  40  69 101 128 169 215 281 324 387
#     4  12  27  43  64 100 136 174 224 275 327 397
#     4  10  22  42  68  95 129 178 221 271 327 393
#     4  10  22  43  72  96 127 174 225 270 335 392
#     4  10  21  41  67  98 129 164 229 267 325 392
#     4  11  24  43  67  95 137 175 211 272 340 387
#     4  11  25  43  65  97 130 178 224 265 329 403
#
# _framework density 21.497591
#
# number of rings (size 3 to 8) (size 9 to 14) (size 15 to 20)
#    0.000    1.429    2.857    1.286    4.000    4.571 
#    2.571    0.000    0.000    0.000    0.000    0.000 
#    0.000    0.000    0.000    0.000    0.000    0.000 
#
# Total GULP energy -173601.561734 kJ/mol
# GULP energy per Si atom -12400.111552 kJ/mol
# Density = 2.144866 g / cm^3
# Si number density = 21.497591 Si / 1000 Ang^3
#
#
#
# Elastic Constant Matrix: (Units=GPa)
#
#
# Indices 1 2 3 4 5 6 
#
# 1 140.1225 40.8890 49.9720 -2.5642 19.8923 13.3222
# 2 40.8890 118.4516 31.7077 1.9362 -4.9645 3.1948
# 3 49.9720 31.7077 78.4565 4.8450 -1.4327 -3.0901
# 4 -2.5642 1.9362 4.8450 24.4570 8.8642 2.3913
# 5 19.8923 -4.9645 -1.4327 8.8642 41.4955 -13.8635
# 6 13.3222 3.1948 -3.0901 2.3913 -13.8635 27.1444
#
#
#
# Elastic Compliance Matrix: (Units=1/GPa)
#
#
# Indices 1 2 3 4 5 6 
#
# 1 0.016676 -0.003194 -0.011199 0.012606 -0.017920 -0.019346
# 2 -0.003194 0.010156 -0.001745 -0.002498 0.004041 0.002458
# 3 -0.011199 -0.001745 0.022238 -0.012132 0.014019 0.016462
# 4 0.012606 -0.002498 -0.012132 0.057542 -0.027945 -0.026616
# 5 -0.017920 0.004041 0.014019 -0.027945 0.052765 0.039326
# 6 -0.019346 0.002458 0.016462 -0.026616 0.039326 0.070349
#
#
# Mechanical properties :
#
#
# Convention : Reuss Voigt Hill
#
# Bulk Modulus (GPa) = 59.54485 64.68532 62.11509
# Shear Modulus (GPa) = 18.68458 32.91682 25.80070
#
# Velocity S-wave (km/s) = 2.95133 3.91728 3.46810
# Velocity P-wave (km/s) = 6.27474 7.11442 6.70773
#
# Compressibility (1/GPa) = 0.01679406
#
# Stress axis : x y z
#
# Youngs Moduli (GPa) = 59.96466 98.46444 44.96900
#
# Poissons Ratio (x) = 0.31452 0.50359
# Poissons Ratio (y) = 0.19154 0.07847
# Poissons Ratio (z) = 0.67152 0.17183
#
# Static dielectric constant tensor:
#      x y z
#    x 4.263930 -0.060910 0.120380 
#    y -0.060910 4.032780 -0.166660 
#    z 0.120380 -0.166660 3.600870 
# 
# 
# High freq. dielectric constant tensor:
#      x y z
#    x 1.868530 -0.001770 0.007060 
#    y -0.001770 1.854960 -0.011550 
#    z 0.007060 -0.011550 1.821160 
# 
# From -- ./inp_files/261385.got.cif
#   From: 2010.06.25/outbox.cif.g09.slc.cpg/sg2_131_cif.got.tgz:261385.got - 2010.06.27 13:26:56.
