data_PCOD8014904
_publ_section_title
;
Structure prediction by ZEFSAII (Michael W. Deem and Ramdas Pophale) SiO2 
 PCOD8014904
Probable space group: P -1
;
_chemical_formula_sum "Si O2"
_cell_formula_units_Z 16
_cell_length_a 22.107473
_cell_length_b 6.952785
_cell_length_c 18.637271
_cell_angle_alpha 116.664882
_cell_angle_beta 162.019949
_cell_angle_gamma 62.828456
_cell_volume 785.621918
_symmetry_space_group_name_H-M "P -1"
_symmetry_group_IT_number 2
_symmetry_cell_setting 'triclinic'
loop_
_space_group_symop_operation_xyz
x,y,z
-x,-y,-z
loop_
_atom_site_type_symbol
_atom_site_label
_atom_site_fract_x
_atom_site_fract_y
_atom_site_fract_z
Si Si1 0.236193 0.572658 0.351541
Si Si2 0.083433 0.754303 0.064901
Si Si3 0.711198 0.910459 0.999570
Si Si4 0.090212 0.737930 0.805121
Si Si5 0.959966 0.719501 0.381040
Si Si6 0.731948 0.047090 0.450648
Si Si7 0.681100 0.455013 0.833883
Si Si8 0.269669 0.988586 0.725452
O O1 0.192888 0.729089 0.260448
O O2 0.214967 0.720040 0.423424
O O3 0.449833 0.442060 0.567756
O O4 0.093520 0.389992 0.163817
O O5 0.238817 0.672644 0.166496
O O6 0.000000 0.000000 0.000000
O O7 0.485947 0.993093 0.778368
O O8 0.725771 0.705711 0.927473
O O9 0.824251 0.846406 0.189112
O O10 0.801495 0.106477 0.097311
O O11 0.036038 0.536372 0.663228
O O12 0.233991 0.666011 0.019950
O O13 0.886782 0.858866 0.627413
O O14 0.858883 0.791977 0.355281
O O15 0.182572 0.788904 0.635981
O O16 0.765661 0.042915 0.403248
O O17 0.500000 0.000000 0.000000
#
# Coordination Sequence:
#
# PCOD8014904 Si02
#       8
#     2   2   2   2   2   2   2   2
#     4  10  24  42  63  94 127 165 208 256 310 379
#     4  11  23  41  66  95 127 162 210 256 312 369
#     4  10  21  42  63  91 126 164 211 257 314 376
#     4  11  23  39  63  96 123 165 212 264 306 374
#     4  10  23  41  62  90 125 165 208 263 316 366
#     4  11  22  41  66  90 125 170 208 260 318 371
#     4  10  23  40  65  92 128 168 204 257 316 366
#     4  11  22  41  67  89 127 169 211 258 318 371
#
# _framework density 20.366032000000001
#
# number of rings (size 3 to 8) (size 9 to 14) (size 15 to 20)
#    0.000    1.500    2.500    1.875    1.750    6.000 
#    0.000    1.250    0.000    0.000    0.000    0.000 
#    0.000    0.000    0.000    0.000    0.000    0.000 
#
# Total GULP energy -198423.605698 kJ/mol
# GULP energy per Si atom -12401.475356 kJ/mol
# Density = 2.031968 g / cm^3
# Si number density = 20.366032 Si / 1000 Ang^3
#
#
#
# Elastic Constant Matrix: (Units=GPa)
#
#
# Indices 1 2 3 4 5 6 
#
# 1 176.6052 82.8134 15.7431 9.7467 -3.4797 -42.9494
# 2 82.8134 136.5550 36.4755 -1.8315 12.3243 -18.5289
# 3 15.7431 36.4755 148.3802 -20.9651 18.7075 -0.9562
# 4 9.7467 -1.8315 -20.9651 31.9609 -7.8823 -4.7617
# 5 -3.4797 12.3243 18.7075 -7.8823 33.7866 -0.2939
# 6 -42.9494 -18.5289 -0.9562 -4.7617 -0.2939 36.8355
#
#
#
# Elastic Compliance Matrix: (Units=1/GPa)
#
#
# Indices 1 2 3 4 5 6 
#
# 1 0.010692 -0.005381 -0.000356 -0.001648 0.002960 0.009561
# 2 -0.005381 0.011294 -0.001723 0.000151 -0.003690 -0.000648
# 3 -0.000356 -0.001723 0.008213 0.004612 -0.002884 -0.000495
# 4 -0.001648 0.000151 0.004612 0.036716 0.005814 0.003067
# 5 0.002960 -0.003690 -0.002884 0.005814 0.034224 0.002544
# 6 0.009561 -0.000648 -0.000495 0.003067 0.002544 0.038374
#
#
# Mechanical properties :
#
#
# Convention : Reuss Voigt Hill
#
# Bulk Modulus (GPa) = 65.45058 81.28936 73.36997
# Shear Modulus (GPa) = 31.34340 42.28383 36.81361
#
# Velocity S-wave (km/s) = 3.92727 4.56147 4.25620
# Velocity P-wave (km/s) = 7.26440 8.23065 7.76257
#
# Compressibility (1/GPa) = 0.01527870
#
# Stress axis : x y z
#
# Youngs Moduli (GPa) = 93.53094 88.54587 121.76095
#
# Poissons Ratio (x) = 0.47644 0.04335
# Poissons Ratio (y) = 0.50326 0.20978
# Poissons Ratio (z) = 0.03330 0.15256
#
# Static dielectric constant tensor:
#      x y z
#    x 3.875650 -0.127570 -0.123470 
#    y -0.127570 3.841250 -0.190430 
#    z -0.123470 -0.190430 4.140320 
# 
# 
# High freq. dielectric constant tensor:
#      x y z
#    x 1.803680 -0.015800 0.000060 
#    y -0.015800 1.790870 0.002900 
#    z 0.000060 0.002900 1.814580 
# 
# From -- ./inp_files/112469.got.cif
#   From: 2010.06.25/outbox.cif.g09.slc.cpg/sg2_57_cif.got.tgz:112469.got - 2010.06.27 13:26:56.
