data_PCOD8014910
_publ_section_title
;
Structure prediction by ZEFSAII (Michael W. Deem and Ramdas Pophale) SiO2 
 PCOD8014910
Probable space group: P -1
;
_chemical_formula_sum "Si O2"
_cell_formula_units_Z 16
_cell_length_a 7.890624
_cell_length_b 14.395251
_cell_length_c 9.150669
_cell_angle_alpha 113.383367
_cell_angle_beta 53.734414
_cell_angle_gamma 89.173103
_cell_volume 724.302811
_symmetry_space_group_name_H-M "P -1"
_symmetry_group_IT_number 2
_symmetry_cell_setting 'triclinic'
loop_
_space_group_symop_operation_xyz
x,y,z
-x,-y,-z
loop_
_atom_site_type_symbol
_atom_site_label
_atom_site_fract_x
_atom_site_fract_y
_atom_site_fract_z
Si Si1 0.706921 0.276276 0.945388
Si Si2 0.961298 0.168286 0.307465
Si Si3 0.916441 0.352165 0.643263
Si Si4 0.649888 0.223118 0.248800
Si Si5 0.543544 0.491010 0.717503
Si Si6 0.270656 0.440573 0.599383
Si Si7 0.234519 0.922660 0.392293
Si Si8 0.411164 0.001182 0.882808
O O1 0.902807 0.302719 0.777959
O O2 0.648780 0.186172 0.826597
O O3 0.786212 0.227660 0.034294
O O4 0.499809 0.388254 0.127935
O O5 0.048241 0.249095 0.411192
O O6 0.789365 0.242549 0.325485
O O7 0.823495 0.106261 0.432856
O O8 0.164655 0.089097 0.062143
O O9 0.673650 0.409854 0.727341
O O10 0.024845 0.442968 0.679655
O O11 0.414645 0.316819 0.421009
O O12 0.609454 0.111573 0.218305
O O13 0.312772 0.473104 0.766170
O O14 0.684201 0.474838 0.484155
O O15 0.422792 0.979293 0.313748
O O16 0.000000 0.000000 0.500000
O O17 0.500000 0.000000 0.000000
#
# Coordination Sequence:
#
# PCOD8014910 Si02
#       8
#     2   2   2   2   2   2   2   2
#     4  10  23  39  65  92 130 168 211 276 323 380
#     4  11  24  41  65  97 134 169 221 271 325 391
#     4  11  22  41  66  94 127 174 215 264 330 388
#     4  11  22  43  62  93 133 169 214 274 325 386
#     4  10  21  42  63  92 129 169 214 269 321 384
#     4  10  22  39  66  93 127 168 215 264 327 385
#     4  11  23  42  65  97 129 170 222 270 325 389
#     4  12  22  40  69  93 127 178 218 262 331 391
#
# _framework density 22.090208000000001
#
# number of rings (size 3 to 8) (size 9 to 14) (size 15 to 20)
#    0.000    1.250    3.750    1.875    3.500    1.000 
#    2.250    0.000    0.000    0.000    0.000    0.000 
#    0.000    0.000    0.000    0.000    0.000    0.000 
#
# Total GULP energy -198240.907377 kJ/mol
# GULP energy per Si atom -12390.056711 kJ/mol
# Density = 2.203993 g / cm^3
# Si number density = 22.090208 Si / 1000 Ang^3
#
#
#
# Elastic Constant Matrix: (Units=GPa)
#
#
# Indices 1 2 3 4 5 6 
#
# 1 97.9896 34.5413 25.1488 -15.7874 9.3014 4.7226
# 2 34.5413 107.0365 36.6336 -5.7493 3.7625 5.4556
# 3 25.1488 36.6336 81.8973 -6.8775 -2.1448 -0.9148
# 4 -15.7874 -5.7493 -6.8775 42.7338 -0.2190 3.4325
# 5 9.3014 3.7625 -2.1448 -0.2190 17.0167 -0.5441
# 6 4.7226 5.4556 -0.9148 3.4325 -0.5441 31.2170
#
#
#
# Elastic Compliance Matrix: (Units=1/GPa)
#
#
# Indices 1 2 3 4 5 6 
#
# 1 0.013342 -0.002794 -0.002698 0.004260 -0.007031 -0.002200
# 2 -0.002794 0.011958 -0.004559 -0.000019 -0.001750 -0.001829
# 3 -0.002698 -0.004559 0.015276 0.000739 0.004470 0.001649
# 4 0.004260 -0.000019 0.000739 0.025357 -0.002015 -0.003443
# 5 -0.007031 -0.001750 0.004470 -0.002015 0.063624 0.002831
# 6 -0.002200 -0.001829 0.001649 -0.003443 0.002831 0.033163
#
#
# Mechanical properties :
#
#
# Convention : Reuss Voigt Hill
#
# Bulk Modulus (GPa) = 48.84296 53.28564 51.06430
# Shear Modulus (GPa) = 26.36481 30.90014 28.63247
#
# Velocity S-wave (km/s) = 3.45846 3.74413 3.60413
# Velocity P-wave (km/s) = 6.17306 6.54718 6.36287
#
# Compressibility (1/GPa) = 0.02047378
#
# Stress axis : x y z
#
# Youngs Moduli (GPa) = 74.94977 83.62380 65.46296
#
# Poissons Ratio (x) = 0.23365 0.17664
# Poissons Ratio (y) = 0.20941 0.29844
# Poissons Ratio (z) = 0.20223 0.38124
#
# Static dielectric constant tensor:
#      x y z
#    x 3.907370 0.057090 0.170190 
#    y 0.057090 4.194500 -0.062450 
#    z 0.170190 -0.062450 4.086350 
# 
# 
# High freq. dielectric constant tensor:
#      x y z
#    x 1.846260 -0.000910 0.016610 
#    y -0.000910 1.887240 0.006240 
#    z 0.016610 0.006240 1.861660 
# 
# From -- ./inp_files/202877.got.cif
#   From: 2010.06.25/outbox.cif.g09.slc.cpg/sg2_102_cif.got.tgz:202877.got - 2010.06.27 13:26:56.
