data_PCOD8014982
_publ_section_title
;
Structure prediction by ZEFSAII (Michael W. Deem and Ramdas Pophale) SiO2 
 PCOD8014982
Probable space group: P -1
;
_chemical_formula_sum "Si O2"
_cell_formula_units_Z 16
_cell_length_a 14.664826
_cell_length_b 15.147134
_cell_length_c 14.699700
_cell_angle_alpha 151.850674
_cell_angle_beta 28.220651
_cell_angle_gamma 142.509095
_cell_volume 726.425459
_symmetry_space_group_name_H-M "P -1"
_symmetry_group_IT_number 2
_symmetry_cell_setting 'triclinic'
loop_
_space_group_symop_operation_xyz
x,y,z
-x,-y,-z
loop_
_atom_site_type_symbol
_atom_site_label
_atom_site_fract_x
_atom_site_fract_y
_atom_site_fract_z
Si Si1 0.618837 0.166098 0.817535
Si Si2 0.719371 0.448891 0.322791
Si Si3 0.728275 0.160328 0.372230
Si Si4 0.493683 0.785406 0.841104
Si Si5 0.908767 0.610115 0.759880
Si Si6 0.886839 0.496414 0.877361
Si Si7 0.465862 0.244257 0.833479
Si Si8 0.539253 0.737231 0.460456
O O1 0.831362 0.273870 0.738505
O O2 0.513655 0.266133 0.917585
O O3 0.633507 0.946031 0.589938
O O4 0.501221 0.212230 0.052481
O O5 0.675810 0.667640 0.544078
O O6 0.695021 0.330043 0.142113
O O7 0.562610 0.353799 0.444296
O O8 0.936136 0.435193 0.152137
O O9 0.663208 0.250627 0.607507
O O10 0.615661 0.255809 0.476854
O O11 0.959092 0.191331 0.179794
O O12 0.671232 0.942711 0.231545
O O13 0.500000 0.000000 0.000000
O O14 0.945574 0.520505 0.743136
O O15 0.000000 0.500000 0.500000
O O16 0.677746 0.605316 0.940684
O O17 0.710415 0.617801 0.168278
#
# Coordination Sequence:
#
# PCOD8014982 Si02
#       8
#     2   2   2   2   2   2   2   2
#     4  11  25  44  69 100 137 179 227 281 337 393
#     4  11  25  46  74 100 133 179 223 275 350 395
#     4  10  21  42  64  92 135 182 221 268 327 396
#     4  11  24  47  75  99 133 176 226 284 339 401
#     4  12  25  37  64 100 136 177 226 267 331 398
#     4  12  26  44  69 104 140 175 223 281 330 409
#     4  10  23  41  64  95 136 178 222 271 327 396
#     4  11  22  46  71  96 140 182 219 276 339 398
#
# _framework density 22.025659000000001
#
# number of rings (size 3 to 8) (size 9 to 14) (size 15 to 20)
#    0.000    1.000    5.000    1.125    3.500    2.500 
#    2.250    1.250    0.000    0.000    0.000    0.000 
#    0.000    0.000    0.000    0.000    0.000    0.000 
#
# Total GULP energy -198337.034533 kJ/mol
# GULP energy per Si atom -12396.064658 kJ/mol
# Density = 2.197553 g / cm^3
# Si number density = 22.025659 Si / 1000 Ang^3
#
#
#
# Elastic Constant Matrix: (Units=GPa)
#
#
# Indices 1 2 3 4 5 6 
#
# 1 122.8091 0.7998 30.5485 -1.6588 12.3432 3.7110
# 2 0.7998 73.3293 14.5631 7.2926 6.6601 8.7785
# 3 30.5485 14.5631 56.0900 5.6135 9.1231 9.7610
# 4 -1.6588 7.2926 5.6135 40.3286 2.5132 -3.8281
# 5 12.3432 6.6601 9.1231 2.5132 37.2791 -2.8523
# 6 3.7110 8.7785 9.7610 -3.8281 -2.8523 32.0229
#
#
#
# Elastic Compliance Matrix: (Units=1/GPa)
#
#
# Indices 1 2 3 4 5 6 
#
# 1 0.009688 0.001018 -0.005331 0.001106 -0.002147 0.000164
# 2 0.001018 0.015180 -0.003196 -0.002471 -0.002392 -0.003814
# 3 -0.005331 -0.003196 0.023615 -0.003308 -0.003712 -0.006431
# 4 0.001106 -0.002471 -0.003308 0.026223 -0.000528 0.004645
# 5 -0.002147 -0.002392 -0.003712 -0.000528 0.029257 0.004579
# 6 0.000164 -0.003814 -0.006431 0.004645 0.004579 0.035177
#
#
# Mechanical properties :
#
#
# Convention : Reuss Voigt Hill
#
# Bulk Modulus (GPa) = 29.88002 38.22790 34.05396
# Shear Modulus (GPa) = 30.24556 35.68058 32.96307
#
# Velocity S-wave (km/s) = 3.70969 4.02923 3.87276
# Velocity P-wave (km/s) = 5.65195 6.24820 5.95754
#
# Compressibility (1/GPa) = 0.03346718
#
# Stress axis : x y z
#
# Youngs Moduli (GPa) = 103.22189 65.87476 42.34516
#
# Poissons Ratio (x) = -0.06709 0.22573
# Poissons Ratio (y) = -0.10512 0.13533
# Poissons Ratio (z) = 0.55025 0.21053
#
# Static dielectric constant tensor:
#      x y z
#    x 4.127960 0.215300 0.219160 
#    y 0.215300 4.523190 -0.017980 
#    z 0.219160 -0.017980 3.768330 
# 
# 
# High freq. dielectric constant tensor:
#      x y z
#    x 1.880620 0.001350 0.015390 
#    y 0.001350 1.883050 0.013140 
#    z 0.015390 0.013140 1.851170 
# 
# From -- ./inp_files/533893.got.cif
#   From: 2010.06.25/outbox.cif.g09.slc.cpg/sg2_267_cif.got.tgz:533893.got - 2010.06.27 13:26:56.
