data_PCOD8014503
_publ_section_title
;
Structure prediction by ZEFSAII (Michael W. Deem and Ramdas Pophale) SiO2 
 PCOD8014503
Probable space group: P -1
;
_chemical_formula_sum "Si O2"
_cell_formula_units_Z 14
_cell_length_a 13.777315
_cell_length_b 24.161100
_cell_length_c 16.745301
_cell_angle_alpha 16.274046
_cell_angle_beta 149.833938
_cell_angle_gamma 155.943683
_cell_volume 633.226485
_symmetry_space_group_name_H-M "P -1"
_symmetry_group_IT_number 2
_symmetry_cell_setting 'triclinic'
loop_
_space_group_symop_operation_xyz
x,y,z
-x,-y,-z
loop_
_atom_site_type_symbol
_atom_site_label
_atom_site_fract_x
_atom_site_fract_y
_atom_site_fract_z
Si Si1 0.874675 0.566394 0.488139
Si Si2 0.350820 0.233522 0.301864
Si Si3 0.458632 0.884627 0.215747
Si Si4 0.971984 0.699101 0.739864
Si Si5 0.333212 0.934470 0.211892
Si Si6 0.017103 0.740627 0.898785
Si Si7 0.494325 0.564277 0.316350
O O1 0.705295 0.404069 0.518034
O O2 0.739550 0.638786 0.347928
O O3 0.090878 0.806372 0.265863
O O4 0.973547 0.446720 0.778647
O O5 0.563147 0.225544 0.497639
O O6 0.171970 0.216453 0.263009
O O7 0.500000 0.500000 0.000000
O O8 0.185811 0.985183 0.474138
O O9 0.316813 0.957783 0.071194
O O10 0.721811 0.997015 0.283508
O O11 0.500000 0.000000 0.000000
O O12 0.731924 0.648687 0.600192
O O13 0.941507 0.643203 0.890104
O O14 0.000000 0.500000 0.000000
O O15 0.511500 0.199532 0.012125
O O16 0.500000 0.500000 0.500000
#
# Coordination Sequence:
#
# PCOD8014503 Si02
#       7
#     2   2   2   2   2   2   2
#     4  11  24  43  69 102 142 181 230 293 357 409
#     4  12  25  45  71 107 144 179 234 292 356 415
#     4  10  21  41  68 101 132 181 232 278 339 415
#     4  12  24  47  75 101 137 188 237 290 346 419
#     4  12  24  46  68 101 145 183 231 294 351 415
#     4  11  23  44  72 101 136 186 240 286 344 425
#     4  12  26  48  71 102 137 187 239 285 350 427
#
# _framework density 22.108993000000002
#
# number of rings (size 3 to 8) (size 9 to 14) (size 15 to 20)
#    0.000    0.571    4.286    4.714    2.000    1.143 
#    2.571    4.286    0.000    0.000    0.000    0.000 
#    0.000    0.000    0.000    0.000    0.000    0.000 
#
# Total GULP energy -173448.696786 kJ/mol
# GULP energy per Si atom -12389.192628 kJ/mol
# Density = 2.205867 g / cm^3
# Si number density = 22.108993 Si / 1000 Ang^3
#
#
#
# Elastic Constant Matrix: (Units=GPa)
#
#
# Indices 1 2 3 4 5 6 
#
# 1 169.6996 71.9989 45.6981 -11.0724 2.1547 2.6915
# 2 71.9989 127.5399 47.2653 -9.6046 -11.2226 -15.1360
# 3 45.6981 47.2653 107.2230 -21.3052 10.0233 0.6184
# 4 -11.0724 -9.6046 -21.3052 42.6658 6.5238 2.1611
# 5 2.1547 -11.2226 10.0233 6.5238 40.5876 -4.1668
# 6 2.6915 -15.1360 0.6184 2.1611 -4.1668 41.1227
#
#
#
# Elastic Compliance Matrix: (Units=1/GPa)
#
#
# Indices 1 2 3 4 5 6 
#
# 1 0.008292 -0.004659 -0.001099 0.000965 -0.001867 -0.002481
# 2 -0.004659 0.013393 -0.004893 -0.001872 0.006078 0.006022
# 3 -0.001099 -0.004893 0.013848 0.006604 -0.006074 -0.002900
# 4 0.000965 -0.001872 0.006604 0.027784 -0.006975 -0.003018
# 5 -0.001867 0.006078 -0.006074 -0.006975 0.029636 0.005820
# 6 -0.002481 0.006022 -0.002900 -0.003018 0.005820 0.027488
#
#
# Mechanical properties :
#
#
# Convention : Reuss Voigt Hill
#
# Bulk Modulus (GPa) = 70.27500 81.59856 75.93678
# Shear Modulus (GPa) = 34.13243 40.84191 37.48717
#
# Velocity S-wave (km/s) = 3.93342 4.30268 4.12219
# Velocity P-wave (km/s) = 7.24457 7.85313 7.55498
#
# Compressibility (1/GPa) = 0.01422981
#
# Stress axis : x y z
#
# Youngs Moduli (GPa) = 120.60229 74.66693 72.21057
#
# Poissons Ratio (x) = 0.34791 0.07939
# Poissons Ratio (y) = 0.56194 0.35331
# Poissons Ratio (z) = 0.13259 0.36532
#
# Static dielectric constant tensor:
#      x y z
#    x 4.608160 -0.816290 -0.035080 
#    y -0.816290 6.089580 -0.277690 
#    z -0.035080 -0.277690 4.437490 
# 
# 
# High freq. dielectric constant tensor:
#      x y z
#    x 1.887180 0.001850 0.005350 
#    y 0.001850 1.871890 -0.002450 
#    z 0.005350 -0.002450 1.870600 
# 
# From -- ./inp_files/244286.got.cif
#   From: 2010.06.25/outbox.cif.g09.slc.cpg/sg2_123_cif.got.tgz:244286.got - 2010.06.27 13:26:56.
