data_PCOD8014209
_publ_section_title
;
Structure prediction by ZEFSAII (Michael W. Deem and Ramdas Pophale) SiO2 
 PCOD8014209
Probable space group: P -1
;
_chemical_formula_sum "Si O2"
_cell_formula_units_Z 16
_cell_length_a 10.113690
_cell_length_b 13.302727
_cell_length_c 9.249225
_cell_angle_alpha 57.393808
_cell_angle_beta 66.894028
_cell_angle_gamma 103.214406
_cell_volume 793.571387
_symmetry_space_group_name_H-M "P -1"
_symmetry_group_IT_number 2
_symmetry_cell_setting 'triclinic'
loop_
_space_group_symop_operation_xyz
x,y,z
-x,-y,-z
loop_
_atom_site_type_symbol
_atom_site_label
_atom_site_fract_x
_atom_site_fract_y
_atom_site_fract_z
Si Si1 0.418019 0.085318 0.431152
Si Si2 0.236309 0.113462 0.743669
Si Si3 0.588437 0.377699 0.006278
Si Si4 0.089777 0.917475 0.506123
Si Si5 0.078997 0.895283 0.214504
Si Si6 0.883352 0.562629 0.502699
Si Si7 0.300299 0.380260 0.692549
Si Si8 0.741253 0.634310 0.941515
O O1 0.387962 0.151609 0.536444
O O2 0.500000 0.000000 0.500000
O O3 0.237713 0.967419 0.521882
O O4 0.557035 0.222359 0.166235
O O5 0.274823 0.242890 0.730053
O O6 0.067577 0.069545 0.755836
O O7 0.207117 0.981429 0.957627
O O8 0.715198 0.462817 0.752553
O O9 0.672671 0.473450 0.041368
O O10 0.394052 0.334556 0.091342
O O11 0.177099 0.953959 0.280520
O O12 0.936936 0.746157 0.712387
O O13 0.000000 0.000000 0.500000
O O14 0.001954 0.726648 0.377907
O O15 0.811191 0.565061 0.373909
O O16 0.000000 0.500000 0.500000
O O17 0.500000 0.500000 0.500000
O O18 0.245264 0.347917 0.906607
#
# Coordination Sequence:
#
# PCOD8014209 Si02
#       8
#     2   2   2   2   2   2   2   2
#     4  12  28  44  64  98 140 173 208 274 341 387
#     4  10  22  40  65  93 130 166 217 271 320 376
#     4  11  23  44  67  96 137 168 218 279 328 379
#     4  12  21  40  68  98 124 171 229 259 315 396
#     4  10  21  41  65  96 123 171 225 266 310 384
#     4  11  25  42  65  95 138 175 209 268 337 389
#     4  11  22  40  65  97 125 167 223 268 318 381
#     4  11  22  40  72 100 122 170 230 277 310 381
#
# _framework density 20.162016999999999
#
# number of rings (size 3 to 8) (size 9 to 14) (size 15 to 20)
#    0.000    1.000    5.000    1.500    8.750    0.000 
#    4.500    1.875    0.000    0.000    0.000    0.000 
#    0.000    0.000    0.000    0.000    0.000    0.000 
#
# Total GULP energy -198360.122872 kJ/mol
# GULP energy per Si atom -12397.507680 kJ/mol
# Density = 2.011613 g / cm^3
# Si number density = 20.162017 Si / 1000 Ang^3
#
#
#
# Elastic Constant Matrix: (Units=GPa)
#
#
# Indices 1 2 3 4 5 6 
#
# 1 110.4969 60.7040 30.9590 -9.0255 13.4712 5.9513
# 2 60.7040 94.0916 47.2051 -0.2158 16.0137 14.5231
# 3 30.9590 47.2051 112.8749 -12.1963 14.1722 5.6561
# 4 -9.0255 -0.2158 -12.1963 42.4899 3.4448 6.8875
# 5 13.4712 16.0137 14.1722 3.4448 26.8909 -1.3326
# 6 5.9513 14.5231 5.6561 6.8875 -1.3326 30.8306
#
#
#
# Elastic Compliance Matrix: (Units=1/GPa)
#
#
# Indices 1 2 3 4 5 6 
#
# 1 0.014562 -0.009351 0.000541 0.003289 -0.002400 0.000656
# 2 -0.009351 0.021450 -0.005600 -0.001914 -0.005243 -0.007071
# 3 0.000541 -0.005600 0.011993 0.003952 -0.003798 -0.000714
# 4 0.003289 -0.001914 0.003952 0.026972 -0.006381 -0.006760
# 5 -0.002400 -0.005243 -0.003798 -0.006381 0.044677 0.006986
# 6 0.000656 -0.007071 -0.000714 -0.006760 0.006986 0.037582
#
#
# Mechanical properties :
#
#
# Convention : Reuss Voigt Hill
#
# Bulk Modulus (GPa) = 52.12855 66.13329 59.13092
# Shear Modulus (GPa) = 25.98075 31.94863 28.96469
#
# Velocity S-wave (km/s) = 3.59360 3.98502 3.79436
# Velocity P-wave (km/s) = 6.56731 7.35159 6.97049
#
# Compressibility (1/GPa) = 0.01918335
#
# Stress axis : x y z
#
# Youngs Moduli (GPa) = 68.67321 46.62096 83.38428
#
# Poissons Ratio (x) = 0.43596 -0.04508
# Poissons Ratio (y) = 0.64218 0.46693
# Poissons Ratio (z) = -0.03712 0.26106
#
# Static dielectric constant tensor:
#      x y z
#    x 2.948560 -0.200960 0.728740 
#    y -0.200960 3.354290 0.366980 
#    z 0.728740 0.366980 2.639720 
# 
# 
# High freq. dielectric constant tensor:
#      x y z
#    x 1.762900 0.019060 0.011600 
#    y 0.019060 1.791040 -0.004890 
#    z 0.011600 -0.004890 1.804880 
# 
# From -- ./inp_files/205544.got.cif
#   From: 2010.06.25/outbox.cif.g09.slc.cpg/sg2_103_cif.got.tgz:205544.got - 2010.06.27 13:26:56.
