data_PCOD8014125
_publ_section_title
;
Structure prediction by ZEFSAII (Michael W. Deem and Ramdas Pophale) SiO2 
 PCOD8014125
Probable space group: P -1
;
_chemical_formula_sum "Si O2"
_cell_formula_units_Z 12
_cell_length_a 22.062162
_cell_length_b 9.582854
_cell_length_c 11.326817
_cell_angle_alpha 43.751723
_cell_angle_beta 145.599670
_cell_angle_gamma 153.782005
_cell_volume 596.175329
_symmetry_space_group_name_H-M "P -1"
_symmetry_group_IT_number 2
_symmetry_cell_setting 'triclinic'
loop_
_space_group_symop_operation_xyz
x,y,z
-x,-y,-z
loop_
_atom_site_type_symbol
_atom_site_label
_atom_site_fract_x
_atom_site_fract_y
_atom_site_fract_z
Si Si1 0.825681 0.319528 0.383738
Si Si2 0.416789 0.805562 0.366798
Si Si3 0.541056 0.582823 0.378456
Si Si4 0.223822 0.308802 0.915711
Si Si5 0.255092 0.593399 0.577593
Si Si6 0.916098 0.591738 0.831254
O O1 0.779960 0.474661 0.160576
O O2 0.837246 0.365446 0.517270
O O3 0.000000 0.500000 0.500000
O O4 0.680007 0.950396 0.345251
O O5 0.390295 0.527248 0.494563
O O6 0.230973 0.637927 0.165293
O O7 0.500000 0.000000 0.500000
O O8 0.545353 0.060394 0.315497
O O9 0.500000 0.500000 0.500000
O O10 0.370581 0.386980 0.156283
O O11 0.245515 0.367932 0.771935
O O12 0.049716 0.942056 0.883093
O O13 0.166127 0.443570 0.400425
O O14 0.000000 0.500000 0.000000
#
# Coordination Sequence:
#
# PCOD8014125 Si02
#       6
#     2   2   2   2   2   2
#     4  10  22  40  62  90 125 161 206 255 307 364
#     4  10  21  41  65  90 124 164 206 253 305 363
#     4  12  22  42  65  89 127 164 205 256 304 370
#     4  10  22  40  62  89 125 159 205 252 306 364
#     4   9  21  41  61  88 126 159 204 249 308 359
#     4  11  22  41  64  93 123 160 209 257 304 366
#
# _framework density 20.128307
#
# number of rings (size 3 to 8) (size 9 to 14) (size 15 to 20)
#    1.000    0.667    1.667    4.000    0.000    0.000 
#    6.000    5.833    0.000    0.000    0.000    0.000 
#    0.000    0.000    0.000    0.000    0.000    0.000 
#
# Total GULP energy -148697.984283 kJ/mol
# GULP energy per Si atom -12391.498690 kJ/mol
# Density = 2.008249 g / cm^3
# Si number density = 20.128307 Si / 1000 Ang^3
#
#
#
# Elastic Constant Matrix: (Units=GPa)
#
#
# Indices 1 2 3 4 5 6 
#
# 1 96.4452 37.5751 29.7987 9.2275 24.8160 13.9908
# 2 37.5751 157.1080 31.0776 10.7863 21.3099 11.7498
# 3 29.7987 31.0776 96.9830 10.2284 15.8474 11.0047
# 4 9.2275 10.7863 10.2284 34.8523 -2.3623 11.1490
# 5 24.8160 21.3099 15.8474 -2.3623 40.9836 3.3644
# 6 13.9908 11.7498 11.0047 11.1490 3.3644 41.8812
#
#
#
# Elastic Compliance Matrix: (Units=1/GPa)
#
#
# Indices 1 2 3 4 5 6 
#
# 1 0.013980 -0.001672 -0.002150 -0.002202 -0.006685 -0.002513
# 2 -0.001672 0.007492 -0.001264 -0.001469 -0.002427 -0.000625
# 3 -0.002150 -0.001264 0.012234 -0.002413 -0.002806 -0.001274
# 4 -0.002202 -0.001469 -0.002413 0.033217 0.005561 -0.007507
# 5 -0.006685 -0.002427 -0.002806 0.005561 0.031142 -0.000331
# 6 -0.002513 -0.000625 -0.001274 -0.007507 -0.000331 0.027252
#
#
# Mechanical properties :
#
#
# Convention : Reuss Voigt Hill
#
# Bulk Modulus (GPa) = 42.49392 60.82655 51.66023
# Shear Modulus (GPa) = 34.88350 40.34909 37.61630
#
# Velocity S-wave (km/s) = 4.16752 4.48213 4.32768
# Velocity P-wave (km/s) = 6.65695 7.55453 7.11990
#
# Compressibility (1/GPa) = 0.02353278
#
# Stress axis : x y z
#
# Youngs Moduli (GPa) = 71.53310 133.47566 81.73722
#
# Poissons Ratio (x) = 0.22323 0.17571
# Poissons Ratio (y) = 0.11963 0.10335
# Poissons Ratio (z) = 0.15378 0.16876
#
# Static dielectric constant tensor:
#      x y z
#    x 3.845580 0.272380 0.225140 
#    y 0.272380 4.089720 0.052570 
#    z 0.225140 0.052570 3.432610 
# 
# 
# High freq. dielectric constant tensor:
#      x y z
#    x 1.780590 0.006130 0.014800 
#    y 0.006130 1.806550 0.001210 
#    z 0.014800 0.001210 1.764540 
# 
# From -- ./inp_files/60492.got.cif
#   From: 2010.06.25/outbox.cif.g09.slc.cpg/sg2_31_cif.got.tgz:60492.got - 2010.06.27 13:26:56.
