data_PCOD8014926
_publ_section_title
;
Structure prediction by ZEFSAII (Michael W. Deem and Ramdas Pophale) SiO2 
 PCOD8014926
Probable space group: P -1
;
_chemical_formula_sum "Si O2"
_cell_formula_units_Z 16
_cell_length_a 9.075421
_cell_length_b 14.672773
_cell_length_c 9.169078
_cell_angle_alpha 139.088512
_cell_angle_beta 85.639177
_cell_angle_gamma 79.371159
_cell_volume 740.560031
_symmetry_space_group_name_H-M "P -1"
_symmetry_group_IT_number 2
_symmetry_cell_setting 'triclinic'
loop_
_space_group_symop_operation_xyz
x,y,z
-x,-y,-z
loop_
_atom_site_type_symbol
_atom_site_label
_atom_site_fract_x
_atom_site_fract_y
_atom_site_fract_z
Si Si1 0.606757 0.920554 0.191530
Si Si2 0.665336 0.592544 0.832365
Si Si3 0.762584 0.060184 0.131932
Si Si4 0.875074 0.440000 0.873370
Si Si5 0.028125 0.121676 0.355241
Si Si6 0.728960 0.003744 0.564203
Si Si7 0.686218 0.331624 0.988527
Si Si8 0.671645 0.369980 0.355305
O O1 0.421551 0.003000 0.343282
O O2 0.633176 0.007348 0.154174
O O3 0.729154 0.919082 0.310401
O O4 0.636150 0.748701 0.942576
O O5 0.763765 0.579234 0.955342
O O6 0.501602 0.574028 0.871740
O O7 0.760723 0.454353 0.549313
O O8 0.671840 0.222128 0.260616
O O9 0.888410 0.062921 0.250553
O O10 0.843204 0.934887 0.851643
O O11 0.954672 0.300300 0.590775
O O12 0.772065 0.411056 0.975740
O O13 0.000000 0.500000 0.000000
O O14 0.108334 0.065631 0.439628
O O15 0.710304 0.171077 0.724904
O O16 0.759569 0.315558 0.128024
O O17 0.500000 0.500000 0.500000
#
# Coordination Sequence:
#
# PCOD8014926 Si02
#       8
#     2   2   2   2   2   2   2   2
#     4  10  23  41  68  96 126 165 216 273 305 373
#     4  10  22  44  64  94 128 163 214 267 320 377
#     4  11  23  44  68  95 126 172 220 257 317 384
#     4  12  25  41  61  96 132 169 213 261 325 383
#     4  11  24  42  62  94 132 172 212 255 320 395
#     4  10  21  42  63  95 130 161 217 259 323 373
#     4  10  22  42  68  89 120 174 214 267 311 377
#     4  10  21  44  68  95 122 167 222 263 313 382
#
# _framework density 21.605270000000001
#
# number of rings (size 3 to 8) (size 9 to 14) (size 15 to 20)
#    0.000    1.500    2.500    1.875    0.000    4.500 
#   11.250    1.250    0.000    0.000    0.000    0.000 
#    0.000    0.000    0.000    0.000    0.000    0.000 
#
# Total GULP energy -198312.066402 kJ/mol
# GULP energy per Si atom -12394.504150 kJ/mol
# Density = 2.155610 g / cm^3
# Si number density = 21.605270 Si / 1000 Ang^3
#
#
#
# Elastic Constant Matrix: (Units=GPa)
#
#
# Indices 1 2 3 4 5 6 
#
# 1 70.4691 41.1449 21.6866 -1.9103 13.9937 -5.9979
# 2 41.1449 122.9586 35.4349 3.9651 0.0574 1.3059
# 3 21.6866 35.4349 113.8724 2.9614 8.3012 14.6350
# 4 -1.9103 3.9651 2.9614 22.2277 -8.2522 8.1109
# 5 13.9937 0.0574 8.3012 -8.2522 25.6993 -1.2496
# 6 -5.9979 1.3059 14.6350 8.1109 -1.2496 36.9316
#
#
#
# Elastic Compliance Matrix: (Units=1/GPa)
#
#
# Indices 1 2 3 4 5 6 
#
# 1 0.021147 -0.006554 -0.001650 -0.002768 -0.011635 0.004534
# 2 -0.006554 0.011051 -0.002449 -0.000596 0.004134 -0.000214
# 3 -0.001650 -0.002449 0.010650 -0.000626 -0.002949 -0.004364
# 4 -0.002768 -0.000596 -0.000626 0.056440 0.019254 -0.011924
# 5 -0.011635 0.004134 -0.002949 0.019254 0.052211 -0.003329
# 6 0.004534 -0.000214 -0.004364 -0.011924 -0.003329 0.032057
#
#
# Mechanical properties :
#
#
# Convention : Reuss Voigt Hill
#
# Bulk Modulus (GPa) = 46.42248 55.98144 51.20196
# Shear Modulus (GPa) = 23.58002 30.90729 27.24365
#
# Velocity S-wave (km/s) = 3.30722 3.78636 3.55487
# Velocity P-wave (km/s) = 6.00973 6.71436 6.37179
#
# Compressibility (1/GPa) = 0.02154129
#
# Stress axis : x y z
#
# Youngs Moduli (GPa) = 47.28885 90.48715 93.89348
#
# Poissons Ratio (x) = 0.59305 0.15496
# Poissons Ratio (y) = 0.30993 0.22995
# Poissons Ratio (z) = 0.07804 0.22161
#
# Static dielectric constant tensor:
#      x y z
#    x 3.647450 -0.093520 -0.434460 
#    y -0.093520 3.810970 0.158550 
#    z -0.434460 0.158550 2.115060 
# 
# 
# High freq. dielectric constant tensor:
#      x y z
#    x 1.832590 -0.014520 0.013190 
#    y -0.014520 1.846550 -0.004570 
#    z 0.013190 -0.004570 1.864120 
# 
# From -- ./inp_files/184398.got.cif
#   From: 2010.06.25/outbox.cif.g09.slc.cpg/sg2_93_cif.got.tgz:184398.got - 2010.06.27 13:26:56.
