data_PCOD8014030
_publ_section_title
;
Structure prediction by ZEFSAII (Michael W. Deem and Ramdas Pophale) SiO2 
 PCOD8014030
Probable space group: P -1
;
_chemical_formula_sum "Si O2"
_cell_formula_units_Z 16
_cell_length_a 11.249596
_cell_length_b 13.869011
_cell_length_c 13.671554
_cell_angle_alpha 65.610040
_cell_angle_beta 46.396764
_cell_angle_gamma 31.138069
_cell_volume 703.451490
_symmetry_space_group_name_H-M "P -1"
_symmetry_group_IT_number 2
_symmetry_cell_setting 'triclinic'
loop_
_space_group_symop_operation_xyz
x,y,z
-x,-y,-z
loop_
_atom_site_type_symbol
_atom_site_label
_atom_site_fract_x
_atom_site_fract_y
_atom_site_fract_z
Si Si1 0.082213 0.495011 0.248205
Si Si2 0.688630 0.313571 0.596771
Si Si3 0.146373 0.246955 0.386954
Si Si4 0.397717 0.177087 0.459597
Si Si5 0.301927 0.188024 0.827454
Si Si6 0.087299 0.749015 0.846902
Si Si7 0.870119 0.996648 0.690440
Si Si8 0.690308 0.193943 0.162972
O O1 0.141106 0.336601 0.265095
O O2 0.381741 0.380802 0.185674
O O3 0.742357 0.692950 0.417977
O O4 0.013481 0.584088 0.143400
O O5 0.309243 0.547766 0.737122
O O6 0.841926 0.341262 0.516648
O O7 0.786140 0.222768 0.469225
O O8 0.832657 0.144250 0.659575
O O9 0.115863 0.326235 0.473712
O O10 0.494294 0.992836 0.291829
O O11 0.666593 0.107505 0.288475
O O12 0.500000 0.000000 0.500000
O O13 0.550922 0.134442 0.754638
O O14 0.173918 0.182570 0.985598
O O15 0.276383 0.714074 0.835083
O O16 0.880630 0.943273 0.814377
O O17 0.000000 0.000000 0.000000
#
# Coordination Sequence:
#
# PCOD8014030 Si02
#       8
#     2   2   2   2   2   2   2   2
#     4  11  23  43  66  95 134 174 227 269 325 408
#     4  10  23  41  68  99 125 171 221 276 337 384
#     4  10  21  41  64  93 129 173 218 271 330 388
#     4  11  21  38  68  94 131 177 224 268 329 405
#     4  11  25  43  64  95 128 181 215 269 334 397
#     4  12  24  43  68  95 135 172 219 272 342 387
#     4  10  25  44  66  96 131 167 226 277 325 397
#     4  11  26  44  67 104 139 174 220 281 336 392
#
# _framework density 22.744993000000001
#
# number of rings (size 3 to 8) (size 9 to 14) (size 15 to 20)
#    0.000    1.250    1.250    5.250    1.750    9.000 
#    0.000    0.000    0.000    0.000    0.000    0.000 
#    0.000    0.000    0.000    0.000    0.000    0.000 
#
# Total GULP energy -198304.138802 kJ/mol
# GULP energy per Si atom -12394.008675 kJ/mol
# Density = 2.269322 g / cm^3
# Si number density = 22.744993 Si / 1000 Ang^3
#
#
#
# Elastic Constant Matrix: (Units=GPa)
#
#
# Indices 1 2 3 4 5 6 
#
# 1 65.8928 24.0691 1.7494 2.0891 -0.6072 -3.0956
# 2 24.0691 85.0931 9.0130 -13.7636 7.5560 -13.7715
# 3 1.7494 9.0130 79.9881 -2.8092 5.1836 -12.0648
# 4 2.0891 -13.7636 -2.8092 36.7360 -2.2844 2.5917
# 5 -0.6072 7.5560 5.1836 -2.2844 18.4024 -5.8135
# 6 -3.0956 -13.7715 -12.0648 2.5917 -5.8135 35.7817
#
#
#
# Elastic Compliance Matrix: (Units=1/GPa)
#
#
# Indices 1 2 3 4 5 6 
#
# 1 0.017338 -0.005605 -0.000019 -0.002929 0.002501 -0.000045
# 2 -0.005605 0.015331 -0.000506 0.005461 -0.004351 0.004142
# 3 -0.000019 -0.000506 0.013308 0.000414 -0.002260 0.003893
# 4 -0.002929 0.005461 0.000414 0.029538 0.001226 0.000048
# 5 0.002501 -0.004351 -0.002260 0.001226 0.059313 0.007328
# 6 -0.000045 0.004142 0.003893 0.000048 0.007328 0.032037
#
#
# Mechanical properties :
#
#
# Convention : Reuss Voigt Hill
#
# Bulk Modulus (GPa) = 29.66081 33.40411 31.53246
# Shear Modulus (GPa) = 26.26520 31.26018 28.76269
#
# Velocity S-wave (km/s) = 3.40187 3.71128 3.55994
# Velocity P-wave (km/s) = 5.33847 5.75179 5.54898
#
# Compressibility (1/GPa) = 0.03371452
#
# Stress axis : x y z
#
# Youngs Moduli (GPa) = 57.67707 65.22724 75.14527
#
# Poissons Ratio (x) = 0.36561 0.00146
# Poissons Ratio (y) = 0.32329 0.03805
# Poissons Ratio (z) = 0.00112 0.03303
#
# Static dielectric constant tensor:
#      x y z
#    x 3.980330 0.205430 0.022660 
#    y 0.205430 4.289570 -0.170390 
#    z 0.022660 -0.170390 4.139850 
# 
# 
# High freq. dielectric constant tensor:
#      x y z
#    x 1.888940 0.012770 -0.001170 
#    y 0.012770 1.904910 -0.013780 
#    z -0.001170 -0.013780 1.898480 
# 
# From -- ./inp_files/273732.got.cif
#   From: 2010.06.25/outbox.cif.g09.slc.cpg/sg2_137_cif.got.tgz:273732.got - 2010.06.27 13:26:56.
