data_PCOD8014855
_publ_section_title
;
Structure prediction by ZEFSAII (Michael W. Deem and Ramdas Pophale) SiO2 
 PCOD8014855
Probable space group: P -1
;
_chemical_formula_sum "Si O2"
_cell_formula_units_Z 16
_cell_length_a 16.039405
_cell_length_b 7.406202
_cell_length_c 6.571140
_cell_angle_alpha 82.554191
_cell_angle_beta 114.254689
_cell_angle_gamma 67.096583
_cell_volume 615.412238
_symmetry_space_group_name_H-M "P -1"
_symmetry_group_IT_number 2
_symmetry_cell_setting 'triclinic'
loop_
_space_group_symop_operation_xyz
x,y,z
-x,-y,-z
loop_
_atom_site_type_symbol
_atom_site_label
_atom_site_fract_x
_atom_site_fract_y
_atom_site_fract_z
Si Si1 0.974301 0.681342 0.248017
Si Si2 0.135848 0.509566 0.109025
Si Si3 0.017357 0.152133 0.356209
Si Si4 0.161930 0.944028 0.168516
Si Si5 0.655483 0.485833 0.522960
Si Si6 0.523969 0.279804 0.361913
Si Si7 0.595429 0.785261 0.067421
Si Si8 0.315736 0.117689 0.233465
O O1 0.894302 0.628580 0.054997
O O2 0.975453 0.679008 0.500328
O O3 0.088791 0.532314 0.285520
O O4 0.935640 0.926220 0.105083
O O5 0.083865 0.732307 0.909802
O O6 0.262900 0.348230 0.264532
O O7 0.123166 0.028190 0.347798
O O8 0.000000 0.000000 0.500000
O O9 0.219603 0.683544 0.259047
O O10 0.252322 0.992804 0.184225
O O11 0.614574 0.338704 0.401133
O O12 0.568322 0.593014 0.590353
O O13 0.661076 0.642242 0.341976
O O14 0.576932 0.035006 0.518974
O O15 0.459069 0.329915 0.083268
O O16 0.670267 0.832519 0.991471
O O17 0.500000 0.000000 0.000000
#
# Coordination Sequence:
#
# PCOD8014855 Si02
#       8
#     2   2   2   2   2   2   2   2
#     4   9  19  42  64  85 121 161 198 250 300 365
#     4   9  20  39  62  88 118 159 204 245 301 360
#     4  11  23  39  61  93 128 157 199 252 309 363
#     4   9  22  42  62  90 125 162 205 248 305 367
#     4  10  22  42  65  89 122 164 208 247 306 366
#     4  10  22  44  63  87 127 165 197 257 312 358
#     4  12  24  40  62  93 126 159 209 257 302 359
#     4  10  21  42  62  90 124 159 207 254 300 360
#
# _framework density 25.998830999999999
#
# number of rings (size 3 to 8) (size 9 to 14) (size 15 to 20)
#    0.000    2.000    1.250    1.875    1.750    3.000 
#   13.500    0.000    0.000    0.000    0.000    0.000 
#    0.000    0.000    0.000    0.000    0.000    0.000 
#
# Total GULP energy -198248.682655 kJ/mol
# GULP energy per Si atom -12390.542666 kJ/mol
# Density = 2.593966 g / cm^3
# Si number density = 25.998831 Si / 1000 Ang^3
#
#
#
# Elastic Constant Matrix: (Units=GPa)
#
#
# Indices 1 2 3 4 5 6 
#
# 1 93.2451 28.6369 48.7466 -9.6753 -20.2383 -22.7169
# 2 28.6369 142.7223 31.8882 -15.5376 -11.6982 -31.7122
# 3 48.7466 31.8882 138.8771 -0.9064 -12.3842 -18.5089
# 4 -9.6753 -15.5376 -0.9064 38.2478 -6.8300 -1.3940
# 5 -20.2383 -11.6982 -12.3842 -6.8300 37.5729 0.9713
# 6 -22.7169 -31.7122 -18.5089 -1.3940 0.9713 36.7645
#
#
#
# Elastic Compliance Matrix: (Units=1/GPa)
#
#
# Indices 1 2 3 4 5 6 
#
# 1 0.017804 0.001096 -0.004302 0.006903 0.009514 0.009790
# 2 0.001096 0.009884 -0.001093 0.005308 0.004046 0.008747
# 3 -0.004302 -0.001093 0.009084 -0.001269 0.000082 0.000922
# 4 0.006903 0.005308 -0.001269 0.032240 0.010576 0.009148
# 5 0.009514 0.004046 0.000082 0.010576 0.034719 0.008894
# 6 0.009790 0.008747 0.000922 0.009148 0.008894 0.041370
#
#
# Mechanical properties :
#
#
# Convention : Reuss Voigt Hill
#
# Bulk Modulus (GPa) = 35.49643 65.93200 50.71421
# Shear Modulus (GPa) = 30.65790 40.22190 35.43990
#
# Velocity S-wave (km/s) = 3.43768 3.93754 3.69607
# Velocity P-wave (km/s) = 5.42582 6.78874 6.14518
#
# Compressibility (1/GPa) = 0.02817185
#
# Stress axis : x y z
#
# Youngs Moduli (GPa) = 56.16830 101.17440 110.08868
#
# Poissons Ratio (x) = -0.11086 0.47365
# Poissons Ratio (y) = -0.06155 0.12032
# Poissons Ratio (z) = 0.24166 0.11058
#
# Static dielectric constant tensor:
#      x y z
#    x 4.766060 0.239890 0.269620 
#    y 0.239890 6.277200 0.412650 
#    z 0.269620 0.412650 5.834100 
# 
# 
# High freq. dielectric constant tensor:
#      x y z
#    x 2.052960 0.017230 0.009180 
#    y 0.017230 2.086000 -0.008740 
#    z 0.009180 -0.008740 2.041350 
# 
# From -- ./inp_files/39291.got.cif
#   From: 2010.06.25/outbox.cif.g09.slc.cpg/sg2_20_cif.got.tgz:39291.got - 2010.06.27 13:26:56.
