data_PCOD8014195
_publ_section_title
;
Structure prediction by ZEFSAII (Michael W. Deem and Ramdas Pophale) SiO2 
 PCOD8014195
Probable space group: P -1
;
_chemical_formula_sum "Si O2"
_cell_formula_units_Z 16
_cell_length_a 7.929437
_cell_length_b 16.018279
_cell_length_c 6.596083
_cell_angle_alpha 90.684479
_cell_angle_beta 98.533407
_cell_angle_gamma 121.246319
_cell_volume 704.421953
_symmetry_space_group_name_H-M "P -1"
_symmetry_group_IT_number 2
_symmetry_cell_setting 'triclinic'
loop_
_space_group_symop_operation_xyz
x,y,z
-x,-y,-z
loop_
_atom_site_type_symbol
_atom_site_label
_atom_site_fract_x
_atom_site_fract_y
_atom_site_fract_z
Si Si1 0.780196 0.921403 0.886938
Si Si2 0.361516 0.947334 0.284720
Si Si3 0.895302 0.374539 0.808227
Si Si4 0.685997 0.772598 0.546626
Si Si5 0.474193 0.803514 0.149048
Si Si6 0.036701 0.245919 0.711887
Si Si7 0.712285 0.482536 0.878511
Si Si8 0.638602 0.645715 0.895361
O O1 0.808158 0.879063 0.679905
O O2 0.648683 0.970642 0.842920
O O3 0.653678 0.830783 0.022107
O O4 0.000000 0.000000 0.000000
O O5 0.458014 0.899075 0.166883
O O6 0.136784 0.867190 0.310938
O O7 0.500000 0.000000 0.500000
O O8 0.744700 0.291912 0.946875
O O9 0.941195 0.313841 0.648141
O O10 0.105934 0.456735 0.935067
O O11 0.782764 0.432346 0.718557
O O12 0.523625 0.773822 0.373721
O O13 0.826938 0.745106 0.451016
O O14 0.582423 0.693121 0.704816
O O15 0.151695 0.279272 0.950546
O O16 0.530668 0.392489 0.964667
O O17 0.644638 0.555209 0.786698
#
# Coordination Sequence:
#
# PCOD8014195 Si02
#       8
#     2   2   2   2   2   2   2   2
#     4  12  26  42  68  94 125 178 219 262 322 380
#     4  11  23  45  63  95 131 168 215 267 318 372
#     4   9  19  40  62  91 126 167 206 265 327 371
#     4  12  23  40  63  92 128 169 214 266 322 379
#     4  11  24  43  65  92 133 166 213 271 316 386
#     4  10  23  41  63  91 133 167 213 267 316 387
#     4   9  18  39  69  90 126 163 216 266 316 398
#     4  10  21  41  65  95 124 172 211 264 330 375
#
# _framework density 22.713659
#
# number of rings (size 3 to 8) (size 9 to 14) (size 15 to 20)
#    0.000    1.500    1.250    4.125    1.750    1.000 
#    6.750   16.250    0.000    0.000    0.000    0.000 
#    0.000    0.000    0.000    0.000    0.000    0.000 
#
# Total GULP energy -198240.582914 kJ/mol
# GULP energy per Si atom -12390.036432 kJ/mol
# Density = 2.266196 g / cm^3
# Si number density = 22.713659 Si / 1000 Ang^3
#
#
#
# Elastic Constant Matrix: (Units=GPa)
#
#
# Indices 1 2 3 4 5 6 
#
# 1 116.7179 35.9501 29.3119 1.5427 -3.8935 -17.7776
# 2 35.9501 92.9503 31.2903 5.0878 9.8140 5.7478
# 3 29.3119 31.2903 72.8749 -5.7561 9.5676 -3.1587
# 4 1.5427 5.0878 -5.7561 29.4226 -8.7637 2.9564
# 5 -3.8935 9.8140 9.5676 -8.7637 29.9623 9.7269
# 6 -17.7776 5.7478 -3.1587 2.9564 9.7269 66.8624
#
#
#
# Elastic Compliance Matrix: (Units=1/GPa)
#
#
# Indices 1 2 3 4 5 6 
#
# 1 0.010970 -0.003660 -0.003084 -0.000001 0.002736 0.002688
# 2 -0.003660 0.014539 -0.004591 -0.004417 -0.004550 -0.001583
# 3 -0.003084 -0.004591 0.017733 0.003178 -0.003903 0.000840
# 4 -0.000001 -0.004417 0.003178 0.039562 0.013014 -0.003113
# 5 0.002736 -0.004550 -0.003903 0.013014 0.042148 -0.005773
# 6 0.002688 -0.001583 0.000840 -0.003113 -0.005773 0.016824
#
#
# Mechanical properties :
#
#
# Convention : Reuss Voigt Hill
#
# Bulk Modulus (GPa) = 48.60484 52.84974 50.72729
# Shear Modulus (GPa) = 29.18797 37.64884 33.41840
#
# Velocity S-wave (km/s) = 3.58863 4.07571 3.83990
# Velocity P-wave (km/s) = 6.21422 6.74291 6.48395
#
# Compressibility (1/GPa) = 0.02057408
#
# Stress axis : x y z
#
# Youngs Moduli (GPa) = 91.15763 68.77881 56.39050
#
# Poissons Ratio (x) = 0.25172 0.17390
# Poissons Ratio (y) = 0.33362 0.25888
# Poissons Ratio (z) = 0.28111 0.31575
#
# Static dielectric constant tensor:
#      x y z
#    x 4.482170 -0.348440 -0.041720 
#    y -0.348440 4.482650 0.252020 
#    z -0.041720 0.252020 3.594900 
# 
# 
# High freq. dielectric constant tensor:
#      x y z
#    x 1.921540 -0.016370 -0.003010 
#    y -0.016370 1.924030 0.021550 
#    z -0.003010 0.021550 1.840330 
# 
# From -- ./inp_files/44700.got.cif
#   From: 2010.06.25/outbox.cif.g09.slc.cpg/sg2_23_cif.got.tgz:44700.got - 2010.06.27 13:26:56.
