data_PCOD8014470
_publ_section_title
;
Structure prediction by ZEFSAII (Michael W. Deem and Ramdas Pophale) SiO2 
 PCOD8014470
Probable space group: P -1
;
_chemical_formula_sum "Si O2"
_cell_formula_units_Z 16
_cell_length_a 13.981115
_cell_length_b 7.915259
_cell_length_c 13.257506
_cell_angle_alpha 108.705078
_cell_angle_beta 148.112672
_cell_angle_gamma 91.525896
_cell_volume 588.666844
_symmetry_space_group_name_H-M "P -1"
_symmetry_group_IT_number 2
_symmetry_cell_setting 'triclinic'
loop_
_space_group_symop_operation_xyz
x,y,z
-x,-y,-z
loop_
_atom_site_type_symbol
_atom_site_label
_atom_site_fract_x
_atom_site_fract_y
_atom_site_fract_z
Si Si1 0.058470 0.668451 0.489479
Si Si2 0.185242 0.750420 0.181445
Si Si3 0.989038 0.645657 0.789150
Si Si4 0.453165 0.747533 0.588045
Si Si5 0.680932 0.573599 0.261349
Si Si6 0.522348 0.845990 0.891053
Si Si7 0.968334 0.942049 0.327568
Si Si8 0.078541 0.098006 0.937546
O O1 0.882302 0.545707 0.403434
O O2 0.969427 0.809752 0.397392
O O3 0.005722 0.492230 0.322453
O O4 0.334929 0.848046 0.788556
O O5 0.411240 0.847167 0.469352
O O6 0.093918 0.897633 0.146145
O O7 0.000000 0.500000 0.000000
O O8 0.209428 0.750871 0.080945
O O9 0.769617 0.497331 0.635786
O O10 0.991656 0.846882 0.787481
O O11 0.510526 0.893712 0.770986
O O12 0.670520 0.752198 0.759809
O O13 0.564811 0.413899 0.224170
O O14 0.500000 0.500000 0.000000
O O15 0.787084 0.827003 0.428385
O O16 0.782756 0.993747 0.191045
O O17 0.907029 0.801788 0.141937
#
# Coordination Sequence:
#
# PCOD8014470 Si02
#       8
#     2   2   2   2   2   2   2   2
#     4  11  23  45  66  93 137 174 218 276 321 386
#     4  10  21  41  67  97 135 170 216 267 318 387
#     4  10  22  42  63  97 133 170 220 267 318 381
#     4   9  21  41  64  96 129 170 215 259 325 383
#     4  12  25  45  67  98 131 172 221 270 334 391
#     4  10  22  42  65  96 129 169 217 266 328 387
#     4  11  23  43  66  94 133 171 219 269 328 393
#     4  11  22  41  68  94 133 174 213 266 324 382
#
# _framework density 27.180060999999998
#
# number of rings (size 3 to 8) (size 9 to 14) (size 15 to 20)
#    0.000    1.500    1.250    4.875    0.000    3.000 
#   11.250    3.750    0.000    0.000    0.000    0.000 
#    0.000    0.000    0.000    0.000    0.000    0.000 
#
# Total GULP energy -198294.659476 kJ/mol
# GULP energy per Si atom -12393.416217 kJ/mol
# Density = 2.711820 g / cm^3
# Si number density = 27.180061 Si / 1000 Ang^3
#
#
#
# Elastic Constant Matrix: (Units=GPa)
#
#
# Indices 1 2 3 4 5 6 
#
# 1 89.1942 14.2618 28.7931 -25.4685 -3.9298 10.8784
# 2 14.2618 70.2980 28.6152 -13.0803 -6.7311 -1.7990
# 3 28.7931 28.6152 167.9575 -38.8849 0.2757 3.1341
# 4 -25.4685 -13.0803 -38.8849 44.6592 9.5051 -10.8897
# 5 -3.9298 -6.7311 0.2757 9.5051 24.4747 -11.2896
# 6 10.8784 -1.7990 3.1341 -10.8897 -11.2896 42.9451
#
#
#
# Elastic Compliance Matrix: (Units=1/GPa)
#
#
# Indices 1 2 3 4 5 6 
#
# 1 0.013759 -0.001575 -0.000462 0.006835 -0.001930 -0.002292
# 2 -0.001575 0.016294 -0.002193 0.001626 0.004989 0.002965
# 3 -0.000462 -0.002193 0.007985 0.006819 -0.003272 0.000311
# 4 0.006835 0.001626 0.006819 0.035973 -0.010574 0.004181
# 5 -0.001930 0.004989 -0.003272 -0.010574 0.051505 0.011795
# 6 -0.002292 0.002965 0.000311 0.004181 0.011795 0.028129
#
#
# Mechanical properties :
#
#
# Convention : Reuss Voigt Hill
#
# Bulk Modulus (GPa) = 33.81021 52.30996 43.06009
# Shear Modulus (GPa) = 29.07600 39.46779 34.27189
#
# Velocity S-wave (km/s) = 3.27426 3.81476 3.55480
# Velocity P-wave (km/s) = 5.17308 6.22018 5.72064
#
# Compressibility (1/GPa) = 0.02957686
#
# Stress axis : x y z
#
# Youngs Moduli (GPa) = 72.68226 61.37409 125.23452
#
# Poissons Ratio (x) = 0.09666 0.05786
# Poissons Ratio (y) = 0.11447 0.27465
# Poissons Ratio (z) = 0.03358 0.13460
#
# Static dielectric constant tensor:
#      x y z
#    x 4.810060 0.405940 -0.105160 
#    y 0.405940 5.177000 -0.429760 
#    z -0.105160 -0.429760 5.438210 
# 
# 
# High freq. dielectric constant tensor:
#      x y z
#    x 2.087020 0.027600 -0.011270 
#    y 0.027600 2.096780 -0.013360 
#    z -0.011270 -0.013360 2.121770 
# 
# From -- ./inp_files/530043.got.cif
#   From: 2010.06.25/outbox.cif.g09.slc.cpg/sg2_266_cif.got.tgz:530043.got - 2010.06.27 13:26:56.
