data_PCOD8014164
_publ_section_title
;
Structure prediction by ZEFSAII (Michael W. Deem and Ramdas Pophale) SiO2 
 PCOD8014164
Probable space group: P -1
;
_chemical_formula_sum "Si O2"
_cell_formula_units_Z 14
_cell_length_a 8.339588
_cell_length_b 12.222826
_cell_length_c 15.563536
_cell_angle_alpha 133.201769
_cell_angle_beta 34.942243
_cell_angle_gamma 126.720061
_cell_volume 659.777819
_symmetry_space_group_name_H-M "P -1"
_symmetry_group_IT_number 2
_symmetry_cell_setting 'triclinic'
loop_
_space_group_symop_operation_xyz
x,y,z
-x,-y,-z
loop_
_atom_site_type_symbol
_atom_site_label
_atom_site_fract_x
_atom_site_fract_y
_atom_site_fract_z
Si Si1 0.703084 0.808819 0.650016
Si Si2 0.520126 0.235502 0.578973
Si Si3 0.929456 0.988172 0.276124
Si Si4 0.181409 0.433872 0.118402
Si Si5 0.076375 0.882415 0.974757
Si Si6 0.043665 0.564550 0.423532
Si Si7 0.318650 0.393862 0.591713
O O1 0.376829 0.825645 0.795663
O O2 0.791767 0.769004 0.491435
O O3 0.765578 0.654363 0.586797
O O4 0.871297 0.948453 0.699139
O O5 0.214335 0.168340 0.707446
O O6 0.671972 0.321765 0.639500
O O7 0.503600 0.353155 0.570573
O O8 0.703794 0.098207 0.400373
O O9 0.100283 0.953825 0.097531
O O10 0.085927 0.443579 0.265672
O O11 0.155325 0.260460 0.006751
O O12 0.960055 0.528012 0.213698
O O13 0.500000 0.500000 0.000000
O O14 0.000000 0.000000 0.000000
O O15 0.000000 0.500000 0.500000
O O16 0.500000 0.500000 0.500000
#
# Coordination Sequence:
#
# PCOD8014164 Si02
#       7
#     2   2   2   2   2   2   2
#     4  10  22  39  63  92 122 166 219 257 308 397
#     4  10  21  41  65  93 125 167 210 270 319 384
#     4  10  23  40  61  93 134 163 207 262 333 386
#     4  11  25  43  63  98 132 164 218 278 329 376
#     4  12  25  41  64  90 135 172 213 264 327 392
#     4  10  22  39  70  91 121 168 221 264 319 382
#     4  11  21  41  70  92 122 170 225 262 314 384
#
# _framework density 21.219265
#
# number of rings (size 3 to 8) (size 9 to 14) (size 15 to 20)
#    0.000    1.429    1.429    3.857    4.000    2.857 
#    2.571    1.429    0.000    0.000    0.000    0.000 
#    0.000    0.000    0.000    0.000    0.000    0.000 
#
# Total GULP energy -173446.691997 kJ/mol
# GULP energy per Si atom -12389.049428 kJ/mol
# Density = 2.117097 g / cm^3
# Si number density = 21.219265 Si / 1000 Ang^3
#
#
#
# Elastic Constant Matrix: (Units=GPa)
#
#
# Indices 1 2 3 4 5 6 
#
# 1 115.5589 34.5443 30.7055 10.2920 -9.1449 4.2108
# 2 34.5443 82.0870 26.8356 2.3059 -11.0617 10.9641
# 3 30.7055 26.8356 84.3079 4.4866 -12.9471 1.6826
# 4 10.2920 2.3059 4.4866 24.5625 10.5101 4.0818
# 5 -9.1449 -11.0617 -12.9471 10.5101 45.3204 5.4675
# 6 4.2108 10.9641 1.6826 4.0818 5.4675 40.2480
#
#
#
# Elastic Compliance Matrix: (Units=1/GPa)
#
#
# Indices 1 2 3 4 5 6 
#
# 1 0.010846 -0.003456 -0.002348 -0.004546 0.001713 0.000133
# 2 -0.003456 0.015596 -0.003221 0.000120 0.002659 -0.004126
# 3 -0.002348 -0.003221 0.014426 -0.002900 0.003493 0.000340
# 4 -0.004546 0.000120 -0.002900 0.049043 -0.012767 -0.002675
# 5 0.001713 0.002659 0.003493 -0.012767 0.027438 -0.003482
# 6 0.000133 -0.004126 0.000340 -0.002675 -0.003482 0.026686
#
#
# Mechanical properties :
#
#
# Convention : Reuss Voigt Hill
#
# Bulk Modulus (GPa) = 43.82691 51.79160 47.80926
# Shear Modulus (GPa) = 29.46533 34.68408 32.07471
#
# Velocity S-wave (km/s) = 3.73045 4.04735 3.89213
# Velocity P-wave (km/s) = 6.26531 6.80457 6.54050
#
# Compressibility (1/GPa) = 0.02281703
#
# Stress axis : x y z
#
# Youngs Moduli (GPa) = 92.19842 64.12058 69.32124
#
# Poissons Ratio (x) = 0.22161 0.16276
# Poissons Ratio (y) = 0.31865 0.22330
# Poissons Ratio (z) = 0.21647 0.20654
#
# Static dielectric constant tensor:
#      x y z
#    x 4.562760 0.639010 -0.054380 
#    y 0.639010 3.795400 0.192790 
#    z -0.054380 0.192790 3.858060 
# 
# 
# High freq. dielectric constant tensor:
#      x y z
#    x 1.851180 0.023620 -0.005980 
#    y 0.023620 1.821820 0.012990 
#    z -0.005980 0.012990 1.825080 
# 
# From -- ./inp_files/184043.got.cif
#   From: 2010.06.25/outbox.cif.g09.slc.cpg/sg2_93_cif.got.tgz:184043.got - 2010.06.27 13:26:56.
