data_PCOD8014602
_publ_section_title
;
Structure prediction by ZEFSAII (Michael W. Deem and Ramdas Pophale) SiO2 
 PCOD8014602
Probable space group: P -1
;
_chemical_formula_sum "Si O2"
_cell_formula_units_Z 16
_cell_length_a 26.721941
_cell_length_b 5.544373
_cell_length_c 21.850525
_cell_angle_alpha 82.380141
_cell_angle_beta 167.428311
_cell_angle_gamma 98.878592
_cell_volume 693.735646
_symmetry_space_group_name_H-M "P -1"
_symmetry_group_IT_number 2
_symmetry_cell_setting 'triclinic'
loop_
_space_group_symop_operation_xyz
x,y,z
-x,-y,-z
loop_
_atom_site_type_symbol
_atom_site_label
_atom_site_fract_x
_atom_site_fract_y
_atom_site_fract_z
Si Si1 0.455545 0.105140 0.154476
Si Si2 0.419945 0.671874 0.217628
Si Si3 0.818016 0.172983 0.254476
Si Si4 0.789466 0.336783 0.633330
Si Si5 0.559045 0.005798 0.473014
Si Si6 0.691033 0.704086 0.746046
Si Si7 0.636829 0.271675 0.158015
Si Si8 0.088956 0.429656 0.743698
O O1 0.706358 0.242317 0.469008
O O2 0.387492 0.911378 0.132763
O O3 0.269157 0.295715 0.924804
O O4 0.426209 0.978748 0.056784
O O5 0.662420 0.571500 0.492433
O O6 0.420904 0.754779 0.287361
O O7 0.194947 0.480858 0.937147
O O8 0.753381 0.335382 0.228887
O O9 0.936296 0.324893 0.333675
O O10 0.000000 0.000000 0.500000
O O11 0.730023 0.130050 0.621287
O O12 0.064509 0.405218 0.955383
O O13 0.382015 0.196399 0.277889
O O14 0.708253 0.932968 0.711485
O O15 0.500000 0.500000 0.500000
O O16 0.835946 0.273232 0.448259
O O17 0.500000 0.500000 0.000000
O O18 0.500000 0.000000 0.000000
#
# Coordination Sequence:
#
# PCOD8014602 Si02
#       8
#     2   2   2   2   2   2   2   2
#     4   9  20  38  67  90 117 168 228 265 318 397
#     4   9  20  39  68  90 120 167 222 269 325 390
#     4  11  21  40  70  91 123 174 229 268 326 409
#     4  10  21  42  64  92 128 168 220 266 328 396
#     4  10  22  41  64  94 127 172 211 265 333 392
#     4  11  24  39  63  98 132 166 216 266 330 394
#     4  12  27  41  61 101 139 168 216 287 349 394
#     4  10  21  41  69  89 122 176 224 264 329 407
#
# _framework density 23.06354
#
# number of rings (size 3 to 8) (size 9 to 14) (size 15 to 20)
#    0.000    1.750    1.250    2.250    3.500    6.000 
#    2.250    1.250    0.000    0.000    0.000    0.000 
#    0.000    0.000    0.000    0.000    0.000    0.000 
#
# Total GULP energy -198249.114881 kJ/mol
# GULP energy per Si atom -12390.569680 kJ/mol
# Density = 2.301105 g / cm^3
# Si number density = 23.063540 Si / 1000 Ang^3
#
#
#
# Elastic Constant Matrix: (Units=GPa)
#
#
# Indices 1 2 3 4 5 6 
#
# 1 66.1440 20.1388 46.2712 3.1957 -7.1945 -32.8887
# 2 20.1388 98.7618 57.2241 6.8297 -1.3018 -27.7685
# 3 46.2712 57.2241 186.9836 16.8444 -4.7266 -24.4040
# 4 3.1957 6.8297 16.8444 36.3649 -1.5495 -10.9828
# 5 -7.1945 -1.3018 -4.7266 -1.5495 26.1506 4.1673
# 6 -32.8887 -27.7685 -24.4040 -10.9828 4.1673 48.9381
#
#
#
# Elastic Compliance Matrix: (Units=1/GPa)
#
#
# Indices 1 2 3 4 5 6 
#
# 1 0.027276 0.002304 -0.005511 0.005249 0.004110 0.017718
# 2 0.002304 0.014087 -0.003986 0.001363 -0.000565 0.007908
# 3 -0.005511 -0.003986 0.007862 -0.003247 -0.000045 -0.002770
# 4 0.005249 0.001363 -0.003247 0.031234 0.001248 0.009585
# 5 0.004110 -0.000565 -0.000045 0.001248 0.039515 -0.000665
# 6 0.017718 0.007908 -0.002770 0.009585 -0.000665 0.037655
#
#
# Mechanical properties :
#
#
# Convention : Reuss Voigt Hill
#
# Bulk Modulus (GPa) = 28.70462 66.57306 47.63884
# Shear Modulus (GPa) = 27.22911 37.50772 32.36841
#
# Velocity S-wave (km/s) = 3.43973 4.03709 3.75032
# Velocity P-wave (km/s) = 5.31494 7.11748 6.28121
#
# Compressibility (1/GPa) = 0.03483760
#
# Stress axis : x y z
#
# Youngs Moduli (GPa) = 36.66259 70.98744 127.19849
#
# Poissons Ratio (x) = -0.16358 0.70105
# Poissons Ratio (y) = -0.08448 0.50706
# Poissons Ratio (z) = 0.20207 0.28298
#
# Static dielectric constant tensor:
#      x y z
#    x 4.992260 -0.184550 -0.393450 
#    y -0.184550 4.399870 0.261160 
#    z -0.393450 0.261160 4.422060 
# 
# 
# High freq. dielectric constant tensor:
#      x y z
#    x 1.890290 -0.013720 -0.036920 
#    y -0.013720 1.925760 -0.001690 
#    z -0.036920 -0.001690 1.906530 
# 
# From -- ./inp_files/53373.got.cif
#   From: 2010.06.25/outbox.cif.g09.slc.cpg/sg2_27_cif.got.tgz:53373.got - 2010.06.27 13:26:56.
