data_PCOD8014990
_publ_section_title
;
Structure prediction by ZEFSAII (Michael W. Deem and Ramdas Pophale) SiO2 
 PCOD8014990
Probable space group: P -1
;
_chemical_formula_sum "Si O2"
_cell_formula_units_Z 14
_cell_length_a 27.024848
_cell_length_b 5.380298
_cell_length_c 6.972949
_cell_angle_alpha 111.794596
_cell_angle_beta 139.062298
_cell_angle_gamma 65.402777
_cell_volume 601.292198
_symmetry_space_group_name_H-M "P -1"
_symmetry_group_IT_number 2
_symmetry_cell_setting 'triclinic'
loop_
_space_group_symop_operation_xyz
x,y,z
-x,-y,-z
loop_
_atom_site_type_symbol
_atom_site_label
_atom_site_fract_x
_atom_site_fract_y
_atom_site_fract_z
Si Si1 0.153164 0.825540 0.691362
Si Si2 0.408941 0.044885 0.753943
Si Si3 0.698012 0.019587 0.904149
Si Si4 0.664882 0.315615 0.283763
Si Si5 0.051973 0.205971 0.262688
Si Si6 0.801865 0.485921 0.918083
Si Si7 0.897006 0.560220 0.866379
O O1 0.130491 0.685723 0.392858
O O2 0.102585 0.137105 0.589280
O O3 0.245391 0.798343 0.965107
O O4 0.133276 0.698199 0.800553
O O5 0.372242 0.365318 0.785383
O O6 0.379272 0.961166 0.439091
O O7 0.388080 0.826038 0.777346
O O8 0.500000 0.000000 0.000000
O O9 0.747205 0.707066 0.957444
O O10 0.671661 0.123423 0.064914
O O11 0.750046 0.293710 0.615633
O O12 0.110478 0.204607 0.251401
O O13 0.987983 0.492998 0.179689
O O14 0.000000 0.000000 0.000000
O O15 0.841538 0.637805 0.911144
#
# Coordination Sequence:
#
# PCOD8014990 Si02
#       7
#     2   2   2   2   2   2   2
#     4  11  21  40  64  97 133 180 238 293 351 424
#     4  11  26  47  74 109 146 186 234 284 351 429
#     4  11  25  41  69 102 140 184 236 281 361 419
#     4  11  25  45  73 105 146 186 231 295 348 419
#     4   9  21  39  64  93 135 181 234 297 363 423
#     4  11  24  40  69 102 135 186 240 295 352 429
#     4  10  21  42  64  94 137 182 233 302 359 419
#
# _framework density 23.283187000000002
#
# number of rings (size 3 to 8) (size 9 to 14) (size 15 to 20)
#    0.000    1.429    2.857    1.286    2.000    6.286 
#    0.000   10.000    0.000    0.000    0.000    0.000 
#    0.000    0.000    0.000    0.000    0.000    0.000 
#
# Total GULP energy -173458.219586 kJ/mol
# GULP energy per Si atom -12389.872828 kJ/mol
# Density = 2.323019 g / cm^3
# Si number density = 23.283187 Si / 1000 Ang^3
#
#
#
# Elastic Constant Matrix: (Units=GPa)
#
#
# Indices 1 2 3 4 5 6 
#
# 1 128.5647 46.6908 63.9250 -6.6463 -3.5589 15.3823
# 2 46.6908 89.7735 44.0303 -12.9456 -10.5842 17.9713
# 3 63.9250 44.0303 153.1057 -9.8383 -2.6529 -12.7584
# 4 -6.6463 -12.9456 -9.8383 38.5356 -3.0621 -4.2848
# 5 -3.5589 -10.5842 -2.6529 -3.0621 37.2995 5.0673
# 6 15.3823 17.9713 -12.7584 -4.2848 5.0673 40.9177
#
#
#
# Elastic Compliance Matrix: (Units=1/GPa)
#
#
# Indices 1 2 3 4 5 6 
#
# 1 0.011563 -0.002987 -0.004375 -0.000589 0.000511 -0.004524
# 2 -0.002987 0.017634 -0.004158 0.003897 0.005862 -0.008236
# 3 -0.004375 -0.004158 0.010174 0.001084 -0.001732 0.006971
# 4 -0.000589 0.003897 0.001084 0.027842 0.003227 0.001363
# 5 0.000511 0.005862 -0.001732 0.003227 0.029565 -0.006630
# 6 -0.004524 -0.008236 0.006971 0.001363 -0.006630 0.032895
#
#
# Mechanical properties :
#
#
# Convention : Reuss Voigt Hill
#
# Bulk Modulus (GPa) = 61.23324 75.63735 68.43529
# Shear Modulus (GPa) = 31.61377 37.80375 34.70876
#
# Velocity S-wave (km/s) = 3.68882 4.03383 3.86518
# Velocity P-wave (km/s) = 6.67081 7.36560 7.02679
#
# Compressibility (1/GPa) = 0.01633100
#
# Stress axis : x y z
#
# Youngs Moduli (GPa) = 86.48024 56.70755 98.28580
#
# Poissons Ratio (x) = 0.16941 0.42998
# Poissons Ratio (y) = 0.25835 0.40871
# Poissons Ratio (z) = 0.37833 0.23581
#
# Static dielectric constant tensor:
#      x y z
#    x 4.044020 0.168780 0.136620 
#    y 0.168780 4.508070 -0.226040 
#    z 0.136620 -0.226040 4.532640 
# 
# 
# High freq. dielectric constant tensor:
#      x y z
#    x 1.904930 0.025300 0.000260 
#    y 0.025300 1.919690 0.004600 
#    z 0.000260 0.004600 1.936160 
# 
# From -- ./inp_files/10405.got.cif
#   From: 2010.06.25/outbox.cif.g09.slc.cpg/sg2_6_cif.got.tgz:10405.got - 2010.06.27 13:26:56.
