data_PCOD8014002
_publ_section_title
;
Structure prediction by ZEFSAII (Michael W. Deem and Ramdas Pophale) SiO2 
 PCOD8014002
Probable space group: P -1
;
_chemical_formula_sum "Si O2"
_cell_formula_units_Z 16
_cell_length_a 14.683038
_cell_length_b 14.220612
_cell_length_c 9.868405
_cell_angle_alpha 86.603870
_cell_angle_beta 63.208605
_cell_angle_gamma 32.491838
_cell_volume 734.104044
_symmetry_space_group_name_H-M "P -1"
_symmetry_group_IT_number 2
_symmetry_cell_setting 'triclinic'
loop_
_space_group_symop_operation_xyz
x,y,z
-x,-y,-z
loop_
_atom_site_type_symbol
_atom_site_label
_atom_site_fract_x
_atom_site_fract_y
_atom_site_fract_z
Si Si1 0.388741 0.612639 0.267688
Si Si2 0.357308 0.229513 0.997598
Si Si3 0.872056 0.272338 0.343023
Si Si4 0.871992 0.129849 0.861591
Si Si5 0.405979 0.741985 0.469713
Si Si6 0.488971 0.885668 0.377252
Si Si7 0.855510 0.734961 0.202653
Si Si8 0.770228 0.867474 0.950086
O O1 0.189086 0.710713 0.465585
O O2 0.281293 0.722162 0.184052
O O3 0.385576 0.716620 0.334898
O O4 0.676765 0.324759 0.095626
O O5 0.212487 0.252436 0.112129
O O6 0.155097 0.478470 0.059114
O O7 0.566066 0.045899 0.750668
O O8 0.498548 0.138720 0.051078
O O9 0.596560 0.511134 0.438354
O O10 0.006320 0.259887 0.253989
O O11 0.050159 0.046062 0.164118
O O12 0.128405 0.976400 0.708040
O O13 0.523756 0.745989 0.390295
O O14 0.753786 0.714120 0.253410
O O15 0.263051 0.116854 0.599084
O O16 0.790285 0.851539 0.101972
#
# Coordination Sequence:
#
# PCOD8014002 Si02
#       8
#     2   2   2   2   2   2   2   2
#     4  10  23  42  61  84 124 157 200 257 306 369
#     4  10  21  41  64  90 128 171 204 259 313 363
#     4  11  22  38  61  90 121 158 200 257 306 369
#     4  10  23  41  60  88 120 157 201 255 309 368
#     4  11  22  37  64  91 117 161 203 251 309 371
#     4  10  22  38  67  92 126 167 210 251 307 377
#     4  10  21  44  61  92 133 167 205 259 310 364
#     4  10  22  39  64  95 127 162 215 256 308 377
#
# _framework density 21.795276999999999
#
# number of rings (size 3 to 8) (size 9 to 14) (size 15 to 20)
#    0.000    1.750    0.000    6.000    3.500    5.000 
#    2.250   13.750    0.000    0.000    0.000    0.000 
#    0.000    0.000    0.000    0.000    0.000    0.000 
#
# Total GULP energy -198320.544135 kJ/mol
# GULP energy per Si atom -12395.034008 kJ/mol
# Density = 2.174567 g / cm^3
# Si number density = 21.795277 Si / 1000 Ang^3
#
#
#
# Elastic Constant Matrix: (Units=GPa)
#
#
# Indices 1 2 3 4 5 6 
#
# 1 89.4833 37.4714 51.6260 -4.6603 -16.6841 12.1042
# 2 37.4714 130.4971 45.2635 5.6943 -0.4543 -17.7085
# 3 51.6260 45.2635 118.2223 9.3670 -2.3609 1.2127
# 4 -4.6603 5.6943 9.3670 31.8862 -2.4681 -3.8933
# 5 -16.6841 -0.4543 -2.3609 -2.4681 15.7856 -5.2586
# 6 12.1042 -17.7085 1.2127 -3.8933 -5.2586 28.9971
#
#
#
# Elastic Compliance Matrix: (Units=1/GPa)
#
#
# Indices 1 2 3 4 5 6 
#
# 1 0.023921 -0.005211 -0.008535 0.007737 0.022504 -0.007691
# 2 -0.005211 0.011017 -0.001978 -0.001366 -0.002946 0.008268
# 3 -0.008535 -0.001978 0.013218 -0.005451 -0.008086 -0.000396
# 4 0.007737 -0.001366 -0.005451 0.035862 0.014108 0.003537
# 5 0.022504 -0.002946 -0.008086 0.014108 0.090529 0.007457
# 6 -0.007691 0.008268 -0.000396 0.003537 0.007457 0.044590
#
#
# Mechanical properties :
#
#
# Convention : Reuss Voigt Hill
#
# Bulk Modulus (GPa) = 59.85610 67.43606 63.64608
# Shear Modulus (GPa) = 19.51953 28.92322 24.22138
#
# Velocity S-wave (km/s) = 2.99588 3.64681 3.33725
# Velocity P-wave (km/s) = 6.28407 6.98141 6.64190
#
# Compressibility (1/GPa) = 0.01670673
#
# Stress axis : x y z
#
# Youngs Moduli (GPa) = 41.80445 90.77143 75.65629
#
# Poissons Ratio (x) = 0.47302 0.64576
# Poissons Ratio (y) = 0.21785 0.14963
# Poissons Ratio (z) = 0.35682 0.17952
#
# Static dielectric constant tensor:
#      x y z
#    x 3.754850 -0.044960 -0.020150 
#    y -0.044960 4.045570 0.065810 
#    z -0.020150 0.065810 4.086830 
# 
# 
# High freq. dielectric constant tensor:
#      x y z
#    x 1.843270 -0.003260 -0.012760 
#    y -0.003260 1.865680 -0.002080 
#    z -0.012760 -0.002080 1.849860 
# 
# From -- ./inp_files/315226.got.cif
#   From: 2010.06.25/outbox.cif.g09.slc.cpg/sg2_158_cif.got.tgz:315226.got - 2010.06.27 13:26:56.
