data_PCOD8014856
_publ_section_title
;
Structure prediction by ZEFSAII (Michael W. Deem and Ramdas Pophale) SiO2 
 PCOD8014856
Probable space group: P -1
;
_chemical_formula_sum "Si O2"
_cell_formula_units_Z 16
_cell_length_a 11.586982
_cell_length_b 17.273224
_cell_length_c 7.951618
_cell_angle_alpha 60.959508
_cell_angle_beta 108.889447
_cell_angle_gamma 149.495458
_cell_volume 690.081058
_symmetry_space_group_name_H-M "P -1"
_symmetry_group_IT_number 2
_symmetry_cell_setting 'triclinic'
loop_
_space_group_symop_operation_xyz
x,y,z
-x,-y,-z
loop_
_atom_site_type_symbol
_atom_site_label
_atom_site_fract_x
_atom_site_fract_y
_atom_site_fract_z
Si Si1 0.025088 0.562362 0.765922
Si Si2 0.151767 0.807858 0.734330
Si Si3 0.469796 0.828618 0.469522
Si Si4 0.294379 0.358876 0.245153
Si Si5 0.761590 0.854066 0.442255
Si Si6 0.370095 0.801034 0.088404
Si Si7 0.281936 0.265509 0.973345
Si Si8 0.782731 0.953608 0.989345
O O1 0.042870 0.678940 0.673126
O O2 0.249111 0.672370 0.647035
O O3 0.790494 0.385575 0.751519
O O4 0.000000 0.500000 0.000000
O O5 0.955042 0.749536 0.775482
O O6 0.345547 0.990768 0.544043
O O7 0.239433 0.801118 0.938123
O O8 0.573672 0.797047 0.512209
O O9 0.435161 0.865351 0.242172
O O10 0.318836 0.297086 0.460743
O O11 0.315586 0.316932 0.126377
O O12 0.487910 0.549194 0.194164
O O13 0.802646 0.914489 0.213833
O O14 0.000000 0.000000 0.500000
O O15 0.588525 0.910094 0.956591
O O16 0.286810 0.160430 0.068390
O O17 0.046161 0.155552 0.883245
#
# Coordination Sequence:
#
# PCOD8014856 Si02
#       8
#     2   2   2   2   2   2   2   2
#     4  10  23  41  61  93 125 161 209 258 311 369
#     4  11  22  40  62  91 128 163 209 251 309 372
#     4  11  22  40  66  88 124 167 208 255 314 368
#     4  11  22  39  62  91 126 163 205 257 302 374
#     4  11  21  41  63  89 123 164 205 254 310 368
#     4  10  22  41  63  88 128 165 205 254 311 371
#     4  10  22  38  62  93 122 161 211 249 309 363
#     4  10  21  42  62  90 124 162 206 259 306 367
#
# _framework density 23.185680000000001
#
# number of rings (size 3 to 8) (size 9 to 14) (size 15 to 20)
#    0.000    1.500    2.500    2.625    0.000    6.500 
#    0.000    3.750    0.000    0.000    0.000    0.000 
#    0.000    0.000    0.000    0.000    0.000    0.000 
#
# Total GULP energy -198227.781904 kJ/mol
# GULP energy per Si atom -12389.236369 kJ/mol
# Density = 2.313291 g / cm^3
# Si number density = 23.185680 Si / 1000 Ang^3
#
#
#
# Elastic Constant Matrix: (Units=GPa)
#
#
# Indices 1 2 3 4 5 6 
#
# 1 117.7332 27.2530 34.1071 -1.2116 0.1216 8.7161
# 2 27.2530 113.9898 9.4000 -28.3029 1.4443 -6.0804
# 3 34.1071 9.4000 31.0709 -3.7769 0.6798 13.6340
# 4 -1.2116 -28.3029 -3.7769 32.3055 1.6898 -3.3449
# 5 0.1216 1.4443 0.6798 1.6898 39.9129 -1.9107
# 6 8.7161 -6.0804 13.6340 -3.3449 -1.9107 38.3442
#
#
#
# Elastic Compliance Matrix: (Units=1/GPa)
#
#
# Indices 1 2 3 4 5 6 
#
# 1 0.013287 -0.002747 -0.014875 -0.003514 0.000535 0.001553
# 2 -0.002747 0.012518 -0.001132 0.011178 -0.000709 0.003951
# 3 -0.014875 -0.001132 0.056657 0.003437 -0.001825 -0.016735
# 4 -0.003514 0.011178 0.003437 0.041627 -0.001981 0.004882
# 5 0.000535 -0.000709 -0.001825 -0.001981 0.025265 0.001501
# 6 0.001553 0.003951 -0.016735 0.004882 0.001501 0.032804
#
#
# Mechanical properties :
#
#
# Convention : Reuss Voigt Hill
#
# Bulk Modulus (GPa) = 22.24466 44.92378 33.58422
# Shear Modulus (GPa) = 21.30838 34.91476 28.11157
#
# Velocity S-wave (km/s) = 3.03484 3.88477 3.48581
# Velocity P-wave (km/s) = 4.67924 6.28806 5.54234
#
# Compressibility (1/GPa) = 0.04495462
#
# Stress axis : x y z
#
# Youngs Moduli (GPa) = 75.26066 79.88600 17.65019
#
# Poissons Ratio (x) = 0.21941 0.26255
# Poissons Ratio (y) = 0.20671 0.01998
# Poissons Ratio (z) = 1.11952 0.09041
#
# Static dielectric constant tensor:
#      x y z
#    x 2.896430 0.979300 -1.380850 
#    y 0.979300 4.170680 0.862780 
#    z -1.380850 0.862780 3.039680 
# 
# 
# High freq. dielectric constant tensor:
#      x y z
#    x 1.919510 -0.006080 -0.006940 
#    y -0.006080 1.934710 -0.015030 
#    z -0.006940 -0.015030 1.894320 
# 
# From -- ./inp_files/277618.got.cif
#   From: 2010.06.25/outbox.cif.g09.slc.cpg/sg2_139_cif.got.tgz:277618.got - 2010.06.27 13:26:56.
