data_PCOD8014882
_publ_section_title
;
Structure prediction by ZEFSAII (Michael W. Deem and Ramdas Pophale) SiO2 
 PCOD8014882
Probable space group: P -1
;
_chemical_formula_sum "Si O2"
_cell_formula_units_Z 16
_cell_length_a 9.797786
_cell_length_b 9.154476
_cell_length_c 25.780226
_cell_angle_alpha 152.509862
_cell_angle_beta 134.054990
_cell_angle_gamma 57.561084
_cell_volume 744.190289
_symmetry_space_group_name_H-M "P -1"
_symmetry_group_IT_number 2
_symmetry_cell_setting 'triclinic'
loop_
_space_group_symop_operation_xyz
x,y,z
-x,-y,-z
loop_
_atom_site_type_symbol
_atom_site_label
_atom_site_fract_x
_atom_site_fract_y
_atom_site_fract_z
Si Si1 0.704128 0.461796 0.022631
Si Si2 0.523999 0.273244 0.387866
Si Si3 0.622875 0.882618 0.540143
Si Si4 0.008903 0.709693 0.271928
Si Si5 0.182574 0.127034 0.625294
Si Si6 0.794775 0.827007 0.866768
Si Si7 0.770575 0.415584 0.915882
Si Si8 0.437802 0.564097 0.231282
O O1 0.868919 0.615418 0.155764
O O2 0.500000 0.500000 0.000000
O O3 0.728141 0.606855 0.016654
O O4 0.712292 0.087281 0.894400
O O5 0.500000 0.500000 0.500000
O O6 0.552799 0.497621 0.413850
O O7 0.719670 0.150005 0.413067
O O8 0.337175 0.970938 0.235478
O O9 0.500000 0.000000 0.500000
O O10 0.846138 0.944922 0.596908
O O11 0.607330 0.093761 0.654298
O O12 0.156959 0.472368 0.246569
O O13 0.885404 0.701516 0.288723
O O14 0.337574 0.381122 0.710643
O O15 0.000000 0.000000 0.500000
O O16 0.621212 0.702199 0.823415
O O17 0.000000 0.000000 0.000000
O O18 0.697099 0.580292 0.898805
O O19 0.000000 0.500000 0.000000
#
# Coordination Sequence:
#
# PCOD8014882 Si02
#       8
#     2   2   2   2   2   2   2   2
#     4  11  23  42  65  95 133 172 219 279 337 396
#     4  11  24  42  69 102 136 176 233 280 340 407
#     4  11  22  41  68  95 131 179 225 280 337 400
#     4  10  23  42  64  93 134 168 228 276 330 405
#     4  11  23  43  65  98 139 175 220 286 343 398
#     4   9  20  40  65  88 124 174 218 265 333 399
#     4  11  22  39  68  98 134 173 222 279 338 397
#     4  10  21  42  62  95 133 168 226 277 329 405
#
# _framework density 21.499877999999999
#
# number of rings (size 3 to 8) (size 9 to 14) (size 15 to 20)
#    0.000    1.500    2.500    4.500    3.500    0.500 
#    2.250    6.875    0.000    0.000    0.000    0.000 
#    0.000    0.000    0.000    0.000    0.000    0.000 
#
# Total GULP energy -198233.971331 kJ/mol
# GULP energy per Si atom -12389.623208 kJ/mol
# Density = 2.145094 g / cm^3
# Si number density = 21.499878 Si / 1000 Ang^3
#
#
#
# Elastic Constant Matrix: (Units=GPa)
#
#
# Indices 1 2 3 4 5 6 
#
# 1 172.5829 29.1280 44.2129 -14.0728 0.9137 -7.5526
# 2 29.1280 103.4173 29.0604 -13.2650 3.1413 -9.4182
# 3 44.2129 29.0604 89.5773 -20.0736 10.7402 -3.5442
# 4 -14.0728 -13.2650 -20.0736 38.8170 5.1097 1.6648
# 5 0.9137 3.1413 10.7402 5.1097 49.7411 -6.3146
# 6 -7.5526 -9.4182 -3.5442 1.6648 -6.3146 32.2012
#
#
#
# Elastic Compliance Matrix: (Units=1/GPa)
#
#
# Indices 1 2 3 4 5 6 
#
# 1 0.006800 -0.000937 -0.002985 0.000466 0.000670 0.001100
# 2 -0.000937 0.011165 -0.002604 0.002015 0.000004 0.002656
# 3 -0.002985 -0.002604 0.015375 0.006527 -0.003881 -0.000868
# 4 0.000466 0.002015 0.006527 0.030680 -0.004839 -0.001118
# 5 0.000670 0.000004 -0.003881 -0.004839 0.021971 0.004290
# 6 0.001100 0.002656 -0.000868 -0.001118 0.004290 0.032893
#
#
# Mechanical properties :
#
#
# Convention : Reuss Voigt Hill
#
# Bulk Modulus (GPa) = 49.28628 63.37554 56.33091
# Shear Modulus (GPa) = 36.04966 41.69695 38.87330
#
# Velocity S-wave (km/s) = 4.09924 4.40864 4.25675
# Velocity P-wave (km/s) = 6.73638 7.44688 7.10052
#
# Compressibility (1/GPa) = 0.02028962
#
# Stress axis : x y z
#
# Youngs Moduli (GPa) = 147.06688 89.56341 65.04041
#
# Poissons Ratio (x) = 0.08391 0.19412
# Poissons Ratio (y) = 0.13779 0.16935
# Poissons Ratio (z) = 0.43893 0.23320
#
# Static dielectric constant tensor:
#      x y z
#    x 4.549890 -0.023960 0.152480 
#    y -0.023960 4.240940 0.060950 
#    z 0.152480 0.060950 4.137190 
# 
# 
# High freq. dielectric constant tensor:
#      x y z
#    x 1.858010 0.014670 0.008190 
#    y 0.014670 1.833290 -0.021900 
#    z 0.008190 -0.021900 1.846020 
# 
# From -- ./inp_files/606953.got.cif
#   From: 2010.06.25/outbox.cif.g09.slc.cpg/sg2_304_cif.got.tgz:606953.got - 2010.06.27 13:26:56.
