data_PCOD8014351
_publ_section_title
;
Structure prediction by ZEFSAII (Michael W. Deem and Ramdas Pophale) SiO2 
 PCOD8014351
Probable space group: P -1
;
_chemical_formula_sum "Si O2"
_cell_formula_units_Z 16
_cell_length_a 21.927946
_cell_length_b 6.947146
_cell_length_c 13.646493
_cell_angle_alpha 103.169166
_cell_angle_beta 159.217918
_cell_angle_gamma 78.389498
_cell_volume 717.797039
_symmetry_space_group_name_H-M "P -1"
_symmetry_group_IT_number 2
_symmetry_cell_setting 'triclinic'
loop_
_space_group_symop_operation_xyz
x,y,z
-x,-y,-z
loop_
_atom_site_type_symbol
_atom_site_label
_atom_site_fract_x
_atom_site_fract_y
_atom_site_fract_z
Si Si1 0.489969 0.701241 0.295407
Si Si2 0.796097 0.121159 0.636164
Si Si3 0.822731 0.928750 0.856075
Si Si4 0.589168 0.426714 0.254980
Si Si5 0.941969 0.721783 0.525308
Si Si6 0.234091 0.008835 0.000752
Si Si7 0.691020 0.756966 0.316255
Si Si8 0.218768 0.410233 0.920379
O O1 0.691724 0.738343 0.625444
O O2 0.472084 0.592643 0.150170
O O3 0.403632 0.915785 0.196944
O O4 0.387293 0.556108 0.200912
O O5 0.698520 0.320530 0.489948
O O6 0.801350 0.093618 0.758095
O O7 0.683291 0.936351 0.401738
O O8 0.983805 0.145377 0.871364
O O9 0.779460 0.026455 0.906704
O O10 0.714113 0.548544 0.382522
O O11 0.479119 0.263058 0.009168
O O12 0.858143 0.801283 0.507053
O O13 0.791580 0.682719 0.215204
O O14 0.042955 0.525551 0.682894
O O15 0.070857 0.891134 0.694468
O O16 0.232602 0.240815 0.002677
#
# Coordination Sequence:
#
# PCOD8014351 Si02
#       8
#     2   2   2   2   2   2   2   2
#     4  11  24  44  61  98 132 169 221 270 314 393
#     4  11  25  47  67  96 135 175 217 273 327 381
#     4  11  25  46  66  95 134 177 225 264 314 401
#     4  11  25  43  70 100 129 173 217 275 336 382
#     4  10  21  41  66  99 132 163 224 273 325 396
#     4  11  24  44  67  95 132 177 217 269 329 383
#     4  11  22  44  69 101 132 165 221 277 325 397
#     4  10  23  41  66  98 131 173 213 277 333 380
#
# _framework density 22.290424000000002
#
# number of rings (size 3 to 8) (size 9 to 14) (size 15 to 20)
#    0.000    1.250    3.750    1.125    3.500    1.000 
#    9.000    0.000    0.000    0.000    0.000    0.000 
#    0.000    0.000    0.000    0.000    0.000    0.000 
#
# Total GULP energy -198370.146809 kJ/mol
# GULP energy per Si atom -12398.134176 kJ/mol
# Density = 2.223969 g / cm^3
# Si number density = 22.290424 Si / 1000 Ang^3
#
#
#
# Elastic Constant Matrix: (Units=GPa)
#
#
# Indices 1 2 3 4 5 6 
#
# 1 85.6069 21.5849 29.0829 -15.1646 -2.9797 2.6636
# 2 21.5849 91.3714 42.4730 -5.2212 -0.0410 18.9356
# 3 29.0829 42.4730 93.9938 9.2933 4.0787 11.0113
# 4 -15.1646 -5.2212 9.2933 36.4087 7.1499 -3.6393
# 5 -2.9797 -0.0410 4.0787 7.1499 28.8448 4.2490
# 6 2.6636 18.9356 11.0113 -3.6393 4.2490 30.5601
#
#
#
# Elastic Compliance Matrix: (Units=1/GPa)
#
#
# Indices 1 2 3 4 5 6 
#
# 1 0.014994 -0.001180 -0.005112 0.007582 0.000073 0.002159
# 2 -0.001180 0.015751 -0.006183 0.002364 0.001267 -0.007323
# 3 -0.005112 -0.006183 0.016020 -0.007196 -0.000686 -0.002257
# 4 0.007582 0.002364 -0.007196 0.034876 -0.007679 0.005688
# 5 0.000073 0.001267 -0.000686 -0.007679 0.037664 -0.006696
# 6 0.002159 -0.007323 -0.002257 0.005688 -0.006696 0.039493
#
#
# Mechanical properties :
#
#
# Convention : Reuss Voigt Hill
#
# Bulk Modulus (GPa) = 45.83984 50.80598 48.32291
# Shear Modulus (GPa) = 26.17525 31.01812 28.59669
#
# Velocity S-wave (km/s) = 3.43050 3.73439 3.58566
# Velocity P-wave (km/s) = 6.02499 6.43711 6.23446
#
# Compressibility (1/GPa) = 0.02181509
#
# Stress axis : x y z
#
# Youngs Moduli (GPa) = 66.69354 63.48995 62.42098
#
# Poissons Ratio (x) = 0.07492 0.31909
# Poissons Ratio (y) = 0.07870 0.38595
# Poissons Ratio (z) = 0.34093 0.39256
#
# Static dielectric constant tensor:
#      x y z
#    x 3.977030 0.002900 0.046190 
#    y 0.002900 3.796340 0.264420 
#    z 0.046190 0.264420 3.952110 
# 
# 
# High freq. dielectric constant tensor:
#      x y z
#    x 1.880250 -0.000400 0.008250 
#    y -0.000400 1.866710 0.024220 
#    z 0.008250 0.024220 1.873620 
# 
# From -- ./inp_files/124179.got.cif
#   From: 2010.06.25/outbox.cif.g09.slc.cpg/sg2_63_cif.got.tgz:124179.got - 2010.06.27 13:26:56.
