data_PCOD8014149
_publ_section_title
;
Structure prediction by ZEFSAII (Michael W. Deem and Ramdas Pophale) SiO2 
 PCOD8014149
Probable space group: P -1
;
_chemical_formula_sum "Si O2"
_cell_formula_units_Z 16
_cell_length_a 15.725739
_cell_length_b 5.481558
_cell_length_c 15.931169
_cell_angle_alpha 89.710039
_cell_angle_beta 145.184609
_cell_angle_gamma 75.526520
_cell_volume 702.123208
_symmetry_space_group_name_H-M "P -1"
_symmetry_group_IT_number 2
_symmetry_cell_setting 'triclinic'
loop_
_space_group_symop_operation_xyz
x,y,z
-x,-y,-z
loop_
_atom_site_type_symbol
_atom_site_label
_atom_site_fract_x
_atom_site_fract_y
_atom_site_fract_z
Si Si1 0.157169 0.725418 0.717258
Si Si2 0.686990 0.559741 0.481107
Si Si3 0.802972 0.168835 0.435307
Si Si4 0.175881 0.434706 0.234930
Si Si5 0.629399 0.467578 0.749173
Si Si6 0.332116 0.102919 0.916393
Si Si7 0.517093 0.905636 0.788066
Si Si8 0.129670 0.090837 0.069777
O O1 0.189198 0.682071 0.643999
O O2 0.226329 0.427867 0.815184
O O3 0.235856 0.922351 0.815504
O O4 0.957545 0.870021 0.569214
O O5 0.820848 0.337566 0.528719
O O6 0.777136 0.629881 0.630022
O O7 0.565618 0.441721 0.421417
O O8 0.576311 0.819232 0.337572
O O9 0.622792 0.173826 0.288793
O O10 0.289198 0.545748 0.275850
O O11 0.212719 0.155434 0.218319
O O12 0.977295 0.638779 0.072490
O O13 0.646138 0.677330 0.828925
O O14 0.726834 0.156285 0.865708
O O15 0.375961 0.058433 0.050197
O O16 0.500000 0.000000 0.000000
O O17 0.000000 0.000000 0.000000
#
# Coordination Sequence:
#
# PCOD8014149 Si02
#       8
#     2   2   2   2   2   2   2   2
#     4  11  26  46  76 102 141 187 231 282 347 417
#     4  11  24  41  65  95 134 170 226 280 340 406
#     4  10  25  45  67 101 137 179 226 284 341 410
#     4  10  21  41  65  92 124 177 219 276 342 404
#     4  10  22  40  63  93 126 174 217 284 334 405
#     4  12  25  45  74 106 137 186 231 284 348 411
#     4  11  25  41  66  98 139 174 231 284 340 412
#     4   9  20  39  62  87 123 165 221 274 330 407
#
# _framework density 22.788021000000001
#
# number of rings (size 3 to 8) (size 9 to 14) (size 15 to 20)
#    0.000    1.500    1.250    2.250    5.250    8.000 
#    6.750    0.000    0.000    0.000    0.000    0.000 
#    0.000    0.000    0.000    0.000    0.000    0.000 
#
# Total GULP energy -198324.409152 kJ/mol
# GULP energy per Si atom -12395.275572 kJ/mol
# Density = 2.273615 g / cm^3
# Si number density = 22.788021 Si / 1000 Ang^3
#
#
#
# Elastic Constant Matrix: (Units=GPa)
#
#
# Indices 1 2 3 4 5 6 
#
# 1 75.3567 28.9660 41.4457 -3.9037 -14.1852 -27.2437
# 2 28.9660 114.2950 41.3903 -8.2643 -13.1346 -11.4992
# 3 41.4457 41.3903 110.7183 0.0825 -27.4812 -17.7719
# 4 -3.9037 -8.2643 0.0825 40.4773 -6.1323 0.9537
# 5 -14.1852 -13.1346 -27.4812 -6.1323 38.1611 0.8585
# 6 -27.2437 -11.4992 -17.7719 0.9537 0.8585 36.3979
#
#
#
# Elastic Compliance Matrix: (Units=1/GPa)
#
#
# Indices 1 2 3 4 5 6 
#
# 1 0.022383 -0.002060 -0.004248 0.002114 0.004580 0.013865
# 2 -0.002060 0.010631 -0.002860 0.002147 0.001171 0.000336
# 3 -0.004248 -0.002860 0.013944 0.000043 0.007428 0.002549
# 4 0.002114 0.002147 0.000043 0.026181 0.005730 0.001460
# 5 0.004580 0.001171 0.007428 0.005730 0.034435 0.006462
# 6 0.013865 0.000336 0.002549 0.001460 0.006462 0.039012
#
#
# Mechanical properties :
#
#
# Convention : Reuss Voigt Hill
#
# Bulk Modulus (GPa) = 34.93856 58.21933 46.57895
# Shear Modulus (GPa) = 28.65971 35.57846 32.11909
#
# Velocity S-wave (km/s) = 3.55021 3.95559 3.75837
# Velocity P-wave (km/s) = 5.67191 6.81659 6.27043
#
# Compressibility (1/GPa) = 0.02862167
#
# Stress axis : x y z
#
# Youngs Moduli (GPa) = 44.67773 94.06696 71.71598
#
# Poissons Ratio (x) = 0.19379 0.30463
# Poissons Ratio (y) = 0.09204 0.20510
# Poissons Ratio (z) = 0.18978 0.26902
#
# Static dielectric constant tensor:
#      x y z
#    x 4.221460 -0.240670 0.363710 
#    y -0.240670 4.346020 -0.084480 
#    z 0.363710 -0.084480 4.330600 
# 
# 
# High freq. dielectric constant tensor:
#      x y z
#    x 1.898330 -0.008680 0.013610 
#    y -0.008680 1.912080 -0.001850 
#    z 0.013610 -0.001850 1.895090 
# 
# From -- ./inp_files/139054.got.cif
#   From: 2010.06.25/outbox.cif.g09.slc.cpg/sg2_70_cif.got.tgz:139054.got - 2010.06.27 13:26:56.
