data_PCOD8014463
_publ_section_title
;
Structure prediction by ZEFSAII (Michael W. Deem and Ramdas Pophale) SiO2 
 PCOD8014463
Probable space group: P -1
;
_chemical_formula_sum "Si O2"
_cell_formula_units_Z 12
_cell_length_a 5.149349
_cell_length_b 7.082547
_cell_length_c 13.459681
_cell_angle_alpha 76.900482
_cell_angle_beta 106.377269
_cell_angle_gamma 69.681727
_cell_volume 411.925033
_symmetry_space_group_name_H-M "P -1"
_symmetry_group_IT_number 2
_symmetry_cell_setting 'triclinic'
loop_
_space_group_symop_operation_xyz
x,y,z
-x,-y,-z
loop_
_atom_site_type_symbol
_atom_site_label
_atom_site_fract_x
_atom_site_fract_y
_atom_site_fract_z
Si Si1 0.663041 0.182667 0.757386
Si Si2 0.223935 0.609171 0.780635
Si Si3 0.728354 0.749103 0.878818
Si Si4 0.229615 0.211635 0.907324
Si Si5 0.750462 0.426051 0.451267
Si Si6 0.801541 0.996650 0.574653
O O1 0.421094 0.442472 0.685563
O O2 0.965035 0.168804 0.839193
O O3 0.562402 0.016631 0.825034
O O4 0.740541 0.094743 0.665321
O O5 0.470423 0.675142 0.840403
O O6 0.346880 0.344501 0.827353
O O7 0.960986 0.669999 0.824748
O O8 0.057144 0.742655 0.645470
O O9 0.885058 0.660799 0.014127
O O10 0.500000 0.000000 0.000000
O O11 0.500000 0.500000 0.500000
O O12 0.000000 0.500000 0.500000
O O13 0.898285 0.158630 0.499909
O O14 0.500000 0.000000 0.500000
#
# Coordination Sequence:
#
# PCOD8014463 Si02
#       6
#     2   2   2   2   2   2
#     4  10  23  42  66 103 139 178 229 284 341 410
#     4  11  25  46  70 101 138 182 231 283 342 413
#     4  11  24  46  70 100 139 184 228 280 342 411
#     4  12  25  44  71 104 141 186 232 287 346 409
#     4  10  21  41  67  97 130 170 218 277 336 398
#     4  10  21  43  68  97 134 180 227 281 343 409
#
# _framework density 29.131516999999999
#
# number of rings (size 3 to 8) (size 9 to 14) (size 15 to 20)
#    0.000    1.333    0.000    5.500    0.000    4.000 
#    0.000   23.333    0.000    0.000    0.000    0.000 
#    0.000    0.000    0.000    0.000    0.000    0.000 
#
# Total GULP energy -148903.157373 kJ/mol
# GULP energy per Si atom -12408.596448 kJ/mol
# Density = 2.906521 g / cm^3
# Si number density = 29.131517 Si / 1000 Ang^3
#
#
#
# Elastic Constant Matrix: (Units=GPa)
#
#
# Indices 1 2 3 4 5 6 
#
# 1 169.0528 91.4604 80.8078 -10.7877 -11.9831 18.2082
# 2 91.4604 239.4920 88.9366 -12.9622 18.7864 13.1805
# 3 80.8078 88.9366 211.1828 2.5847 -10.4689 -3.1162
# 4 -10.7877 -12.9622 2.5847 87.6246 15.4494 16.2806
# 5 -11.9831 18.7864 -10.4689 15.4494 77.2257 -1.9919
# 6 18.2082 13.1805 -3.1162 16.2806 -1.9919 65.4718
#
#
#
# Elastic Compliance Matrix: (Units=1/GPa)
#
#
# Indices 1 2 3 4 5 6 
#
# 1 0.008717 -0.002408 -0.002298 0.000959 0.001377 -0.002246
# 2 -0.002408 0.006067 -0.001782 0.001261 -0.002370 -0.001022
# 3 -0.002298 -0.001782 0.006467 -0.001266 0.001249 0.001658
# 4 0.000959 0.001261 -0.001266 0.013016 -0.003034 -0.003910
# 5 0.001377 -0.002370 0.001249 -0.003034 0.014551 0.001351
# 6 -0.002246 -0.001022 0.001658 -0.003910 0.001351 0.017196
#
#
# Mechanical properties :
#
#
# Convention : Reuss Voigt Hill
#
# Bulk Modulus (GPa) = 120.83821 126.90412 123.87117
# Shear Modulus (GPa) = 61.16331 69.96595 65.56463
#
# Velocity S-wave (km/s) = 4.58706 4.90606 4.74924
# Velocity P-wave (km/s) = 8.34417 8.70342 8.52569
#
# Compressibility (1/GPa) = 0.00827553
#
# Stress axis : x y z
#
# Youngs Moduli (GPa) = 114.71344 164.81951 154.63650
#
# Poissons Ratio (x) = 0.39693 0.35536
# Poissons Ratio (y) = 0.27626 0.27551
# Poissons Ratio (z) = 0.26362 0.29365
#
# Static dielectric constant tensor:
#      x y z
#    x 8.910660 -0.853230 -2.626060 
#    y -0.853230 6.510630 -1.939960 
#    z -2.626060 -1.939960 9.927460 
# 
# 
# High freq. dielectric constant tensor:
#      x y z
#    x 2.280890 -0.048060 -0.043420 
#    y -0.048060 2.233250 -0.044880 
#    z -0.043420 -0.044880 2.227020 
# 
# From -- ./inp_files/615168.got.cif
#   From: 2010.06.25/outbox.cif.g09.slc.cpg/sg2_308_cif.got.tgz:615168.got - 2010.06.27 13:26:56.
