data_PCOD8014188
_publ_section_title
;
Structure prediction by ZEFSAII (Michael W. Deem and Ramdas Pophale) SiO2 
 PCOD8014188
Probable space group: P -1
;
_chemical_formula_sum "Si O2"
_cell_formula_units_Z 16
_cell_length_a 11.973828
_cell_length_b 9.542587
_cell_length_c 18.030315
_cell_angle_alpha 40.248754
_cell_angle_beta 129.484300
_cell_angle_gamma 98.668590
_cell_volume 761.723646
_symmetry_space_group_name_H-M "P -1"
_symmetry_group_IT_number 2
_symmetry_cell_setting 'triclinic'
loop_
_space_group_symop_operation_xyz
x,y,z
-x,-y,-z
loop_
_atom_site_type_symbol
_atom_site_label
_atom_site_fract_x
_atom_site_fract_y
_atom_site_fract_z
Si Si1 0.956364 0.590286 0.530678
Si Si2 0.448439 0.801851 0.862839
Si Si3 0.623926 0.702439 0.127639
Si Si4 0.425227 0.255364 0.419716
Si Si5 0.969753 0.865249 0.156766
Si Si6 0.031617 0.253091 0.959568
Si Si7 0.390302 0.580983 0.149463
Si Si8 0.650291 0.792353 0.815234
O O1 0.000000 0.500000 0.500000
O O2 0.145945 0.508813 0.679802
O O3 0.898062 0.435023 0.617977
O O4 0.780497 0.938692 0.320771
O O5 0.498429 0.872190 0.780411
O O6 0.500000 0.500000 0.000000
O O7 0.576817 0.781074 0.989900
O O8 0.560745 0.524337 0.198356
O O9 0.500000 0.000000 0.000000
O O10 0.467786 0.440163 0.321655
O O11 0.195743 0.460571 0.254663
O O12 0.500000 0.000000 0.500000
O O13 0.546669 0.105530 0.606995
O O14 0.896557 0.841552 0.056746
O O15 0.788078 0.076121 0.051110
O O16 0.073804 0.989917 0.130995
O O17 0.143906 0.338310 0.011488
O O18 0.311508 0.445317 0.128832
#
# Coordination Sequence:
#
# PCOD8014188 Si02
#       8
#     2   2   2   2   2   2   2   2
#     4  12  25  42  70  97 132 179 221 267 337 400
#     4  12  26  46  67 100 136 171 226 282 323 398
#     4  12  23  45  70  97 135 178 221 274 336 393
#     4   9  21  40  61  93 131 162 214 266 320 387
#     4  10  21  41  66  96 131 166 221 266 325 398
#     4  10  22  41  67  94 126 173 210 274 330 379
#     4  10  21  41  65  94 133 171 216 274 321 392
#     4  11  23  42  66  93 131 169 220 270 329 388
#
# _framework density 21.004992999999999
#
# number of rings (size 3 to 8) (size 9 to 14) (size 15 to 20)
#    0.000    1.250    3.750    1.500    0.000    6.000 
#    4.500    6.250    0.000    0.000    0.000    0.000 
#    0.000    0.000    0.000    0.000    0.000    0.000 
#
# Total GULP energy -198348.347857 kJ/mol
# GULP energy per Si atom -12396.771741 kJ/mol
# Density = 2.095719 g / cm^3
# Si number density = 21.004993 Si / 1000 Ang^3
#
#
#
# Elastic Constant Matrix: (Units=GPa)
#
#
# Indices 1 2 3 4 5 6 
#
# 1 89.4293 26.8574 32.2121 1.3855 -10.4316 -12.6554
# 2 26.8574 99.3524 44.7842 0.8003 3.2315 -8.5582
# 3 32.2121 44.7842 119.8069 -2.9611 5.4624 -7.0883
# 4 1.3855 0.8003 -2.9611 33.6591 -2.5934 -0.5116
# 5 -10.4316 3.2315 5.4624 -2.5934 42.4761 3.2800
# 6 -12.6554 -8.5582 -7.0883 -0.5116 3.2800 33.9654
#
#
#
# Elastic Compliance Matrix: (Units=1/GPa)
#
#
# Indices 1 2 3 4 5 6 
#
# 1 0.013825 -0.002262 -0.002833 -0.000430 0.003625 0.003634
# 2 -0.002262 0.012657 -0.003990 -0.000624 -0.001168 0.001617
# 3 -0.002833 -0.003990 0.010726 0.001027 -0.001737 0.000361
# 4 -0.000430 -0.000624 0.001027 0.029961 0.001624 0.000191
# 5 0.003625 -0.001168 -0.001737 0.001624 0.024975 -0.001694
# 6 0.003634 0.001617 0.000361 0.000191 -0.001694 0.031445
#
#
# Mechanical properties :
#
#
# Convention : Reuss Voigt Hill
#
# Bulk Modulus (GPa) = 52.52125 57.36623 54.94374
# Shear Modulus (GPa) = 33.76013 35.66912 34.71462
#
# Velocity S-wave (km/s) = 4.01339 4.12530 4.06973
# Velocity P-wave (km/s) = 6.82165 7.07537 6.94967
#
# Compressibility (1/GPa) = 0.01903991
#
# Stress axis : x y z
#
# Youngs Moduli (GPa) = 72.33123 79.00530 93.23488
#
# Poissons Ratio (x) = 0.17871 0.26409
# Poissons Ratio (y) = 0.16361 0.37198
# Poissons Ratio (z) = 0.20488 0.31521
#
# Static dielectric constant tensor:
#      x y z
#    x 4.074740 -0.072670 -0.396930 
#    y -0.072670 3.690540 -0.138500 
#    z -0.396930 -0.138500 4.039710 
# 
# 
# High freq. dielectric constant tensor:
#      x y z
#    x 1.835930 -0.018580 -0.016950 
#    y -0.018580 1.817440 -0.006720 
#    z -0.016950 -0.006720 1.820400 
# 
# From -- ./inp_files/566444.got.cif
#   From: 2010.06.25/outbox.cif.g09.slc.cpg/sg2_284_cif.got.tgz:566444.got - 2010.06.27 13:26:56.
