data_PCOD8014760
_publ_section_title
;
Structure prediction by ZEFSAII (Michael W. Deem and Ramdas Pophale) SiO2 
 PCOD8014760
Probable space group: P -1
;
_chemical_formula_sum "Si O2"
_cell_formula_units_Z 16
_cell_length_a 11.706185
_cell_length_b 12.691309
_cell_length_c 8.992710
_cell_angle_alpha 130.317320
_cell_angle_beta 48.258719
_cell_angle_gamma 113.114950
_cell_volume 758.380837
_symmetry_space_group_name_H-M "P -1"
_symmetry_group_IT_number 2
_symmetry_cell_setting 'triclinic'
loop_
_space_group_symop_operation_xyz
x,y,z
-x,-y,-z
loop_
_atom_site_type_symbol
_atom_site_label
_atom_site_fract_x
_atom_site_fract_y
_atom_site_fract_z
Si Si1 0.620465 0.612564 0.980389
Si Si2 0.121066 0.750310 0.967602
Si Si3 0.074257 0.011434 0.783942
Si Si4 0.057054 0.473778 0.261618
Si Si5 0.475513 0.703131 0.582700
Si Si6 0.515067 0.388581 0.186665
Si Si7 0.153908 0.734315 0.273293
Si Si8 0.594510 0.881877 0.399848
O O1 0.769650 0.584326 0.922755
O O2 0.635476 0.628274 0.802065
O O3 0.500000 0.500000 0.000000
O O4 0.542047 0.754098 0.235574
O O5 0.293714 0.722957 0.736392
O O6 0.030224 0.632976 0.858798
O O7 0.108648 0.751643 0.156784
O O8 0.054337 0.901995 0.119158
O O9 0.226472 0.094544 0.739735
O O10 0.116301 0.868364 0.531092
O O11 0.000000 0.000000 0.000000
O O12 0.045744 0.618966 0.319803
O O13 0.000000 0.500000 0.500000
O O14 0.540539 0.552983 0.327974
O O15 0.519282 0.694579 0.710504
O O16 0.548134 0.838314 0.569737
O O17 0.667000 0.315162 0.911223
O O18 0.500000 0.000000 0.500000
#
# Coordination Sequence:
#
# PCOD8014760 Si02
#       8
#     2   2   2   2   2   2   2   2
#     4  12  22  41  66  95 134 170 226 284 333 398
#     4  11  24  45  68 101 140 178 230 281 352 412
#     4  12  26  47  67  98 143 184 233 279 347 419
#     4  12  24  40  67 103 132 177 230 283 337 408
#     4  10  22  44  70 101 138 180 223 292 343 413
#     4  10  21  41  72 100 135 173 232 283 349 396
#     4  11  24  44  70  97 139 185 226 288 348 406
#     4  12  25  42  69 100 133 181 230 280 343 411
#
# _framework density 21.097577999999999
#
# number of rings (size 3 to 8) (size 9 to 14) (size 15 to 20)
#    0.000    0.750    3.750    3.750    0.000    0.000 
#    4.500    6.875    0.000    0.000    0.000    0.000 
#    0.000    0.000    0.000    0.000    0.000    0.000 
#
# Total GULP energy -198241.650638 kJ/mol
# GULP energy per Si atom -12390.103165 kJ/mol
# Density = 2.104956 g / cm^3
# Si number density = 21.097578 Si / 1000 Ang^3
#
#
#
# Elastic Constant Matrix: (Units=GPa)
#
#
# Indices 1 2 3 4 5 6 
#
# 1 127.7477 59.4513 47.1800 -7.4222 2.7884 -6.3044
# 2 59.4513 163.5032 67.6985 -8.2288 -2.8455 -16.2389
# 3 47.1800 67.6985 146.4703 5.8737 7.8953 -1.5819
# 4 -7.4222 -8.2288 5.8737 42.7006 -4.1763 0.5828
# 5 2.7884 -2.8455 7.8953 -4.1763 36.1361 4.7635
# 6 -6.3044 -16.2389 -1.5819 0.5828 4.7635 39.3077
#
#
#
# Elastic Compliance Matrix: (Units=1/GPa)
#
#
# Indices 1 2 3 4 5 6 
#
# 1 0.009922 -0.002677 -0.001988 0.001434 -0.000434 0.000437
# 2 -0.002677 0.008888 -0.003367 0.001815 0.001469 0.002902
# 3 -0.001988 -0.003367 0.009235 -0.002474 -0.002280 -0.001025
# 4 0.001434 0.001815 -0.002474 0.024691 0.003413 0.000101
# 5 -0.000434 0.001469 -0.002280 0.003413 0.029128 -0.003135
# 6 0.000437 0.002902 -0.001025 0.000101 -0.003135 0.027047
#
#
# Mechanical properties :
#
#
# Convention : Reuss Voigt Hill
#
# Bulk Modulus (GPa) = 83.45602 87.37566 85.41584
# Shear Modulus (GPa) = 38.76922 41.18832 39.97877
#
# Velocity S-wave (km/s) = 4.29139 4.42325 4.35782
# Velocity P-wave (km/s) = 8.01235 8.22142 8.11756
#
# Compressibility (1/GPa) = 0.01198236
#
# Stress axis : x y z
#
# Youngs Moduli (GPa) = 100.78379 112.50571 108.28426
#
# Poissons Ratio (x) = 0.30112 0.21531
# Poissons Ratio (y) = 0.26975 0.36456
# Poissons Ratio (z) = 0.20040 0.37878
#
# Static dielectric constant tensor:
#      x y z
#    x 6.485600 -0.292030 0.066690 
#    y -0.292030 4.058720 -0.051480 
#    z 0.066690 -0.051480 3.969380 
# 
# 
# High freq. dielectric constant tensor:
#      x y z
#    x 1.838380 -0.021360 0.002200 
#    y -0.021360 1.835210 0.000630 
#    z 0.002200 0.000630 1.837370 
# 
# From -- ./inp_files/261845.got.cif
#   From: 2010.06.25/outbox.cif.g09.slc.cpg/sg2_131_cif.got.tgz:261845.got - 2010.06.27 13:26:56.
