data_PCOD8014874
_publ_section_title
;
Structure prediction by ZEFSAII (Michael W. Deem and Ramdas Pophale) SiO2 
 PCOD8014874
Probable space group: P -1
;
_chemical_formula_sum "Si O2"
_cell_formula_units_Z 16
_cell_length_a 9.783276
_cell_length_b 18.197542
_cell_length_c 5.475407
_cell_angle_alpha 111.044154
_cell_angle_beta 117.380545
_cell_angle_gamma 59.625313
_cell_volume 736.519579
_symmetry_space_group_name_H-M "P -1"
_symmetry_group_IT_number 2
_symmetry_cell_setting 'triclinic'
loop_
_space_group_symop_operation_xyz
x,y,z
-x,-y,-z
loop_
_atom_site_type_symbol
_atom_site_label
_atom_site_fract_x
_atom_site_fract_y
_atom_site_fract_z
Si Si1 0.573247 0.906348 0.321105
Si Si2 0.491123 0.594372 0.584944
Si Si3 0.842730 0.734194 0.582946
Si Si4 0.392913 0.352739 0.745368
Si Si5 0.661562 0.176624 0.860230
Si Si6 0.857736 0.259921 0.433760
Si Si7 0.848482 0.845841 0.111413
Si Si8 0.022023 0.949731 0.209213
O O1 0.718468 0.827915 0.490055
O O2 0.421539 0.876775 0.114432
O O3 0.667782 0.908925 0.151177
O O4 0.500000 0.000000 0.500000
O O5 0.500000 0.500000 0.500000
O O6 0.594637 0.595349 0.423897
O O7 0.294829 0.659850 0.467878
O O8 0.573418 0.612072 0.924025
O O9 0.787382 0.654995 0.402881
O O10 0.032690 0.702446 0.596187
O O11 0.843342 0.757499 0.897399
O O12 0.524916 0.255180 0.693917
O O13 0.783236 0.116335 0.683513
O O14 0.773274 0.207558 0.157720
O O15 0.986140 0.187405 0.625145
O O16 0.889986 0.904968 0.019282
O O17 0.000000 0.000000 0.500000
O O18 0.000000 0.000000 0.000000
#
# Coordination Sequence:
#
# PCOD8014874 Si02
#       8
#     2   2   2   2   2   2   2   2
#     4  10  23  40  59  89 129 172 227 288 335 374
#     4  11  24  45  73 106 134 163 210 270 329 389
#     4  10  23  41  63  93 127 177 225 260 326 394
#     4  10  24  43  70  96 134 174 213 262 321 403
#     4  10  21  42  62  93 122 175 226 266 328 389
#     4  10  22  41  68  93 128 170 222 265 323 403
#     4  11  23  41  63  87 128 177 222 274 327 396
#     4  12  25  39  59  87 126 166 220 282 328 368
#
# _framework density 21.723794999999999
#
# number of rings (size 3 to 8) (size 9 to 14) (size 15 to 20)
#    0.000    1.500    1.250    2.625   12.250    1.500 
#    2.250    1.250    0.000    0.000    0.000    0.000 
#    0.000    0.000    0.000    0.000    0.000    0.000 
#
# Total GULP energy -198217.136555 kJ/mol
# GULP energy per Si atom -12388.571035 kJ/mol
# Density = 2.167435 g / cm^3
# Si number density = 21.723795 Si / 1000 Ang^3
#
#
#
# Elastic Constant Matrix: (Units=GPa)
#
#
# Indices 1 2 3 4 5 6 
#
# 1 176.6385 45.5250 59.6333 13.0828 13.3061 22.4528
# 2 45.5250 71.5205 20.0431 17.4041 4.4870 18.7004
# 3 59.6333 20.0431 91.6402 14.5071 3.4668 15.5842
# 4 13.0828 17.4041 14.5071 18.8081 7.3722 0.3652
# 5 13.3061 4.4870 3.4668 7.3722 42.2952 1.2322
# 6 22.4528 18.7004 15.5842 0.3652 1.2322 36.3638
#
#
#
# Elastic Compliance Matrix: (Units=1/GPa)
#
#
# Indices 1 2 3 4 5 6 
#
# 1 0.008468 -0.004331 -0.004746 0.002680 -0.002256 -0.000918
# 2 -0.004331 0.023998 0.002812 -0.022243 0.002776 -0.010743
# 3 -0.004746 0.002812 0.016212 -0.012569 0.002214 -0.005413
# 4 0.002680 -0.022243 -0.012569 0.086366 -0.012937 0.014741
# 5 -0.002256 0.002776 0.002214 -0.012937 0.026183 -0.001741
# 6 -0.000918 -0.010743 -0.005413 0.014741 -0.001741 0.035822
#
#
# Mechanical properties :
#
#
# Convention : Reuss Voigt Hill
#
# Bulk Modulus (GPa) = 27.66285 65.57801 46.62043
# Shear Modulus (GPa) = 22.56051 33.79994 28.18022
#
# Velocity S-wave (km/s) = 3.22610 3.94876 3.60558
# Velocity P-wave (km/s) = 5.16125 7.14444 6.23223
#
# Compressibility (1/GPa) = 0.03614957
#
# Stress axis : x y z
#
# Youngs Moduli (GPa) = 118.09526 41.67024 61.68348
#
# Poissons Ratio (x) = 0.18046 0.29274
# Poissons Ratio (y) = 0.51142 -0.17348
# Poissons Ratio (z) = 0.56046 -0.11720
#
# Static dielectric constant tensor:
#      x y z
#    x 4.750890 -0.197710 0.200550 
#    y -0.197710 3.972870 0.065300 
#    z 0.200550 0.065300 4.019670 
# 
# 
# High freq. dielectric constant tensor:
#      x y z
#    x 1.877590 0.003060 0.008500 
#    y 0.003060 1.828040 0.007780 
#    z 0.008500 0.007780 1.852330 
# 
# From -- ./inp_files/48745.got.cif
#   From: 2010.06.25/outbox.cif.g09.slc.cpg/sg2_25_cif.got.tgz:48745.got - 2010.06.27 13:26:56.
