data_PCOD8014672
_publ_section_title
;
Structure prediction by ZEFSAII (Michael W. Deem and Ramdas Pophale) SiO2 
 PCOD8014672
Probable space group: P -1
;
_chemical_formula_sum "Si O2"
_cell_formula_units_Z 14
_cell_length_a 20.424989
_cell_length_b 8.322109
_cell_length_c 20.193000
_cell_angle_alpha 34.930123
_cell_angle_beta 159.166857
_cell_angle_gamma 148.408295
_cell_volume 634.277246
_symmetry_space_group_name_H-M "P -1"
_symmetry_group_IT_number 2
_symmetry_cell_setting 'triclinic'
loop_
_space_group_symop_operation_xyz
x,y,z
-x,-y,-z
loop_
_atom_site_type_symbol
_atom_site_label
_atom_site_fract_x
_atom_site_fract_y
_atom_site_fract_z
Si Si1 0.488145 0.702392 0.981404
Si Si2 0.892924 0.452744 0.844314
Si Si3 0.432822 0.142264 0.325771
Si Si4 0.096521 0.727527 0.575061
Si Si5 0.702148 0.443498 0.363999
Si Si6 0.675775 0.853818 0.458321
Si Si7 0.300494 0.619117 0.101728
O O1 0.255239 0.635634 0.795188
O O2 0.625379 0.062423 0.976349
O O3 0.500000 0.500000 0.000000
O O4 0.551372 0.585042 0.147160
O O5 0.781365 0.680634 0.658856
O O6 0.717060 0.112955 0.780261
O O7 0.000000 0.500000 0.000000
O O8 0.066638 0.525942 0.929033
O O9 0.642296 0.350234 0.414906
O O10 0.314285 0.347157 0.163551
O O11 0.500000 0.000000 0.500000
O O12 0.000000 0.500000 0.500000
O O13 0.929825 0.711294 0.477630
O O14 0.214837 0.063212 0.538985
O O15 0.690646 0.150737 0.411180
O O16 0.437172 0.651364 0.286160
#
# Coordination Sequence:
#
# PCOD8014672 Si02
#       7
#     2   2   2   2   2   2   2
#     4  11  20  39  70 105 135 169 229 293 344 407
#     4  12  27  43  75 101 128 188 251 281 334 407
#     4  12  28  49  65  96 150 194 224 283 347 410
#     4   9  18  34  64 100 132 167 217 286 347 392
#     4  11  23  40  69  99 139 179 232 280 340 417
#     4  10  21  41  70 105 133 174 232 293 344 403
#     4  11  24  46  69  96 147 181 222 290 354 409
#
# _framework density 22.072368999999998
#
# number of rings (size 3 to 8) (size 9 to 14) (size 15 to 20)
#    0.000    1.143    5.714    2.143    4.000    1.714 
#    2.571    2.857    0.000    0.000    0.000    0.000 
#    0.000    0.000    0.000    0.000    0.000    0.000 
#
# Total GULP energy -173546.598978 kJ/mol
# GULP energy per Si atom -12396.185641 kJ/mol
# Density = 2.202213 g / cm^3
# Si number density = 22.072369 Si / 1000 Ang^3
#
#
#
# Elastic Constant Matrix: (Units=GPa)
#
#
# Indices 1 2 3 4 5 6 
#
# 1 77.1546 14.6710 27.7303 -11.8197 -8.0680 14.0082
# 2 14.6710 60.4928 23.7978 -22.3269 -3.5747 -7.3344
# 3 27.7303 23.7978 138.5252 -24.3935 -7.6281 4.0786
# 4 -11.8197 -22.3269 -24.3935 39.2128 4.7386 3.4227
# 5 -8.0680 -3.5747 -7.6281 4.7386 30.5220 0.0311
# 6 14.0082 -7.3344 4.0786 3.4227 0.0311 35.4349
#
#
#
# Elastic Compliance Matrix: (Units=1/GPa)
#
#
# Indices 1 2 3 4 5 6 
#
# 1 0.016167 -0.003013 -0.001959 0.002176 0.003100 -0.007002
# 2 -0.003013 0.022310 -0.001552 0.010417 -0.000194 0.004981
# 3 -0.001959 -0.001552 0.008634 0.003873 0.000858 -0.000916
# 4 0.002176 0.010417 0.003873 0.035042 -0.002675 -0.002532
# 5 0.003100 -0.000194 0.000858 -0.002675 0.034191 -0.001136
# 6 -0.007002 0.004981 -0.000916 -0.002532 -0.001136 0.032371
#
#
# Mechanical properties :
#
#
# Convention : Reuss Voigt Hill
#
# Bulk Modulus (GPa) = 29.35830 45.39676 37.37753
# Shear Modulus (GPa) = 28.88221 35.03217 31.95719
#
# Velocity S-wave (km/s) = 3.62128 3.98823 3.80917
# Velocity P-wave (km/s) = 5.55110 6.46683 6.02638
#
# Compressibility (1/GPa) = 0.03406192
#
# Stress axis : x y z
#
# Youngs Moduli (GPa) = 61.85557 44.82346 115.82267
#
# Poissons Ratio (x) = 0.13506 0.22686
# Poissons Ratio (y) = 0.18638 0.17981
# Poissons Ratio (z) = 0.12115 0.06959
#
# Static dielectric constant tensor:
#      x y z
#    x 4.013860 0.410090 0.277640 
#    y 0.410090 4.275440 0.208110 
#    z 0.277640 0.208110 4.208680 
# 
# 
# High freq. dielectric constant tensor:
#      x y z
#    x 1.850930 0.011580 0.011530 
#    y 0.011580 1.871770 -0.000500 
#    z 0.011530 -0.000500 1.881810 
# 
# From -- ./inp_files/505158.got.cif
#   From: 2010.06.25/outbox.cif.g09.slc.cpg/sg2_253_cif.got.tgz:505158.got - 2010.06.27 13:26:56.
