data_PCOD8014033
_publ_section_title
;
Structure prediction by ZEFSAII (Michael W. Deem and Ramdas Pophale) SiO2 
 PCOD8014033
Probable space group: P -1
;
_chemical_formula_sum "Si O2"
_cell_formula_units_Z 16
_cell_length_a 16.788809
_cell_length_b 8.674746
_cell_length_c 11.324327
_cell_angle_alpha 66.375772
_cell_angle_beta 153.928915
_cell_angle_gamma 109.372466
_cell_volume 662.444308
_symmetry_space_group_name_H-M "P -1"
_symmetry_group_IT_number 2
_symmetry_cell_setting 'triclinic'
loop_
_space_group_symop_operation_xyz
x,y,z
-x,-y,-z
loop_
_atom_site_type_symbol
_atom_site_label
_atom_site_fract_x
_atom_site_fract_y
_atom_site_fract_z
Si Si1 0.157875 0.391638 0.804644
Si Si2 0.112426 0.491290 0.972866
Si Si3 0.645259 0.153932 0.514519
Si Si4 0.217708 0.228014 0.549355
Si Si5 0.464658 0.506345 0.814112
Si Si6 0.763958 0.832775 0.663206
Si Si7 0.271453 0.078828 0.920431
Si Si8 0.380362 0.762366 0.275208
O O1 0.132067 0.389699 0.908934
O O2 0.143191 0.205656 0.788972
O O3 0.000000 0.500000 0.500000
O O4 0.351383 0.464813 0.017563
O O5 0.946924 0.630144 0.706323
O O6 0.088631 0.330561 0.077633
O O7 0.297008 0.581472 0.222402
O O8 0.687964 0.341195 0.469525
O O9 0.601735 0.158997 0.593966
O O10 0.798646 0.002051 0.734498
O O11 0.478218 0.104146 0.225012
O O12 0.398551 0.327489 0.744231
O O13 0.217771 0.114209 0.466476
O O14 0.230994 0.108836 0.718566
O O15 0.500000 0.500000 0.000000
O O16 0.576325 0.754167 0.476922
O O17 0.237711 0.886697 0.970231
#
# Coordination Sequence:
#
# PCOD8014033 Si02
#       8
#     2   2   2   2   2   2   2   2
#     4  11  20  40  66  96 123 164 210 260 313 374
#     4  12  24  42  63  95 129 169 215 261 316 375
#     4  10  21  41  68  95 121 165 218 264 314 372
#     4  12  24  42  61  95 136 169 205 262 322 382
#     4  11  20  40  65  93 127 162 208 255 319 379
#     4  11  23  41  66  94 127 169 212 264 320 376
#     4  10  21  41  64  93 131 161 214 263 319 370
#     4  11  23  42  68  92 124 170 218 268 308 376
#
# _framework density 24.152975000000001
#
# number of rings (size 3 to 8) (size 9 to 14) (size 15 to 20)
#    0.000    1.000    3.750    6.000    0.000    2.500 
#    2.250    3.750    0.000    0.000    0.000    0.000 
#    0.000    0.000    0.000    0.000    0.000    0.000 
#
# Total GULP energy -198278.175888 kJ/mol
# GULP energy per Si atom -12392.385993 kJ/mol
# Density = 2.409800 g / cm^3
# Si number density = 24.152975 Si / 1000 Ang^3
#
#
#
# Elastic Constant Matrix: (Units=GPa)
#
#
# Indices 1 2 3 4 5 6 
#
# 1 132.3794 22.4308 24.5922 -7.1704 -39.0595 -28.5071
# 2 22.4308 68.4489 10.2852 -28.0922 -18.9814 -8.0415
# 3 24.5922 10.2852 84.9745 -25.2790 -20.3032 -3.0779
# 4 -7.1704 -28.0922 -25.2790 37.1598 1.6196 -7.5971
# 5 -39.0595 -18.9814 -20.3032 1.6196 41.1576 -0.0196
# 6 -28.5071 -8.0415 -3.0779 -7.5971 -0.0196 32.7309
#
#
#
# Elastic Compliance Matrix: (Units=1/GPa)
#
#
# Indices 1 2 3 4 5 6 
#
# 1 0.017560 0.010092 0.005570 0.018406 0.023353 0.022583
# 2 0.010092 0.044225 0.017209 0.052338 0.036419 0.033443
# 3 0.005570 0.017209 0.024511 0.033640 0.023999 0.019207
# 4 0.018406 0.052338 0.033640 0.101948 0.054215 0.055748
# 5 0.023353 0.036419 0.023999 0.054215 0.072982 0.044171
# 6 0.022583 0.033443 0.019207 0.055748 0.044171 0.073210
#
#
# Mechanical properties :
#
#
# Convention : Reuss Voigt Hill
#
# Bulk Modulus (GPa) = 6.57731 44.49105 25.53418
# Shear Modulus (GPa) = 15.65571 37.44263 26.54917
#
# Velocity S-wave (km/s) = 2.54872 3.94157 3.31903
# Velocity P-wave (km/s) = 3.37497 6.25900 5.02820
#
# Compressibility (1/GPa) = 0.15203783
#
# Stress axis : x y z
#
# Youngs Moduli (GPa) = 56.94760 22.61181 40.79860
#
# Poissons Ratio (x) = -0.22819 -0.22725
# Poissons Ratio (y) = -0.57470 -0.70212
# Poissons Ratio (z) = -0.31720 -0.38914
#
# Static dielectric constant tensor:
#      x y z
#    x 4.024210 -0.005870 -0.333890 
#    y -0.005870 4.946970 -0.382410 
#    z -0.333890 -0.382410 4.658480 
# 
# 
# High freq. dielectric constant tensor:
#      x y z
#    x 1.956130 -0.010120 -0.018100 
#    y -0.010120 1.959620 -0.020320 
#    z -0.018100 -0.020320 1.960450 
# 
# From -- ./inp_files/346316.got.cif
#   From: 2010.06.25/outbox.cif.g09.slc.cpg/sg2_174_cif.got.tgz:346316.got - 2010.06.27 13:26:56.
