data_PCOD8014569
_publ_section_title
;
Structure prediction by ZEFSAII (Michael W. Deem and Ramdas Pophale) SiO2 
 PCOD8014569
Probable space group: P -1
;
_chemical_formula_sum "Si O2"
_cell_formula_units_Z 12
_cell_length_a 10.977541
_cell_length_b 7.398490
_cell_length_c 13.160590
_cell_angle_alpha 46.146825
_cell_angle_beta 46.914486
_cell_angle_gamma 52.850383
_cell_volume 545.331246
_symmetry_space_group_name_H-M "P -1"
_symmetry_group_IT_number 2
_symmetry_cell_setting 'triclinic'
loop_
_space_group_symop_operation_xyz
x,y,z
-x,-y,-z
loop_
_atom_site_type_symbol
_atom_site_label
_atom_site_fract_x
_atom_site_fract_y
_atom_site_fract_z
Si Si1 0.629295 0.574390 0.609605
Si Si2 0.935149 0.795420 0.892505
Si Si3 0.720126 0.077345 0.295896
Si Si4 0.659357 0.591566 0.822583
Si Si5 0.181846 0.891380 0.986588
Si Si6 0.179859 0.993398 0.342933
O O1 0.425119 0.693680 0.657590
O O2 0.665184 0.540320 0.720837
O O3 0.708993 0.301170 0.617083
O O4 0.719312 0.785615 0.432890
O O5 0.096452 0.916137 0.768046
O O6 0.787264 0.927675 0.007467
O O7 0.859381 0.853139 0.800918
O O8 0.000000 0.500000 0.000000
O O9 0.683078 0.120604 0.178106
O O10 0.821526 0.389035 0.858961
O O11 0.690348 0.872924 0.720572
O O12 0.500000 0.500000 0.000000
O O13 0.000000 0.000000 0.000000
O O14 0.000000 0.000000 0.500000
#
# Coordination Sequence:
#
# PCOD8014569 Si02
#       6
#     2   2   2   2   2   2
#     4  11  25  46  69  99 140 180 225 284 342 410
#     4  11  24  41  68 103 134 178 232 278 337 410
#     4  10  23  45  67  97 140 182 220 281 350 396
#     4  12  25  46  70 101 136 178 228 280 346 398
#     4  10  21  41  68  97 136 178 222 281 337 405
#     4  12  28  44  71 104 136 181 232 281 340 410
#
# _framework density 22.004973
#
# number of rings (size 3 to 8) (size 9 to 14) (size 15 to 20)
#    0.000    1.000    3.333    3.000    7.000    3.333 
#    0.000    2.500    0.000    0.000    0.000    0.000 
#    0.000    0.000    0.000    0.000    0.000    0.000 
#
# Total GULP energy -148679.631272 kJ/mol
# GULP energy per Si atom -12389.969273 kJ/mol
# Density = 2.195489 g / cm^3
# Si number density = 22.004973 Si / 1000 Ang^3
#
#
#
# Elastic Constant Matrix: (Units=GPa)
#
#
# Indices 1 2 3 4 5 6 
#
# 1 49.8746 16.5979 11.8777 -5.3655 -8.1747 0.8346
# 2 16.5979 159.8514 43.0321 -17.1449 -12.9948 -9.8568
# 3 11.8777 43.0321 102.2652 -9.8708 -0.0536 0.9208
# 4 -5.3655 -17.1449 -9.8708 39.6980 -5.6826 9.3138
# 5 -8.1747 -12.9948 -0.0536 -5.6826 41.9363 -6.2595
# 6 0.8346 -9.8568 0.9208 9.3138 -6.2595 33.3516
#
#
#
# Elastic Compliance Matrix: (Units=1/GPa)
#
#
# Indices 1 2 3 4 5 6 
#
# 1 0.021863 -0.001218 -0.001748 0.002788 0.004131 -0.000862
# 2 -0.001218 0.007794 -0.002932 0.002340 0.002833 0.002293
# 3 -0.001748 -0.002932 0.011382 0.001569 -0.001293 -0.001818
# 4 0.002788 0.002340 0.001569 0.029160 0.004211 -0.006774
# 5 0.004131 0.002833 -0.001293 0.004211 0.026788 0.004621
# 6 -0.000862 0.002293 -0.001818 -0.006774 0.004621 0.033492
#
#
# Mechanical properties :
#
#
# Convention : Reuss Voigt Hill
#
# Bulk Modulus (GPa) = 34.19360 50.55629 42.37494
# Shear Modulus (GPa) = 32.88982 39.02942 35.95962
#
# Velocity S-wave (km/s) = 3.87027 4.21606 4.04686
# Velocity P-wave (km/s) = 5.96194 6.83557 6.41365
#
# Compressibility (1/GPa) = 0.02924524
#
# Stress axis : x y z
#
# Youngs Moduli (GPa) = 45.73863 128.30086 87.85634
#
# Poissons Ratio (x) = 0.15626 0.15356
# Poissons Ratio (y) = 0.05571 0.25755
# Poissons Ratio (z) = 0.07994 0.37612
#
# Static dielectric constant tensor:
#      x y z
#    x 3.996100 0.076550 0.800420 
#    y 0.076550 5.323250 0.719060 
#    z 0.800420 0.719060 4.032110 
# 
# 
# High freq. dielectric constant tensor:
#      x y z
#    x 1.864440 -0.014720 0.018740 
#    y -0.014720 1.880560 0.000680 
#    z 0.018740 0.000680 1.878010 
# 
# From -- ./inp_files/159875.got.cif
#   From: 2010.06.25/outbox.cif.g09.slc.cpg/sg2_80_cif.got.tgz:159875.got - 2010.06.27 13:26:56.
