data_PCOD8014515
_publ_section_title
;
Structure prediction by ZEFSAII (Michael W. Deem and Ramdas Pophale) SiO2 
 PCOD8014515
Probable space group: P -1
;
_chemical_formula_sum "Si O2"
_cell_formula_units_Z 14
_cell_length_a 13.997946
_cell_length_b 11.837909
_cell_length_c 5.073577
_cell_angle_alpha 50.222824
_cell_angle_beta 77.592111
_cell_angle_gamma 65.362370
_cell_volume 585.686965
_symmetry_space_group_name_H-M "P -1"
_symmetry_group_IT_number 2
_symmetry_cell_setting 'triclinic'
loop_
_space_group_symop_operation_xyz
x,y,z
-x,-y,-z
loop_
_atom_site_type_symbol
_atom_site_label
_atom_site_fract_x
_atom_site_fract_y
_atom_site_fract_z
Si Si1 0.877476 0.530314 0.767511
Si Si2 0.814671 0.323938 0.501759
Si Si3 0.425571 0.254496 0.163302
Si Si4 0.217609 0.965224 0.208844
Si Si5 0.344596 0.978594 0.613809
Si Si6 0.320720 0.424860 0.459863
Si Si7 0.020018 0.252138 0.767644
O O1 0.788002 0.603972 0.485892
O O2 0.922054 0.668882 0.594125
O O3 0.973808 0.375558 0.847260
O O4 0.822725 0.479586 0.123283
O O5 0.787629 0.208852 0.484803
O O6 0.720477 0.394701 0.669827
O O7 0.925488 0.219143 0.728999
O O8 0.373114 0.128338 0.456492
O O9 0.385099 0.398969 0.183900
O O10 0.551075 0.178812 0.221647
O O11 0.396397 0.306822 0.802890
O O12 0.289703 0.003060 0.325250
O O13 0.263996 0.961025 0.898048
O O14 0.099368 0.093509 0.090370
#
# Coordination Sequence:
#
# PCOD8014515 Si02
#       7
#     2   2   2   2   2   2   2
#     4  10  21  41  68 103 131 175 234 274 320 399
#     4  11  25  42  67 100 145 175 223 269 336 412
#     4  11  22  45  73 100 129 171 229 290 332 380
#     4  12  27  44  67  99 144 180 216 272 345 401
#     4  11  26  44  69 101 133 173 230 279 334 406
#     4  11  22  40  73  99 131 176 218 282 335 389
#     4  10  23  40  68 100 131 183 227 276 322 393
#
# _framework density 23.903554
#
# number of rings (size 3 to 8) (size 9 to 14) (size 15 to 20)
#    0.000    1.143    1.429    4.286    6.000    2.857 
#    0.000    4.286    0.000    0.000    0.000    0.000 
#    0.000    0.000    0.000    0.000    0.000    0.000 
#
# Total GULP energy -173573.109216 kJ/mol
# GULP energy per Si atom -12398.079230 kJ/mol
# Density = 2.384915 g / cm^3
# Si number density = 23.903554 Si / 1000 Ang^3
#
#
#
# Elastic Constant Matrix: (Units=GPa)
#
#
# Indices 1 2 3 4 5 6 
#
# 1 75.8343 30.7874 32.5594 -6.1190 36.2162 -5.7376
# 2 30.7874 108.3410 30.1728 4.9163 19.3794 -8.2192
# 3 32.5594 30.1728 64.1819 4.0876 34.4008 -3.3565
# 4 -6.1190 4.9163 4.0876 31.2908 -1.5019 2.5954
# 5 36.2162 19.3794 34.4008 -1.5019 40.7692 -10.0831
# 6 -5.7376 -8.2192 -3.3565 2.5954 -10.0831 26.3528
#
#
#
# Elastic Compliance Matrix: (Units=1/GPa)
#
#
# Indices 1 2 3 4 5 6 
#
# 1 0.024947 -0.003840 -0.000005 0.004825 -0.021234 -0.004366
# 2 -0.003840 0.011470 -0.004454 -0.002129 0.002461 0.003325
# 3 -0.000005 -0.004454 0.031875 -0.004155 -0.026692 -0.007134
# 4 0.004825 -0.002129 -0.004155 0.034080 0.000686 -0.003237
# 5 -0.021234 0.002461 -0.026692 0.000686 0.069538 0.019284
# 6 -0.004366 0.003325 -0.007134 -0.003237 0.019284 0.044822
#
#
# Mechanical properties :
#
#
# Convention : Reuss Voigt Hill
#
# Bulk Modulus (GPa) = 19.34418 48.37738 33.86078
# Shear Modulus (GPa) = 19.95502 30.00506 24.98004
#
# Velocity S-wave (km/s) = 2.89245 3.54680 3.23621
# Velocity P-wave (km/s) = 4.38921 6.08733 5.30664
#
# Compressibility (1/GPa) = 0.05169513
#
# Stress axis : x y z
#
# Youngs Moduli (GPa) = 40.08419 87.18065 31.37231
#
# Poissons Ratio (x) = 0.33477 0.00016
# Poissons Ratio (y) = 0.15392 0.13973
# Poissons Ratio (z) = 0.00020 0.38830
#
# Static dielectric constant tensor:
#      x y z
#    x 4.334560 -0.145190 0.197780 
#    y -0.145190 4.401070 -0.071500 
#    z 0.197780 -0.071500 4.032110 
# 
# 
# High freq. dielectric constant tensor:
#      x y z
#    x 1.946650 -0.012720 0.023880 
#    y -0.012720 1.952910 0.001080 
#    z 0.023880 0.001080 1.931760 
# 
# From -- ./inp_files/87376.got.cif
#   From: 2010.06.25/outbox.cif.g09.slc.cpg/sg2_44_cif.got.tgz:87376.got - 2010.06.27 13:26:56.
