data_PCOD8014241
_publ_section_title
;
Structure prediction by ZEFSAII (Michael W. Deem and Ramdas Pophale) SiO2 
 PCOD8014241
Probable space group: P -1
;
_chemical_formula_sum "Si O2"
_cell_formula_units_Z 14
_cell_length_a 11.183987
_cell_length_b 9.758150
_cell_length_c 17.331030
_cell_angle_alpha 140.508523
_cell_angle_beta 148.843856
_cell_angle_gamma 48.448995
_cell_volume 622.310403
_symmetry_space_group_name_H-M "P -1"
_symmetry_group_IT_number 2
_symmetry_cell_setting 'triclinic'
loop_
_space_group_symop_operation_xyz
x,y,z
-x,-y,-z
loop_
_atom_site_type_symbol
_atom_site_label
_atom_site_fract_x
_atom_site_fract_y
_atom_site_fract_z
Si Si1 0.042702 0.504417 0.693660
Si Si2 0.127384 0.302879 0.021354
Si Si3 0.032709 0.155699 0.331652
Si Si4 0.237436 0.878890 0.582891
Si Si5 0.103496 0.779091 0.991571
Si Si6 0.596070 0.159443 0.184545
Si Si7 0.615045 0.838133 0.340945
O O1 0.250259 0.356991 0.711656
O O2 0.947884 0.676730 0.654298
O O3 0.817073 0.373083 0.541378
O O4 0.149882 0.622287 0.877669
O O5 0.086918 0.313633 0.095314
O O6 0.398739 0.340034 0.168410
O O7 0.040638 0.076059 0.840885
O O8 0.000000 0.500000 0.000000
O O9 0.275904 0.130806 0.500302
O O10 0.841400 0.250395 0.328884
O O11 0.372461 0.965600 0.770794
O O12 0.371879 0.938412 0.604657
O O13 0.000000 0.000000 0.500000
O O14 0.342899 0.795064 0.178858
O O15 0.000000 0.000000 0.000000
O O16 0.500000 0.000000 0.000000
#
# Coordination Sequence:
#
# PCOD8014241 Si02
#       7
#     2   2   2   2   2   2   2
#     4  11  24  43  73 101 138 177 231 282 342 400
#     4  11  27  44  69 101 142 184 227 273 351 409
#     4  11  23  46  70 103 134 177 233 289 336 400
#     4  10  21  41  66 107 131 167 229 283 336 389
#     4  12  26  49  65 100 147 183 222 279 346 419
#     4  10  22  42  73  97 137 177 231 285 329 399
#     4  11  25  43  74 102 137 177 234 285 336 403
#
# _framework density 22.496811999999998
#
# number of rings (size 3 to 8) (size 9 to 14) (size 15 to 20)
#    0.000    1.143    4.286    1.714    6.000    1.714 
#    2.571    1.429    0.000    0.000    0.000    0.000 
#    0.000    0.000    0.000    0.000    0.000    0.000 
#
# Total GULP energy -173535.027252 kJ/mol
# GULP energy per Si atom -12395.359089 kJ/mol
# Density = 2.244561 g / cm^3
# Si number density = 22.496812 Si / 1000 Ang^3
#
#
#
# Elastic Constant Matrix: (Units=GPa)
#
#
# Indices 1 2 3 4 5 6 
#
# 1 91.6197 50.0489 23.7729 -9.3274 1.9471 13.4688
# 2 50.0489 148.2510 45.6188 -8.0646 -2.9334 21.7736
# 3 23.7729 45.6188 93.2655 -24.8307 -4.7101 5.8976
# 4 -9.3274 -8.0646 -24.8307 46.2051 5.7899 0.8492
# 5 1.9471 -2.9334 -4.7101 5.7899 29.4393 -3.7213
# 6 13.4688 21.7736 5.8976 0.8492 -3.7213 43.7863
#
#
#
# Elastic Compliance Matrix: (Units=1/GPa)
#
#
# Indices 1 2 3 4 5 6 
#
# 1 0.013948 -0.003968 -0.001078 0.001859 -0.002158 -0.002392
# 2 -0.003968 0.009641 -0.003801 -0.001164 0.000465 -0.003000
# 3 -0.001078 -0.003801 0.014730 0.006944 0.000704 0.000163
# 4 0.001859 -0.001164 0.006944 0.026143 -0.004499 -0.001818
# 5 -0.002158 0.000465 0.000704 -0.004499 0.035591 0.003450
# 6 -0.002392 -0.003000 0.000163 -0.001818 0.003450 0.025372
#
#
# Mechanical properties :
#
#
# Convention : Reuss Voigt Hill
#
# Bulk Modulus (GPa) = 48.48124 63.55749 56.01937
# Shear Modulus (GPa) = 33.33476 38.13250 35.73363
#
# Velocity S-wave (km/s) = 3.85353 4.12153 3.98978
# Velocity P-wave (km/s) = 6.43402 7.13880 6.79555
#
# Compressibility (1/GPa) = 0.02062653
#
# Stress axis : x y z
#
# Youngs Moduli (GPa) = 71.69281 103.72560 67.88920
#
# Poissons Ratio (x) = 0.41154 0.07316
# Poissons Ratio (y) = 0.28445 0.25805
# Poissons Ratio (z) = 0.07726 0.39427
#
# Static dielectric constant tensor:
#      x y z
#    x 4.704820 0.434150 0.420350 
#    y 0.434150 4.460740 0.095780 
#    z 0.420350 0.095780 4.399540 
# 
# 
# High freq. dielectric constant tensor:
#      x y z
#    x 1.889440 0.013370 -0.003220 
#    y 0.013370 1.888130 -0.018220 
#    z -0.003220 -0.018220 1.886230 
# 
# From -- ./inp_files/156858.got.cif
#   From: 2010.06.25/outbox.cif.g09.slc.cpg/sg2_79_cif.got.tgz:156858.got - 2010.06.27 13:26:56.
