data_PCOD8014177
_publ_section_title
;
Structure prediction by ZEFSAII (Michael W. Deem and Ramdas Pophale) SiO2 
 PCOD8014177
Probable space group: P -1
;
_chemical_formula_sum "Si O2"
_cell_formula_units_Z 16
_cell_length_a 7.990933
_cell_length_b 20.509291
_cell_length_c 17.448703
_cell_angle_alpha 19.393686
_cell_angle_beta 54.417409
_cell_angle_gamma 63.175643
_cell_volume 720.057028
_symmetry_space_group_name_H-M "P -1"
_symmetry_group_IT_number 2
_symmetry_cell_setting 'triclinic'
loop_
_space_group_symop_operation_xyz
x,y,z
-x,-y,-z
loop_
_atom_site_type_symbol
_atom_site_label
_atom_site_fract_x
_atom_site_fract_y
_atom_site_fract_z
Si Si1 0.349112 0.073404 0.175436
Si Si2 0.490445 0.780507 0.711520
Si Si3 0.654239 0.910580 0.182275
Si Si4 0.083069 0.019068 0.695387
Si Si5 0.757051 0.331157 0.258892
Si Si6 0.314118 0.499425 0.754389
Si Si7 0.118382 0.595734 0.118422
Si Si8 0.028004 0.186477 0.682143
O O1 0.569458 0.057418 0.097257
O O2 0.167208 0.027926 0.207960
O O3 0.245645 0.899585 0.461220
O O4 0.399008 0.305511 0.939042
O O5 0.372652 0.707695 0.742474
O O6 0.500000 0.000000 0.500000
O O7 0.746703 0.806811 0.600752
O O8 0.349252 0.606471 0.004264
O O9 0.454175 0.699733 0.442156
O O10 0.821241 0.818365 0.281415
O O11 0.773939 0.047540 0.924989
O O12 0.118123 0.100417 0.681433
O O13 0.148708 0.814261 0.908657
O O14 0.642740 0.419768 0.258725
O O15 0.000000 0.500000 0.000000
O O16 0.060808 0.439214 0.863377
O O17 0.044450 0.422425 0.396511
#
# Coordination Sequence:
#
# PCOD8014177 Si02
#       8
#     2   2   2   2   2   2   2   2
#     4  10  23  42  63  94 132 166 209 266 320 384
#     4  10  22  42  60  93 134 169 213 258 310 376
#     4  10  24  42  63  91 121 164 215 265 329 385
#     4  10  22  40  63  93 127 166 210 260 320 382
#     4  11  21  39  65  93 131 174 217 257 307 379
#     4  10  21  41  65  94 126 165 214 260 318 381
#     4  10  22  41  61  91 125 166 211 260 319 379
#     4  11  23  42  64  88 122 162 214 274 321 377
#
# _framework density 22.220462999999999
#
# number of rings (size 3 to 8) (size 9 to 14) (size 15 to 20)
#    0.000    1.750    1.250    3.000    0.000    7.000 
#    4.500    5.000    0.000    0.000    0.000    0.000 
#    0.000    0.000    0.000    0.000    0.000    0.000 
#
# Total GULP energy -198292.058433 kJ/mol
# GULP energy per Si atom -12393.253652 kJ/mol
# Density = 2.216989 g / cm^3
# Si number density = 22.220463 Si / 1000 Ang^3
#
#
#
# Elastic Constant Matrix: (Units=GPa)
#
#
# Indices 1 2 3 4 5 6 
#
# 1 21.6339 -5.7228 -13.4755 -5.0776 -1.3047 -17.1222
# 2 -5.7228 54.8302 23.2935 -4.4633 -6.5371 -34.6943
# 3 -13.4755 23.2935 115.9609 8.3901 -0.1643 -43.8556
# 4 -5.0776 -4.4633 8.3901 47.2302 -2.5963 -6.6733
# 5 -1.3047 -6.5371 -0.1643 -2.5963 35.8202 -3.2139
# 6 -17.1222 -34.6943 -43.8556 -6.6733 -3.2139 13.7105
#
#
#
# Elastic Compliance Matrix: (Units=1/GPa)
#
#
# Indices 1 2 3 4 5 6 
#
# 1 0.019085 -0.012754 -0.004678 -0.002136 -0.004088 -0.025400
# 2 -0.012754 0.012400 -0.008915 -0.000444 0.000545 -0.013153
# 3 -0.004678 -0.008915 0.007356 -0.003843 -0.002704 -0.007374
# 4 -0.002136 -0.000444 -0.003843 0.020815 0.000815 -0.005761
# 5 -0.004088 0.000545 -0.002704 0.000815 0.027416 -0.005550
# 6 -0.025400 -0.013153 -0.007374 -0.005761 -0.005550 -0.019762
#
#
# Mechanical properties :
#
#
# Convention : Reuss Voigt Hill
#
# Bulk Modulus (GPa) = -72.19394 22.29060 -24.95167
# Shear Modulus (GPa) = 43.33266 31.90750 37.62008
#
# Velocity S-wave (km/s) = 4.42081 3.79351 4.11912
# Velocity P-wave (km/s) = 2.54996 5.40749 3.37184
#
# Compressibility (1/GPa) = -0.01385158
#
# Stress axis : x y z
#
# Youngs Moduli (GPa) = 52.39621 80.64536 135.94337
#
# Poissons Ratio (x) = 1.02857 0.63589
# Poissons Ratio (y) = 0.66828 1.21188
# Poissons Ratio (z) = 0.24509 0.71892
#
# Static dielectric constant tensor:
#      x y z
#    x 3.794760 -0.154190 -0.249040 
#    y -0.154190 4.145870 0.169740 
#    z -0.249040 0.169740 4.601960 
# 
# 
# High freq. dielectric constant tensor:
#      x y z
#    x 1.860260 -0.005280 -0.015340 
#    y -0.005280 1.872960 -0.001700 
#    z -0.015340 -0.001700 1.892510 
# 
# From -- ./inp_files/562516.got.cif
#   From: 2010.06.25/outbox.cif.g09.slc.cpg/sg2_282_cif.got.tgz:562516.got - 2010.06.27 13:26:56.
