data_PCOD8014245
_publ_section_title
;
Structure prediction by ZEFSAII (Michael W. Deem and Ramdas Pophale) SiO2 
 PCOD8014245
Probable space group: P -1
;
_chemical_formula_sum "Si O2"
_cell_formula_units_Z 16
_cell_length_a 26.131165
_cell_length_b 24.843988
_cell_length_c 5.158764
_cell_angle_alpha 107.553880
_cell_angle_beta 100.860571
_cell_angle_gamma 16.267305
_cell_volume 827.881201
_symmetry_space_group_name_H-M "P -1"
_symmetry_group_IT_number 2
_symmetry_cell_setting 'triclinic'
loop_
_space_group_symop_operation_xyz
x,y,z
-x,-y,-z
loop_
_atom_site_type_symbol
_atom_site_label
_atom_site_fract_x
_atom_site_fract_y
_atom_site_fract_z
Si Si1 0.873944 0.693166 0.894877
Si Si2 0.274772 0.212321 0.603507
Si Si3 0.431015 0.346617 0.463417
Si Si4 0.579332 0.564722 0.917557
Si Si5 0.843396 0.857447 0.146007
Si Si6 0.992016 0.074987 0.600056
Si Si7 0.014661 0.736136 0.632755
Si Si8 0.836003 0.047401 0.913191
O O1 0.761948 0.794545 0.669248
O O2 0.109072 0.434290 0.731036
O O3 0.761105 0.778667 0.140384
O O4 0.852992 0.780769 0.048145
O O5 0.500000 0.000000 0.500000
O O6 0.427552 0.389227 0.272219
O O7 0.249449 0.493660 0.503038
O O8 0.618395 0.111004 0.299959
O O9 0.425423 0.391345 0.773245
O O10 0.767833 0.328407 0.752263
O O11 0.398756 0.710373 0.958050
O O12 0.950291 0.769006 0.370759
O O13 0.951749 0.768565 0.872237
O O14 0.101493 0.983730 0.322438
O O15 0.000000 0.000000 0.500000
O O16 0.099467 0.986364 0.823786
O O17 0.925708 0.891414 0.770421
#
# Coordination Sequence:
#
# PCOD8014245 Si02
#       8
#     2   2   2   2   2   2   2   2
#     4  10  23  39  61  94 126 159 205 262 294 358
#     4  10  21  41  66  87 123 170 208 244 313 351
#     4  12  23  38  62  90 118 163 199 241 301 365
#     4  12  23  40  65  87 118 157 201 243 303 365
#     4  12  24  40  60  96 128 154 208 254 299 358
#     4  12  26  43  64  92 121 154 205 261 299 358
#     4  12  23  39  64  89 121 167 198 243 308 369
#     4  12  23  42  67  87 122 160 202 245 308 369
#
# _framework density 19.326445
#
# number of rings (size 3 to 8) (size 9 to 14) (size 15 to 20)
#    0.000    0.500    5.000    3.750    0.000    3.000 
#    0.000    0.000    0.000    0.000    0.000    0.000 
#    0.000    0.000    0.000    0.000    0.000    0.000 
#
# Total GULP energy -198471.915231 kJ/mol
# GULP energy per Si atom -12404.494702 kJ/mol
# Density = 1.928246 g / cm^3
# Si number density = 19.326445 Si / 1000 Ang^3
#
#
#
# Elastic Constant Matrix: (Units=GPa)
#
#
# Indices 1 2 3 4 5 6 
#
# 1 117.5752 65.3676 64.9025 12.7099 14.3984 -7.7029
# 2 65.3676 165.8429 81.6646 12.4480 4.5102 -28.6381
# 3 64.9025 81.6646 145.2080 -9.3268 -1.4097 -10.7347
# 4 12.7099 12.4480 -9.3268 51.2254 -6.1077 -4.1637
# 5 14.3984 4.5102 -1.4097 -6.1077 47.3015 2.4580
# 6 -7.7029 -28.6381 -10.7347 -4.1637 2.4580 35.1949
#
#
#
# Elastic Compliance Matrix: (Units=1/GPa)
#
#
# Indices 1 2 3 4 5 6 
#
# 1 0.013716 -0.002627 -0.005037 -0.004299 -0.004585 -0.000860
# 2 -0.002627 0.010576 -0.004454 -0.002320 -0.000977 0.006466
# 3 -0.005037 -0.004454 0.011926 0.004799 0.002971 -0.000729
# 4 -0.004299 -0.002320 0.004799 0.022649 0.004545 0.000997
# 5 -0.004585 -0.000977 0.002971 0.004545 0.023409 -0.001989
# 6 -0.000860 0.006466 -0.000729 0.000997 -0.001989 0.033521
#
#
# Mechanical properties :
#
#
# Convention : Reuss Voigt Hill
#
# Bulk Modulus (GPa) = 83.46363 94.72172 89.09268
# Shear Modulus (GPa) = 34.71560 41.19044 37.95302
#
# Velocity S-wave (km/s) = 4.24285 4.62161 4.43627
# Velocity P-wave (km/s) = 8.20258 8.80891 8.51114
#
# Compressibility (1/GPa) = 0.01198127
#
# Stress axis : x y z
#
# Youngs Moduli (GPa) = 72.90620 94.55544 83.84747
#
# Poissons Ratio (x) = 0.24839 0.42238
# Poissons Ratio (y) = 0.19152 0.37347
# Poissons Ratio (z) = 0.36726 0.42117
#
# Static dielectric constant tensor:
#      x y z
#    x 3.538420 -0.051020 -0.100790 
#    y -0.051020 3.858440 -0.019200 
#    z -0.100790 -0.019200 3.859170 
# 
# 
# High freq. dielectric constant tensor:
#      x y z
#    x 1.753920 -0.005760 -0.008480 
#    y -0.005760 1.772140 -0.006100 
#    z -0.008480 -0.006100 1.776680 
# 
# From -- ./inp_files/120454.got.cif
#   From: 2010.06.25/outbox.cif.g09.slc.cpg/sg2_61_cif.got.tgz:120454.got - 2010.06.27 13:26:56.
