data_PCOD8014405
_publ_section_title
;
Structure prediction by ZEFSAII (Michael W. Deem and Ramdas Pophale) SiO2 
 PCOD8014405
Probable space group: P -1
;
_chemical_formula_sum "Si O2"
_cell_formula_units_Z 16
_cell_length_a 11.242044
_cell_length_b 11.215101
_cell_length_c 20.858559
_cell_angle_alpha 36.653774
_cell_angle_beta 150.392664
_cell_angle_gamma 124.411136
_cell_volume 693.128277
_symmetry_space_group_name_H-M "P -1"
_symmetry_group_IT_number 2
_symmetry_cell_setting 'triclinic'
loop_
_space_group_symop_operation_xyz
x,y,z
-x,-y,-z
loop_
_atom_site_type_symbol
_atom_site_label
_atom_site_fract_x
_atom_site_fract_y
_atom_site_fract_z
Si Si1 0.788015 0.413127 0.926685
Si Si2 0.789411 0.738819 0.183388
Si Si3 0.908397 0.218216 0.928735
Si Si4 0.554417 0.070190 0.748625
Si Si5 0.180115 0.985460 0.810662
Si Si6 0.737794 0.315482 0.378157
Si Si7 0.984069 0.507099 0.730308
Si Si8 0.721985 0.216300 0.272525
O O1 0.819966 0.304810 0.920027
O O2 0.493449 0.620603 0.704549
O O3 0.828104 0.241603 0.076474
O O4 0.000000 0.500000 0.000000
O O5 0.833851 0.507264 0.335914
O O6 0.931506 0.680927 0.205105
O O7 0.923162 0.844262 0.250546
O O8 0.479456 0.925270 0.952290
O O9 0.681012 0.140047 0.837721
O O10 0.913128 0.409759 0.802159
O O11 0.208987 0.011972 0.159021
O O12 0.286778 0.275981 0.509858
O O13 0.492778 0.857088 0.830027
O O14 0.988943 0.087558 0.615838
O O15 0.622273 0.287337 0.267861
O O16 0.223553 0.585779 0.821059
O O17 0.000000 0.000000 0.500000
#
# Coordination Sequence:
#
# PCOD8014405 Si02
#       8
#     2   2   2   2   2   2   2   2
#     4  11  26  43  61  92 132 169 222 260 302 393
#     4   9  21  39  62  99 128 153 215 268 317 382
#     4  11  25  41  64  94 127 176 211 260 326 372
#     4  10  23  41  62  94 129 162 217 266 314 385
#     4  10  22  40  64  92 128 166 208 265 319 379
#     4  10  21  41  67  92 124 174 206 258 329 375
#     4  10  22  40  67  95 127 167 209 269 323 381
#     4   9  20  41  65  98 125 158 214 271 316 380
#
# _framework density 23.083749999999998
#
# number of rings (size 3 to 8) (size 9 to 14) (size 15 to 20)
#    0.000    2.000    0.000    1.500    5.250    7.000 
#    6.750    0.000    0.000    0.000    0.000    0.000 
#    0.000    0.000    0.000    0.000    0.000    0.000 
#
# Total GULP energy -198347.344557 kJ/mol
# GULP energy per Si atom -12396.709035 kJ/mol
# Density = 2.303121 g / cm^3
# Si number density = 23.083750 Si / 1000 Ang^3
#
#
#
# Elastic Constant Matrix: (Units=GPa)
#
#
# Indices 1 2 3 4 5 6 
#
# 1 81.8232 28.3169 28.6286 1.6139 3.9640 -6.4447
# 2 28.3169 131.2490 28.5023 14.9470 0.4972 11.3441
# 3 28.6286 28.5023 81.2524 -2.7064 2.1172 7.0195
# 4 1.6139 14.9470 -2.7064 34.3257 1.3424 9.0340
# 5 3.9640 0.4972 2.1172 1.3424 28.1633 -6.3710
# 6 -6.4447 11.3441 7.0195 9.0340 -6.3710 37.9270
#
#
#
# Elastic Compliance Matrix: (Units=1/GPa)
#
#
# Indices 1 2 3 4 5 6 
#
# 1 0.015183 -0.002459 -0.004886 -0.001155 -0.000680 0.004381
# 2 -0.002459 0.009227 -0.002331 -0.003598 0.000107 -0.001871
# 3 -0.004886 -0.002331 0.015359 0.003591 -0.001521 -0.004086
# 4 -0.001155 -0.003598 0.003591 0.033365 -0.003517 -0.008323
# 5 -0.000680 0.000107 -0.001521 -0.003517 0.037529 0.007276
# 6 0.004381 -0.001871 -0.004086 -0.008323 0.007276 0.031631
#
#
# Mechanical properties :
#
#
# Convention : Reuss Voigt Hill
#
# Bulk Modulus (GPa) = 48.98145 51.69114 50.33630
# Shear Modulus (GPa) = 29.68205 34.00833 31.84519
#
# Velocity S-wave (km/s) = 3.58975 3.84247 3.71826
# Velocity P-wave (km/s) = 6.20055 6.49058 6.34722
#
# Compressibility (1/GPa) = 0.02041589
#
# Stress axis : x y z
#
# Youngs Moduli (GPa) = 65.86379 108.37786 65.10879
#
# Poissons Ratio (x) = 0.26652 0.31813
# Poissons Ratio (y) = 0.16197 0.15178
# Poissons Ratio (z) = 0.32181 0.25265
#
# Static dielectric constant tensor:
#      x y z
#    x 4.142490 0.161460 0.288920 
#    y 0.161460 4.357900 -0.140920 
#    z 0.288920 -0.140920 4.149600 
# 
# 
# High freq. dielectric constant tensor:
#      x y z
#    x 1.906980 -0.000240 0.015330 
#    y -0.000240 1.923760 -0.013210 
#    z 0.015330 -0.013210 1.912090 
# 
# From -- ./inp_files/595103.got.cif
#   From: 2010.06.25/outbox.cif.g09.slc.cpg/sg2_298_cif.got.tgz:595103.got - 2010.06.27 13:26:56.
