data_PCOD8014066
_publ_section_title
;
Structure prediction by ZEFSAII (Michael W. Deem and Ramdas Pophale) SiO2 
 PCOD8014066
Probable space group: P -1
;
_chemical_formula_sum "Si O2"
_cell_formula_units_Z 14
_cell_length_a 9.358403
_cell_length_b 16.380645
_cell_length_c 5.243698
_cell_angle_alpha 110.590032
_cell_angle_beta 124.877742
_cell_angle_gamma 60.447429
_cell_volume 570.920540
_symmetry_space_group_name_H-M "P -1"
_symmetry_group_IT_number 2
_symmetry_cell_setting 'triclinic'
loop_
_space_group_symop_operation_xyz
x,y,z
-x,-y,-z
loop_
_atom_site_type_symbol
_atom_site_label
_atom_site_fract_x
_atom_site_fract_y
_atom_site_fract_z
Si Si1 0.265207 0.770154 0.607665
Si Si2 0.364270 0.572908 0.629599
Si Si3 0.061084 0.813822 0.949346
Si Si4 0.737888 0.540810 0.212355
Si Si5 0.353070 0.216425 0.085795
Si Si6 0.648013 0.895066 0.543214
Si Si7 0.028792 0.360033 0.187207
O O1 0.237035 0.670256 0.467380
O O2 0.485896 0.745773 0.777979
O O3 0.185157 0.824030 0.849424
O O4 0.151734 0.832022 0.323293
O O5 0.500000 0.500000 0.500000
O O6 0.234025 0.528070 0.589417
O O7 0.514878 0.594545 0.994534
O O8 0.854124 0.895264 0.812663
O O9 0.051426 0.709813 0.824076
O O10 0.829636 0.616764 0.445952
O O11 0.860922 0.459823 0.039908
O O12 0.406584 0.160591 0.347254
O O13 0.154931 0.305664 0.013362
O O14 0.337821 0.150792 0.770407
O O15 0.500000 0.000000 0.500000
#
# Coordination Sequence:
#
# PCOD8014066 Si02
#       7
#     2   2   2   2   2   2   2
#     4  12  25  43  67 100 140 183 231 273 346 413
#     4  11  23  37  62  90 139 187 234 296 341 384
#     4  11  24  44  69  98 137 181 225 281 348 409
#     4  10  22  41  59  96 137 185 247 288 334 394
#     4  11  25  44  75 103 141 184 227 281 350 420
#     4  11  25  50  77 107 137 173 225 287 352 423
#     4  10  21  41  64  95 137 183 241 284 337 399
#
# _framework density 24.521799999999999
#
# number of rings (size 3 to 8) (size 9 to 14) (size 15 to 20)
#    0.000    1.143    1.429    4.714    8.000    0.000 
#    2.571    7.143    0.000    0.000    0.000    0.000 
#    0.000    0.000    0.000    0.000    0.000    0.000 
#
# Total GULP energy -173574.248989 kJ/mol
# GULP energy per Si atom -12398.160642 kJ/mol
# Density = 2.446599 g / cm^3
# Si number density = 24.521800 Si / 1000 Ang^3
#
#
#
# Elastic Constant Matrix: (Units=GPa)
#
#
# Indices 1 2 3 4 5 6 
#
# 1 139.1577 22.8302 29.6025 -2.4411 -19.8266 -8.4047
# 2 22.8302 97.9562 20.7800 -7.5822 -15.9133 -30.3573
# 3 29.6025 20.7800 79.7730 -3.6910 -25.8637 -7.9834
# 4 -2.4411 -7.5822 -3.6910 32.3056 -2.9937 -2.3240
# 5 -19.8266 -15.9133 -25.8637 -2.9937 43.8517 3.5865
# 6 -8.4047 -30.3573 -7.9834 -2.3240 3.5865 30.7420
#
#
#
# Elastic Compliance Matrix: (Units=1/GPa)
#
#
# Indices 1 2 3 4 5 6 
#
# 1 0.008107 -0.000904 -0.002003 0.000412 0.002136 0.000585
# 2 -0.000904 0.016584 -0.000793 0.005262 0.004206 0.015831
# 3 -0.002003 -0.000793 0.016605 0.002512 0.008595 0.002169
# 4 0.000412 0.005262 0.002512 0.033559 0.005223 0.007889
# 5 0.002136 0.004206 0.008595 0.005223 0.030410 0.003817
# 6 0.000585 0.015831 0.002169 0.007889 0.003817 0.049036
#
#
# Mechanical properties :
#
#
# Convention : Reuss Voigt Hill
#
# Bulk Modulus (GPa) = 29.50144 51.47914 40.49029
# Shear Modulus (GPa) = 28.90166 37.62482 33.26324
#
# Velocity S-wave (km/s) = 3.43681 3.92132 3.68703
# Velocity P-wave (km/s) = 5.27312 6.44524 5.88841
#
# Compressibility (1/GPa) = 0.03389665
#
# Stress axis : x y z
#
# Youngs Moduli (GPa) = 123.34332 60.29805 60.22267
#
# Poissons Ratio (x) = 0.05454 0.12061
# Poissons Ratio (y) = 0.11156 0.04775
# Poissons Ratio (z) = 0.24701 0.04781
#
# Static dielectric constant tensor:
#      x y z
#    x 5.142120 -0.611080 1.080160 
#    y -0.611080 4.379790 -1.069760 
#    z 1.080160 -1.069760 6.419430 
# 
# 
# High freq. dielectric constant tensor:
#      x y z
#    x 1.992900 -0.019270 -0.000350 
#    y -0.019270 1.943020 -0.011660 
#    z -0.000350 -0.011660 1.978310 
# 
# From -- ./inp_files/45584.got.cif
#   From: 2010.06.25/outbox.cif.g09.slc.cpg/sg2_23_cif.got.tgz:45584.got - 2010.06.27 13:26:56.
