data_PCOD8014805
_publ_section_title
;
Structure prediction by ZEFSAII (Michael W. Deem and Ramdas Pophale) SiO2 
 PCOD8014805
Probable space group: P -1
;
_chemical_formula_sum "Si O2"
_cell_formula_units_Z 10
_cell_length_a 13.885221
_cell_length_b 14.715397
_cell_length_c 9.061547
_cell_angle_alpha 29.393583
_cell_angle_beta 30.878828
_cell_angle_gamma 29.836139
_cell_volume 410.379945
_symmetry_space_group_name_H-M "P -1"
_symmetry_group_IT_number 2
_symmetry_cell_setting 'triclinic'
loop_
_space_group_symop_operation_xyz
x,y,z
-x,-y,-z
loop_
_atom_site_type_symbol
_atom_site_label
_atom_site_fract_x
_atom_site_fract_y
_atom_site_fract_z
Si Si1 0.918262 0.338244 0.296568
Si Si2 0.012539 0.779143 0.320368
Si Si3 0.666044 0.073498 0.729749
Si Si4 0.350439 0.561275 0.969069
Si Si5 0.630813 0.681870 0.984082
O O1 0.838996 0.301961 0.611588
O O2 0.096842 0.121284 0.296912
O O3 0.000000 0.500000 0.000000
O O4 0.730417 0.455366 0.259117
O O5 0.783728 0.790979 0.636109
O O6 0.117149 0.634452 0.244444
O O7 0.000000 0.000000 0.000000
O O8 0.649720 0.247595 0.389769
O O9 0.596416 0.165324 0.857618
O O10 0.500000 0.000000 0.000000
O O11 0.500000 0.500000 0.000000
O O12 0.407122 0.360762 0.074139
#
# Coordination Sequence:
#
# PCOD8014805 Si02
#       5
#     2   2   2   2   2
#     4  10  21  41  75  95 136 180 228 279 351 407
#     4  11  21  45  69 102 139 176 221 290 350 405
#     4  12  22  45  72 102 136 182 232 285 343 420
#     4  12  27  45  68 100 146 183 232 291 341 400
#     4  11  25  46  70 103 140 186 233 275 349 423
#
# _framework density 24.367664000000001
#
# number of rings (size 3 to 8) (size 9 to 14) (size 15 to 20)
#    0.000    0.800    6.000    2.400    2.800    0.800 
#    3.600    2.000    0.000    0.000    0.000    0.000 
#    0.000    0.000    0.000    0.000    0.000    0.000 
#
# Total GULP energy -123951.895992 kJ/mol
# GULP energy per Si atom -12395.189599 kJ/mol
# Density = 2.431220 g / cm^3
# Si number density = 24.367664 Si / 1000 Ang^3
#
#
#
# Elastic Constant Matrix: (Units=GPa)
#
#
# Indices 1 2 3 4 5 6 
#
# 1 118.4580 50.1595 28.8610 0.6014 23.3673 29.0242
# 2 50.1595 168.4244 46.9201 17.0615 20.5538 37.2993
# 3 28.8610 46.9201 129.0651 2.3119 23.6874 13.4519
# 4 0.6014 17.0615 2.3119 47.3981 7.5805 16.5842
# 5 23.3673 20.5538 23.6874 7.5805 31.7035 9.6906
# 6 29.0242 37.2993 13.4519 16.5842 9.6906 39.7960
#
#
#
# Elastic Compliance Matrix: (Units=1/GPa)
#
#
# Indices 1 2 3 4 5 6 
#
# 1 0.012268 -0.001524 -0.000280 0.004087 -0.006517 -0.007540
# 2 -0.001524 0.008343 -0.001928 -0.000817 -0.000975 -0.005479
# 3 -0.000280 -0.001928 0.009612 0.001294 -0.005933 -0.000332
# 4 0.004087 -0.000817 0.001294 0.026525 -0.006053 -0.012232
# 5 -0.006517 -0.000975 -0.005933 -0.006053 0.042938 -0.000261
# 6 -0.007540 -0.005479 -0.000332 -0.012232 -0.000261 0.041036
#
#
# Mechanical properties :
#
#
# Convention : Reuss Voigt Hill
#
# Bulk Modulus (GPa) = 43.94004 74.20320 59.07162
# Shear Modulus (GPa) = 32.09814 43.11332 37.60573
#
# Velocity S-wave (km/s) = 3.63332 4.21085 3.93270
# Velocity P-wave (km/s) = 5.97266 7.35930 6.70194
#
# Compressibility (1/GPa) = 0.02275829
#
# Stress axis : x y z
#
# Youngs Moduli (GPa) = 81.51413 119.85407 104.03861
#
# Poissons Ratio (x) = 0.18270 0.02918
# Poissons Ratio (y) = 0.12426 0.20055
# Poissons Ratio (z) = 0.02286 0.23103
#
# Static dielectric constant tensor:
#      x y z
#    x 0.297120 -2.220750 -2.839910 
#    y -2.220750 3.805150 -1.532240 
#    z -2.839910 -1.532240 2.371510 
# 
# 
# High freq. dielectric constant tensor:
#      x y z
#    x 1.962910 0.020090 0.006560 
#    y 0.020090 1.975640 0.008630 
#    z 0.006560 0.008630 1.985600 
# 
# From -- ./inp_files/144118.got.cif
#   From: 2010.06.25/outbox.cif.g09.slc.cpg/sg2_73_cif.got.tgz:144118.got - 2010.06.27 13:26:56.
