data_PCOD8014186
_publ_section_title
;
Structure prediction by ZEFSAII (Michael W. Deem and Ramdas Pophale) SiO2 
 PCOD8014186
Probable space group: P -1
;
_chemical_formula_sum "Si O2"
_cell_formula_units_Z 14
_cell_length_a 9.026268
_cell_length_b 7.974937
_cell_length_c 9.832253
_cell_angle_alpha 100.531992
_cell_angle_beta 118.918870
_cell_angle_gamma 91.093747
_cell_volume 604.303912
_symmetry_space_group_name_H-M "P -1"
_symmetry_group_IT_number 2
_symmetry_cell_setting 'triclinic'
loop_
_space_group_symop_operation_xyz
x,y,z
-x,-y,-z
loop_
_atom_site_type_symbol
_atom_site_label
_atom_site_fract_x
_atom_site_fract_y
_atom_site_fract_z
Si Si1 0.142331 0.838534 0.925063
Si Si2 0.710545 0.501641 0.705031
Si Si3 0.316225 0.206634 0.071099
Si Si4 0.916468 0.954289 0.602371
Si Si5 0.973827 0.264929 0.851942
Si Si6 0.657781 0.629677 0.416878
Si Si7 0.370749 0.595643 0.874177
O O1 0.231816 0.667170 0.918397
O O2 0.037218 0.863126 0.744875
O O3 0.030191 0.811222 0.007448
O O4 0.280133 0.002679 0.039491
O O5 0.699507 0.695177 0.778649
O O6 0.886855 0.438996 0.827350
O O7 0.715206 0.512612 0.546906
O O8 0.548451 0.373543 0.670663
O O9 0.511486 0.242229 0.115671
O O10 0.178972 0.282986 0.916726
O O11 0.742703 0.826605 0.484624
O O12 0.874619 0.129689 0.681540
O O13 0.000000 0.000000 0.500000
O O14 0.719731 0.534890 0.297387
O O15 0.500000 0.500000 0.000000
#
# Coordination Sequence:
#
# PCOD8014186 Si02
#       7
#     2   2   2   2   2   2   2
#     4  11  23  43  68  97 132 177 220 266 326 392
#     4  10  21  41  69 100 127 175 222 276 330 382
#     4  10  21  41  65  94 133 167 215 272 319 391
#     4  11  26  44  65  97 139 175 219 271 333 392
#     4  11  23  42  70  98 127 176 226 265 326 391
#     4  10  23  42  63  93 139 170 219 278 328 391
#     4  11  25  41  65  96 130 173 219 271 329 386
#
# _framework density 23.167151
#
# number of rings (size 3 to 8) (size 9 to 14) (size 15 to 20)
#    0.000    1.429    0.000    6.000    6.000    2.286 
#    2.571    0.000    0.000    0.000    0.000    0.000 
#    0.000    0.000    0.000    0.000    0.000    0.000 
#
# Total GULP energy -173577.083196 kJ/mol
# GULP energy per Si atom -12398.363085 kJ/mol
# Density = 2.311442 g / cm^3
# Si number density = 23.167151 Si / 1000 Ang^3
#
#
#
# Elastic Constant Matrix: (Units=GPa)
#
#
# Indices 1 2 3 4 5 6 
#
# 1 59.8137 4.4860 26.9518 13.0537 -6.9650 -0.3697
# 2 4.4860 41.8347 22.0543 13.1619 -8.1620 -7.5064
# 3 26.9518 22.0543 120.9865 11.9336 -17.4015 4.7342
# 4 13.0537 13.1619 11.9336 48.6706 2.0845 9.5522
# 5 -6.9650 -8.1620 -17.4015 2.0845 40.1065 5.6885
# 6 -0.3697 -7.5064 4.7342 9.5522 5.6885 34.6739
#
#
#
# Elastic Compliance Matrix: (Units=1/GPa)
#
#
# Indices 1 2 3 4 5 6 
#
# 1 0.019886 0.002714 -0.004163 -0.005643 0.002128 0.002574
# 2 0.002714 0.032147 -0.005289 -0.010232 0.003846 0.009898
# 3 -0.004163 -0.005289 0.010719 0.000427 0.003299 -0.003312
# 4 -0.005643 -0.010232 0.000427 0.026652 -0.002958 -0.009191
# 5 0.002128 0.003846 0.003299 -0.002958 0.028153 -0.003399
# 6 0.002574 0.009898 -0.003312 -0.009191 -0.003399 0.034552
#
#
# Mechanical properties :
#
#
# Convention : Reuss Voigt Hill
#
# Bulk Modulus (GPa) = 20.29394 36.62436 28.45915
# Shear Modulus (GPa) = 27.47106 35.96640 31.71873
#
# Velocity S-wave (km/s) = 3.44725 3.94442 3.70418
# Velocity P-wave (km/s) = 4.96221 6.04877 5.53223
#
# Compressibility (1/GPa) = 0.04927580
#
# Stress axis : x y z
#
# Youngs Moduli (GPa) = 50.28672 31.10754 93.29382
#
# Poissons Ratio (x) = -0.08444 0.38836
# Poissons Ratio (y) = -0.13650 0.49348
# Poissons Ratio (z) = 0.20933 0.16454
#
# Static dielectric constant tensor:
#      x y z
#    x 4.729700 0.381200 -0.015350 
#    y 0.381200 4.067430 0.308130 
#    z -0.015350 0.308130 4.370420 
# 
# 
# High freq. dielectric constant tensor:
#      x y z
#    x 1.912090 0.012060 -0.004430 
#    y 0.012060 1.910820 0.020330 
#    z -0.004430 0.020330 1.925500 
# 
# From -- ./inp_files/159416.got.cif
#   From: 2010.06.25/outbox.cif.g09.slc.cpg/sg2_80_cif.got.tgz:159416.got - 2010.06.27 13:26:56.
