data_PCOD8014341
_publ_section_title
;
Structure prediction by ZEFSAII (Michael W. Deem and Ramdas Pophale) SiO2 
 PCOD8014341
Probable space group: P -1
;
_chemical_formula_sum "Si O2"
_cell_formula_units_Z 12
_cell_length_a 8.687050
_cell_length_b 15.584697
_cell_length_c 8.854742
_cell_angle_alpha 151.750230
_cell_angle_beta 69.900271
_cell_angle_gamma 105.470499
_cell_volume 531.104797
_symmetry_space_group_name_H-M "P -1"
_symmetry_group_IT_number 2
_symmetry_cell_setting 'triclinic'
loop_
_space_group_symop_operation_xyz
x,y,z
-x,-y,-z
loop_
_atom_site_type_symbol
_atom_site_label
_atom_site_fract_x
_atom_site_fract_y
_atom_site_fract_z
Si Si1 0.029772 0.661091 0.538291
Si Si2 0.978629 0.738516 0.007031
Si Si3 0.313202 0.730074 0.330177
Si Si4 0.584944 0.897988 0.671239
Si Si5 0.747183 0.085235 0.663449
Si Si6 0.821438 0.601434 0.262554
O O1 0.096458 0.453049 0.232258
O O2 0.154182 0.755663 0.532521
O O3 0.014397 0.772010 0.870281
O O4 0.849149 0.658662 0.516448
O O5 0.145754 0.750636 0.066003
O O6 0.847065 0.891572 0.343866
O O7 0.472190 0.748027 0.407015
O O8 0.312855 0.884242 0.439930
O O9 0.316988 0.538458 0.940774
O O10 0.760001 0.788353 0.486818
O O11 0.603929 0.059791 0.794141
O O12 0.500000 0.000000 0.000000
O O13 0.000000 0.500000 0.000000
#
# Coordination Sequence:
#
# PCOD8014341 Si02
#       6
#     2   2   2   2   2   2
#     4  10  21  41  66  98 123 172 220 266 313 382
#     4  10  22  38  67  96 130 163 222 271 312 379
#     4  11  23  42  67  93 133 172 215 262 330 386
#     4  12  27  44  65  96 137 170 214 268 328 384
#     4  11  23  40  63  97 130 170 212 268 328 376
#     4  10  22  43  69  94 124 174 219 257 318 388
#
# _framework density 22.594408999999999
#
# number of rings (size 3 to 8) (size 9 to 14) (size 15 to 20)
#    0.000    1.333    1.667    4.000    9.333    0.667 
#    0.000    0.833    0.000    0.000    0.000    0.000 
#    0.000    0.000    0.000    0.000    0.000    0.000 
#
# Total GULP energy -148714.838533 kJ/mol
# GULP energy per Si atom -12392.903211 kJ/mol
# Density = 2.254298 g / cm^3
# Si number density = 22.594409 Si / 1000 Ang^3
#
#
#
# Elastic Constant Matrix: (Units=GPa)
#
#
# Indices 1 2 3 4 5 6 
#
# 1 96.3923 31.8946 32.7783 -7.7659 5.6421 -22.3516
# 2 31.8946 159.2568 25.0457 -13.1159 -7.7786 -8.6351
# 3 32.7783 25.0457 58.9083 -9.9233 6.0328 -6.2970
# 4 -7.7659 -13.1159 -9.9233 32.7846 -6.6557 7.7443
# 5 5.6421 -7.7786 6.0328 -6.6557 25.0664 -6.1838
# 6 -22.3516 -8.6351 -6.2970 7.7443 -6.1838 35.0068
#
#
#
# Elastic Compliance Matrix: (Units=1/GPa)
#
#
# Indices 1 2 3 4 5 6 
#
# 1 0.015116 -0.001609 -0.007005 -0.001220 -0.000523 0.008172
# 2 -0.001609 0.007379 -0.002155 0.002603 0.003994 0.000535
# 3 -0.007005 -0.002155 0.022625 0.004104 -0.004080 -0.002563
# 4 -0.001220 0.002603 0.004104 0.035515 0.008087 -0.005827
# 5 -0.000523 0.003994 -0.004080 0.008087 0.045920 0.006239
# 6 0.008172 0.000535 -0.002563 -0.005827 0.006239 0.035846
#
#
# Mechanical properties :
#
#
# Convention : Reuss Voigt Hill
#
# Bulk Modulus (GPa) = 42.40716 54.88827 48.64772
# Shear Modulus (GPa) = 26.06891 33.56082 29.81486
#
# Velocity S-wave (km/s) = 3.40041 3.85822 3.63653
# Velocity P-wave (km/s) = 5.85036 6.64781 6.26179
#
# Compressibility (1/GPa) = 0.02358092
#
# Stress axis : x y z
#
# Youngs Moduli (GPa) = 66.15493 135.52462 44.19866
#
# Poissons Ratio (x) = 0.21800 0.30963
# Poissons Ratio (y) = 0.10641 0.09527
# Poissons Ratio (z) = 0.46345 0.29212
#
# Static dielectric constant tensor:
#      x y z
#    x 4.111080 -0.269550 0.473300 
#    y -0.269550 4.162450 -0.143890 
#    z 0.473300 -0.143890 4.082060 
# 
# 
# High freq. dielectric constant tensor:
#      x y z
#    x 1.874800 -0.021600 0.027720 
#    y -0.021600 1.902900 -0.000720 
#    z 0.027720 -0.000720 1.881640 
# 
# From -- ./inp_files/148393.got.cif
#   From: 2010.06.25/outbox.cif.g09.slc.cpg/sg2_75_cif.got.tgz:148393.got - 2010.06.27 13:26:56.
