data_PCOD8014950
_publ_section_title
;
Structure prediction by ZEFSAII (Michael W. Deem and Ramdas Pophale) SiO2 
 PCOD8014950
Probable space group: P -1
;
_chemical_formula_sum "Si O2"
_cell_formula_units_Z 16
_cell_length_a 15.377899
_cell_length_b 19.032001
_cell_length_c 9.077756
_cell_angle_alpha 120.673267
_cell_angle_beta 145.510864
_cell_angle_gamma 37.307467
_cell_volume 825.880275
_symmetry_space_group_name_H-M "P -1"
_symmetry_group_IT_number 2
_symmetry_cell_setting 'triclinic'
loop_
_space_group_symop_operation_xyz
x,y,z
-x,-y,-z
loop_
_atom_site_type_symbol
_atom_site_label
_atom_site_fract_x
_atom_site_fract_y
_atom_site_fract_z
Si Si1 0.755076 0.440584 0.770910
Si Si2 0.453982 0.661201 0.410269
Si Si3 0.830754 0.490290 0.235013
Si Si4 0.902261 0.207954 0.703651
Si Si5 0.727145 0.253798 0.196391
Si Si6 0.278643 0.042093 0.292073
Si Si7 0.097067 0.710760 0.774464
Si Si8 0.265585 0.875572 0.177771
O O1 0.500000 0.500000 0.500000
O O2 0.723139 0.517015 0.668667
O O3 0.938992 0.291729 0.834069
O O4 0.850944 0.452308 0.055163
O O5 0.339409 0.722334 0.476657
O O6 0.439009 0.750402 0.390900
O O7 0.315284 0.644707 0.116992
O O8 0.931185 0.375873 0.357440
O O9 0.000000 0.500000 0.500000
O O10 0.555248 0.619733 0.031408
O O11 0.885521 0.178990 0.485134
O O12 0.119304 0.083914 0.971606
O O13 0.837526 0.285177 0.293300
O O14 0.762892 0.156413 0.052472
O O15 0.138830 0.147873 0.338575
O O16 0.500000 0.000000 0.500000
O O17 0.386992 0.913830 0.371471
O O18 0.000000 0.000000 0.000000
#
# Coordination Sequence:
#
# PCOD8014950 Si02
#       8
#     2   2   2   2   2   2   2   2
#     4  10  16  35  62  88 123 165 209 243 307 379
#     4   9  16  34  64  85 111 162 210 246 286 359
#     4  12  23  35  60 101 131 153 203 272 319 354
#     4  10  18  36  65  90 112 168 215 243 300 381
#     4  11  22  36  65  93 119 163 219 250 299 378
#     4  11  23  41  65  86 121 171 203 251 322 373
#     4  10  20  40  61  86 125 168 208 248 305 381
#     4  11  21  39  60  91 123 160 212 256 300 368
#
# _framework density 19.373267999999999
#
# number of rings (size 3 to 8) (size 9 to 14) (size 15 to 20)
#    0.000    1.500   10.000    0.375    1.750    1.500 
#    0.000    1.875    0.000    4.500    0.000    0.000 
#    0.000    0.000    0.000    0.000    0.000    0.000 
#
# Total GULP energy -198247.744569 kJ/mol
# GULP energy per Si atom -12390.484036 kJ/mol
# Density = 1.932917 g / cm^3
# Si number density = 19.373268 Si / 1000 Ang^3
#
#
#
# Elastic Constant Matrix: (Units=GPa)
#
#
# Indices 1 2 3 4 5 6 
#
# 1 101.6436 38.8366 35.2597 7.4661 0.1855 13.4873
# 2 38.8366 103.2916 20.9388 13.1348 4.9300 21.1329
# 3 35.2597 20.9388 47.7444 11.6321 -0.7127 2.3725
# 4 7.4661 13.1348 11.6321 27.6487 3.0253 -3.8848
# 5 0.1855 4.9300 -0.7127 3.0253 32.0962 9.5346
# 6 13.4873 21.1329 2.3725 -3.8848 9.5346 42.4558
#
#
#
# Elastic Compliance Matrix: (Units=1/GPa)
#
#
# Indices 1 2 3 4 5 6 
#
# 1 0.014636 -0.003224 -0.009527 0.001127 0.000866 -0.002604
# 2 -0.003224 0.013163 -0.001746 -0.005519 0.000259 -0.005993
# 3 -0.009527 -0.001746 0.031100 -0.009739 0.001667 0.000892
# 4 0.001127 -0.005519 -0.009739 0.044418 -0.006044 0.008355
# 5 0.000866 0.000259 0.001667 -0.006044 0.034320 -0.008758
# 6 -0.002604 -0.005993 0.000892 0.008355 -0.008758 0.030046
#
#
# Mechanical properties :
#
#
# Convention : Reuss Voigt Hill
#
# Bulk Modulus (GPa) = 33.43894 49.19442 41.31668
# Shear Modulus (GPa) = 24.19613 30.94979 27.57296
#
# Velocity S-wave (km/s) = 3.53787 4.00127 3.77669
# Velocity P-wave (km/s) = 5.82980 6.84069 6.35537
#
# Compressibility (1/GPa) = 0.02990525
#
# Stress axis : x y z
#
# Youngs Moduli (GPa) = 68.32383 75.97104 32.15448
#
# Poissons Ratio (x) = 0.24490 0.30635
# Poissons Ratio (y) = 0.22025 0.05614
# Poissons Ratio (z) = 0.65095 0.13264
#
# Static dielectric constant tensor:
#      x y z
#    x 3.287700 -0.583040 0.108690 
#    y -0.583040 1.752490 0.679390 
#    z 0.108690 0.679390 2.980370 
# 
# 
# High freq. dielectric constant tensor:
#      x y z
#    x 1.746000 0.016210 -0.023660 
#    y 0.016210 1.762660 0.001430 
#    z -0.023660 0.001430 1.719360 
# 
# From -- ./inp_files/317851.got.cif
#   From: 2010.06.25/outbox.cif.g09.slc.cpg/sg2_159_cif.got.tgz:317851.got - 2010.06.27 13:26:56.
