data_PCOD8014252
_publ_section_title
;
Structure prediction by ZEFSAII (Michael W. Deem and Ramdas Pophale) SiO2 
 PCOD8014252
Probable space group: P -1
;
_chemical_formula_sum "Si O2"
_cell_formula_units_Z 14
_cell_length_a 13.363364
_cell_length_b 9.641877
_cell_length_c 13.795837
_cell_angle_alpha 149.038567
_cell_angle_beta 136.359528
_cell_angle_gamma 56.137944
_cell_volume 620.980922
_symmetry_space_group_name_H-M "P -1"
_symmetry_group_IT_number 2
_symmetry_cell_setting 'triclinic'
loop_
_space_group_symop_operation_xyz
x,y,z
-x,-y,-z
loop_
_atom_site_type_symbol
_atom_site_label
_atom_site_fract_x
_atom_site_fract_y
_atom_site_fract_z
Si Si1 0.669544 0.038164 0.935133
Si Si2 0.759523 0.678933 0.627433
Si Si3 0.788897 0.819293 0.213673
Si Si4 0.416935 0.424056 0.240537
Si Si5 0.795993 0.649129 0.421273
Si Si6 0.362309 0.985007 0.604787
Si Si7 0.009342 0.695753 0.433347
O O1 0.777038 0.926688 0.865810
O O2 0.621572 0.818290 0.854235
O O3 0.532519 0.095582 0.810923
O O4 0.741019 0.324435 0.204299
O O5 0.592826 0.508259 0.408677
O O6 0.806456 0.789193 0.618454
O O7 0.874572 0.490754 0.626052
O O8 0.869566 0.617741 0.215226
O O9 0.731407 0.030914 0.372441
O O10 0.648438 0.664356 0.963712
O O11 0.912453 0.986915 0.330794
O O12 0.337983 0.675349 0.364149
O O13 0.953289 0.673593 0.491974
O O14 0.685115 0.801949 0.376279
#
# Coordination Sequence:
#
# PCOD8014252 Si02
#       7
#     2   2   2   2   2   2   2
#     4  11  23  39  64  95 123 159 208 256 306 362
#     4  11  23  41  63  91 127 159 203 261 304 358
#     4  10  21  41  66  89 124 164 204 255 305 359
#     4  11  23  40  69  94 116 161 213 254 306 360
#     4  11  24  39  61  90 128 168 200 244 311 372
#     4  10  22  41  63  95 125 155 207 261 302 361
#     4  10  22  41  61  91 129 164 202 250 306 368
#
# _framework density 22.544976999999999
#
# number of rings (size 3 to 8) (size 9 to 14) (size 15 to 20)
#    0.000    1.429    0.000    6.000    0.000    8.000 
#    0.000   15.714    0.000    0.000    0.000    0.000 
#    0.000    0.000    0.000    0.000    0.000    0.000 
#
# Total GULP energy -173581.594636 kJ/mol
# GULP energy per Si atom -12398.685331 kJ/mol
# Density = 2.249366 g / cm^3
# Si number density = 22.544977 Si / 1000 Ang^3
#
#
#
# Elastic Constant Matrix: (Units=GPa)
#
#
# Indices 1 2 3 4 5 6 
#
# 1 119.5521 52.9043 11.7482 7.2480 -19.7171 -5.4912
# 2 52.9043 114.3240 38.0071 2.9785 -12.9482 -16.6683
# 3 11.7482 38.0071 30.7892 1.7158 -14.2176 -3.3380
# 4 7.2480 2.9785 1.7158 32.2961 4.7202 4.5030
# 5 -19.7171 -12.9482 -14.2176 4.7202 28.9748 -2.7453
# 6 -5.4912 -16.6683 -3.3380 4.5030 -2.7453 44.2757
#
#
#
# Elastic Compliance Matrix: (Units=1/GPa)
#
#
# Indices 1 2 3 4 5 6 
#
# 1 0.013028 -0.008030 0.010394 -0.004437 0.011149 0.000519
# 2 -0.008030 0.020760 -0.026449 0.002060 -0.009117 0.004051
# 3 0.010394 -0.026449 0.077862 -0.009186 0.034985 0.000306
# 4 -0.004437 0.002060 -0.009186 0.034786 -0.012727 -0.004794
# 5 0.011149 -0.009117 0.034985 -0.012727 0.057783 0.005465
# 6 0.000519 0.004051 0.000306 -0.004794 0.005465 0.025025
#
#
# Mechanical properties :
#
#
# Convention : Reuss Voigt Hill
#
# Bulk Modulus (GPa) = 15.75303 52.22049 33.98676
# Shear Modulus (GPa) = 16.74615 31.90971 24.32793
#
# Velocity S-wave (km/s) = 2.72837 3.76624 3.28851
# Velocity P-wave (km/s) = 4.11435 6.49044 5.43386
#
# Compressibility (1/GPa) = 0.06347987
#
# Stress axis : x y z
#
# Youngs Moduli (GPa) = 76.75541 48.16854 12.84316
#
# Poissons Ratio (x) = 0.38681 -0.13349
# Poissons Ratio (y) = 0.61637 0.33969
# Poissons Ratio (z) = -0.79776 1.27401
#
# Static dielectric constant tensor:
#      x y z
#    x 4.255510 -0.118650 -0.141620 
#    y -0.118650 4.193590 -0.124090 
#    z -0.141620 -0.124090 3.881330 
# 
# 
# High freq. dielectric constant tensor:
#      x y z
#    x 1.903960 -0.005490 -0.007370 
#    y -0.005490 1.904390 -0.012120 
#    z -0.007370 -0.012120 1.865470 
# 
# From -- ./inp_files/261897.got.cif
#   From: 2010.06.25/outbox.cif.g09.slc.cpg/sg2_131_cif.got.tgz:261897.got - 2010.06.27 13:26:56.
