data_PCOD8014999
_publ_section_title
;
Structure prediction by ZEFSAII (Michael W. Deem and Ramdas Pophale) SiO2 
 PCOD8014999
Probable space group: P -1
;
_chemical_formula_sum "Si O2"
_cell_formula_units_Z 16
_cell_length_a 18.779335
_cell_length_b 21.887963
_cell_length_c 5.613903
_cell_angle_alpha 85.517950
_cell_angle_beta 97.272100
_cell_angle_gamma 161.850539
_cell_volume 706.350699
_symmetry_space_group_name_H-M "P -1"
_symmetry_group_IT_number 2
_symmetry_cell_setting 'triclinic'
loop_
_space_group_symop_operation_xyz
x,y,z
-x,-y,-z
loop_
_atom_site_type_symbol
_atom_site_label
_atom_site_fract_x
_atom_site_fract_y
_atom_site_fract_z
Si Si1 0.634581 0.672166 0.539517
Si Si2 0.842866 0.002533 0.738542
Si Si3 0.355953 0.944272 0.431550
Si Si4 0.876909 0.172999 0.257277
Si Si5 0.861622 0.948109 0.252219
Si Si6 0.454670 0.141194 0.157016
Si Si7 0.221544 0.396998 0.698786
Si Si8 0.122963 0.438603 0.899464
O O1 0.500000 0.500000 0.500000
O O2 0.475477 0.589178 0.649224
O O3 0.870898 0.853854 0.731743
O O4 0.699490 0.756101 0.285212
O O5 0.836371 0.963106 0.492762
O O6 0.100771 0.240518 0.822879
O O7 0.641748 0.891990 0.666301
O O8 0.781524 0.914414 0.981885
O O9 0.332590 0.960566 0.665290
O O10 0.094681 0.717908 0.305328
O O11 0.500000 0.000000 0.500000
O O12 0.490453 0.100032 0.266285
O O13 0.037229 0.260398 0.454945
O O14 0.037782 0.356361 0.154119
O O15 0.758303 0.030375 0.066251
O O16 0.695306 0.358679 0.081081
O O17 0.244974 0.475319 0.850255
#
# Coordination Sequence:
#
# PCOD8014999 Si02
#       8
#     2   2   2   2   2   2   2   2
#     4  11  25  46  67  97 137 182 229 287 353 420
#     4  12  23  46  72  96 141 177 237 289 348 404
#     4  10  23  44  66  94 139 174 216 277 340 410
#     4  10  21  42  64  96 132 171 226 270 341 399
#     4  11  28  47  66 103 135 184 232 295 350 415
#     4  11  23  39  67  98 131 176 223 283 336 405
#     4  11  22  43  67  97 134 180 225 288 344 410
#     4  10  23  40  64 100 127 174 229 273 340 411
#
# _framework density 22.651636
#
# number of rings (size 3 to 8) (size 9 to 14) (size 15 to 20)
#    0.000    1.250    5.000    1.500    1.750    7.000 
#    4.500    1.250    0.000    0.000    0.000    0.000 
#    0.000    0.000    0.000    0.000    0.000    0.000 
#
# Total GULP energy -198314.360478 kJ/mol
# GULP energy per Si atom -12394.647530 kJ/mol
# Density = 2.260008 g / cm^3
# Si number density = 22.651636 Si / 1000 Ang^3
#
#
#
# Elastic Constant Matrix: (Units=GPa)
#
#
# Indices 1 2 3 4 5 6 
#
# 1 115.3566 35.3358 36.8150 1.4418 10.7989 8.7195
# 2 35.3358 145.7704 23.7018 -30.3815 10.4853 -23.3606
# 3 36.8150 23.7018 97.6669 -15.2478 2.8362 -8.2149
# 4 1.4418 -30.3815 -15.2478 15.4954 -3.1747 5.1283
# 5 10.7989 10.4853 2.8362 -3.1747 23.6108 -7.0767
# 6 8.7195 -23.3606 -8.2149 5.1283 -7.0767 40.1315
#
#
#
# Elastic Compliance Matrix: (Units=1/GPa)
#
#
# Indices 1 2 3 4 5 6 
#
# 1 0.015497 -0.008298 -0.008130 -0.024692 -0.008189 -0.008150
# 2 -0.008298 0.016827 0.005438 0.036941 0.003200 0.008555
# 3 -0.008130 0.005438 0.016500 0.026713 0.004625 0.005712
# 4 -0.024692 0.036941 0.026713 0.164459 0.018145 0.014520
# 5 -0.008189 0.003200 0.004625 0.018145 0.049878 0.011066
# 6 -0.008150 0.008555 0.005712 0.014520 0.011066 0.032934
#
#
# Mechanical properties :
#
#
# Convention : Reuss Voigt Hill
#
# Bulk Modulus (GPa) = 37.25256 61.16657 49.20957
# Shear Modulus (GPa) = 15.28939 33.37694 24.33317
#
# Velocity S-wave (km/s) = 2.60086 3.84277 3.28111
# Velocity P-wave (km/s) = 5.04983 6.83747 6.01048
#
# Compressibility (1/GPa) = 0.02684379
#
# Stress axis : x y z
#
# Youngs Moduli (GPa) = 64.53055 59.42711 60.60485
#
# Poissons Ratio (x) = 0.49312 0.49273
# Poissons Ratio (y) = 0.53547 -0.32957
# Poissons Ratio (z) = 0.52465 -0.32317
#
# Static dielectric constant tensor:
#      x y z
#    x 3.980810 -0.078530 -0.036040 
#    y -0.078530 4.208530 -0.391360 
#    z -0.036040 -0.391360 4.073620 
# 
# 
# High freq. dielectric constant tensor:
#      x y z
#    x 1.882320 -0.008900 -0.000780 
#    y -0.008900 1.902870 -0.021580 
#    z -0.000780 -0.021580 1.886160 
# 
# From -- ./inp_files/48037.got.cif
#   From: 2010.06.25/outbox.cif.g09.slc.cpg/sg2_25_cif.got.tgz:48037.got - 2010.06.27 13:26:56.
