data_PCOD8014441
_publ_section_title
;
Structure prediction by ZEFSAII (Michael W. Deem and Ramdas Pophale) SiO2 
 PCOD8014441
Probable space group: P -1
;
_chemical_formula_sum "Si O2"
_cell_formula_units_Z 16
_cell_length_a 6.234804
_cell_length_b 21.497885
_cell_length_c 15.913811
_cell_angle_alpha 21.616090
_cell_angle_beta 113.596090
_cell_angle_gamma 109.544815
_cell_volume 715.593499
_symmetry_space_group_name_H-M "P -1"
_symmetry_group_IT_number 2
_symmetry_cell_setting 'triclinic'
loop_
_space_group_symop_operation_xyz
x,y,z
-x,-y,-z
loop_
_atom_site_type_symbol
_atom_site_label
_atom_site_fract_x
_atom_site_fract_y
_atom_site_fract_z
Si Si1 0.603054 0.174599 0.311208
Si Si2 0.986096 0.256105 0.737910
Si Si3 0.954531 0.118487 0.732910
Si Si4 0.716686 0.394733 0.894698
Si Si5 0.489151 0.300377 0.421967
Si Si6 0.619399 0.549789 0.371822
Si Si7 0.004689 0.250726 0.388481
Si Si8 0.782762 0.555619 0.051423
O O1 0.850833 0.143328 0.438916
O O2 0.500000 0.000000 0.500000
O O3 0.638876 0.266061 0.114121
O O4 0.414002 0.289448 0.195782
O O5 0.049725 0.237835 0.671229
O O6 0.752470 0.387039 0.549312
O O7 0.200460 0.315673 0.748847
O O8 0.935174 0.074494 0.994701
O O9 0.667847 0.134652 0.682197
O O10 0.024852 0.174397 0.581322
O O11 0.640141 0.592831 0.656109
O O12 0.586320 0.355588 0.837622
O O13 0.000512 0.371632 0.956320
O O14 0.660094 0.419413 0.255747
O O15 0.272255 0.242382 0.404847
O O16 0.500000 0.500000 0.500000
O O17 0.888365 0.450096 0.118842
#
# Coordination Sequence:
#
# PCOD8014441 Si02
#       8
#     2   2   2   2   2   2   2   2
#     4  11  25  42  63  95 134 166 210 270 327 389
#     4  10  24  42  65  96 130 173 217 272 325 379
#     4  10  21  41  67  95 133 167 215 275 321 379
#     4  10  22  41  65  95 127 173 217 263 320 393
#     4   9  19  38  68  92 127 163 216 267 315 377
#     4  11  25  41  67  95 132 174 221 261 328 388
#     4  10  22  39  67  96 125 171 217 257 328 394
#     4   9  21  40  66  87 127 168 216 262 317 378
#
# _framework density 22.359062999999999
#
# number of rings (size 3 to 8) (size 9 to 14) (size 15 to 20)
#    0.000    2.000    1.250    0.375    7.000    9.000 
#    2.250    2.500    0.000    0.000    0.000    0.000 
#    0.000    0.000    0.000    0.000    0.000    0.000 
#
# Total GULP energy -198286.777001 kJ/mol
# GULP energy per Si atom -12392.923563 kJ/mol
# Density = 2.230817 g / cm^3
# Si number density = 22.359063 Si / 1000 Ang^3
#
#
#
# Elastic Constant Matrix: (Units=GPa)
#
#
# Indices 1 2 3 4 5 6 
#
# 1 96.1706 45.5864 28.3975 5.5951 -11.6556 24.8846
# 2 45.5864 141.2141 48.8841 5.0123 -13.3560 27.0399
# 3 28.3975 48.8841 86.4687 -2.6399 -6.8417 3.1404
# 4 5.5951 5.0123 -2.6399 31.5374 -4.3385 -1.5563
# 5 -11.6556 -13.3560 -6.8417 -4.3385 24.3283 6.3562
# 6 24.8846 27.0399 3.1404 -1.5563 6.3562 47.1916
#
#
#
# Elastic Compliance Matrix: (Units=1/GPa)
#
#
# Indices 1 2 3 4 5 6 
#
# 1 0.015136 -0.001435 -0.003364 -0.002139 0.007221 -0.007978
# 2 -0.001435 0.011025 -0.005180 -0.001511 0.005198 -0.005966
# 3 -0.003364 -0.005180 0.015495 0.002825 -0.000609 0.003886
# 4 -0.002139 -0.001511 0.002825 0.033266 0.004264 0.002328
# 5 0.007221 0.005198 -0.000609 0.004264 0.051546 -0.013547
# 6 -0.007978 -0.005966 0.003886 0.002328 -0.013547 0.030458
#
#
# Mechanical properties :
#
#
# Convention : Reuss Voigt Hill
#
# Bulk Modulus (GPa) = 46.08622 63.28770 54.68696
# Shear Modulus (GPa) = 27.15671 34.01051 30.58361
#
# Velocity S-wave (km/s) = 3.48885 3.90437 3.70244
# Velocity P-wave (km/s) = 6.07339 6.97797 6.54134
#
# Compressibility (1/GPa) = 0.02169846
#
# Stress axis : x y z
#
# Youngs Moduli (GPa) = 66.06922 90.69912 64.53734
#
# Poissons Ratio (x) = 0.13017 0.21708
# Poissons Ratio (y) = 0.09482 0.33430
# Poissons Ratio (z) = 0.22223 0.46982
#
# Static dielectric constant tensor:
#      x y z
#    x 4.498130 0.332310 0.404350 
#    y 0.332310 4.086750 0.040500 
#    z 0.404350 0.040500 3.990040 
# 
# 
# High freq. dielectric constant tensor:
#      x y z
#    x 1.885000 0.019290 0.003660 
#    y 0.019290 1.879620 0.009260 
#    z 0.003660 0.009260 1.863640 
# 
# From -- ./inp_files/551238.got.cif
#   From: 2010.06.25/outbox.cif.g09.slc.cpg/sg2_276_cif.got.tgz:551238.got - 2010.06.27 13:26:56.
