data_PCOD8014183
_publ_section_title
;
Structure prediction by ZEFSAII (Michael W. Deem and Ramdas Pophale) SiO2 
 PCOD8014183
Probable space group: P -1
;
_chemical_formula_sum "Si O2"
_cell_formula_units_Z 16
_cell_length_a 12.435877
_cell_length_b 9.271630
_cell_length_c 9.250235
_cell_angle_alpha 44.714346
_cell_angle_beta 82.739653
_cell_angle_gamma 95.400898
_cell_volume 718.071126
_symmetry_space_group_name_H-M "P -1"
_symmetry_group_IT_number 2
_symmetry_cell_setting 'triclinic'
loop_
_space_group_symop_operation_xyz
x,y,z
-x,-y,-z
loop_
_atom_site_type_symbol
_atom_site_label
_atom_site_fract_x
_atom_site_fract_y
_atom_site_fract_z
Si Si1 0.790006 0.820336 0.528991
Si Si2 0.889676 0.988685 0.691048
Si Si3 0.604319 0.466390 0.418897
Si Si4 0.957119 0.568659 0.610790
Si Si5 0.391097 0.812274 0.134730
Si Si6 0.919022 0.134512 0.079584
Si Si7 0.768835 0.917372 0.034268
Si Si8 0.454131 0.451526 0.202212
O O1 0.859587 0.870649 0.629602
O O2 0.841914 0.646075 0.560503
O O3 0.657173 0.744373 0.633584
O O4 0.813113 0.034663 0.276084
O O5 0.970407 0.882224 0.845424
O O6 0.778494 0.945734 0.839366
O O7 0.944227 0.238744 0.479323
O O8 0.500000 0.500000 0.500000
O O9 0.646001 0.289682 0.626904
O O10 0.705448 0.677668 0.253190
O O11 0.556193 0.398402 0.314626
O O12 0.000000 0.500000 0.500000
O O13 0.933251 0.379695 0.865429
O O14 0.418254 0.652561 0.127423
O O15 0.500000 0.000000 0.000000
O O16 0.294286 0.910649 0.019453
O O17 0.890688 0.987783 0.042874
O O18 0.500000 0.500000 0.000000
#
# Coordination Sequence:
#
# PCOD8014183 Si02
#       8
#     2   2   2   2   2   2   2   2
#     4  11  26  43  66  98 138 178 216 270 339 387
#     4  11  26  43  65 100 137 173 216 276 329 395
#     4  10  21  41  65  94 131 173 218 272 329 387
#     4  11  23  43  67  99 128 169 227 273 324 394
#     4  11  23  41  68  95 129 171 224 274 321 387
#     4  11  23  42  71  95 134 173 221 273 328 394
#     4  12  22  40  69  98 130 174 224 270 327 393
#     4  11  23  45  70  96 137 179 218 273 331 394
#
# _framework density 22.281915000000001
#
# number of rings (size 3 to 8) (size 9 to 14) (size 15 to 20)
#    0.000    1.000    3.750    4.875    1.750    4.000 
#    0.000    3.125    0.000    0.000    0.000    0.000 
#    0.000    0.000    0.000    0.000    0.000    0.000 
#
# Total GULP energy -198317.494538 kJ/mol
# GULP energy per Si atom -12394.843409 kJ/mol
# Density = 2.223120 g / cm^3
# Si number density = 22.281915 Si / 1000 Ang^3
#
#
#
# Elastic Constant Matrix: (Units=GPa)
#
#
# Indices 1 2 3 4 5 6 
#
# 1 70.4321 36.5697 43.4800 -7.0109 1.9996 12.5766
# 2 36.5697 95.6647 54.4586 8.7176 6.3341 10.9172
# 3 43.4800 54.4586 193.2442 -12.4591 -1.1200 0.6645
# 4 -7.0109 8.7176 -12.4591 47.2315 5.7481 -5.4951
# 5 1.9996 6.3341 -1.1200 5.7481 36.0635 6.4465
# 6 12.5766 10.9172 0.6645 -5.4951 6.4465 30.3869
#
#
#
# Elastic Compliance Matrix: (Units=1/GPa)
#
#
# Indices 1 2 3 4 5 6 
#
# 1 0.020156 -0.005755 -0.002723 0.002604 0.000437 -0.005837
# 2 -0.005755 0.015538 -0.003395 -0.004931 -0.001051 -0.003795
# 3 -0.002723 -0.003395 0.006886 0.002325 0.000128 0.002589
# 4 0.002604 -0.004931 0.002325 0.024272 -0.004131 0.005909
# 5 0.000437 -0.001051 0.000128 -0.004131 0.029780 -0.006871
# 6 -0.005837 -0.003795 0.002589 0.005909 -0.006871 0.039158
#
#
# Mechanical properties :
#
#
# Convention : Reuss Voigt Hill
#
# Bulk Modulus (GPa) = 53.09483 69.81752 61.45617
# Shear Modulus (GPa) = 30.15440 37.72522 33.93981
#
# Velocity S-wave (km/s) = 3.68273 4.11918 3.90705
# Velocity P-wave (km/s) = 6.47794 7.35019 6.92781
#
# Compressibility (1/GPa) = 0.01883423
#
# Stress axis : x y z
#
# Youngs Moduli (GPa) = 49.61259 64.35930 145.22579
#
# Poissons Ratio (x) = 0.37040 0.39542
# Poissons Ratio (y) = 0.28553 0.49301
# Poissons Ratio (z) = 0.13508 0.21849
#
# Static dielectric constant tensor:
#      x y z
#    x 4.355420 0.114640 0.173140 
#    y 0.114640 4.156910 0.064570 
#    z 0.173140 0.064570 4.797160 
# 
# 
# High freq. dielectric constant tensor:
#      x y z
#    x 1.873400 0.019910 -0.010700 
#    y 0.019910 1.860980 0.002310 
#    z -0.010700 0.002310 1.901720 
# 
# From -- ./inp_files/294066.got.cif
#   From: 2010.06.25/outbox.cif.g09.slc.cpg/sg2_148_cif.got.tgz:294066.got - 2010.06.27 13:26:56.
