data_PCOD8014190
_publ_section_title
;
Structure prediction by ZEFSAII (Michael W. Deem and Ramdas Pophale) SiO2 
 PCOD8014190
Probable space group: P -1
;
_chemical_formula_sum "Si O2"
_cell_formula_units_Z 16
_cell_length_a 22.137887
_cell_length_b 8.438122
_cell_length_c 15.286053
_cell_angle_alpha 69.799553
_cell_angle_beta 18.180671
_cell_angle_gamma 62.652594
_cell_volume 747.351346
_symmetry_space_group_name_H-M "P -1"
_symmetry_group_IT_number 2
_symmetry_cell_setting 'triclinic'
loop_
_space_group_symop_operation_xyz
x,y,z
-x,-y,-z
loop_
_atom_site_type_symbol
_atom_site_label
_atom_site_fract_x
_atom_site_fract_y
_atom_site_fract_z
Si Si1 0.203629 0.806136 0.779272
Si Si2 0.779063 0.548277 0.746366
Si Si3 0.841262 0.548912 0.128244
Si Si4 0.987071 0.817824 0.780435
Si Si5 0.634868 0.187873 0.624200
Si Si6 0.600733 0.141180 0.321077
Si Si7 0.821088 0.186195 0.667770
Si Si8 0.584138 0.864161 0.827968
O O1 0.128301 0.642228 0.924101
O O2 0.377176 0.757683 0.471217
O O3 0.314227 0.819525 0.712768
O O4 0.000000 0.000000 0.000000
O O5 0.761709 0.358794 0.782745
O O6 0.763972 0.663271 0.655183
O O7 0.000000 0.500000 0.500000
O O8 0.588241 0.671351 0.051249
O O9 0.592819 0.663009 0.484580
O O10 0.890159 0.672758 0.965049
O O11 0.000000 0.500000 0.000000
O O12 0.168647 0.788849 0.607107
O O13 0.088634 0.770770 0.554088
O O14 0.801434 0.037416 0.997462
O O15 0.679119 0.967560 0.611554
O O16 0.500000 0.000000 0.500000
O O17 0.606811 0.162365 0.951089
O O18 0.000000 0.000000 0.500000
O O19 0.500000 0.000000 0.000000
#
# Coordination Sequence:
#
# PCOD8014190 Si02
#       8
#     2   2   2   2   2   2   2   2
#     4  12  23  44  70 104 136 178 227 276 337 406
#     4  11  25  44  66  99 136 176 229 279 331 406
#     4  11  23  44  67 101 138 178 224 277 332 406
#     4  11  23  45  70  96 139 179 223 280 342 392
#     4  11  23  44  71  96 138 181 220 280 344 392
#     4  10  23  43  67  99 137 174 223 280 327 402
#     4  12  25  44  70 100 134 177 229 279 337 403
#     4  10  21  41  65  94 133 172 220 277 328 396
#
# _framework density 21.408940999999999
#
# number of rings (size 3 to 8) (size 9 to 14) (size 15 to 20)
#    0.000    1.000    5.000    3.000    0.000    6.000 
#    0.000    0.000    0.000    0.000    0.000    0.000 
#    0.000    0.000    0.000    0.000    0.000    0.000 
#
# Total GULP energy -198390.312125 kJ/mol
# GULP energy per Si atom -12399.394508 kJ/mol
# Density = 2.136021 g / cm^3
# Si number density = 21.408941 Si / 1000 Ang^3
#
#
#
# Elastic Constant Matrix: (Units=GPa)
#
#
# Indices 1 2 3 4 5 6 
#
# 1 99.6902 45.6829 31.7819 -3.9665 -22.2205 15.6445
# 2 45.6829 149.0428 40.0416 0.5759 -13.7640 15.9700
# 3 31.7819 40.0416 101.5433 11.5236 -17.4630 7.1147
# 4 -3.9665 0.5759 11.5236 42.7072 -6.0523 -3.4782
# 5 -22.2205 -13.7640 -17.4630 -6.0523 49.3728 -5.0170
# 6 15.6445 15.9700 7.1147 -3.4782 -5.0170 40.8476
#
#
#
# Elastic Compliance Matrix: (Units=1/GPa)
#
#
# Indices 1 2 3 4 5 6 
#
# 1 0.013657 -0.002804 -0.002459 0.002365 0.004485 -0.002954
# 2 -0.002804 0.008387 -0.002301 0.000116 0.000095 -0.001783
# 3 -0.002459 -0.002301 0.012286 -0.003230 0.002170 -0.000307
# 4 0.002365 0.000116 -0.003230 0.025141 0.003255 0.002152
# 5 0.004485 0.000095 0.002170 0.003255 0.023571 0.001039
# 6 -0.002954 -0.001783 -0.000307 0.002152 0.001039 0.026674
#
#
# Mechanical properties :
#
#
# Convention : Reuss Voigt Hill
#
# Bulk Modulus (GPa) = 52.07878 65.03214 58.55546
# Shear Modulus (GPa) = 38.09650 42.10353 40.10001
#
# Velocity S-wave (km/s) = 4.22295 4.43948 4.33257
# Velocity P-wave (km/s) = 6.93947 7.53132 7.24145
#
# Compressibility (1/GPa) = 0.01920168
#
# Stress axis : x y z
#
# Youngs Moduli (GPa) = 73.22145 119.23906 81.39042
#
# Poissons Ratio (x) = 0.33433 0.20014
# Poissons Ratio (y) = 0.20530 0.18731
# Poissons Ratio (z) = 0.18005 0.27441
#
# Static dielectric constant tensor:
#      x y z
#    x 5.548610 0.514690 -0.103890 
#    y 0.514690 4.582010 0.094940 
#    z -0.103890 0.094940 4.310430 
# 
# 
# High freq. dielectric constant tensor:
#      x y z
#    x 1.837910 0.009240 -0.013100 
#    y 0.009240 1.856000 0.005190 
#    z -0.013100 0.005190 1.843050 
# 
# From -- ./inp_files/540463.got.cif
#   From: 2010.06.25/outbox.cif.g09.slc.cpg/sg2_271_cif.got.tgz:540463.got - 2010.06.27 13:26:56.
