data_PCOD8014719
_publ_section_title
;
Structure prediction by ZEFSAII (Michael W. Deem and Ramdas Pophale) SiO2 
 PCOD8014719
Probable space group: P -1
;
_chemical_formula_sum "Si O2"
_cell_formula_units_Z 14
_cell_length_a 6.626298
_cell_length_b 10.855942
_cell_length_c 8.619248
_cell_angle_alpha 75.758743
_cell_angle_beta 76.158016
_cell_angle_gamma 97.345317
_cell_volume 571.918283
_symmetry_space_group_name_H-M "P -1"
_symmetry_group_IT_number 2
_symmetry_cell_setting 'triclinic'
loop_
_space_group_symop_operation_xyz
x,y,z
-x,-y,-z
loop_
_atom_site_type_symbol
_atom_site_label
_atom_site_fract_x
_atom_site_fract_y
_atom_site_fract_z
Si Si1 0.992568 0.634105 0.037960
Si Si2 0.438957 0.188242 0.777988
Si Si3 0.122628 0.085979 0.618055
Si Si4 0.253248 0.871719 0.499649
Si Si5 0.403435 0.458624 0.696169
Si Si6 0.404499 0.712980 0.790213
Si Si7 0.224676 0.150889 0.130318
O O1 0.855901 0.598743 0.233450
O O2 0.870382 0.723007 0.929804
O O3 0.000000 0.500000 0.000000
O O4 0.242060 0.704973 0.970962
O O5 0.621769 0.125608 0.686716
O O6 0.517266 0.340029 0.761093
O O7 0.246175 0.184122 0.690301
O O8 0.353052 0.109528 0.971851
O O9 0.998954 0.158946 0.492527
O O10 0.954812 0.972238 0.764672
O O11 0.298102 0.015249 0.524948
O O12 0.299610 0.761564 0.640425
O O13 0.500000 0.500000 0.500000
O O14 0.459159 0.574257 0.775433
O O15 0.617930 0.812327 0.764005
#
# Coordination Sequence:
#
# PCOD8014719 Si02
#       7
#     2   2   2   2   2   2   2
#     4   9  21  40  66  97 136 176 219 270 335 404
#     4  11  25  44  67 100 141 174 227 284 338 403
#     4  11  26  44  69  99 136 183 234 271 338 412
#     4  11  25  42  71  96 134 185 225 282 334 398
#     4  10  21  41  71 100 133 174 222 285 335 398
#     4  11  23  44  71  99 139 177 228 275 347 402
#     4  11  25  43  71 101 137 182 224 282 337 407
#
# _framework density 24.479023000000002
#
# number of rings (size 3 to 8) (size 9 to 14) (size 15 to 20)
#    0.000    1.429    2.857    0.857    6.000    8.000 
#    0.000    2.143    0.000    0.000    0.000    0.000 
#    0.000    0.000    0.000    0.000    0.000    0.000 
#
# Total GULP energy -173433.826775 kJ/mol
# GULP energy per Si atom -12388.130484 kJ/mol
# Density = 2.442331 g / cm^3
# Si number density = 24.479023 Si / 1000 Ang^3
#
#
#
# Elastic Constant Matrix: (Units=GPa)
#
#
# Indices 1 2 3 4 5 6 
#
# 1 92.9157 37.4931 41.6444 2.0088 -20.1840 -14.6025
# 2 37.4931 89.1755 24.6862 7.2454 -5.1852 -18.6704
# 3 41.6444 24.6862 91.6545 3.3544 -32.8617 -14.6679
# 4 2.0088 7.2454 3.3544 39.4917 -0.6570 -7.4792
# 5 -20.1840 -5.1852 -32.8617 -0.6570 62.4282 6.7133
# 6 -14.6025 -18.6704 -14.6679 -7.4792 6.7133 28.7777
#
#
#
# Elastic Compliance Matrix: (Units=1/GPa)
#
#
# Indices 1 2 3 4 5 6 
#
# 1 0.015551 -0.004717 -0.004805 0.000927 0.001882 0.002184
# 2 -0.004717 0.014985 -0.001404 -0.001146 -0.001755 0.006724
# 3 -0.004805 -0.001404 0.016387 -0.000130 0.006585 0.003433
# 4 0.000927 -0.001146 -0.000130 0.026757 -0.000301 0.006685
# 5 0.001882 -0.001755 0.006585 -0.000301 0.020116 -0.001598
# 6 0.002184 0.006724 0.003433 0.006685 -0.001598 0.044080
#
#
# Mechanical properties :
#
#
# Convention : Reuss Voigt Hill
#
# Bulk Modulus (GPa) = 39.88646 53.48813 46.68729
# Shear Modulus (GPa) = 29.74675 37.46765 33.60720
#
# Velocity S-wave (km/s) = 3.48974 3.91654 3.70928
# Velocity P-wave (km/s) = 5.70677 6.50772 6.12036
#
# Compressibility (1/GPa) = 0.02507117
#
# Stress axis : x y z
#
# Youngs Moduli (GPa) = 64.30258 66.73549 61.02276
#
# Poissons Ratio (x) = 0.31479 0.29324
# Poissons Ratio (y) = 0.30331 0.08566
# Poissons Ratio (z) = 0.30900 0.09368
#
# Static dielectric constant tensor:
#      x y z
#    x 4.787990 -0.252070 -0.598240 
#    y -0.252070 4.392550 -0.028230 
#    z -0.598240 -0.028230 4.711620 
# 
# 
# High freq. dielectric constant tensor:
#      x y z
#    x 1.970480 -0.017920 -0.036620 
#    y -0.017920 1.972750 -0.007240 
#    z -0.036620 -0.007240 1.975600 
# 
# From -- ./inp_files/131498.got.cif
#   From: 2010.06.25/outbox.cif.g09.slc.cpg/sg2_66_cif.got.tgz:131498.got - 2010.06.27 13:26:56.
