data_PCOD8014934
_publ_section_title
;
Structure prediction by ZEFSAII (Michael W. Deem and Ramdas Pophale) SiO2 
 PCOD8014934
Probable space group: P -1
;
_chemical_formula_sum "Si O2"
_cell_formula_units_Z 16
_cell_length_a 12.633221
_cell_length_b 21.037057
_cell_length_c 18.372615
_cell_angle_alpha 20.375778
_cell_angle_beta 28.228891
_cell_angle_gamma 27.064092
_cell_volume 739.758938
_symmetry_space_group_name_H-M "P -1"
_symmetry_group_IT_number 2
_symmetry_cell_setting 'triclinic'
loop_
_space_group_symop_operation_xyz
x,y,z
-x,-y,-z
loop_
_atom_site_type_symbol
_atom_site_label
_atom_site_fract_x
_atom_site_fract_y
_atom_site_fract_z
Si Si1 0.789863 0.892411 0.521216
Si Si2 0.331907 0.012551 0.250799
Si Si3 0.090708 0.901072 0.891174
Si Si4 0.823466 0.179053 0.315857
Si Si5 0.332759 0.783154 0.120024
Si Si6 0.253001 0.562976 0.541226
Si Si7 0.699788 0.839159 0.101446
Si Si8 0.509489 0.361386 0.979105
O O1 0.058084 0.719558 0.543551
O O2 0.748087 0.985162 0.364525
O O3 0.769410 0.065084 0.404205
O O4 0.604324 0.797080 0.761282
O O5 0.254789 0.895957 0.483374
O O6 0.548879 0.836554 0.267920
O O7 0.110722 0.131478 0.201304
O O8 0.429270 0.172883 0.051724
O O9 0.267257 0.687991 0.045479
O O10 0.916186 0.018447 0.937840
O O11 0.926945 0.891696 0.931061
O O12 0.676663 0.413517 0.141581
O O13 0.288598 0.637946 0.360231
O O14 0.376228 0.681377 0.124512
O O15 0.500000 0.500000 0.500000
O O16 0.180989 0.375022 0.777415
O O17 0.500000 0.000000 0.000000
#
# Coordination Sequence:
#
# PCOD8014934 Si02
#       8
#     2   2   2   2   2   2   2   2
#     4  11  25  43  63  97 135 174 215 274 328 392
#     4  10  21  42  63  97 133 168 211 282 325 383
#     4  10  24  45  67  94 132 174 221 276 324 391
#     4  11  24  41  65  98 137 168 216 271 335 390
#     4  10  22  44  67  94 129 175 221 275 326 387
#     4  11  23  40  68  98 130 171 225 270 333 390
#     4  11  22  42  70  94 129 169 224 274 328 387
#     4  12  25  43  68  95 133 179 221 265 337 396
#
# _framework density 21.628667
#
# number of rings (size 3 to 8) (size 9 to 14) (size 15 to 20)
#    0.000    1.250    1.250    5.250    5.250    2.000 
#    4.500    3.125    0.000    0.000    0.000    0.000 
#    0.000    0.000    0.000    0.000    0.000    0.000 
#
# Total GULP energy -198315.995060 kJ/mol
# GULP energy per Si atom -12394.749691 kJ/mol
# Density = 2.157944 g / cm^3
# Si number density = 21.628667 Si / 1000 Ang^3
#
#
#
# Elastic Constant Matrix: (Units=GPa)
#
#
# Indices 1 2 3 4 5 6 
#
# 1 88.1012 39.0230 27.6867 -13.1519 0.3753 -6.2164
# 2 39.0230 99.8159 42.2924 -23.2831 1.3416 -1.8355
# 3 27.6867 42.2924 86.8318 -7.7098 0.6724 1.7905
# 4 -13.1519 -23.2831 -7.7098 41.5162 2.2564 -0.3685
# 5 0.3753 1.3416 0.6724 2.2564 20.4398 -11.6687
# 6 -6.2164 -1.8355 1.7905 -0.3685 -11.6687 35.5081
#
#
#
# Elastic Compliance Matrix: (Units=1/GPa)
#
#
# Indices 1 2 3 4 5 6 
#
# 1 0.014435 -0.004148 -0.002504 0.001721 0.001603 0.002984
# 2 -0.004148 0.015566 -0.005674 0.006443 -0.001507 -0.000064
# 3 -0.002504 -0.005674 0.015022 -0.001148 -0.000992 -0.001827
# 4 0.001721 0.006443 -0.001148 0.028230 -0.003657 -0.000216
# 5 0.001603 -0.001507 -0.000992 -0.003657 0.060995 0.020259
# 6 0.002984 -0.000064 -0.001827 -0.000216 0.020259 0.035429
#
#
# Mechanical properties :
#
#
# Convention : Reuss Voigt Hill
#
# Bulk Modulus (GPa) = 49.08626 54.75037 51.91831
# Shear Modulus (GPa) = 24.86090 30.54261 27.70176
#
# Velocity S-wave (km/s) = 3.39402 3.76192 3.58269
# Velocity P-wave (km/s) = 6.17280 6.65117 6.41645
#
# Compressibility (1/GPa) = 0.02037230
#
# Stress axis : x y z
#
# Youngs Moduli (GPa) = 69.27502 64.24152 66.56963
#
# Poissons Ratio (x) = 0.26646 0.16666
# Poissons Ratio (y) = 0.28734 0.37772
# Poissons Ratio (z) = 0.17344 0.36451
#
# Static dielectric constant tensor:
#      x y z
#    x 3.904460 0.027100 0.020010 
#    y 0.027100 4.159640 0.172870 
#    z 0.020010 0.172870 3.999960 
# 
# 
# High freq. dielectric constant tensor:
#      x y z
#    x 1.844320 0.004500 0.011640 
#    y 0.004500 1.861270 0.013500 
#    z 0.011640 0.013500 1.856760 
# 
# From -- ./inp_files/427653.got.cif
#   From: 2010.06.25/outbox.cif.g09.slc.cpg/sg2_214_cif.got.tgz:427653.got - 2010.06.27 13:26:56.
