data_PCOD8014026
_publ_section_title
;
Structure prediction by ZEFSAII (Michael W. Deem and Ramdas Pophale) SiO2 
 PCOD8014026
Probable space group: P -1
;
_chemical_formula_sum "Si O2"
_cell_formula_units_Z 16
_cell_length_a 14.947585
_cell_length_b 8.585094
_cell_length_c 16.502085
_cell_angle_alpha 103.457141
_cell_angle_beta 26.404697
_cell_angle_gamma 87.087612
_cell_volume 733.103978
_symmetry_space_group_name_H-M "P -1"
_symmetry_group_IT_number 2
_symmetry_cell_setting 'triclinic'
loop_
_space_group_symop_operation_xyz
x,y,z
-x,-y,-z
loop_
_atom_site_type_symbol
_atom_site_label
_atom_site_fract_x
_atom_site_fract_y
_atom_site_fract_z
Si Si1 0.979045 0.358885 0.942970
Si Si2 0.442830 0.366712 0.982663
Si Si3 0.223589 0.687788 0.439797
Si Si4 0.139116 0.368996 0.499474
Si Si5 0.593958 0.392524 0.544057
Si Si6 0.294853 0.307644 0.539986
Si Si7 0.250801 0.944066 0.749918
Si Si8 0.824039 0.955305 0.679689
O O1 0.049043 0.366609 0.794792
O O2 0.187671 0.134641 0.776616
O O3 0.000000 0.500000 0.000000
O O4 0.697140 0.426357 0.180962
O O5 0.572828 0.322351 0.784034
O O6 0.547193 0.165132 0.926537
O O7 0.500000 0.500000 0.000000
O O8 0.150872 0.472820 0.221582
O O9 0.249384 0.482335 0.388360
O O10 0.268292 0.727590 0.499547
O O11 0.939658 0.873304 0.665706
O O12 0.286190 0.250559 0.447689
O O13 0.177271 0.214464 0.383998
O O14 0.717484 0.493929 0.421595
O O15 0.624040 0.241398 0.435220
O O16 0.548581 0.115471 0.349752
O O17 0.000000 0.000000 0.000000
O O18 0.000000 0.000000 0.500000
#
# Coordination Sequence:
#
# PCOD8014026 Si02
#       8
#     2   2   2   2   2   2   2   2
#     4  12  24  42  68  94 129 176 215 265 327 380
#     4  11  22  42  66  92 128 172 208 264 323 371
#     4  10  23  43  65  95 129 166 214 266 318 381
#     4  11  23  44  64  93 131 165 214 267 315 382
#     4  11  24  46  65  95 134 167 217 272 319 386
#     4  11  24  44  66  97 130 169 217 271 322 384
#     4  12  24  45  69  94 132 173 213 268 326 382
#     4  10  21  41  64  93 127 165 209 259 314 380
#
# _framework density 21.825006999999999
#
# number of rings (size 3 to 8) (size 9 to 14) (size 15 to 20)
#    0.000    1.000    5.000    2.625    0.000    2.500 
#    9.000    0.000    0.000    0.000    0.000    0.000 
#    0.000    0.000    0.000    0.000    0.000    0.000 
#
# Total GULP energy -198429.783257 kJ/mol
# GULP energy per Si atom -12401.861454 kJ/mol
# Density = 2.177533 g / cm^3
# Si number density = 21.825007 Si / 1000 Ang^3
#
#
#
# Elastic Constant Matrix: (Units=GPa)
#
#
# Indices 1 2 3 4 5 6 
#
# 1 119.7664 23.7262 27.6032 14.4840 -21.5567 -33.3232
# 2 23.7262 64.9485 21.7253 13.5317 -6.2369 -29.4772
# 3 27.6032 21.7253 93.1320 7.5917 -15.9121 -16.5452
# 4 14.4840 13.5317 7.5917 31.7070 -4.5206 -4.2699
# 5 -21.5567 -6.2369 -15.9121 -4.5206 24.1812 0.1092
# 6 -33.3232 -29.4772 -16.5452 -4.2699 0.1092 38.0190
#
#
#
# Elastic Compliance Matrix: (Units=1/GPa)
#
#
# Indices 1 2 3 4 5 6 
#
# 1 0.014796 0.003737 0.000113 -0.004408 0.013335 0.015382
# 2 0.003737 0.027538 -0.001396 -0.008925 0.007743 0.022994
# 3 0.000113 -0.001396 0.013363 -0.000829 0.008358 0.004715
# 4 -0.004408 -0.008925 -0.000829 0.036628 0.000102 -0.007031
# 5 0.013335 0.007743 0.008358 0.000102 0.060663 0.021166
# 6 0.015382 0.022994 0.004715 -0.007031 0.021166 0.058815
#
#
# Mechanical properties :
#
#
# Convention : Reuss Voigt Hill
#
# Bulk Modulus (GPa) = 16.50005 47.10622 31.80314
# Shear Modulus (GPa) = 22.01723 32.43425 27.22574
#
# Velocity S-wave (km/s) = 3.17962 3.85918 3.53577
# Velocity P-wave (km/s) = 4.58874 6.44113 5.59217
#
# Compressibility (1/GPa) = 0.06060588
#
# Stress axis : x y z
#
# Youngs Moduli (GPa) = 67.58404 36.31393 74.83510
#
# Poissons Ratio (x) = -0.13572 -0.00847
# Poissons Ratio (y) = -0.25258 0.10447
# Poissons Ratio (z) = -0.00765 0.05069
#
# Static dielectric constant tensor:
#      x y z
#    x 4.064550 -0.332750 -0.289200 
#    y -0.332750 4.410050 0.095500 
#    z -0.289200 0.095500 4.234630 
# 
# 
# High freq. dielectric constant tensor:
#      x y z
#    x 1.862700 -0.012500 -0.013830 
#    y -0.012500 1.872480 -0.009220 
#    z -0.013830 -0.009220 1.849820 
# 
# From -- ./inp_files/529871.got.cif
#   From: 2010.06.25/outbox.cif.g09.slc.cpg/sg2_265_cif.got.tgz:529871.got - 2010.06.27 13:26:56.
