data_PCOD8014741
_publ_section_title
;
Structure prediction by ZEFSAII (Michael W. Deem and Ramdas Pophale) SiO2 
 PCOD8014741
Probable space group: P -1
;
_chemical_formula_sum "Si O2"
_cell_formula_units_Z 16
_cell_length_a 12.566127
_cell_length_b 10.709963
_cell_length_c 9.428968
_cell_angle_alpha 79.144015
_cell_angle_beta 46.127572
_cell_angle_gamma 58.443157
_cell_volume 747.445710
_symmetry_space_group_name_H-M "P -1"
_symmetry_group_IT_number 2
_symmetry_cell_setting 'triclinic'
loop_
_space_group_symop_operation_xyz
x,y,z
-x,-y,-z
loop_
_atom_site_type_symbol
_atom_site_label
_atom_site_fract_x
_atom_site_fract_y
_atom_site_fract_z
Si Si1 0.013354 0.591795 0.097038
Si Si2 0.346203 0.814202 0.191718
Si Si3 0.114481 0.071762 0.856154
Si Si4 0.437416 0.873919 0.802657
Si Si5 0.719472 0.534241 0.894435
Si Si6 0.764620 0.585295 0.544654
Si Si7 0.268342 0.056835 0.420689
Si Si8 0.906386 0.276264 0.578181
O O1 0.202037 0.473037 0.021665
O O2 0.992088 0.749276 0.035745
O O3 0.866085 0.640403 0.345048
O O4 0.000000 0.500000 0.000000
O O5 0.159891 0.831023 0.384075
O O6 0.377417 0.894662 0.275551
O O7 0.335446 0.897943 0.037818
O O8 0.507282 0.635872 0.081438
O O9 0.164145 0.049240 0.651186
O O10 0.296680 0.982222 0.793871
O O11 0.000000 0.000000 0.000000
O O12 0.552637 0.695417 0.681749
O O13 0.590373 0.905944 0.673720
O O14 0.781193 0.605505 0.697393
O O15 0.202682 0.639294 0.192742
O O16 0.847527 0.405241 0.481232
O O17 0.117406 0.180362 0.425096
#
# Coordination Sequence:
#
# PCOD8014741 Si02
#       8
#     2   2   2   2   2   2   2   2
#     4  12  25  40  67  97 129 172 229 273 318 394
#     4  11  24  38  68 106 128 165 218 285 320 390
#     4  12  27  46  66  91 138 185 216 266 339 398
#     4  11  24  41  67  94 131 172 221 259 334 394
#     4   9  21  40  67  91 131 165 217 259 338 382
#     4   9  21  39  68  90 123 174 213 267 322 393
#     4  12  24  42  67  97 134 172 221 272 326 394
#     4  10  21  41  71  91 134 169 219 262 341 383
#
# _framework density 21.406237000000001
#
# number of rings (size 3 to 8) (size 9 to 14) (size 15 to 20)
#    0.750    0.500    2.500    2.625    5.250    2.000 
#    0.000    0.000    0.000    3.000    0.000    0.000 
#    0.000    0.000    0.000    0.000    0.000    0.000 
#
# Total GULP energy -198263.420160 kJ/mol
# GULP energy per Si atom -12391.463760 kJ/mol
# Density = 2.135752 g / cm^3
# Si number density = 21.406237 Si / 1000 Ang^3
#
#
#
# Elastic Constant Matrix: (Units=GPa)
#
#
# Indices 1 2 3 4 5 6 
#
# 1 100.5260 46.7775 24.7140 1.0574 -12.8537 -11.6419
# 2 46.7775 106.9127 39.2563 -1.5736 -5.6975 -6.1840
# 3 24.7140 39.2563 50.4286 -10.2244 -15.2560 5.1783
# 4 1.0574 -1.5736 -10.2244 34.3665 1.9603 -5.8398
# 5 -12.8537 -5.6975 -15.2560 1.9603 32.9862 -0.5605
# 6 -11.6419 -6.1840 5.1783 -5.8398 -0.5605 35.9493
#
#
#
# Elastic Compliance Matrix: (Units=1/GPa)
#
#
# Indices 1 2 3 4 5 6 
#
# 1 0.013641 -0.004593 -0.002674 -0.000955 0.003409 0.003911
# 2 -0.004593 0.015618 -0.011916 -0.002007 -0.004441 0.002520
# 3 -0.002674 -0.011916 0.036878 0.008623 0.013331 -0.006619
# 4 -0.000955 -0.002007 0.008623 0.032087 0.001419 0.003338
# 5 0.003409 -0.004441 0.013331 0.001419 0.036945 -0.000774
# 6 0.003911 0.002520 -0.006619 0.003338 -0.000774 0.031001
#
#
# Mechanical properties :
#
#
# Convention : Reuss Voigt Hill
#
# Bulk Modulus (GPa) = 36.00954 53.26254 44.63604
# Shear Modulus (GPa) = 23.38720 30.46837 26.92778
#
# Velocity S-wave (km/s) = 3.30895 3.77681 3.55059
# Velocity P-wave (km/s) = 5.60868 6.62985 6.14053
#
# Compressibility (1/GPa) = 0.02777042
#
# Stress axis : x y z
#
# Youngs Moduli (GPa) = 73.30852 64.02910 27.11666
#
# Poissons Ratio (x) = 0.29407 0.07251
# Poissons Ratio (y) = 0.33668 0.32313
# Poissons Ratio (z) = 0.19603 0.76299
#
# Static dielectric constant tensor:
#      x y z
#    x 3.670290 -0.151330 -0.008010 
#    y -0.151330 4.039430 0.051580 
#    z -0.008010 0.051580 3.651510 
# 
# 
# High freq. dielectric constant tensor:
#      x y z
#    x 1.823290 -0.010410 -0.011120 
#    y -0.010410 1.850900 0.005160 
#    z -0.011120 0.005160 1.825430 
# 
# From -- ./inp_files/257893.got.cif
#   From: 2010.06.25/outbox.cif.g09.slc.cpg/sg2_129_cif.got.tgz:257893.got - 2010.06.27 13:26:56.
