data_PCOD8014779
_publ_section_title
;
Structure prediction by ZEFSAII (Michael W. Deem and Ramdas Pophale) SiO2 
 PCOD8014779
Probable space group: P -1
;
_chemical_formula_sum "Si O2"
_cell_formula_units_Z 14
_cell_length_a 8.994473
_cell_length_b 12.751799
_cell_length_c 18.234140
_cell_angle_alpha 149.963714
_cell_angle_beta 44.973176
_cell_angle_gamma 143.946372
_cell_volume 615.905082
_symmetry_space_group_name_H-M "P -1"
_symmetry_group_IT_number 2
_symmetry_cell_setting 'triclinic'
loop_
_space_group_symop_operation_xyz
x,y,z
-x,-y,-z
loop_
_atom_site_type_symbol
_atom_site_label
_atom_site_fract_x
_atom_site_fract_y
_atom_site_fract_z
Si Si1 0.591391 0.809265 0.431227
Si Si2 0.825938 0.552973 0.546706
Si Si3 0.037979 0.128604 0.839712
Si Si4 0.067971 0.815863 0.243945
Si Si5 0.950484 0.393737 0.146191
Si Si6 0.409864 0.685547 0.652545
Si Si7 0.575319 0.282965 0.729911
O O1 0.452759 0.589320 0.406695
O O2 0.440713 0.693996 0.337954
O O3 0.885095 0.907446 0.386612
O O4 0.575447 0.038585 0.601695
O O5 0.818056 0.430056 0.396584
O O6 0.000000 0.500000 0.500000
O O7 0.922911 0.843099 0.681491
O O8 0.332391 0.261628 0.837380
O O9 0.000347 0.267418 0.868115
O O10 0.903600 0.148828 0.971163
O O11 0.022609 0.597425 0.181094
O O12 0.362181 0.036086 0.280490
O O13 0.695024 0.315282 0.230664
O O14 0.174042 0.479510 0.178711
O O15 0.500000 0.500000 0.500000
#
# Coordination Sequence:
#
# PCOD8014779 Si02
#       7
#     2   2   2   2   2   2   2
#     4  10  21  41  72  98 132 177 219 284 331 383
#     4  12  23  43  70 102 133 173 225 280 332 393
#     4  11  25  46  66  99 140 174 222 276 334 408
#     4  11  25  45  69  98 136 179 225 269 338 392
#     4  12  26  45  70  96 139 182 216 278 340 389
#     4  12  25  45  69 103 133 171 236 277 316 407
#     4  10  21  42  69  99 131 173 230 271 331 399
#
# _framework density 22.730775000000001
#
# number of rings (size 3 to 8) (size 9 to 14) (size 15 to 20)
#    0.000    0.857    2.857    4.286    2.000    2.286 
#    5.143    1.429    0.000    0.000    0.000    0.000 
#    0.000    0.000    0.000    0.000    0.000    0.000 
#
# Total GULP energy -173568.029291 kJ/mol
# GULP energy per Si atom -12397.716378 kJ/mol
# Density = 2.267904 g / cm^3
# Si number density = 22.730775 Si / 1000 Ang^3
#
#
#
# Elastic Constant Matrix: (Units=GPa)
#
#
# Indices 1 2 3 4 5 6 
#
# 1 97.2585 19.1182 36.9225 -4.2623 12.8326 4.7951
# 2 19.1182 120.8453 38.9737 -11.8760 6.3447 0.4579
# 3 36.9225 38.9737 95.8061 -25.5739 10.6975 1.9400
# 4 -4.2623 -11.8760 -25.5739 37.8533 -1.6995 0.7423
# 5 12.8326 6.3447 10.6975 -1.6995 23.5011 0.8225
# 6 4.7951 0.4579 1.9400 0.7423 0.8225 30.7729
#
#
#
# Elastic Compliance Matrix: (Units=1/GPa)
#
#
# Indices 1 2 3 4 5 6 
#
# 1 0.012784 -0.000442 -0.004737 -0.002085 -0.004803 -0.001508
# 2 -0.000442 0.009564 -0.003496 0.000554 -0.000715 0.000153
# 3 -0.004737 -0.003496 0.016582 0.009431 -0.003322 -0.000394
# 4 -0.002085 0.000554 0.009431 0.032708 -0.000902 -0.001043
# 5 -0.004803 -0.000715 -0.003322 -0.000902 0.046823 -0.000261
# 6 -0.001508 0.000153 -0.000394 -0.001043 -0.000261 0.032786
#
#
# Mechanical properties :
#
#
# Convention : Reuss Voigt Hill
#
# Bulk Modulus (GPa) = 46.33797 55.99317 51.16557
# Shear Modulus (GPa) = 28.44335 33.01850 30.73092
#
# Velocity S-wave (km/s) = 3.54123 3.81542 3.68088
# Velocity P-wave (km/s) = 6.09510 6.64053 6.37365
#
# Compressibility (1/GPa) = 0.02158058
#
# Stress axis : x y z
#
# Youngs Moduli (GPa) = 78.22500 104.56202 60.30770
#
# Poissons Ratio (x) = 0.04620 0.28566
# Poissons Ratio (y) = 0.03456 0.21081
# Poissons Ratio (z) = 0.37053 0.36551
#
# Static dielectric constant tensor:
#      x y z
#    x 11.369070 -2.810710 7.851800 
#    y -2.810710 5.424490 -3.286570 
#    z 7.851800 -3.286570 12.651790 
# 
# 
# High freq. dielectric constant tensor:
#      x y z
#    x 1.915370 -0.000170 0.007470 
#    y -0.000170 1.898950 -0.015150 
#    z 0.007470 -0.015150 1.877960 
# 
# From -- ./inp_files/186870.got.cif
#   From: 2010.06.25/outbox.cif.g09.slc.cpg/sg2_94_cif.got.tgz:186870.got - 2010.06.27 13:26:56.
