data_PCOD8014217
_publ_section_title
;
Structure prediction by ZEFSAII (Michael W. Deem and Ramdas Pophale) SiO2 
 PCOD8014217
Probable space group: P -1
;
_chemical_formula_sum "Si O2"
_cell_formula_units_Z 16
_cell_length_a 5.571081
_cell_length_b 5.156573
_cell_length_c 28.397986
_cell_angle_alpha 47.521333
_cell_angle_beta 77.364562
_cell_angle_gamma 86.406306
_cell_volume 582.996876
_symmetry_space_group_name_H-M "P -1"
_symmetry_group_IT_number 2
_symmetry_cell_setting 'triclinic'
loop_
_space_group_symop_operation_xyz
x,y,z
-x,-y,-z
loop_
_atom_site_type_symbol
_atom_site_label
_atom_site_fract_x
_atom_site_fract_y
_atom_site_fract_z
Si Si1 0.716323 0.847026 0.540493
Si Si2 0.982057 0.371026 0.897832
Si Si3 0.491310 0.769594 0.424432
Si Si4 0.389297 0.725058 0.782153
Si Si5 0.342671 0.965786 0.126738
Si Si6 0.194239 0.816957 0.250063
Si Si7 0.777696 0.272298 0.012585
Si Si8 0.096698 0.862679 0.696006
O O1 0.681465 0.424119 0.585589
O O2 0.500000 0.000000 0.500000
O O3 0.652416 0.908412 0.590441
O O4 0.000000 0.000000 0.500000
O O5 0.147610 0.717332 0.827592
O O6 0.881639 0.136747 0.886496
O O7 0.170964 0.135434 0.945302
O O8 0.775068 0.444333 0.937756
O O9 0.500000 0.500000 0.500000
O O10 0.772158 0.890171 0.381064
O O11 0.532408 0.389110 0.826305
O O12 0.315181 0.683742 0.734939
O O13 0.550874 0.100588 0.741245
O O14 0.238163 0.074762 0.169671
O O15 0.525578 0.272310 0.054177
O O16 0.119931 0.414967 0.283273
O O17 0.988681 0.905367 0.285376
O O18 0.000000 0.500000 0.000000
#
# Coordination Sequence:
#
# PCOD8014217 Si02
#       8
#     2   2   2   2   2   2   2   2
#     4  10  21  44  74 109 149 197 244 298 375 452
#     4  10  21  41  65  96 141 180 237 298 362 433
#     4  10  23  48  72 107 148 191 243 307 377 446
#     4  11  24  45  69 101 140 186 248 294 368 430
#     4  11  23  43  67 100 140 188 239 297 367 427
#     4  12  25  46  70 106 138 195 239 303 361 431
#     4  10  22  37  63 100 135 184 232 295 363 435
#     4  12  27  48  74 104 149 188 249 299 367 441
#
# _framework density 27.444402
#
# number of rings (size 3 to 8) (size 9 to 14) (size 15 to 20)
#    0.000    1.250    2.500    2.250    1.750    2.500 
#   13.500    0.000    0.000    0.000    0.000    0.000 
#    0.000    0.000    0.000    0.000    0.000    0.000 
#
# Total GULP energy -198238.531928 kJ/mol
# GULP energy per Si atom -12389.908245 kJ/mol
# Density = 2.738194 g / cm^3
# Si number density = 27.444402 Si / 1000 Ang^3
#
#
#
# Elastic Constant Matrix: (Units=GPa)
#
#
# Indices 1 2 3 4 5 6 
#
# 1 101.8720 38.2613 45.3272 5.5291 -44.0898 11.9263
# 2 38.2613 179.4876 48.2939 17.8811 -38.7222 10.2273
# 3 45.3272 48.2939 169.3256 18.0096 -57.0014 1.6100
# 4 5.5291 17.8811 18.0096 43.5183 -2.6722 -22.6592
# 5 -44.0898 -38.7222 -57.0014 -2.6722 56.2417 -0.7183
# 6 11.9263 10.2273 1.6100 -22.6592 -0.7183 50.5265
#
#
#
# Elastic Compliance Matrix: (Units=1/GPa)
#
#
# Indices 1 2 3 4 5 6 
#
# 1 0.016018 -0.000051 0.000553 -0.004350 0.012804 -0.005557
# 2 -0.000051 0.007226 0.000052 -0.004455 0.004733 -0.003383
# 3 0.000553 0.000052 0.009624 -0.004725 0.009968 -0.002425
# 4 -0.004350 -0.004455 -0.004725 0.036216 -0.009313 0.018188
# 5 0.012804 0.004733 0.009968 -0.009313 0.040636 -0.007897
# 6 -0.005557 -0.003383 -0.002425 0.018188 -0.007897 0.029910
#
#
# Mechanical properties :
#
#
# Convention : Reuss Voigt Hill
#
# Bulk Modulus (GPa) = 29.43317 79.38331 54.40824
# Shear Modulus (GPa) = 33.36749 51.31081 42.33915
#
# Velocity S-wave (km/s) = 3.49065 4.32861 3.93201
# Velocity P-wave (km/s) = 5.19558 7.34646 6.36257
#
# Compressibility (1/GPa) = 0.03397527
#
# Stress axis : x y z
#
# Youngs Moduli (GPa) = 62.43064 138.39086 103.90566
#
# Poissons Ratio (x) = 0.00703 -0.05742
# Poissons Ratio (y) = 0.00317 -0.00540
# Poissons Ratio (z) = -0.03450 -0.00719
#
# Static dielectric constant tensor:
#      x y z
#    x 5.031850 0.036380 -0.185280 
#    y 0.036380 7.284800 0.292720 
#    z -0.185280 0.292720 5.267160 
# 
# 
# High freq. dielectric constant tensor:
#      x y z
#    x 2.107900 -0.011680 -0.015470 
#    y -0.011680 2.119370 0.012570 
#    z -0.015470 0.012570 2.113840 
# 
# From -- ./inp_files/621591.got.cif
#   From: 2010.06.25/outbox.cif.g09.slc.cpg/sg2_311_cif.got.tgz:621591.got - 2010.06.27 13:26:56.
