data_PCOD8014368
_publ_section_title
;
Structure prediction by ZEFSAII (Michael W. Deem and Ramdas Pophale) SiO2 
 PCOD8014368
Probable space group: P -1
;
_chemical_formula_sum "Si O2"
_cell_formula_units_Z 16
_cell_length_a 15.434203
_cell_length_b 8.555012
_cell_length_c 12.858527
_cell_angle_alpha 104.919783
_cell_angle_beta 53.499256
_cell_angle_gamma 61.058566
_cell_volume 754.511503
_symmetry_space_group_name_H-M "P -1"
_symmetry_group_IT_number 2
_symmetry_cell_setting 'triclinic'
loop_
_space_group_symop_operation_xyz
x,y,z
-x,-y,-z
loop_
_atom_site_type_symbol
_atom_site_label
_atom_site_fract_x
_atom_site_fract_y
_atom_site_fract_z
Si Si1 0.065805 0.126417 0.664487
Si Si2 0.656144 0.788202 0.526542
Si Si3 0.126163 0.295119 0.474261
Si Si4 0.550527 0.489866 0.745375
Si Si5 0.530024 0.304125 0.377759
Si Si6 0.810093 0.788844 0.235969
Si Si7 0.496085 0.822815 0.010702
Si Si8 0.648572 0.594419 0.067296
O O1 0.029743 0.273944 0.609471
O O2 0.169942 0.099711 0.673178
O O3 0.220700 0.795529 0.477073
O O4 0.870445 0.306344 0.887755
O O5 0.815404 0.632514 0.474155
O O6 0.642453 0.610151 0.499681
O O7 0.710324 0.766397 0.365570
O O8 0.456819 0.122452 0.755543
O O9 0.000000 0.500000 0.500000
O O10 0.314881 0.995891 0.237180
O O11 0.428643 0.680518 0.763300
O O12 0.471129 0.416708 0.825483
O O13 0.505865 0.689997 0.887074
O O14 0.500000 0.500000 0.500000
O O15 0.695004 0.995268 0.255567
O O16 0.000000 0.500000 0.000000
O O17 0.667216 0.592300 0.929047
O O18 0.500000 0.000000 0.000000
#
# Coordination Sequence:
#
# PCOD8014368 Si02
#       8
#     2   2   2   2   2   2   2   2
#     4  11  23  42  66  98 135 175 226 280 344 408
#     4  10  22  44  70  96 136 183 224 281 351 410
#     4  10  21  41  67 101 139 169 230 279 334 425
#     4  12  24  45  65  99 142 171 230 283 343 413
#     4  12  24  43  68  94 138 183 228 290 340 396
#     4  11  23  44  70  98 132 178 235 285 338 405
#     4  11  23  42  67  97 134 183 222 276 349 411
#     4  11  22  44  70  96 137 179 219 279 353 410
#
# _framework density 21.205774000000002
#
# number of rings (size 3 to 8) (size 9 to 14) (size 15 to 20)
#    0.000    1.000    5.000    3.750    0.000    3.500 
#    6.750    1.250    0.000    0.000    0.000    0.000 
#    0.000    0.000    0.000    0.000    0.000    0.000 
#
# Total GULP energy -198228.361570 kJ/mol
# GULP energy per Si atom -12389.272598 kJ/mol
# Density = 2.115751 g / cm^3
# Si number density = 21.205774 Si / 1000 Ang^3
#
#
#
# Elastic Constant Matrix: (Units=GPa)
#
#
# Indices 1 2 3 4 5 6 
#
# 1 95.7740 53.5470 46.4333 2.5722 15.4675 13.2847
# 2 53.5470 131.9643 30.8666 -11.4602 8.0625 -17.6180
# 3 46.4333 30.8666 97.8035 -16.7484 2.8146 4.2248
# 4 2.5722 -11.4602 -16.7484 19.3662 -6.6554 4.9828
# 5 15.4675 8.0625 2.8146 -6.6554 41.9995 3.1774
# 6 13.2847 -17.6180 4.2248 4.9828 3.1774 44.6539
#
#
#
# Elastic Compliance Matrix: (Units=1/GPa)
#
#
# Indices 1 2 3 4 5 6 
#
# 1 0.023953 -0.009154 -0.011300 -0.019672 -0.008907 -0.006840
# 2 -0.009154 0.012424 0.001636 0.008977 0.001819 0.006339
# 3 -0.011300 0.001636 0.018445 0.020566 0.005905 -0.000453
# 4 -0.019672 0.008977 0.020566 0.084272 0.017741 -0.003218
# 5 -0.008907 0.001819 0.005905 0.017741 0.029251 -0.001252
# 6 -0.006840 0.006339 -0.000453 -0.003218 -0.001252 0.027421
#
#
# Mechanical properties :
#
#
# Convention : Reuss Voigt Hill
#
# Bulk Modulus (GPa) = 58.18669 65.24838 61.71754
# Shear Modulus (GPa) = 20.90907 34.18357 27.54632
#
# Velocity S-wave (km/s) = 3.14348 4.01932 3.60808
# Velocity P-wave (km/s) = 6.37761 7.23712 6.82092
#
# Compressibility (1/GPa) = 0.01718606
#
# Stress axis : x y z
#
# Youngs Moduli (GPa) = 41.74842 80.48804 54.21641
#
# Poissons Ratio (x) = 0.73676 0.61265
# Poissons Ratio (y) = 0.38215 -0.08869
# Poissons Ratio (z) = 0.47176 -0.13166
#
# Static dielectric constant tensor:
#      x y z
#    x 4.156930 -0.227680 -0.052300 
#    y -0.227680 3.914910 -0.096610 
#    z -0.052300 -0.096610 3.732090 
# 
# 
# High freq. dielectric constant tensor:
#      x y z
#    x 1.839160 -0.011300 0.006680 
#    y -0.011300 1.838980 -0.013270 
#    z 0.006680 -0.013270 1.824780 
# 
# From -- ./inp_files/447820.got.cif
#   From: 2010.06.25/outbox.cif.g09.slc.cpg/sg2_224_cif.got.tgz:447820.got - 2010.06.27 13:26:56.
