data_PCOD8014702
_publ_section_title
;
Structure prediction by ZEFSAII (Michael W. Deem and Ramdas Pophale) SiO2 
 PCOD8014702
Probable space group: P -1
;
_chemical_formula_sum "Si O2"
_cell_formula_units_Z 16
_cell_length_a 9.216722
_cell_length_b 24.695599
_cell_length_c 8.970494
_cell_angle_alpha 49.341785
_cell_angle_beta 98.630141
_cell_angle_gamma 139.578047
_cell_volume 713.955127
_symmetry_space_group_name_H-M "P -1"
_symmetry_group_IT_number 2
_symmetry_cell_setting 'triclinic'
loop_
_space_group_symop_operation_xyz
x,y,z
-x,-y,-z
loop_
_atom_site_type_symbol
_atom_site_label
_atom_site_fract_x
_atom_site_fract_y
_atom_site_fract_z
Si Si1 0.448560 0.469086 0.370655
Si Si2 0.693188 0.449147 0.948986
Si Si3 0.987464 0.635974 0.956223
Si Si4 0.804091 0.118391 0.934307
Si Si5 0.210069 0.598082 0.212627
Si Si6 0.081356 0.106386 0.144982
Si Si7 0.650539 0.064219 0.563344
Si Si8 0.048593 0.106319 0.477548
O O1 0.500000 0.500000 0.500000
O O2 0.483837 0.559053 0.132433
O O3 0.095714 0.288933 0.611081
O O4 0.702220 0.528522 0.220105
O O5 0.875250 0.545277 0.955218
O O6 0.914020 0.508103 0.749124
O O7 0.422318 0.274764 0.252521
O O8 0.163610 0.781574 0.658710
O O9 0.219390 0.683556 0.998987
O O10 0.916919 0.085154 0.033045
O O11 0.500000 0.000000 0.000000
O O12 0.670281 0.087919 0.123651
O O13 0.000000 0.500000 0.500000
O O14 0.550604 0.717654 0.102940
O O15 0.933796 0.057302 0.374536
O O16 0.035380 0.005892 0.262679
O O17 0.884182 0.098205 0.561717
O O18 0.500000 0.000000 0.500000
#
# Coordination Sequence:
#
# PCOD8014702 Si02
#       8
#     2   2   2   2   2   2   2   2
#     4  12  24  46  70 101 145 192 236 292 359 429
#     4  11  24  42  69 103 140 185 235 294 356 415
#     4  12  25  43  73 103 142 185 245 300 350 428
#     4  12  27  43  68 104 147 176 227 302 365 411
#     4  11  24  45  70 104 140 188 239 290 359 435
#     4  10  22  45  68  98 136 183 229 292 347 418
#     4  12  23  42  71 103 130 186 248 285 342 428
#     4  10  21  41  70  97 131 178 241 284 337 415
#
# _framework density 22.410371000000001
#
# number of rings (size 3 to 8) (size 9 to 14) (size 15 to 20)
#    0.000    0.750    2.500    6.000    5.250    1.000 
#    2.250    0.625    0.000    0.000    0.000    0.000 
#    0.000    0.000    0.000    0.000    0.000    0.000 
#
# Total GULP energy -198319.717521 kJ/mol
# GULP energy per Si atom -12394.982345 kJ/mol
# Density = 2.235936 g / cm^3
# Si number density = 22.410371 Si / 1000 Ang^3
#
#
#
# Elastic Constant Matrix: (Units=GPa)
#
#
# Indices 1 2 3 4 5 6 
#
# 1 138.3629 40.3147 34.6077 7.1205 3.1456 3.6429
# 2 40.3147 105.4414 26.1743 -1.4966 4.1971 2.4390
# 3 34.6077 26.1743 83.8257 -4.5433 -8.8590 -8.7001
# 4 7.1205 -1.4966 -4.5433 34.2753 -4.8283 1.2780
# 5 3.1456 4.1971 -8.8590 -4.8283 45.0019 3.6691
# 6 3.6429 2.4390 -8.7001 1.2780 3.6691 44.5615
#
#
#
# Elastic Compliance Matrix: (Units=1/GPa)
#
#
# Indices 1 2 3 4 5 6 
#
# 1 0.008988 -0.002585 -0.003280 -0.002547 -0.001220 -0.001060
# 2 -0.002585 0.011199 -0.002619 0.000533 -0.001255 -0.000825
# 3 -0.003280 -0.002619 0.014936 0.002928 0.003487 0.002956
# 4 -0.002547 0.000533 0.002928 0.030702 0.004036 -0.000462
# 5 -0.001220 -0.001255 0.003487 0.004036 0.023642 -0.001213
# 6 -0.001060 -0.000825 0.002956 -0.000462 -0.001213 0.023263
#
#
# Mechanical properties :
#
#
# Convention : Reuss Voigt Hill
#
# Bulk Modulus (GPa) = 55.08599 58.86928 56.97763
# Shear Modulus (GPa) = 36.83246 39.86997 38.35121
#
# Velocity S-wave (km/s) = 4.05846 4.22250 4.14129
# Velocity P-wave (km/s) = 6.82609 7.07802 6.95320
#
# Compressibility (1/GPa) = 0.01815344
#
# Stress axis : x y z
#
# Youngs Moduli (GPa) = 111.26120 89.29310 66.95393
#
# Poissons Ratio (x) = 0.23084 0.21964
# Poissons Ratio (y) = 0.28763 0.17535
# Poissons Ratio (z) = 0.36499 0.23385
#
# Static dielectric constant tensor:
#      x y z
#    x 4.282730 0.058680 -0.081340 
#    y 0.058680 3.876390 0.176360 
#    z -0.081340 0.176360 4.121860 
# 
# 
# High freq. dielectric constant tensor:
#      x y z
#    x 1.900680 0.001990 -0.001490 
#    y 0.001990 1.872120 0.000060 
#    z -0.001490 0.000060 1.883610 
# 
# From -- ./inp_files/226166.got.cif
#   From: 2010.06.25/outbox.cif.g09.slc.cpg/sg2_114_cif.got.tgz:226166.got - 2010.06.27 13:26:56.
