data_PCOD8014956
_publ_section_title
;
Structure prediction by ZEFSAII (Michael W. Deem and Ramdas Pophale) SiO2 
 PCOD8014956
Probable space group: P -1
;
_chemical_formula_sum "Si O2"
_cell_formula_units_Z 14
_cell_length_a 11.306039
_cell_length_b 12.245083
_cell_length_c 6.989144
_cell_angle_alpha 124.416509
_cell_angle_beta 56.461967
_cell_angle_gamma 99.446184
_cell_volume 649.708073
_symmetry_space_group_name_H-M "P -1"
_symmetry_group_IT_number 2
_symmetry_cell_setting 'triclinic'
loop_
_space_group_symop_operation_xyz
x,y,z
-x,-y,-z
loop_
_atom_site_type_symbol
_atom_site_label
_atom_site_fract_x
_atom_site_fract_y
_atom_site_fract_z
Si Si1 0.590427 0.999495 0.109338
Si Si2 0.342747 0.272973 0.022759
Si Si3 0.810100 0.305711 0.114159
Si Si4 0.471730 0.699812 0.441654
Si Si5 0.272889 0.398285 0.612284
Si Si6 0.170155 0.969007 0.327781
Si Si7 0.137094 0.218621 0.830573
O O1 0.759695 0.982469 0.879364
O O2 0.529420 0.140344 0.408375
O O3 0.500000 0.000000 0.000000
O O4 0.571865 0.875451 0.134971
O O5 0.451638 0.347238 0.877509
O O6 0.202815 0.260326 0.008723
O O7 0.286368 0.367207 0.344901
O O8 0.687739 0.329251 0.415028
O O9 0.806320 0.444028 0.139940
O O10 0.775367 0.195513 0.879305
O O11 0.962394 0.249449 0.029877
O O12 0.568556 0.627610 0.459545
O O13 0.174827 0.306618 0.706934
O O14 0.205696 0.057680 0.565522
O O15 0.000000 0.000000 0.500000
#
# Coordination Sequence:
#
# PCOD8014956 Si02
#       7
#     2   2   2   2   2   2   2
#     4  11  18  37  62  88 114 158 201 244 294 352
#     4  11  22  37  64  89 123 154 203 248 292 355
#     4  10  22  39  64  88 125 161 194 246 305 350
#     4  10  22  38  59  90 123 156 201 245 297 351
#     4  11  21  40  65  87 122 163 198 243 295 358
#     4   9  19  38  62  86 118 153 198 246 295 348
#     4  10  21  42  64  89 117 159 206 244 292 357
#
# _framework density 21.548138999999999
#
# number of rings (size 3 to 8) (size 9 to 14) (size 15 to 20)
#    0.000    1.714    2.857    2.143    0.000    1.143 
#    0.000    9.286    6.286    0.000    0.000    0.000 
#    0.000    0.000    0.000    0.000    0.000    0.000 
#
# Total GULP energy -173510.270231 kJ/mol
# GULP energy per Si atom -12393.590731 kJ/mol
# Density = 2.149909 g / cm^3
# Si number density = 21.548139 Si / 1000 Ang^3
#
#
#
# Elastic Constant Matrix: (Units=GPa)
#
#
# Indices 1 2 3 4 5 6 
#
# 1 86.5244 39.0659 46.0639 -20.8305 -7.6398 -5.7064
# 2 39.0659 103.3018 43.6089 14.5219 9.4092 -4.3381
# 3 46.0639 43.6089 100.4749 -10.0766 9.0745 -5.7704
# 4 -20.8305 14.5219 -10.0766 37.5002 -0.9329 -9.4553
# 5 -7.6398 9.4092 9.0745 -0.9329 26.7702 -3.6927
# 6 -5.7064 -4.3381 -5.7704 -9.4553 -3.6927 25.5513
#
#
#
# Elastic Compliance Matrix: (Units=1/GPa)
#
#
# Indices 1 2 3 4 5 6 
#
# 1 0.028208 -0.012262 -0.006096 0.022659 0.017106 0.013698
# 2 -0.012262 0.019087 -0.003959 -0.017667 -0.010650 -0.008469
# 3 -0.006096 -0.003959 0.015282 0.002526 -0.005220 0.001598
# 4 0.022659 -0.017667 0.002526 0.053476 0.017117 0.024894
# 5 0.017106 -0.010650 -0.005220 0.017117 0.050338 0.014442
# 6 0.013698 -0.008469 0.001598 0.024894 0.014442 0.052418
#
#
# Mechanical properties :
#
#
# Convention : Reuss Voigt Hill
#
# Bulk Modulus (GPa) = 55.73098 60.86429 58.29763
# Shear Modulus (GPa) = 18.55812 28.73517 23.64664
#
# Velocity S-wave (km/s) = 2.93787 3.65572 3.31628
# Velocity P-wave (km/s) = 6.11782 6.79162 6.46351
#
# Compressibility (1/GPa) = 0.01794334
#
# Stress axis : x y z
#
# Youngs Moduli (GPa) = 35.45098 52.39245 65.43526
#
# Poissons Ratio (x) = 0.64245 0.39889
# Poissons Ratio (y) = 0.43471 0.25904
# Poissons Ratio (z) = 0.21611 0.20741
#
# Static dielectric constant tensor:
#      x y z
#    x 3.564520 1.906210 -0.561890 
#    y 1.906210 -8.685840 3.199900 
#    z -0.561890 3.199900 3.427550 
# 
# 
# High freq. dielectric constant tensor:
#      x y z
#    x 1.832170 0.018710 -0.018760 
#    y 0.018710 1.846200 0.009410 
#    z -0.018760 0.009410 1.847440 
# 
# From -- ./inp_files/68315.got.cif
#   From: 2010.06.25/outbox.cif.g09.slc.cpg/sg2_35_cif.got.tgz:68315.got - 2010.06.27 13:26:56.
