data_PCOD8014752
_publ_section_title
;
Structure prediction by ZEFSAII (Michael W. Deem and Ramdas Pophale) SiO2 
 PCOD8014752
Probable space group: P -1
;
_chemical_formula_sum "Si O2"
_cell_formula_units_Z 16
_cell_length_a 17.084961
_cell_length_b 12.818998
_cell_length_c 8.650445
_cell_angle_alpha 63.325244
_cell_angle_beta 126.445953
_cell_angle_gamma 150.482309
_cell_volume 739.723557
_symmetry_space_group_name_H-M "P -1"
_symmetry_group_IT_number 2
_symmetry_cell_setting 'triclinic'
loop_
_space_group_symop_operation_xyz
x,y,z
-x,-y,-z
loop_
_atom_site_type_symbol
_atom_site_label
_atom_site_fract_x
_atom_site_fract_y
_atom_site_fract_z
Si Si1 0.011331 0.835712 0.878186
Si Si2 0.289300 0.292468 0.874211
Si Si3 0.194290 0.393768 0.916970
Si Si4 0.165866 0.596576 0.559730
Si Si5 0.522183 0.705607 0.321364
Si Si6 0.482682 0.046569 0.785184
Si Si7 0.720967 0.683898 0.493142
Si Si8 0.868859 0.463950 0.805027
O O1 0.896427 0.835144 0.698839
O O2 0.958122 0.678547 0.804656
O O3 0.216187 0.084837 0.934989
O O4 0.974658 0.765971 0.059507
O O5 0.196904 0.272360 0.915551
O O6 0.242759 0.308688 0.647613
O O7 0.500000 0.500000 0.000000
O O8 0.174652 0.475836 0.716337
O O9 0.374959 0.586965 0.098704
O O10 0.147913 0.570120 0.373522
O O11 0.000000 0.500000 0.500000
O O12 0.353649 0.847213 0.651988
O O13 0.606686 0.915225 0.326120
O O14 0.675498 0.775789 0.388408
O O15 0.440116 0.559900 0.472974
O O16 0.677783 0.258611 0.798765
O O17 0.500000 0.000000 0.000000
O O18 0.000000 0.500000 0.000000
#
# Coordination Sequence:
#
# PCOD8014752 Si02
#       8
#     2   2   2   2   2   2   2   2
#     4  11  24  46  67  95 142 183 226 290 351 415
#     4  12  25  40  67 103 135 175 235 284 346 413
#     4  11  22  45  66  98 141 176 224 289 349 413
#     4  12  27  46  70 105 139 184 240 290 352 421
#     4  10  21  41  71  96 137 177 223 281 351 411
#     4  12  23  46  75 103 140 186 234 294 353 417
#     4  10  21  42  66  97 133 182 224 279 347 412
#     4  12  26  48  71 102 141 188 238 292 353 419
#
# _framework density 21.629702000000002
#
# number of rings (size 3 to 8) (size 9 to 14) (size 15 to 20)
#    0.000    0.750    5.000    3.375    0.000    4.000 
#    4.500    0.000    0.000    0.000    0.000    0.000 
#    0.000    0.000    0.000    0.000    0.000    0.000 
#
# Total GULP energy -198433.956749 kJ/mol
# GULP energy per Si atom -12402.122297 kJ/mol
# Density = 2.158047 g / cm^3
# Si number density = 21.629702 Si / 1000 Ang^3
#
#
#
# Elastic Constant Matrix: (Units=GPa)
#
#
# Indices 1 2 3 4 5 6 
#
# 1 115.5603 57.3056 51.9121 -2.8139 -14.0026 -15.2640
# 2 57.3056 156.3290 56.2834 7.7168 -5.8513 -13.3610
# 3 51.9121 56.2834 126.9726 -14.2673 -15.6745 -9.2922
# 4 -2.8139 7.7168 -14.2673 30.4855 -1.4019 3.0791
# 5 -14.0026 -5.8513 -15.6745 -1.4019 51.0359 1.1637
# 6 -15.2640 -13.3610 -9.2922 3.0791 1.1637 27.6587
#
#
#
# Elastic Compliance Matrix: (Units=1/GPa)
#
#
# Indices 1 2 3 4 5 6 
#
# 1 0.012343 -0.002947 -0.003179 0.000061 0.001977 0.004230
# 2 -0.002947 0.009003 -0.003229 -0.004323 -0.000936 0.002158
# 3 -0.003179 -0.003229 0.011582 0.006079 0.002486 -0.000205
# 4 0.000061 -0.004323 0.006079 0.037294 0.002510 -0.004270
# 5 0.001977 -0.000936 0.002486 0.002510 0.020855 0.000317
# 6 0.004230 0.002158 -0.000205 -0.004270 0.000317 0.039925
#
#
# Mechanical properties :
#
#
# Convention : Reuss Voigt Hill
#
# Bulk Modulus (GPa) = 70.34279 81.09601 75.71940
# Shear Modulus (GPa) = 32.37264 37.39343 34.88303
#
# Velocity S-wave (km/s) = 3.87289 4.16239 4.02025
# Velocity P-wave (km/s) = 7.25196 7.78942 7.52549
#
# Compressibility (1/GPa) = 0.01421610
#
# Stress axis : x y z
#
# Youngs Moduli (GPa) = 81.01651 111.08005 86.34148
#
# Poissons Ratio (x) = 0.32740 0.27451
# Poissons Ratio (y) = 0.23879 0.27879
# Poissons Ratio (z) = 0.25758 0.35867
#
# Static dielectric constant tensor:
#      x y z
#    x 4.159900 -0.028260 -0.081180 
#    y -0.028260 3.976910 -0.098700 
#    z -0.081180 -0.098700 4.040610 
# 
# 
# High freq. dielectric constant tensor:
#      x y z
#    x 1.856290 -0.003260 -0.007250 
#    y -0.003260 1.852120 -0.008870 
#    z -0.007250 -0.008870 1.857780 
# 
# From -- ./inp_files/333061.got.cif
#   From: 2010.06.25/outbox.cif.g09.slc.cpg/sg2_167_cif.got.tgz:333061.got - 2010.06.27 13:26:56.
