data_PCOD8014709
_publ_section_title
;
Structure prediction by ZEFSAII (Michael W. Deem and Ramdas Pophale) SiO2 
 PCOD8014709
Probable space group: P -1
;
_chemical_formula_sum "Si O2"
_cell_formula_units_Z 16
_cell_length_a 10.523401
_cell_length_b 13.875897
_cell_length_c 7.048102
_cell_angle_alpha 48.746707
_cell_angle_beta 86.207980
_cell_angle_gamma 104.553234
_cell_volume 709.888583
_symmetry_space_group_name_H-M "P -1"
_symmetry_group_IT_number 2
_symmetry_cell_setting 'triclinic'
loop_
_space_group_symop_operation_xyz
x,y,z
-x,-y,-z
loop_
_atom_site_type_symbol
_atom_site_label
_atom_site_fract_x
_atom_site_fract_y
_atom_site_fract_z
Si Si1 0.375621 0.544055 0.984078
Si Si2 0.892710 0.209704 0.316565
Si Si3 0.248292 0.942613 0.810526
Si Si4 0.484643 0.203975 0.584742
Si Si5 0.773544 0.277334 0.606631
Si Si6 0.276580 0.340693 0.560108
Si Si7 0.061612 0.097857 0.691902
Si Si8 0.834825 0.578932 0.171921
O O1 0.325969 0.498051 0.264649
O O2 0.500000 0.500000 0.000000
O O3 0.437360 0.709140 0.723282
O O4 0.255252 0.461103 0.956466
O O5 0.759123 0.128683 0.301160
O O6 0.839519 0.285801 0.381238
O O7 0.946984 0.100488 0.551124
O O8 0.010391 0.319027 0.030325
O O9 0.400470 0.045957 0.729521
O O10 0.160826 0.036243 0.660066
O O11 0.180805 0.819654 0.132778
O O12 0.605712 0.209718 0.709228
O O13 0.390487 0.271997 0.617088
O O14 0.832735 0.438825 0.457568
O O15 0.144443 0.252972 0.559569
O O16 0.233296 0.343637 0.778777
O O17 0.000000 0.000000 0.000000
#
# Coordination Sequence:
#
# PCOD8014709 Si02
#       8
#     2   2   2   2   2   2   2   2
#     4   9  19  39  62  94 131 163 214 271 319 373
#     4  12  25  43  68  99 134 173 221 269 333 391
#     4  11  24  43  67  98 130 179 221 267 333 389
#     4   9  22  43  68  94 133 175 221 274 324 387
#     4  11  25  44  64  96 142 176 216 268 324 403
#     4  10  21  41  70  99 127 169 220 282 322 376
#     4  11  21  43  68  97 132 168 218 280 326 387
#     4  11  24  41  69 100 130 175 220 266 332 390
#
# _framework density 22.538747000000001
#
# number of rings (size 3 to 8) (size 9 to 14) (size 15 to 20)
#    0.000    1.500    2.500    1.875    0.000    7.500 
#    0.000    3.750    0.000    0.000    0.000    0.000 
#    0.000    0.000    0.000    0.000    0.000    0.000 
#
# Total GULP energy -198292.558562 kJ/mol
# GULP energy per Si atom -12393.284910 kJ/mol
# Density = 2.248745 g / cm^3
# Si number density = 22.538747 Si / 1000 Ang^3
#
#
#
# Elastic Constant Matrix: (Units=GPa)
#
#
# Indices 1 2 3 4 5 6 
#
# 1 69.4611 38.8204 28.9898 2.7056 -5.7613 -5.5976
# 2 38.8204 81.7086 47.2319 -1.8423 0.1327 -0.0024
# 3 28.9898 47.2319 114.3626 -9.0514 -4.9050 0.9769
# 4 2.7056 -1.8423 -9.0514 33.6047 -5.7107 -2.9864
# 5 -5.7613 0.1327 -4.9050 -5.7107 30.0556 0.3609
# 6 -5.5976 -0.0024 0.9769 -2.9864 0.3609 22.1811
#
#
#
# Elastic Compliance Matrix: (Units=1/GPa)
#
#
# Indices 1 2 3 4 5 6 
#
# 1 0.020860 -0.009042 -0.001574 -0.001567 0.003423 0.005066
# 2 -0.009042 0.020082 -0.006148 -0.000500 -0.002896 -0.002029
# 3 -0.001574 -0.006148 0.012056 0.003390 0.002343 -0.000511
# 4 -0.001567 -0.000500 0.003390 0.032171 0.006323 0.003684
# 5 0.003423 -0.002896 0.002343 0.006323 0.035512 0.001034
# 6 0.005066 -0.002029 -0.000511 0.003684 0.001034 0.046863
#
#
# Mechanical properties :
#
#
# Convention : Reuss Voigt Hill
#
# Bulk Modulus (GPa) = 51.36288 55.06849 53.21569
# Shear Modulus (GPa) = 24.08927 27.20096 25.64511
#
# Velocity S-wave (km/s) = 3.27279 3.47775 3.37682
# Velocity P-wave (km/s) = 6.09259 6.37277 6.23425
#
# Compressibility (1/GPa) = 0.01946931
#
# Stress axis : x y z
#
# Youngs Moduli (GPa) = 47.93905 49.79655 82.94964
#
# Poissons Ratio (x) = 0.45024 0.13057
# Poissons Ratio (y) = 0.43344 0.51000
# Poissons Ratio (z) = 0.07546 0.30616
#
# Static dielectric constant tensor:
#      x y z
#    x 4.242900 0.047720 0.242710 
#    y 0.047720 3.918800 -0.212120 
#    z 0.242710 -0.212120 4.970900 
# 
# 
# High freq. dielectric constant tensor:
#      x y z
#    x 1.890460 0.005180 0.002410 
#    y 0.005180 1.873840 -0.011450 
#    z 0.002410 -0.011450 1.894000 
# 
# From -- ./inp_files/76997.got.cif
#   From: 2010.06.25/outbox.cif.g09.slc.cpg/sg2_39_cif.got.tgz:76997.got - 2010.06.27 13:26:56.
