data_PCOD8014675
_publ_section_title
;
Structure prediction by ZEFSAII (Michael W. Deem and Ramdas Pophale) SiO2 
 PCOD8014675
Probable space group: P -1
;
_chemical_formula_sum "Si O2"
_cell_formula_units_Z 12
_cell_length_a 14.523141
_cell_length_b 14.200617
_cell_length_c 10.729490
_cell_angle_alpha 150.293107
_cell_angle_beta 148.822833
_cell_angle_gamma 30.283918
_cell_volume 501.275470
_symmetry_space_group_name_H-M "P -1"
_symmetry_group_IT_number 2
_symmetry_cell_setting 'triclinic'
loop_
_space_group_symop_operation_xyz
x,y,z
-x,-y,-z
loop_
_atom_site_type_symbol
_atom_site_label
_atom_site_fract_x
_atom_site_fract_y
_atom_site_fract_z
Si Si1 0.180025 0.260171 0.454471
Si Si2 0.906867 0.540007 0.072637
Si Si3 0.399043 0.861743 0.093754
Si Si4 0.050145 0.814007 0.698009
Si Si5 0.112562 0.880599 0.369640
Si Si6 0.528642 0.263958 0.239266
O O1 0.359699 0.265414 0.750415
O O2 0.078099 0.129184 0.256523
O O3 0.000000 0.500000 0.500000
O O4 0.294455 0.117796 0.301959
O O5 0.892770 0.344880 0.899657
O O6 0.683492 0.737040 0.016073
O O7 0.035555 0.608380 0.390992
O O8 0.000000 0.500000 0.000000
O O9 0.350613 0.842731 0.871584
O O10 0.285726 0.752605 0.917789
O O11 0.961834 0.011440 0.725629
O O12 0.335409 0.861246 0.627965
O O13 0.000000 0.000000 0.500000
O O14 0.500000 0.500000 0.500000
#
# Coordination Sequence:
#
# PCOD8014675 Si02
#       6
#     2   2   2   2   2   2
#     4  11  28  50  76 104 144 200 255 309 360 438
#     4  11  22  41  65 106 145 190 238 289 370 443
#     4  11  24  49  74 108 146 188 257 301 368 449
#     4  12  24  44  74 106 146 190 240 304 375 432
#     4  11  22  40  69 105 149 186 232 303 363 446
#     4  10  21  41  70 106 147 186 237 297 369 447
#
# _framework density 23.938932000000001
#
# number of rings (size 3 to 8) (size 9 to 14) (size 15 to 20)
#    0.000    1.000    5.000    1.500    2.333    1.333 
#    3.000    6.667    0.000    0.000    0.000    0.000 
#    0.000    0.000    0.000    0.000    0.000    0.000 
#
# Total GULP energy -148664.792158 kJ/mol
# GULP energy per Si atom -12388.732680 kJ/mol
# Density = 2.388445 g / cm^3
# Si number density = 23.938932 Si / 1000 Ang^3
#
#
#
# Elastic Constant Matrix: (Units=GPa)
#
#
# Indices 1 2 3 4 5 6 
#
# 1 108.9475 38.8146 0.2937 -0.4276 14.4299 1.3185
# 2 38.8146 125.3306 36.1182 -6.5995 16.5046 0.9248
# 3 0.2937 36.1182 95.6554 -6.7312 26.3399 -1.7636
# 4 -0.4276 -6.5995 -6.7312 41.4380 -12.5327 4.0354
# 5 14.4299 16.5046 26.3399 -12.5327 44.3020 1.2589
# 6 1.3185 0.9248 -1.7636 4.0354 1.2589 36.6812
#
#
#
# Elastic Compliance Matrix: (Units=1/GPa)
#
#
# Indices 1 2 3 4 5 6 
#
# 1 0.010985 -0.003620 0.002343 -0.001299 -0.003992 0.000089
# 2 -0.003620 0.010256 -0.003770 0.000991 -0.000108 -0.000415
# 3 0.002343 -0.003770 0.014023 -0.000806 -0.007954 0.001047
# 4 -0.001299 0.000991 -0.000806 0.026960 0.008252 -0.003266
# 5 -0.003992 -0.000108 -0.007954 0.008252 0.031039 -0.002209
# 6 0.000089 -0.000415 0.001047 -0.003266 -0.002209 0.027755
#
#
# Mechanical properties :
#
#
# Convention : Reuss Voigt Hill
#
# Bulk Modulus (GPa) = 39.73047 53.37629 46.55338
# Shear Modulus (GPa) = 35.84176 41.46472 38.65324
#
# Velocity S-wave (km/s) = 3.87359 4.16637 4.02264
# Velocity P-wave (km/s) = 6.05300 6.74464 6.40816
#
# Compressibility (1/GPa) = 0.02516960
#
# Stress axis : x y z
#
# Youngs Moduli (GPa) = 91.03459 97.50423 71.31073
#
# Poissons Ratio (x) = 0.35301 -0.16707
# Poissons Ratio (y) = 0.32959 0.26881
# Poissons Ratio (z) = -0.21328 0.36754
#
# Static dielectric constant tensor:
#      x y z
#    x 4.511890 -0.112150 -0.075360 
#    y -0.112150 4.680820 -0.606460 
#    z -0.075360 -0.606460 5.054240 
# 
# 
# High freq. dielectric constant tensor:
#      x y z
#    x 1.944650 -0.023830 -0.007610 
#    y -0.023830 1.935300 -0.014910 
#    z -0.007610 -0.014910 1.977980 
# 
# From -- ./inp_files/455309.got.cif
#   From: 2010.06.25/outbox.cif.g09.slc.cpg/sg2_228_cif.got.tgz:455309.got - 2010.06.27 13:26:56.
