data_PCOD8014100
_publ_section_title
;
Structure prediction by ZEFSAII (Michael W. Deem and Ramdas Pophale) SiO2 
 PCOD8014100
Probable space group: P -1
;
_chemical_formula_sum "Si O2"
_cell_formula_units_Z 14
_cell_length_a 15.208013
_cell_length_b 24.518966
_cell_length_c 9.247519
_cell_angle_alpha 38.731952
_cell_angle_beta 140.772866
_cell_angle_gamma 160.400542
_cell_volume 710.611368
_symmetry_space_group_name_H-M "P -1"
_symmetry_group_IT_number 2
_symmetry_cell_setting 'triclinic'
loop_
_space_group_symop_operation_xyz
x,y,z
-x,-y,-z
loop_
_atom_site_type_symbol
_atom_site_label
_atom_site_fract_x
_atom_site_fract_y
_atom_site_fract_z
Si Si1 0.948489 0.008735 0.574596
Si Si2 0.149242 0.548767 0.302492
Si Si3 0.858393 0.572329 0.934163
Si Si4 0.299740 0.946284 0.754495
Si Si5 0.604828 0.212198 0.375872
Si Si6 0.567452 0.337191 0.288919
Si Si7 0.493882 0.288365 0.849660
O O1 0.786431 0.013096 0.352654
O O2 0.218111 0.169447 0.673540
O O3 0.757619 0.836999 0.769972
O O4 0.000000 0.000000 0.500000
O O5 0.355708 0.621847 0.530341
O O6 0.292147 0.629423 0.164267
O O7 0.892699 0.345372 0.394294
O O8 0.056135 0.596114 0.124175
O O9 0.629664 0.442872 0.786512
O O10 0.032147 0.751823 0.773398
O O11 0.700288 0.489566 0.058318
O O12 0.443356 0.042964 0.582127
O O13 0.500000 0.000000 0.000000
O O14 0.676938 0.309036 0.407900
O O15 0.433226 0.176799 0.115242
#
# Coordination Sequence:
#
# PCOD8014100 Si02
#       7
#     2   2   2   2   2   2   2
#     4  11  22  39  62  87 117 156 195 240 292 348
#     4  10  16  34  59  86 116 151 199 236 282 349
#     4  10  20  35  58  87 116 153 195 241 289 338
#     4  11  23  39  62  88 120 153 197 243 288 344
#     4   9  19  34  58  89 110 155 197 239 282 344
#     4   9  17  32  59  82 109 154 201 231 274 350
#     4  10  21  36  60  87 120 153 195 240 290 350
#
# _framework density 19.701346000000001
#
# number of rings (size 3 to 8) (size 9 to 14) (size 15 to 20)
#    0.000    2.286    1.429    6.000    0.000    5.714 
#    0.000    3.571    3.143    0.000    0.000    0.000 
#    0.000    0.000    0.000    0.000    0.000    0.000 
#
# Total GULP energy -173466.698635 kJ/mol
# GULP energy per Si atom -12390.478474 kJ/mol
# Density = 1.965650 g / cm^3
# Si number density = 19.701346 Si / 1000 Ang^3
#
#
#
# Elastic Constant Matrix: (Units=GPa)
#
#
# Indices 1 2 3 4 5 6 
#
# 1 73.4459 30.0649 43.5898 -6.5043 -11.7876 10.4595
# 2 30.0649 138.9237 62.3143 -10.0472 -6.9281 8.9690
# 3 43.5898 62.3143 95.6043 -6.1574 -18.7015 4.2533
# 4 -6.5043 -10.0472 -6.1574 48.8798 6.3887 -10.0111
# 5 -11.7876 -6.9281 -18.7015 6.3887 25.0382 4.6103
# 6 10.4595 8.9690 4.2533 -10.0111 4.6103 30.4551
#
#
#
# Elastic Compliance Matrix: (Units=1/GPa)
#
#
# Indices 1 2 3 4 5 6 
#
# 1 0.019989 -0.000203 -0.007762 -0.000339 0.004853 -0.006567
# 2 -0.000203 0.010473 -0.007109 0.001331 -0.002629 -0.001186
# 3 -0.007762 -0.007109 0.020515 -0.001224 0.010018 -0.000024
# 4 -0.000339 0.001331 -0.001224 0.023434 -0.008316 0.008857
# 5 0.004853 -0.002629 0.010018 -0.008316 0.053518 -0.013127
# 6 -0.006567 -0.001186 -0.000024 0.008857 -0.013127 0.040342
#
#
# Mechanical properties :
#
#
# Convention : Reuss Voigt Hill
#
# Bulk Modulus (GPa) = 48.01214 64.43464 56.22339
# Shear Modulus (GPa) = 24.34729 32.34162 28.34445
#
# Velocity S-wave (km/s) = 3.51924 4.05605 3.79714
# Velocity P-wave (km/s) = 6.39814 7.39677 6.91550
#
# Compressibility (1/GPa) = 0.02082806
#
# Stress axis : x y z
#
# Youngs Moduli (GPa) = 50.02659 95.48630 48.74568
#
# Poissons Ratio (x) = 0.01936 0.37837
# Poissons Ratio (y) = 0.01014 0.34655
# Poissons Ratio (z) = 0.38832 0.67885
#
# Static dielectric constant tensor:
#      x y z
#    x 3.470850 0.283390 -0.409490 
#    y 0.283390 3.979970 -0.208910 
#    z -0.409490 -0.208910 3.467630 
# 
# 
# High freq. dielectric constant tensor:
#      x y z
#    x 1.745870 0.019650 -0.036910 
#    y 0.019650 1.786020 0.000430 
#    z -0.036910 0.000430 1.743020 
# 
# From -- ./inp_files/168743.got.cif
#   From: 2010.06.25/outbox.cif.g09.slc.cpg/sg2_85_cif.got.tgz:168743.got - 2010.06.27 13:26:56.
