data_PCOD8014614
_publ_section_title
;
Structure prediction by ZEFSAII (Michael W. Deem and Ramdas Pophale) SiO2 
 PCOD8014614
Probable space group: P -1
;
_chemical_formula_sum "Si O2"
_cell_formula_units_Z 16
_cell_length_a 8.744917
_cell_length_b 12.301702
_cell_length_c 11.423672
_cell_angle_alpha 46.185987
_cell_angle_beta 97.150120
_cell_angle_gamma 116.877002
_cell_volume 756.306183
_symmetry_space_group_name_H-M "P -1"
_symmetry_group_IT_number 2
_symmetry_cell_setting 'triclinic'
loop_
_space_group_symop_operation_xyz
x,y,z
-x,-y,-z
loop_
_atom_site_type_symbol
_atom_site_label
_atom_site_fract_x
_atom_site_fract_y
_atom_site_fract_z
Si Si1 0.901226 0.973518 0.315458
Si Si2 0.991892 0.150616 0.951800
Si Si3 0.340550 0.805692 0.149967
Si Si4 0.489067 0.331950 0.557998
Si Si5 0.335469 0.462636 0.795365
Si Si6 0.010501 0.788667 0.629351
Si Si7 0.657962 0.418316 0.895650
Si Si8 0.179386 0.599368 0.864758
O O1 0.711325 0.832501 0.345987
O O2 0.006134 0.873885 0.440825
O O3 0.902767 0.070868 0.361896
O O4 0.993736 0.118932 0.115266
O O5 0.178681 0.318431 0.807290
O O6 0.837430 0.183138 0.865060
O O7 0.000000 0.000000 0.000000
O O8 0.381971 0.727146 0.326633
O O9 0.314759 0.671829 0.145904
O O10 0.500000 0.000000 0.000000
O O11 0.500000 0.500000 0.500000
O O12 0.550258 0.370730 0.400223
O O13 0.462950 0.393230 0.903462
O O14 0.233038 0.484014 0.878782
O O15 0.810237 0.625794 0.759847
O O16 0.154792 0.725515 0.678841
O O17 0.665981 0.311318 0.088989
O O18 0.000000 0.500000 0.000000
#
# Coordination Sequence:
#
# PCOD8014614 Si02
#       8
#     2   2   2   2   2   2   2   2
#     4  11  22  42  69  92 137 177 228 280 343 399
#     4  12  25  41  64 102 138 177 228 280 339 412
#     4  12  24  43  74  99 138 187 227 282 349 406
#     4  12  24  45  71 101 140 182 230 287 341 410
#     4  12  24  41  68 100 134 178 230 283 342 413
#     4  10  21  41  69  93 127 183 224 281 342 403
#     4  11  21  42  68  99 134 176 231 280 347 407
#     4  10  22  39  64  95 132 172 224 278 337 404
#
# _framework density 21.155455
#
# number of rings (size 3 to 8) (size 9 to 14) (size 15 to 20)
#    0.000    0.750    3.750    5.625    0.000    1.500 
#    0.000    0.625    0.000    0.000    0.000    0.000 
#    0.000    0.000    0.000    0.000    0.000    0.000 
#
# Total GULP energy -198223.589092 kJ/mol
# GULP energy per Si atom -12388.974318 kJ/mol
# Density = 2.110730 g / cm^3
# Si number density = 21.155455 Si / 1000 Ang^3
#
#
#
# Elastic Constant Matrix: (Units=GPa)
#
#
# Indices 1 2 3 4 5 6 
#
# 1 165.6258 44.4707 43.0153 6.7086 41.4791 3.6134
# 2 44.4707 104.7013 4.8389 -0.2179 6.7638 5.3060
# 3 43.0153 4.8389 75.8066 16.4845 28.5791 10.6006
# 4 6.7086 -0.2179 16.4845 36.6039 10.4872 -0.7070
# 5 41.4791 6.7638 28.5791 10.4872 48.1214 8.6089
# 6 3.6134 5.3060 10.6006 -0.7070 8.6089 39.3106
#
#
#
# Elastic Compliance Matrix: (Units=1/GPa)
#
#
# Indices 1 2 3 4 5 6 
#
# 1 0.009289 -0.003482 -0.003308 0.001591 -0.006240 0.001903
# 2 -0.003482 0.010992 0.001122 -0.000159 0.001132 -0.001717
# 3 -0.003308 0.001122 0.019453 -0.006262 -0.006831 -0.003710
# 4 0.001591 -0.000159 -0.006262 0.031354 -0.005041 0.003232
# 5 -0.006240 0.001132 -0.006831 -0.005041 0.032021 -0.004841
# 6 0.001903 -0.001717 -0.003710 0.003232 -0.004841 0.027614
#
#
# Mechanical properties :
#
#
# Convention : Reuss Voigt Hill
#
# Bulk Modulus (GPa) = 35.21569 58.97594 47.09581
# Shear Modulus (GPa) = 32.99808 41.72777 37.36293
#
# Velocity S-wave (km/s) = 3.95370 4.44603 4.20707
# Velocity P-wave (km/s) = 6.12574 7.36846 6.77565
#
# Compressibility (1/GPa) = 0.02839643
#
# Stress axis : x y z
#
# Youngs Moduli (GPa) = 107.65921 90.97724 51.40681
#
# Poissons Ratio (x) = 0.31682 0.17007
# Poissons Ratio (y) = 0.37491 -0.05770
# Poissons Ratio (z) = 0.35616 -0.10211
#
# Static dielectric constant tensor:
#      x y z
#    x 1.715550 1.370680 3.418480 
#    y 1.370680 3.431060 -1.323960 
#    z 3.418480 -1.323960 0.648360 
# 
# 
# High freq. dielectric constant tensor:
#      x y z
#    x 1.830010 0.011880 0.028910 
#    y 0.011880 1.842340 0.004050 
#    z 0.028910 0.004050 1.828640 
# 
# From -- ./inp_files/392126.got.cif
#   From: 2010.06.25/outbox.cif.g09.slc.cpg/sg2_197_cif.got.tgz:392126.got - 2010.06.27 13:26:56.
