data_PCOD8014977
_publ_section_title
;
Structure prediction by ZEFSAII (Michael W. Deem and Ramdas Pophale) SiO2 
 PCOD8014977
Probable space group: P -1
;
_chemical_formula_sum "Si O2"
_cell_formula_units_Z 16
_cell_length_a 9.243999
_cell_length_b 20.568175
_cell_length_c 14.898863
_cell_angle_alpha 161.253427
_cell_angle_beta 125.172315
_cell_angle_gamma 54.853037
_cell_volume 739.248054
_symmetry_space_group_name_H-M "P -1"
_symmetry_group_IT_number 2
_symmetry_cell_setting 'triclinic'
loop_
_space_group_symop_operation_xyz
x,y,z
-x,-y,-z
loop_
_atom_site_type_symbol
_atom_site_label
_atom_site_fract_x
_atom_site_fract_y
_atom_site_fract_z
Si Si1 0.663975 0.808940 0.029285
Si Si2 0.610812 0.366265 0.169778
Si Si3 0.485395 0.204189 0.534705
Si Si4 0.584530 0.345862 0.930901
Si Si5 0.975853 0.379948 0.113217
Si Si6 0.982412 0.169620 0.028302
Si Si7 0.371177 0.205707 0.209515
Si Si8 0.911662 0.847365 0.702728
O O1 0.506854 0.743818 0.948517
O O2 0.857089 0.710490 0.007209
O O3 0.642251 0.737578 0.826157
O O4 0.644899 0.053583 0.350544
O O5 0.589600 0.273291 0.940971
O O6 0.819978 0.318147 0.210309
O O7 0.551789 0.608661 0.468784
O O8 0.523635 0.429785 0.815968
O O9 0.300615 0.144479 0.350426
O O10 0.491542 0.193873 0.633515
O O11 0.781376 0.365094 0.983462
O O12 0.990501 0.226452 0.002001
O O13 0.000278 0.616820 0.449970
O O14 0.177627 0.193875 0.170635
O O15 0.948056 0.934563 0.729405
O O16 0.500000 0.000000 0.000000
O O17 0.000000 0.000000 0.000000
#
# Coordination Sequence:
#
# PCOD8014977 Si02
#       8
#     2   2   2   2   2   2   2   2
#     4  11  23  38  58  93 131 157 199 266 317 372
#     4  11  22  39  62  91 122 164 210 254 314 365
#     4  10  21  42  64  92 121 159 221 252 307 369
#     4   9  21  42  69  84 118 170 211 262 294 373
#     4   9  23  42  59  92 127 160 205 255 320 366
#     4  10  23  39  59  88 119 170 204 253 300 373
#     4  11  25  37  59  89 132 164 203 255 322 374
#     4  11  24  36  66  92 123 165 210 256 311 368
#
# _framework density 21.643613999999999
#
# number of rings (size 3 to 8) (size 9 to 14) (size 15 to 20)
#    0.000    1.750    1.250    1.500   12.250    1.000 
#    0.000    0.000    0.000    2.250    0.000    0.000 
#    0.000    0.000    0.000    0.000    0.000    0.000 
#
# Total GULP energy -198245.204785 kJ/mol
# GULP energy per Si atom -12390.325299 kJ/mol
# Density = 2.159435 g / cm^3
# Si number density = 21.643614 Si / 1000 Ang^3
#
#
#
# Elastic Constant Matrix: (Units=GPa)
#
#
# Indices 1 2 3 4 5 6 
#
# 1 114.7435 34.8571 28.5270 9.8801 -17.1233 -17.3591
# 2 34.8571 84.8283 31.2522 7.3808 -6.8329 -10.3634
# 3 28.5270 31.2522 70.2150 -0.5071 -12.3247 -16.6159
# 4 9.8801 7.3808 -0.5071 39.3278 -1.3170 -4.4649
# 5 -17.1233 -6.8329 -12.3247 -1.3170 26.4921 11.6620
# 6 -17.3591 -10.3634 -16.6159 -4.4649 11.6620 38.4001
#
#
#
# Elastic Compliance Matrix: (Units=1/GPa)
#
#
# Indices 1 2 3 4 5 6 
#
# 1 0.011294 -0.003161 -0.001954 -0.001912 0.004708 0.001755
# 2 -0.003161 0.015314 -0.005644 -0.002150 -0.000959 0.000303
# 3 -0.001954 -0.005644 0.019505 0.002515 0.004266 0.005030
# 4 -0.001912 -0.002150 0.002515 0.026656 -0.000580 0.002919
# 5 0.004708 -0.000959 0.004266 -0.000580 0.047203 -0.010687
# 6 0.001755 0.000303 0.005030 0.002919 -0.010687 0.032679
#
#
# Mechanical properties :
#
#
# Convention : Reuss Voigt Hill
#
# Bulk Modulus (GPa) = 40.65792 51.00658 45.83225
# Shear Modulus (GPa) = 27.41741 32.52069 29.96905
#
# Velocity S-wave (km/s) = 3.56303 3.88048 3.72514
# Velocity P-wave (km/s) = 5.97937 6.61024 6.30270
#
# Compressibility (1/GPa) = 0.02459545
#
# Stress axis : x y z
#
# Youngs Moduli (GPa) = 88.54417 65.30150 51.26831
#
# Poissons Ratio (x) = 0.20642 0.10016
# Poissons Ratio (y) = 0.27989 0.28935
# Poissons Ratio (z) = 0.17298 0.36856
#
# Static dielectric constant tensor:
#      x y z
#    x 4.136710 -0.214160 0.000580 
#    y -0.214160 4.267150 0.272660 
#    z 0.000580 0.272660 3.872060 
# 
# 
# High freq. dielectric constant tensor:
#      x y z
#    x 1.843000 -0.008510 0.001720 
#    y -0.008510 1.856760 0.022360 
#    z 0.001720 0.022360 1.831870 
# 
# From -- ./inp_files/216813.got.cif
#   From: 2010.06.25/outbox.cif.g09.slc.cpg/sg2_109_cif.got.tgz:216813.got - 2010.06.27 13:26:56.
