data_PCOD8014539
_publ_section_title
;
Structure prediction by ZEFSAII (Michael W. Deem and Ramdas Pophale) SiO2 
 PCOD8014539
Probable space group: P -1
;
_chemical_formula_sum "Si O2"
_cell_formula_units_Z 14
_cell_length_a 13.990032
_cell_length_b 9.346083
_cell_length_c 8.154075
_cell_angle_alpha 42.794193
_cell_angle_beta 50.617626
_cell_angle_gamma 61.822946
_cell_volume 559.799558
_symmetry_space_group_name_H-M "P -1"
_symmetry_group_IT_number 2
_symmetry_cell_setting 'triclinic'
loop_
_space_group_symop_operation_xyz
x,y,z
-x,-y,-z
loop_
_atom_site_type_symbol
_atom_site_label
_atom_site_fract_x
_atom_site_fract_y
_atom_site_fract_z
Si Si1 0.577940 0.773319 0.010528
Si Si2 0.700307 0.776096 0.221692
Si Si3 0.914028 0.680067 0.514172
Si Si4 0.303539 0.049569 0.590259
Si Si5 0.915480 0.032672 0.719888
Si Si6 0.699168 0.298292 0.597264
Si Si7 0.266432 0.610230 0.872694
O O1 0.649500 0.845130 0.038481
O O2 0.433436 0.814852 0.163449
O O3 0.604376 0.523457 0.159382
O O4 0.616100 0.907800 0.695752
O O5 0.632840 0.901665 0.342729
O O6 0.677936 0.533598 0.485365
O O7 0.849766 0.816105 0.026823
O O8 0.815645 0.792459 0.406568
O O9 0.000000 0.500000 0.500000
O O10 0.997087 0.873377 0.317098
O O11 0.839325 0.562250 0.838233
O O12 0.269255 0.801024 0.839847
O O13 0.796214 0.186201 0.703990
O O14 0.000000 0.000000 0.500000
O O15 0.759257 0.285700 0.362509
#
# Coordination Sequence:
#
# PCOD8014539 Si02
#       7
#     2   2   2   2   2   2   2
#     4  10  24  47  67  96 136 170 218 274 328 394
#     4  11  24  43  70 100 129 174 223 264 330 395
#     4  11  24  41  61  96 139 171 217 272 320 390
#     4  11  24  43  71 100 132 175 217 274 330 379
#     4  12  25  41  66  99 130 171 225 267 317 395
#     4  11  24  44  68  94 135 177 212 274 335 381
#     4  10  21  41  68  94 130 176 216 267 333 387
#
# _framework density 25.008949999999999
#
# number of rings (size 3 to 8) (size 9 to 14) (size 15 to 20)
#    0.000    1.143    0.000    7.714    0.000   12.000 
#    0.000    6.429    0.000    0.000    0.000    0.000 
#    0.000    0.000    0.000    0.000    0.000    0.000 
#
# Total GULP energy -173527.771225 kJ/mol
# GULP energy per Si atom -12394.840802 kJ/mol
# Density = 2.495203 g / cm^3
# Si number density = 25.008950 Si / 1000 Ang^3
#
#
#
# Elastic Constant Matrix: (Units=GPa)
#
#
# Indices 1 2 3 4 5 6 
#
# 1 84.0322 38.1886 48.5413 11.1224 -8.3439 9.0002
# 2 38.1886 125.6085 17.3338 1.9733 1.0957 19.6337
# 3 48.5413 17.3338 104.8502 11.0314 -12.3215 16.6237
# 4 11.1224 1.9733 11.0314 42.0272 8.0229 -0.1723
# 5 -8.3439 1.0957 -12.3215 8.0229 32.2941 0.1039
# 6 9.0002 19.6337 16.6237 -0.1723 0.1039 54.9602
#
#
#
# Elastic Compliance Matrix: (Units=1/GPa)
#
#
# Indices 1 2 3 4 5 6 
#
# 1 0.019092 -0.004884 -0.007435 -0.003464 0.003120 0.000850
# 2 -0.004884 0.009790 0.000843 0.000883 -0.001482 -0.002947
# 3 -0.007435 0.000843 0.014126 -0.002575 0.004091 -0.003372
# 4 -0.003464 0.000883 -0.002575 0.026995 -0.008617 0.001132
# 5 0.003120 -0.001482 0.004091 -0.008617 0.035527 -0.001313
# 6 0.000850 -0.002947 -0.003372 0.001132 -0.001313 0.020134
#
#
# Mechanical properties :
#
#
# Convention : Reuss Voigt Hill
#
# Bulk Modulus (GPa) = 49.86271 58.06872 53.96572
# Shear Modulus (GPa) = 32.19532 39.88480 36.04006
#
# Velocity S-wave (km/s) = 3.59186 3.99785 3.80028
# Velocity P-wave (km/s) = 6.09780 6.67683 6.39387
#
# Compressibility (1/GPa) = 0.02005507
#
# Stress axis : x y z
#
# Youngs Moduli (GPa) = 52.37841 102.15017 70.78923
#
# Poissons Ratio (x) = 0.49892 0.52633
# Poissons Ratio (y) = 0.25582 -0.05967
# Poissons Ratio (z) = 0.38944 -0.08610
#
# Static dielectric constant tensor:
#      x y z
#    x 4.332740 -0.178650 -0.105210 
#    y -0.178650 4.625350 0.006830 
#    z -0.105210 0.006830 4.679450 
# 
# 
# High freq. dielectric constant tensor:
#      x y z
#    x 1.978420 0.000860 0.000290 
#    y 0.000860 2.015000 -0.007160 
#    z 0.000290 -0.007160 2.010210 
# 
# From -- ./inp_files/293888.got.cif
#   From: 2010.06.25/outbox.cif.g09.slc.cpg/sg2_147_cif.got.tgz:293888.got - 2010.06.27 13:26:56.
