data_PCOD8014057
_publ_section_title
;
Structure prediction by ZEFSAII (Michael W. Deem and Ramdas Pophale) SiO2 
 PCOD8014057
Probable space group: P -1
;
_chemical_formula_sum "Si O2"
_cell_formula_units_Z 16
_cell_length_a 19.019432
_cell_length_b 5.256449
_cell_length_c 9.206478
_cell_angle_alpha 69.012415
_cell_angle_beta 93.682817
_cell_angle_gamma 64.245278
_cell_volume 747.063280
_symmetry_space_group_name_H-M "P -1"
_symmetry_group_IT_number 2
_symmetry_cell_setting 'triclinic'
loop_
_space_group_symop_operation_xyz
x,y,z
-x,-y,-z
loop_
_atom_site_type_symbol
_atom_site_label
_atom_site_fract_x
_atom_site_fract_y
_atom_site_fract_z
Si Si1 0.110237 0.948637 0.423997
Si Si2 0.020159 0.179256 0.644671
Si Si3 0.250861 0.199513 0.897636
Si Si4 0.266281 0.364373 0.550497
Si Si5 0.158172 0.815532 0.942132
Si Si6 0.590768 0.752547 0.597634
Si Si7 0.654935 0.047775 0.779296
Si Si8 0.818248 0.678814 0.728922
O O1 0.207254 0.733222 0.488935
O O2 0.062195 0.835908 0.331557
O O3 0.076105 0.931915 0.580425
O O4 0.103079 0.271736 0.294206
O O5 0.000000 0.500000 0.500000
O O6 0.071201 0.094401 0.817852
O O7 0.274955 0.183419 0.736868
O O8 0.193519 0.551301 0.875473
O O9 0.211834 0.974864 0.953822
O O10 0.335090 0.053425 0.029662
O O11 0.355282 0.279104 0.528671
O O12 0.221171 0.270515 0.444544
O O13 0.150570 0.660353 0.123510
O O14 0.596123 0.418424 0.688604
O O15 0.500000 0.000000 0.500000
O O16 0.620444 0.859534 0.721610
O O17 0.747385 0.942763 0.766173
#
# Coordination Sequence:
#
# PCOD8014057 Si02
#       8
#     2   2   2   2   2   2   2   2
#     4  11  21  39  62  87 124 170 222 264 322 385
#     4  11  24  40  59  90 131 172 213 279 328 375
#     4  11  22  40  66  95 126 172 217 263 318 383
#     4  11  22  40  65  95 125 169 223 259 320 392
#     4  11  24  40  63  94 130 169 218 271 327 372
#     4  11  23  42  68  99 134 169 207 261 322 381
#     4  10  21  41  64  95 132 167 210 261 320 381
#     4  10  22  38  64  92 124 167 219 269 319 387
#
# _framework density 21.417195
#
# number of rings (size 3 to 8) (size 9 to 14) (size 15 to 20)
#    0.000    1.250    2.500    4.875    3.500    0.500 
#    0.000    3.750    0.000    0.000    0.000    0.000 
#    0.000    0.000    0.000    0.000    0.000    0.000 
#
# Total GULP energy -198282.734952 kJ/mol
# GULP energy per Si atom -12392.670934 kJ/mol
# Density = 2.136845 g / cm^3
# Si number density = 21.417195 Si / 1000 Ang^3
#
#
#
# Elastic Constant Matrix: (Units=GPa)
#
#
# Indices 1 2 3 4 5 6 
#
# 1 97.0038 21.0948 42.5441 -0.8678 3.2225 1.6928
# 2 21.0948 70.5629 31.0077 -4.0014 -2.2304 16.6542
# 3 42.5441 31.0077 152.7028 4.2114 3.4280 -0.5159
# 4 -0.8678 -4.0014 4.2114 32.7942 -2.0043 3.2349
# 5 3.2225 -2.2304 3.4280 -2.0043 22.7307 -3.6944
# 6 1.6928 16.6542 -0.5159 3.2349 -3.6944 37.9284
#
#
#
# Elastic Compliance Matrix: (Units=1/GPa)
#
#
# Indices 1 2 3 4 5 6 
#
# 1 0.012146 -0.002492 -0.002851 0.000260 -0.001457 0.000349
# 2 -0.002492 0.018524 -0.003229 0.003518 0.001634 -0.008207
# 3 -0.002851 -0.003229 0.008075 -0.001736 -0.001006 0.001705
# 4 0.000260 0.003518 -0.001736 0.031715 0.002713 -0.004021
# 5 -0.001457 0.001634 -0.001006 0.002713 0.045323 0.003517
# 6 0.000349 -0.008207 0.001705 -0.004021 0.003517 0.030662
#
#
# Mechanical properties :
#
#
# Convention : Reuss Voigt Hill
#
# Bulk Modulus (GPa) = 46.29390 56.61807 51.45598
# Shear Modulus (GPa) = 29.27606 33.73219 31.50412
#
# Velocity S-wave (km/s) = 3.70123 3.97294 3.83949
# Velocity P-wave (km/s) = 6.31884 6.89484 6.61311
#
# Compressibility (1/GPa) = 0.02160112
#
# Stress axis : x y z
#
# Youngs Moduli (GPa) = 82.33249 53.98503 123.84102
#
# Poissons Ratio (x) = 0.13452 0.35310
# Poissons Ratio (y) = 0.20516 0.39983
# Poissons Ratio (z) = 0.23475 0.17430
#
# Static dielectric constant tensor:
#      x y z
#    x 3.746570 -0.076280 -0.102680 
#    y -0.076280 4.053200 0.189680 
#    z -0.102680 0.189680 4.152140 
# 
# 
# High freq. dielectric constant tensor:
#      x y z
#    x 1.817470 0.014850 -0.001880 
#    y 0.014850 1.846750 0.002790 
#    z -0.001880 0.002790 1.847540 
# 
# From -- ./inp_files/50935.got.cif
#   From: 2010.06.25/outbox.cif.g09.slc.cpg/sg2_26_cif.got.tgz:50935.got - 2010.06.27 13:26:56.
