data_PCOD8014322
_publ_section_title
;
Structure prediction by ZEFSAII (Michael W. Deem and Ramdas Pophale) SiO2 
 PCOD8014322
Probable space group: P -1
;
_chemical_formula_sum "Si O2"
_cell_formula_units_Z 16
_cell_length_a 9.122526
_cell_length_b 11.124653
_cell_length_c 15.338392
_cell_angle_alpha 72.483326
_cell_angle_beta 31.184421
_cell_angle_gamma 82.335734
_cell_volume 743.951072
_symmetry_space_group_name_H-M "P -1"
_symmetry_group_IT_number 2
_symmetry_cell_setting 'triclinic'
loop_
_space_group_symop_operation_xyz
x,y,z
-x,-y,-z
loop_
_atom_site_type_symbol
_atom_site_label
_atom_site_fract_x
_atom_site_fract_y
_atom_site_fract_z
Si Si1 0.247266 0.267883 0.456520
Si Si2 0.828990 0.986558 0.341742
Si Si3 0.316223 0.756033 0.364089
Si Si4 0.584603 0.251993 0.122231
Si Si5 0.982720 0.774189 0.692618
Si Si6 0.801629 0.002345 0.019809
Si Si7 0.658672 0.502703 0.512756
Si Si8 0.825701 0.496823 0.855945
O O1 0.141368 0.137013 0.592830
O O2 0.502346 0.247006 0.266759
O O3 0.392377 0.384848 0.422416
O O4 0.970267 0.293413 0.539840
O O5 0.500000 0.000000 0.500000
O O6 0.021845 0.112945 0.263125
O O7 0.979184 0.977039 0.176361
O O8 0.240510 0.818381 0.480205
O O9 0.445826 0.633420 0.350953
O O10 0.552932 0.866958 0.168247
O O11 0.316267 0.265790 0.198126
O O12 0.837275 0.385832 0.946254
O O13 0.666162 0.124348 0.074051
O O14 0.005224 0.643123 0.762603
O O15 0.000000 0.000000 0.000000
O O16 0.500000 0.500000 0.500000
O O17 0.007688 0.532169 0.309934
O O18 0.500000 0.500000 0.000000
#
# Coordination Sequence:
#
# PCOD8014322 Si02
#       8
#     2   2   2   2   2   2   2   2
#     4  11  24  43  69  97 133 179 221 271 333 404
#     4  12  26  41  64  94 134 174 222 275 332 392
#     4  10  23  43  67  96 136 176 221 268 332 400
#     4  10  21  41  66  96 130 171 217 268 323 392
#     4   9  20  40  65  94 130 171 214 265 327 389
#     4  12  26  41  63  95 136 172 222 277 328 390
#     4  11  25  42  70 102 135 176 221 283 341 391
#     4   9  20  39  66  94 132 173 216 267 324 397
#
# _framework density 21.506789000000001
#
# number of rings (size 3 to 8) (size 9 to 14) (size 15 to 20)
#    0.000    1.500    0.000    4.875    7.000    7.000 
#    0.000    0.625    0.000    0.000    0.000    0.000 
#    0.000    0.000    0.000    0.000    0.000    0.000 
#
# Total GULP energy -198310.840004 kJ/mol
# GULP energy per Si atom -12394.427500 kJ/mol
# Density = 2.145784 g / cm^3
# Si number density = 21.506789 Si / 1000 Ang^3
#
#
#
# Elastic Constant Matrix: (Units=GPa)
#
#
# Indices 1 2 3 4 5 6 
#
# 1 88.4942 49.7561 30.9178 -4.0342 17.7622 8.0306
# 2 49.7561 166.0004 64.0773 -12.8322 27.0425 6.6363
# 3 30.9178 64.0773 133.8580 -1.5487 30.1469 0.4537
# 4 -4.0342 -12.8322 -1.5487 38.3418 -7.1518 13.8354
# 5 17.7622 27.0425 30.1469 -7.1518 34.2665 4.2167
# 6 8.0306 6.6363 0.4537 13.8354 4.2167 38.0574
#
#
#
# Elastic Compliance Matrix: (Units=1/GPa)
#
#
# Indices 1 2 3 4 5 6 
#
# 1 0.014413 -0.003224 -0.000934 0.000515 -0.003722 -0.002243
# 2 -0.003224 0.008707 -0.002975 0.002682 -0.001830 -0.001575
# 3 -0.000934 -0.002975 0.010774 -0.002978 -0.007577 0.002509
# 4 0.000515 0.002682 -0.002978 0.033527 0.008922 -0.013718
# 5 -0.003722 -0.001830 -0.007577 0.008922 0.041907 -0.006692
# 6 -0.002243 -0.001575 0.002509 -0.013718 -0.006692 0.032722
#
#
# Mechanical properties :
#
#
# Convention : Reuss Voigt Hill
#
# Bulk Modulus (GPa) = 50.94681 75.31722 63.13202
# Shear Modulus (GPa) = 30.70137 38.37325 34.53731
#
# Velocity S-wave (km/s) = 3.78235 4.22861 4.01169
# Velocity P-wave (km/s) = 6.54332 7.67709 7.13277
#
# Compressibility (1/GPa) = 0.01962832
#
# Stress axis : x y z
#
# Youngs Moduli (GPa) = 69.38117 114.84966 92.81631
#
# Poissons Ratio (x) = 0.37025 0.08670
# Poissons Ratio (y) = 0.22367 0.27613
# Poissons Ratio (z) = 0.06481 0.34168
#
# Static dielectric constant tensor:
#      x y z
#    x 3.748110 -0.024920 0.107480 
#    y -0.024920 4.091140 0.034310 
#    z 0.107480 0.034310 3.945410 
# 
# 
# High freq. dielectric constant tensor:
#      x y z
#    x 1.828130 -0.013260 0.007260 
#    y -0.013260 1.862820 -0.005580 
#    z 0.007260 -0.005580 1.852520 
# 
# From -- ./inp_files/500231.got.cif
#   From: 2010.06.25/outbox.cif.g09.slc.cpg/sg2_251_cif.got.tgz:500231.got - 2010.06.27 13:26:56.
