data_PCOD8014129
_publ_section_title
;
Structure prediction by ZEFSAII (Michael W. Deem and Ramdas Pophale) SiO2 
 PCOD8014129
Probable space group: P -1
;
_chemical_formula_sum "Si O2"
_cell_formula_units_Z 16
_cell_length_a 13.603061
_cell_length_b 14.639062
_cell_length_c 7.537721
_cell_angle_alpha 56.207049
_cell_angle_beta 61.603032
_cell_angle_gamma 28.443185
_cell_volume 593.793620
_symmetry_space_group_name_H-M "P -1"
_symmetry_group_IT_number 2
_symmetry_cell_setting 'triclinic'
loop_
_space_group_symop_operation_xyz
x,y,z
-x,-y,-z
loop_
_atom_site_type_symbol
_atom_site_label
_atom_site_fract_x
_atom_site_fract_y
_atom_site_fract_z
Si Si1 0.069595 0.678248 0.125628
Si Si2 0.298099 0.929788 0.572542
Si Si3 0.167940 0.421256 0.065345
Si Si4 0.851127 0.226880 0.759733
Si Si5 0.135109 0.451710 0.622177
Si Si6 0.518151 0.000415 0.687889
Si Si7 0.410154 0.395697 0.619353
Si Si8 0.320185 0.866423 0.999423
O O1 0.180042 0.695024 0.099120
O O2 0.123892 0.546165 0.373341
O O3 0.150469 0.565411 0.986276
O O4 0.825160 0.909985 0.061355
O O5 0.405754 0.772084 0.496532
O O6 0.308768 0.047939 0.375846
O O7 0.424669 0.807015 0.782751
O O8 0.066517 0.084593 0.640275
O O9 0.087062 0.422568 0.311960
O O10 0.402901 0.180749 0.094961
O O11 0.000000 0.500000 0.000000
O O12 0.684629 0.408537 0.562227
O O13 0.833429 0.111010 0.916569
O O14 0.228496 0.448362 0.717447
O O15 0.299703 0.216984 0.720730
O O16 0.500000 0.000000 0.500000
O O17 0.498082 0.316595 0.826199
#
# Coordination Sequence:
#
# PCOD8014129 Si02
#       8
#     2   2   2   2   2   2   2   2
#     4  10  21  41  65  90 128 172 213 263 320 387
#     4  10  23  42  67  94 134 174 213 268 333 388
#     4  12  26  40  64  99 132 170 216 266 327 392
#     4  10  22  45  68  94 132 173 217 272 331 382
#     4  10  23  44  64  91 135 172 210 268 327 389
#     4  11  23  40  67  93 125 176 217 257 328 391
#     4  10  23  43  67  98 133 167 222 272 321 395
#     4  11  23  42  71  97 131 172 223 276 322 384
#
# _framework density 26.94539
#
# number of rings (size 3 to 8) (size 9 to 14) (size 15 to 20)
#    0.000    1.500    1.250    4.500    7.000    2.500 
#    0.000    2.500    0.000    0.000    0.000    0.000 
#    0.000    0.000    0.000    0.000    0.000    0.000 
#
# Total GULP energy -198215.109192 kJ/mol
# GULP energy per Si atom -12388.444324 kJ/mol
# Density = 2.688406 g / cm^3
# Si number density = 26.945390 Si / 1000 Ang^3
#
#
#
# Elastic Constant Matrix: (Units=GPa)
#
#
# Indices 1 2 3 4 5 6 
#
# 1 84.5736 32.9035 24.9740 -1.3571 12.1475 15.0159
# 2 32.9035 113.3249 27.7931 -19.4540 -1.9644 10.3429
# 3 24.9740 27.7931 71.8849 -20.3401 17.2630 12.1707
# 4 -1.3571 -19.4540 -20.3401 39.2806 -3.0149 -3.8067
# 5 12.1475 -1.9644 17.2630 -3.0149 54.4158 -2.9459
# 6 15.0159 10.3429 12.1707 -3.8067 -2.9459 33.9236
#
#
#
# Elastic Compliance Matrix: (Units=1/GPa)
#
#
# Indices 1 2 3 4 5 6 
#
# 1 0.015676 -0.003968 -0.003405 -0.003927 -0.003062 -0.005214
# 2 -0.003968 0.011353 -0.002251 0.004473 0.002247 -0.000201
# 3 -0.003405 -0.002251 0.020514 0.008504 -0.005612 -0.004699
# 4 -0.003927 0.004473 0.008504 0.032044 0.000166 0.000934
# 5 -0.003062 0.002247 -0.005612 0.000166 0.021177 0.004542
# 6 -0.005214 -0.000201 -0.004699 0.000934 0.004542 0.034032
#
#
# Mechanical properties :
#
#
# Convention : Reuss Voigt Hill
#
# Bulk Modulus (GPa) = 35.34090 49.01384 42.17737
# Shear Modulus (GPa) = 30.58555 37.79819 34.19187
#
# Velocity S-wave (km/s) = 3.37277 3.74942 3.56607
# Velocity P-wave (km/s) = 5.32087 6.08061 5.71338
#
# Compressibility (1/GPa) = 0.02829583
#
# Stress axis : x y z
#
# Youngs Moduli (GPa) = 63.79326 88.07946 48.74713
#
# Poissons Ratio (x) = 0.34947 0.16598
# Poissons Ratio (y) = 0.25311 0.10973
# Poissons Ratio (z) = 0.21721 0.19827
#
# Static dielectric constant tensor:
#      x y z
#    x 5.531460 0.128180 0.208450 
#    y 0.128180 5.001750 0.948440 
#    z 0.208450 0.948440 6.605670 
# 
# 
# High freq. dielectric constant tensor:
#      x y z
#    x 2.091810 0.001520 0.007260 
#    y 0.001520 2.087130 -0.010630 
#    z 0.007260 -0.010630 2.096800 
# 
# From -- ./inp_files/314787.got.cif
#   From: 2010.06.25/outbox.cif.g09.slc.cpg/sg2_158_cif.got.tgz:314787.got - 2010.06.27 13:26:56.
