data_PCOD8014342
_publ_section_title
;
Structure prediction by ZEFSAII (Michael W. Deem and Ramdas Pophale) SiO2 
 PCOD8014342
Probable space group: P -1
;
_chemical_formula_sum "Si O2"
_cell_formula_units_Z 16
_cell_length_a 15.139144
_cell_length_b 9.449320
_cell_length_c 8.507667
_cell_angle_alpha 72.883782
_cell_angle_beta 78.852348
_cell_angle_gamma 131.943139
_cell_volume 723.294320
_symmetry_space_group_name_H-M "P -1"
_symmetry_group_IT_number 2
_symmetry_cell_setting 'triclinic'
loop_
_space_group_symop_operation_xyz
x,y,z
-x,-y,-z
loop_
_atom_site_type_symbol
_atom_site_label
_atom_site_fract_x
_atom_site_fract_y
_atom_site_fract_z
Si Si1 0.220430 0.221698 0.436524
Si Si2 0.968740 0.472122 0.256419
Si Si3 0.176572 0.573267 0.956772
Si Si4 0.912793 0.828012 0.781181
Si Si5 0.164562 0.988764 0.077375
Si Si6 0.458471 0.815712 0.686112
Si Si7 0.635122 0.582704 0.363645
Si Si8 0.274266 0.992759 0.337437
O O1 0.217745 0.329755 0.251548
O O2 0.289073 0.382343 0.515269
O O3 0.295491 0.160632 0.390250
O O4 0.057161 0.971024 0.598305
O O5 0.857580 0.347680 0.189920
O O6 0.873571 0.286301 0.491558
O O7 0.034424 0.717149 0.170349
O O8 0.102748 0.534628 0.156259
O O9 0.343073 0.749723 0.859184
O O10 0.111970 0.328183 0.027088
O O11 0.921881 0.992708 0.814332
O O12 0.272851 0.045141 0.141011
O O13 0.257992 0.165536 0.840943
O O14 0.400407 0.599683 0.678834
O O15 0.500000 0.000000 0.500000
O O16 0.590019 0.938751 0.709597
O O17 0.500000 0.500000 0.500000
#
# Coordination Sequence:
#
# PCOD8014342 Si02
#       8
#     2   2   2   2   2   2   2   2
#     4  10  22  40  67  97 132 169 217 271 331 384
#     4  11  24  42  70  96 138 174 219 275 337 387
#     4  11  23  41  66  97 129 176 216 271 330 390
#     4  10  21  41  66  98 129 167 219 277 322 384
#     4  11  26  41  70 101 129 171 228 277 325 390
#     4  12  26  44  66  95 136 176 219 267 335 396
#     4  12  26  43  68  96 133 176 222 269 327 403
#     4  11  23  46  67  97 138 178 213 274 339 390
#
# _framework density 22.121008
#
# number of rings (size 3 to 8) (size 9 to 14) (size 15 to 20)
#    0.000    1.000    5.000    1.125    5.250    2.500 
#    2.250    0.625    0.000    0.000    0.000    0.000 
#    0.000    0.000    0.000    0.000    0.000    0.000 
#
# Total GULP energy -198248.838728 kJ/mol
# GULP energy per Si atom -12390.552420 kJ/mol
# Density = 2.207066 g / cm^3
# Si number density = 22.121008 Si / 1000 Ang^3
#
#
#
# Elastic Constant Matrix: (Units=GPa)
#
#
# Indices 1 2 3 4 5 6 
#
# 1 132.5501 11.4998 28.7110 6.1086 -18.3656 0.2479
# 2 11.4998 67.9548 14.7543 -2.2522 0.3970 -0.1309
# 3 28.7110 14.7543 73.0318 -3.1253 -12.4875 -7.2798
# 4 6.1086 -2.2522 -3.1253 27.4856 -3.1589 7.7733
# 5 -18.3656 0.3970 -12.4875 -3.1589 38.1647 -3.8031
# 6 0.2479 -0.1309 -7.2798 7.7733 -3.8031 23.7157
#
#
#
# Elastic Compliance Matrix: (Units=1/GPa)
#
#
# Indices 1 2 3 4 5 6 
#
# 1 0.008762 -0.000967 -0.002771 -0.002042 0.003174 0.000231
# 2 -0.000967 0.015620 -0.003168 0.001393 -0.001709 -0.001607
# 3 -0.002771 -0.003168 0.016864 0.001263 0.004875 0.005556
# 4 -0.002042 0.001393 0.001263 0.040872 0.001530 -0.012735
# 5 0.003174 -0.001709 0.004875 0.001530 0.030044 0.005770
# 6 0.000231 -0.001607 0.005556 -0.012735 0.005770 0.048960
#
#
# Mechanical properties :
#
#
# Convention : Reuss Voigt Hill
#
# Bulk Modulus (GPa) = 36.45218 42.60743 39.52980
# Shear Modulus (GPa) = 27.16240 32.44465 29.80353
#
# Velocity S-wave (km/s) = 3.50794 3.83389 3.67453
# Velocity P-wave (km/s) = 5.73776 6.23708 5.99262
#
# Compressibility (1/GPa) = 0.02743320
#
# Stress axis : x y z
#
# Youngs Moduli (GPa) = 114.13158 64.01942 59.29946
#
# Poissons Ratio (x) = 0.06190 0.16431
# Poissons Ratio (y) = 0.11035 0.18789
# Poissons Ratio (z) = 0.31625 0.20284
#
# Static dielectric constant tensor:
#      x y z
#    x 4.549000 0.100370 -0.145560 
#    y 0.100370 3.772320 -0.102490 
#    z -0.145560 -0.102490 4.485460 
# 
# 
# High freq. dielectric constant tensor:
#      x y z
#    x 1.890250 -0.004840 0.003850 
#    y -0.004840 1.842480 -0.002690 
#    z 0.003850 -0.002690 1.874000 
# 
# From -- ./inp_files/297884.got.cif
#   From: 2010.06.25/outbox.cif.g09.slc.cpg/sg2_149_cif.got.tgz:297884.got - 2010.06.27 13:26:56.
