data_PCOD8014526
_publ_section_title
;
Structure prediction by ZEFSAII (Michael W. Deem and Ramdas Pophale) SiO2 
 PCOD8014526
Probable space group: P -1
;
_chemical_formula_sum "Si O2"
_cell_formula_units_Z 16
_cell_length_a 15.051635
_cell_length_b 16.388248
_cell_length_c 12.480854
_cell_angle_alpha 151.478865
_cell_angle_beta 125.340215
_cell_angle_gamma 35.839826
_cell_volume 755.670384
_symmetry_space_group_name_H-M "P -1"
_symmetry_group_IT_number 2
_symmetry_cell_setting 'triclinic'
loop_
_space_group_symop_operation_xyz
x,y,z
-x,-y,-z
loop_
_atom_site_type_symbol
_atom_site_label
_atom_site_fract_x
_atom_site_fract_y
_atom_site_fract_z
Si Si1 0.872771 0.945210 0.205275
Si Si2 0.483995 0.818959 0.777438
Si Si3 0.059839 0.889513 0.086857
Si Si4 0.474341 0.611867 0.938012
Si Si5 0.301116 0.883867 0.342726
Si Si6 0.130069 0.428220 0.931078
Si Si7 0.670961 0.520039 0.779228
Si Si8 0.758330 0.359491 0.276524
O O1 0.954775 0.877316 0.067216
O O2 0.713329 0.006115 0.164215
O O3 0.814681 0.196752 0.504587
O O4 0.032755 0.677705 0.074181
O O5 0.563198 0.635734 0.727709
O O6 0.589624 0.645474 0.543590
O O7 0.500000 0.000000 0.000000
O O8 0.162762 0.900946 0.244115
O O9 0.183104 0.637240 0.796200
O O10 0.919976 0.173623 0.253436
O O11 0.596827 0.298307 0.689018
O O12 0.559074 0.638148 0.944846
O O13 0.296822 0.767367 0.937320
O O14 0.433159 0.751689 0.183619
O O15 0.223210 0.166097 0.627908
O O16 0.253736 0.382641 0.044558
O O17 0.000000 0.500000 0.000000
#
# Coordination Sequence:
#
# PCOD8014526 Si02
#       8
#     2   2   2   2   2   2   2   2
#     4  12  23  42  67  93 127 166 218 255 314 379
#     4  12  26  42  64  96 129 166 208 267 312 374
#     4  10  21  41  70  92 120 171 206 261 309 383
#     4  10  21  42  69  92 121 176 206 258 313 388
#     4  10  23  42  64  94 132 161 214 255 324 372
#     4  12  26  40  61  95 131 165 207 270 317 365
#     4  12  23  41  67  91 125 166 221 254 312 377
#     4  10  21  41  68  90 126 160 215 247 322 369
#
# _framework density 21.173254
#
# number of rings (size 3 to 8) (size 9 to 14) (size 15 to 20)
#    0.000    1.000    2.500    4.500    3.500    0.500 
#    2.250    0.625    0.000    0.000    0.000    0.000 
#    0.000    0.000    0.000    0.000    0.000    0.000 
#
# Total GULP energy -198301.605505 kJ/mol
# GULP energy per Si atom -12393.850344 kJ/mol
# Density = 2.112506 g / cm^3
# Si number density = 21.173254 Si / 1000 Ang^3
#
#
#
# Elastic Constant Matrix: (Units=GPa)
#
#
# Indices 1 2 3 4 5 6 
#
# 1 143.9707 12.2924 41.6681 -18.6979 -22.1760 1.5267
# 2 12.2924 75.5171 26.0738 -7.4416 -1.0009 -9.1900
# 3 41.6681 26.0738 92.9092 -3.0885 -4.2301 10.4634
# 4 -18.6979 -7.4416 -3.0885 27.3170 2.6452 -1.2821
# 5 -22.1760 -1.0009 -4.2301 2.6452 33.0576 -2.9486
# 6 1.5267 -9.1900 10.4634 -1.2821 -2.9486 31.4404
#
#
#
# Elastic Compliance Matrix: (Units=1/GPa)
#
#
# Indices 1 2 3 4 5 6 
#
# 1 0.009780 0.000830 -0.004386 0.005964 0.005726 0.002008
# 2 0.000830 0.016314 -0.005537 0.004650 0.000578 0.006815
# 3 -0.004386 -0.005537 0.014859 -0.002990 -0.001560 -0.006619
# 4 0.005964 0.004650 -0.002990 0.041725 0.000763 0.003838
# 5 0.005726 0.000578 -0.001560 0.000763 0.034174 0.003646
# 6 0.002008 0.006815 -0.006619 0.003838 0.003646 0.036402
#
#
# Mechanical properties :
#
#
# Convention : Reuss Voigt Hill
#
# Bulk Modulus (GPa) = 43.92354 52.49619 48.20987
# Shear Modulus (GPa) = 27.92851 33.85385 30.89118
#
# Velocity S-wave (km/s) = 3.63581 4.00296 3.82379
# Velocity P-wave (km/s) = 6.19801 6.79797 6.50491
#
# Compressibility (1/GPa) = 0.02276683
#
# Stress axis : x y z
#
# Youngs Moduli (GPa) = 102.25232 61.29705 67.29768
#
# Poissons Ratio (x) = -0.05091 0.29518
# Poissons Ratio (y) = -0.08492 0.37265
# Poissons Ratio (z) = 0.44850 0.33942
#
# Static dielectric constant tensor:
#      x y z
#    x 4.063550 0.042470 -0.384250 
#    y 0.042470 4.076650 -0.147750 
#    z -0.384250 -0.147750 3.649900 
# 
# 
# High freq. dielectric constant tensor:
#      x y z
#    x 1.842880 -0.003390 -0.023720 
#    y -0.003390 1.845420 -0.010130 
#    z -0.023720 -0.010130 1.811230 
# 
# From -- ./inp_files/353839.got.cif
#   From: 2010.06.25/outbox.cif.g09.slc.cpg/sg2_177_cif.got.tgz:353839.got - 2010.06.27 13:26:56.
