data_PCOD8014900
_publ_section_title
;
Structure prediction by ZEFSAII (Michael W. Deem and Ramdas Pophale) SiO2 
 PCOD8014900
Probable space group: P -1
;
_chemical_formula_sum "Si O2"
_cell_formula_units_Z 16
_cell_length_a 20.293068
_cell_length_b 9.257479
_cell_length_c 6.585383
_cell_angle_alpha 56.110294
_cell_angle_beta 61.269876
_cell_angle_gamma 47.341980
_cell_volume 744.451735
_symmetry_space_group_name_H-M "P -1"
_symmetry_group_IT_number 2
_symmetry_cell_setting 'triclinic'
loop_
_space_group_symop_operation_xyz
x,y,z
-x,-y,-z
loop_
_atom_site_type_symbol
_atom_site_label
_atom_site_fract_x
_atom_site_fract_y
_atom_site_fract_z
Si Si1 0.385047 0.746584 0.815259
Si Si2 0.188225 0.460377 0.385205
Si Si3 0.902239 0.192385 0.071908
Si Si4 0.913999 0.494613 0.124364
Si Si5 0.417543 0.454101 0.367769
Si Si6 0.649406 0.813735 0.350293
Si Si7 0.269440 0.790737 0.587225
Si Si8 0.756114 0.821737 0.852970
O O1 0.483064 0.604815 0.667394
O O2 0.300865 0.806682 0.751454
O O3 0.377017 0.958663 0.723109
O O4 0.382682 0.612872 0.106035
O O5 0.101513 0.533640 0.595990
O O6 0.272933 0.376294 0.474843
O O7 0.209945 0.276893 0.341869
O O8 0.160491 0.664040 0.135199
O O9 0.923394 0.313875 0.108931
O O10 0.836243 0.133695 0.317576
O O11 0.000000 0.000000 0.000000
O O12 0.835496 0.721998 0.979797
O O13 0.000000 0.500000 0.000000
O O14 0.428979 0.230809 0.479691
O O15 0.342181 0.556776 0.578051
O O16 0.680457 0.790826 0.084963
O O17 0.280276 0.936222 0.301219
#
# Coordination Sequence:
#
# PCOD8014900 Si02
#       8
#     2   2   2   2   2   2   2   2
#     4  11  24  42  68 101 130 183 218 268 342 385
#     4  10  21  42  63  89 127 173 217 258 331 393
#     4  11  27  42  65 101 128 169 221 277 332 388
#     4  10  24  42  63  90 124 169 222 270 329 396
#     4  11  24  42  67  99 138 168 228 277 319 403
#     4  11  21  43  66  97 132 177 221 268 331 388
#     4  12  23  44  65  93 138 171 218 278 330 393
#     4  10  22  38  67  91 125 179 214 263 335 386
#
# _framework density 21.492327
#
# number of rings (size 3 to 8) (size 9 to 14) (size 15 to 20)
#    0.000    1.250    2.500    3.750    3.500    1.500 
#    2.250    0.625    0.000    0.000    0.000    0.000 
#    0.000    0.000    0.000    0.000    0.000    0.000 
#
# Total GULP energy -198268.256073 kJ/mol
# GULP energy per Si atom -12391.766005 kJ/mol
# Density = 2.144341 g / cm^3
# Si number density = 21.492327 Si / 1000 Ang^3
#
#
#
# Elastic Constant Matrix: (Units=GPa)
#
#
# Indices 1 2 3 4 5 6 
#
# 1 102.2073 27.0369 40.8756 2.6905 -22.1737 8.2578
# 2 27.0369 94.0280 39.6484 2.9982 -7.9197 9.0434
# 3 40.8756 39.6484 108.6808 0.1382 -6.4493 9.8843
# 4 2.6905 2.9982 0.1382 45.8573 -0.6344 -4.1611
# 5 -22.1737 -7.9197 -6.4493 -0.6344 33.1545 3.7127
# 6 8.2578 9.0434 9.8843 -4.1611 3.7127 30.8732
#
#
#
# Elastic Compliance Matrix: (Units=1/GPa)
#
#
# Indices 1 2 3 4 5 6 
#
# 1 0.013825 -0.001258 -0.003942 -0.000891 0.008521 -0.003212
# 2 -0.001258 0.013098 -0.003963 -0.000980 0.001786 -0.002578
# 3 -0.003942 -0.003963 0.012207 0.000301 -0.001032 -0.001528
# 4 -0.000891 -0.000980 0.000301 0.022231 -0.000739 0.003514
# 5 0.008521 0.001786 -0.001032 -0.000739 0.036857 -0.007004
# 6 -0.003212 -0.002578 -0.001528 0.003514 -0.007004 0.035810
#
#
# Mechanical properties :
#
#
# Convention : Reuss Voigt Hill
#
# Bulk Modulus (GPa) = 48.06906 57.78200 52.92553
# Shear Modulus (GPa) = 31.38952 35.13400 33.26176
#
# Velocity S-wave (km/s) = 3.82579 4.04756 3.93824
# Velocity P-wave (km/s) = 6.47532 6.98476 6.73486
#
# Compressibility (1/GPa) = 0.02080340
#
# Stress axis : x y z
#
# Youngs Moduli (GPa) = 72.33309 76.34903 81.91977
#
# Poissons Ratio (x) = 0.09605 0.32291
# Poissons Ratio (y) = 0.09100 0.32468
# Poissons Ratio (z) = 0.28512 0.30260
#
# Static dielectric constant tensor:
#      x y z
#    x 3.668410 -0.001210 -0.031540 
#    y -0.001210 3.511270 0.133970 
#    z -0.031540 0.133970 4.188150 
# 
# 
# High freq. dielectric constant tensor:
#      x y z
#    x 1.831950 -0.002070 -0.005510 
#    y -0.002070 1.848280 -0.000910 
#    z -0.005510 -0.000910 1.857420 
# 
# From -- ./inp_files/45826.got.cif
#   From: 2010.06.25/outbox.cif.g09.slc.cpg/sg2_23_cif.got.tgz:45826.got - 2010.06.27 13:26:56.
