data_PCOD8014369
_publ_section_title
;
Structure prediction by ZEFSAII (Michael W. Deem and Ramdas Pophale) SiO2 
 PCOD8014369
Probable space group: P -1
;
_chemical_formula_sum "Si O2"
_cell_formula_units_Z 16
_cell_length_a 9.795232
_cell_length_b 12.964193
_cell_length_c 14.464141
_cell_angle_alpha 63.175433
_cell_angle_beta 43.393912
_cell_angle_gamma 38.500810
_cell_volume 755.366023
_symmetry_space_group_name_H-M "P -1"
_symmetry_group_IT_number 2
_symmetry_cell_setting 'triclinic'
loop_
_space_group_symop_operation_xyz
x,y,z
-x,-y,-z
loop_
_atom_site_type_symbol
_atom_site_label
_atom_site_fract_x
_atom_site_fract_y
_atom_site_fract_z
Si Si1 0.396086 0.925080 0.621381
Si Si2 0.167492 0.679532 0.093711
Si Si3 0.804284 0.437105 0.369012
Si Si4 0.355092 0.086482 0.320344
Si Si5 0.320758 0.259036 0.612855
Si Si6 0.210851 0.127077 0.964716
Si Si7 0.799769 0.119971 0.891123
Si Si8 0.161402 0.339148 0.050191
O O1 0.484520 0.887543 0.702057
O O2 0.578661 0.754795 0.536672
O O3 0.500000 0.000000 0.500000
O O4 0.042651 0.065039 0.721670
O O5 0.162990 0.818487 0.059910
O O6 0.977682 0.691077 0.259080
O O7 0.022210 0.710860 0.054169
O O8 0.500000 0.500000 0.000000
O O9 0.500000 0.500000 0.500000
O O10 0.745015 0.593456 0.364583
O O11 0.016996 0.273350 0.400078
O O12 0.943964 0.386989 0.218103
O O13 0.411077 0.931203 0.393086
O O14 0.486963 0.034493 0.172764
O O15 0.269017 0.182181 0.001805
O O16 0.077249 0.062165 0.085197
O O17 0.459260 0.273357 0.965373
O O18 0.000000 0.500000 0.000000
#
# Coordination Sequence:
#
# PCOD8014369 Si02
#       8
#     2   2   2   2   2   2   2   2
#     4  10  21  41  67 102 132 174 228 279 349 417
#     4  11  22  40  68 100 132 177 223 286 345 404
#     4  12  28  46  68 102 140 186 235 283 346 421
#     4  10  22  45  70  97 140 173 229 292 340 412
#     4  10  23  45  67  97 143 176 224 285 353 408
#     4  11  23  41  66  99 132 175 228 283 343 399
#     4  12  22  39  72  95 128 176 230 278 337 415
#     4  12  27  46  66 100 142 181 233 288 346 418
#
# _framework density 21.181785000000001
#
# number of rings (size 3 to 8) (size 9 to 14) (size 15 to 20)
#    0.000    1.000    5.000    3.750    1.750    3.000 
#    2.250    0.000    0.000    0.000    0.000    0.000 
#    0.000    0.000    0.000    0.000    0.000    0.000 
#
# Total GULP energy -198224.172801 kJ/mol
# GULP energy per Si atom -12389.010800 kJ/mol
# Density = 2.113357 g / cm^3
# Si number density = 21.181785 Si / 1000 Ang^3
#
#
#
# Elastic Constant Matrix: (Units=GPa)
#
#
# Indices 1 2 3 4 5 6 
#
# 1 107.1337 40.8660 60.6673 14.8658 -2.2425 16.1127
# 2 40.8660 123.3195 43.5969 10.6665 -7.4705 1.1098
# 3 60.6673 43.5969 146.5457 20.1683 -12.5417 -3.9496
# 4 14.8658 10.6665 20.1683 25.3492 2.1261 -10.6469
# 5 -2.2425 -7.4705 -12.5417 2.1261 42.4630 13.0644
# 6 16.1127 1.1098 -3.9496 -10.6469 13.0644 44.2504
#
#
#
# Elastic Compliance Matrix: (Units=1/GPa)
#
#
# Indices 1 2 3 4 5 6 
#
# 1 0.015297 -0.002582 -0.004519 -0.007997 0.002012 -0.008427
# 2 -0.002582 0.009709 -0.001501 -0.001560 0.001263 -0.000186
# 3 -0.004519 -0.001501 0.009999 -0.004561 0.002446 0.000756
# 4 -0.007997 -0.001560 -0.004561 0.057593 -0.010970 0.019640
# 5 0.002012 0.001263 0.002446 -0.010970 0.028741 -0.011671
# 6 -0.008427 -0.000186 0.000756 0.019640 -0.011671 0.033910
#
#
# Mechanical properties :
#
#
# Convention : Reuss Voigt Hill
#
# Bulk Modulus (GPa) = 56.18174 74.13992 65.16083
# Shear Modulus (GPa) = 28.02891 37.87045 32.94968
#
# Velocity S-wave (km/s) = 3.64160 4.23292 3.94835
# Velocity P-wave (km/s) = 6.65304 7.67905 7.18438
#
# Compressibility (1/GPa) = 0.01779938
#
# Stress axis : x y z
#
# Youngs Moduli (GPa) = 65.37133 103.00037 100.01359
#
# Poissons Ratio (x) = 0.26597 0.45195
# Poissons Ratio (y) = 0.16881 0.15016
# Poissons Ratio (z) = 0.29541 0.15465
#
# Static dielectric constant tensor:
#      x y z
#    x 4.554500 0.298240 0.279300 
#    y 0.298240 3.884500 0.212880 
#    z 0.279300 0.212880 4.706180 
# 
# 
# High freq. dielectric constant tensor:
#      x y z
#    x 1.826920 0.013240 0.002970 
#    y 0.013240 1.831900 0.015150 
#    z 0.002970 0.015150 1.834720 
# 
# From -- ./inp_files/357400.got.cif
#   From: 2010.06.25/outbox.cif.g09.slc.cpg/sg2_179_cif.got.tgz:357400.got - 2010.06.27 13:26:56.
