data_PCOD8014373
_publ_section_title
;
Structure prediction by ZEFSAII (Michael W. Deem and Ramdas Pophale) SiO2 
 PCOD8014373
Probable space group: P -1
;
_chemical_formula_sum "Si O2"
_cell_formula_units_Z 14
_cell_length_a 6.814851
_cell_length_b 10.256809
_cell_length_c 11.464524
_cell_angle_alpha 56.151813
_cell_angle_beta 92.767000
_cell_angle_gamma 72.420406
_cell_volume 610.273498
_symmetry_space_group_name_H-M "P -1"
_symmetry_group_IT_number 2
_symmetry_cell_setting 'triclinic'
loop_
_space_group_symop_operation_xyz
x,y,z
-x,-y,-z
loop_
_atom_site_type_symbol
_atom_site_label
_atom_site_fract_x
_atom_site_fract_y
_atom_site_fract_z
Si Si1 0.613741 0.233877 0.945799
Si Si2 0.225709 0.253285 0.067716
Si Si3 0.407462 0.238517 0.454380
Si Si4 0.782598 0.507344 0.851840
Si Si5 0.400617 0.695066 0.355121
Si Si6 0.007175 0.995228 0.803699
Si Si7 0.783209 0.035385 0.412873
O O1 0.651117 0.389666 0.934102
O O2 0.540138 0.284723 0.785612
O O3 0.428943 0.189678 0.020642
O O4 0.842645 0.067892 0.044390
O O5 0.291134 0.324610 0.151934
O O6 0.159812 0.095600 0.171200
O O7 0.034976 0.404684 0.923075
O O8 0.256748 0.432760 0.315082
O O9 0.486038 0.215604 0.601016
O O10 0.603353 0.196880 0.389216
O O11 0.273179 0.126309 0.487181
O O12 0.500000 0.500000 0.500000
O O13 0.139768 0.799938 0.305311
O O14 0.185181 0.935201 0.736664
O O15 0.000000 0.000000 0.500000
#
# Coordination Sequence:
#
# PCOD8014373 Si02
#       7
#     2   2   2   2   2   2   2
#     4  11  24  45  69  95 140 186 223 279 335 408
#     4  10  23  42  70 102 133 174 233 280 342 401
#     4  11  24  42  71 102 139 174 228 280 351 399
#     4  10  21  41  67 102 136 172 225 286 340 401
#     4  12  26  48  66  99 142 184 229 278 340 412
#     4  11  25  45  72  99 134 182 231 284 337 400
#     4  11  23  43  72 104 133 175 225 292 343 400
#
# _framework density 22.940536999999999
#
# number of rings (size 3 to 8) (size 9 to 14) (size 15 to 20)
#    0.000    1.143    2.857    2.571    4.000    5.143 
#    5.143    1.429    0.000    0.000    0.000    0.000 
#    0.000    0.000    0.000    0.000    0.000    0.000 
#
# Total GULP energy -173537.839050 kJ/mol
# GULP energy per Si atom -12395.559932 kJ/mol
# Density = 2.288832 g / cm^3
# Si number density = 22.940537 Si / 1000 Ang^3
#
#
#
# Elastic Constant Matrix: (Units=GPa)
#
#
# Indices 1 2 3 4 5 6 
#
# 1 121.6239 40.2343 54.4405 6.8158 -5.5539 -7.8141
# 2 40.2343 80.7120 40.6511 -4.8283 -1.0678 -18.9297
# 3 54.4405 40.6511 138.3755 -3.9004 21.7777 -12.9619
# 4 6.8158 -4.8283 -3.9004 32.2112 -4.8867 -2.6828
# 5 -5.5539 -1.0678 21.7777 -4.8867 43.2148 2.4018
# 6 -7.8141 -18.9297 -12.9619 -2.6828 2.4018 13.0172
#
#
#
# Elastic Compliance Matrix: (Units=1/GPa)
#
#
# Indices 1 2 3 4 5 6 
#
# 1 0.011952 -0.005496 -0.004374 -0.003899 0.003532 -0.006629
# 2 -0.005496 0.023630 -0.001652 0.007047 -0.000211 0.030909
# 3 -0.004374 -0.001652 0.011224 0.001693 -0.006495 0.007695
# 4 -0.003899 0.007047 0.001693 0.034778 0.001840 0.016421
# 5 0.003532 -0.000211 -0.006495 0.001840 0.027591 -0.009366
# 6 -0.006629 0.030909 0.007695 0.016421 -0.009366 0.130564
#
#
# Mechanical properties :
#
#
# Convention : Reuss Voigt Hill
#
# Bulk Modulus (GPa) = 42.08733 67.92925 55.00829
# Shear Modulus (GPa) = 18.47029 31.38103 24.92566
#
# Velocity S-wave (km/s) = 2.84057 3.70256 3.29984
# Velocity P-wave (km/s) = 5.39857 6.92488 6.20880
#
# Compressibility (1/GPa) = 0.02376012
#
# Stress axis : x y z
#
# Youngs Moduli (GPa) = 83.66690 42.31964 89.09551
#
# Poissons Ratio (x) = 0.23259 0.38974
# Poissons Ratio (y) = 0.45983 0.14722
# Poissons Ratio (z) = 0.36600 0.06993
#
# Static dielectric constant tensor:
#      x y z
#    x 4.288230 -0.096710 0.124230 
#    y -0.096710 4.267470 0.201530 
#    z 0.124230 0.201530 4.470280 
# 
# 
# High freq. dielectric constant tensor:
#      x y z
#    x 1.908230 0.002590 0.023970 
#    y 0.002590 1.892210 -0.003330 
#    z 0.023970 -0.003330 1.921450 
# 
# From -- ./inp_files/127238.got.cif
#   From: 2010.06.25/outbox.cif.g09.slc.cpg/sg2_64_cif.got.tgz:127238.got - 2010.06.27 13:26:56.
