data_PCOD8014240
_publ_section_title
;
Structure prediction by ZEFSAII (Michael W. Deem and Ramdas Pophale) SiO2 
 PCOD8014240
Probable space group: P -1
;
_chemical_formula_sum "Si O2"
_cell_formula_units_Z 14
_cell_length_a 8.798001
_cell_length_b 14.064062
_cell_length_c 14.387778
_cell_angle_alpha 44.715174
_cell_angle_beta 151.179469
_cell_angle_gamma 135.970745
_cell_volume 578.927613
_symmetry_space_group_name_H-M "P -1"
_symmetry_group_IT_number 2
_symmetry_cell_setting 'triclinic'
loop_
_space_group_symop_operation_xyz
x,y,z
-x,-y,-z
loop_
_atom_site_type_symbol
_atom_site_label
_atom_site_fract_x
_atom_site_fract_y
_atom_site_fract_z
Si Si1 0.770006 0.861199 0.393926
Si Si2 0.222659 0.834856 0.804967
Si Si3 0.881204 0.582016 0.460782
Si Si4 0.884733 0.571562 0.150366
Si Si5 0.211995 0.159513 0.024392
Si Si6 0.284923 0.664775 0.130907
Si Si7 0.329261 0.867255 0.559368
O O1 0.513944 0.743776 0.281823
O O2 0.868662 0.797312 0.588069
O O3 0.113567 0.918745 0.484047
O O4 0.629657 0.995096 0.235051
O O5 0.506004 0.782383 0.942405
O O6 0.169109 0.766924 0.926348
O O7 0.492675 0.574703 0.249686
O O8 0.000000 0.500000 0.500000
O O9 0.930622 0.524397 0.629069
O O10 0.103982 0.743976 0.460066
O O11 0.974987 0.571366 0.088376
O O12 0.500000 0.500000 0.000000
O O13 0.994953 0.726303 0.153862
O O14 0.380273 0.176980 0.203504
O O15 0.000000 0.000000 0.000000
O O16 0.500000 0.000000 0.500000
#
# Coordination Sequence:
#
# PCOD8014240 Si02
#       7
#     2   2   2   2   2   2   2
#     4   9  21  40  66 101 147 178 233 302 352 431
#     4  10  21  41  66 105 139 182 242 291 357 429
#     4  11  25  49  71 104 146 190 241 297 359 440
#     4  12  26  48  70 102 147 188 242 301 366 423
#     4  11  24  41  70 103 138 184 234 296 352 430
#     4  11  24  44  73  98 139 198 237 293 363 434
#     4  10  23  40  68 103 141 180 233 299 356 418
#
# _framework density 24.182642000000001
#
# number of rings (size 3 to 8) (size 9 to 14) (size 15 to 20)
#    0.000    1.429    1.429    2.571    8.000    0.000 
#    2.571    1.429    0.000    0.000    0.000    0.000 
#    0.000    0.000    0.000    0.000    0.000    0.000 
#
# Total GULP energy -173548.215463 kJ/mol
# GULP energy per Si atom -12396.301105 kJ/mol
# Density = 2.412760 g / cm^3
# Si number density = 24.182642 Si / 1000 Ang^3
#
#
#
# Elastic Constant Matrix: (Units=GPa)
#
#
# Indices 1 2 3 4 5 6 
#
# 1 129.3124 44.5792 50.2724 -11.1986 -1.3277 10.1583
# 2 44.5792 95.7637 22.1092 -9.1119 -2.8915 5.6082
# 3 50.2724 22.1092 109.9341 -12.0153 -8.7416 14.7720
# 4 -11.1986 -9.1119 -12.0153 32.0421 -3.5760 -2.3697
# 5 -1.3277 -2.8915 -8.7416 -3.5760 40.1303 -9.6077
# 6 10.1583 5.6082 14.7720 -2.3697 -9.6077 44.3630
#
#
#
# Elastic Compliance Matrix: (Units=1/GPa)
#
#
# Indices 1 2 3 4 5 6 
#
# 1 0.010800 -0.003993 -0.003995 0.000983 -0.000900 -0.000780
# 2 -0.003993 0.012632 -0.000381 0.002126 0.000821 -0.000264
# 3 -0.003995 -0.000381 0.011811 0.002986 0.002116 -0.002352
# 4 0.000983 0.002126 0.002986 0.033829 0.004142 0.001216
# 5 -0.000900 0.000821 0.002116 0.004142 0.027092 0.005486
# 6 -0.000780 -0.000264 -0.002352 0.001216 0.005486 0.024790
#
#
# Mechanical properties :
#
#
# Convention : Reuss Voigt Hill
#
# Bulk Modulus (GPa) = 54.04349 63.21464 58.62907
# Shear Modulus (GPa) = 34.75609 37.84372 36.29990
#
# Velocity S-wave (km/s) = 3.79520 3.96019 3.87857
# Velocity P-wave (km/s) = 6.44990 6.86353 6.65993
#
# Compressibility (1/GPa) = 0.01850362
#
# Stress axis : x y z
#
# Youngs Moduli (GPa) = 92.59130 79.16527 84.66939
#
# Poissons Ratio (x) = 0.31612 0.33826
# Poissons Ratio (y) = 0.36974 0.03228
# Poissons Ratio (z) = 0.36991 0.03018
#
# Static dielectric constant tensor:
#      x y z
#    x 4.883400 -0.071740 0.010560 
#    y -0.071740 3.913520 0.104580 
#    z 0.010560 0.104580 4.549770 
# 
# 
# High freq. dielectric constant tensor:
#      x y z
#    x 1.965270 -0.004320 0.004150 
#    y -0.004320 1.949760 -0.008260 
#    z 0.004150 -0.008260 1.965060 
# 
# From -- ./inp_files/505335.got.cif
#   From: 2010.06.25/outbox.cif.g09.slc.cpg/sg2_253_cif.got.tgz:505335.got - 2010.06.27 13:26:56.
