data_PCOD8014519
_publ_section_title
;
Structure prediction by ZEFSAII (Michael W. Deem and Ramdas Pophale) SiO2 
 PCOD8014519
Probable space group: P -1
;
_chemical_formula_sum "Si O2"
_cell_formula_units_Z 14
_cell_length_a 5.501230
_cell_length_b 19.747616
_cell_length_c 8.288512
_cell_angle_alpha 42.601187
_cell_angle_beta 76.617393
_cell_angle_gamma 65.867752
_cell_volume 552.696783
_symmetry_space_group_name_H-M "P -1"
_symmetry_group_IT_number 2
_symmetry_cell_setting 'triclinic'
loop_
_space_group_symop_operation_xyz
x,y,z
-x,-y,-z
loop_
_atom_site_type_symbol
_atom_site_label
_atom_site_fract_x
_atom_site_fract_y
_atom_site_fract_z
Si Si1 0.788011 0.612349 0.778726
Si Si2 0.549092 0.783612 0.747724
Si Si3 0.562803 0.004741 0.794373
Si Si4 0.806243 0.112216 0.094111
Si Si5 0.107193 0.706352 0.376094
Si Si6 0.059654 0.332190 0.854521
Si Si7 0.642275 0.543883 0.585435
O O1 0.567370 0.675015 0.837131
O O2 0.647708 0.595113 0.669726
O O3 0.937796 0.697031 0.572380
O O4 0.000000 0.500000 0.000000
O O5 0.547125 0.874056 0.463223
O O6 0.291210 0.822350 0.837517
O O7 0.816409 0.750452 0.875355
O O8 0.397857 0.947254 0.814962
O O9 0.884464 0.962277 0.795918
O O10 0.500000 0.000000 0.000000
O O11 0.779382 0.196703 0.801149
O O12 0.326447 0.586645 0.519636
O O13 0.928769 0.737404 0.185497
O O14 0.226996 0.409088 0.658754
O O15 0.762958 0.414891 0.803232
#
# Coordination Sequence:
#
# PCOD8014519 Si02
#       7
#     2   2   2   2   2   2   2
#     4  11  25  46  68 111 157 197 256 312 386 463
#     4  12  25  47  76 111 154 202 251 327 385 457
#     4  12  29  53  82 115 154 200 259 327 396 465
#     4  12  27  52  78 117 150 204 265 319 386 465
#     4  11  24  42  74 101 149 205 255 318 385 453
#     4  10  21  41  68 104 143 199 256 312 376 452
#     4  10  21  42  68  99 149 197 255 305 376 453
#
# _framework density 25.330345999999999
#
# number of rings (size 3 to 8) (size 9 to 14) (size 15 to 20)
#    0.000    0.857    2.857    3.429    4.000    2.857 
#    5.143    0.000    0.000    0.000    0.000    0.000 
#    0.000    0.000    0.000    0.000    0.000    0.000 
#
# Total GULP energy -173496.051684 kJ/mol
# GULP energy per Si atom -12392.575120 kJ/mol
# Density = 2.527269 g / cm^3
# Si number density = 25.330346 Si / 1000 Ang^3
#
#
#
# Elastic Constant Matrix: (Units=GPa)
#
#
# Indices 1 2 3 4 5 6 
#
# 1 100.9404 37.2180 32.3152 -5.0332 16.1417 -10.5888
# 2 37.2180 149.6406 43.4649 0.9119 13.0224 -7.4854
# 3 32.3152 43.4649 150.8690 1.9395 23.4201 -7.0995
# 4 -5.0332 0.9119 1.9395 37.2031 -5.2182 10.4071
# 5 16.1417 13.0224 23.4201 -5.2182 43.7597 -4.6528
# 6 -10.5888 -7.4854 -7.0995 10.4071 -4.6528 31.1637
#
#
#
# Elastic Compliance Matrix: (Units=1/GPa)
#
#
# Indices 1 2 3 4 5 6 
#
# 1 0.011887 -0.002198 -0.001390 0.000641 -0.002635 0.002587
# 2 -0.002198 0.007807 -0.001628 -0.000748 -0.000634 0.000913
# 3 -0.001390 -0.001628 0.007969 -0.001277 -0.003326 0.000882
# 4 0.000641 -0.000748 -0.001277 0.030267 0.003228 -0.009878
# 5 -0.002635 -0.000634 -0.003326 0.003228 0.026289 0.001041
# 6 0.002587 0.000913 0.000882 -0.009878 0.001041 0.036842
#
#
# Mechanical properties :
#
#
# Convention : Reuss Voigt Hill
#
# Bulk Modulus (GPa) = 58.03111 69.71624 63.87368
# Shear Modulus (GPa) = 36.43314 41.65541 39.04428
#
# Velocity S-wave (km/s) = 3.79663 4.05963 3.93033
# Velocity P-wave (km/s) = 6.49451 7.03965 6.77257
#
# Compressibility (1/GPa) = 0.01723214
#
# Stress axis : x y z
#
# Youngs Moduli (GPa) = 84.12519 128.08281 125.48192
#
# Poissons Ratio (x) = 0.28151 0.17447
# Poissons Ratio (y) = 0.18489 0.20423
# Poissons Ratio (z) = 0.11697 0.20846
#
# Static dielectric constant tensor:
#      x y z
#    x 4.523010 -0.128050 0.195080 
#    y -0.128050 4.706250 -0.007540 
#    z 0.195080 -0.007540 4.824380 
# 
# 
# High freq. dielectric constant tensor:
#      x y z
#    x 2.001520 -0.010800 0.011280 
#    y -0.010800 2.014300 -0.002720 
#    z 0.011280 -0.002720 2.023200 
# 
# From -- ./inp_files/40188.got.cif
#   From: 2010.06.25/outbox.cif.g09.slc.cpg/sg2_21_cif.got.tgz:40188.got - 2010.06.27 13:26:56.
