data_PCOD8014988
_publ_section_title
;
Structure prediction by ZEFSAII (Michael W. Deem and Ramdas Pophale) SiO2 
 PCOD8014988
Probable space group: P -1
;
_chemical_formula_sum "Si O2"
_cell_formula_units_Z 16
_cell_length_a 8.654040
_cell_length_b 16.164675
_cell_length_c 19.447772
_cell_angle_alpha 20.834944
_cell_angle_beta 122.929996
_cell_angle_gamma 112.865846
_cell_volume 744.272803
_symmetry_space_group_name_H-M "P -1"
_symmetry_group_IT_number 2
_symmetry_cell_setting 'triclinic'
loop_
_space_group_symop_operation_xyz
x,y,z
-x,-y,-z
loop_
_atom_site_type_symbol
_atom_site_label
_atom_site_fract_x
_atom_site_fract_y
_atom_site_fract_z
Si Si1 0.081298 0.287371 0.741047
Si Si2 0.793237 0.619341 0.816127
Si Si3 0.514870 0.122429 0.981144
Si Si4 0.772625 0.127179 0.374643
Si Si5 0.469729 0.969282 0.227649
Si Si6 0.010648 0.161508 0.962682
Si Si7 0.512434 0.583599 0.036464
Si Si8 0.745915 0.488078 0.753415
O O1 0.947715 0.317701 0.753919
O O2 0.000000 0.500000 0.500000
O O3 0.286249 0.300162 0.807043
O O4 0.111177 0.020081 0.919836
O O5 0.619971 0.561281 0.855207
O O6 0.823208 0.519070 0.822994
O O7 0.726744 0.920304 0.567804
O O8 0.000000 0.500000 0.000000
O O9 0.580620 0.916976 0.219930
O O10 0.639616 0.293508 0.878482
O O11 0.500000 0.000000 0.000000
O O12 0.722891 0.374506 0.219374
O O13 0.614408 0.212680 0.208618
O O14 0.000000 0.000000 0.500000
O O15 0.600107 0.757264 0.477782
O O16 0.246354 0.974641 0.166990
O O17 0.440833 0.254448 0.019539
O O18 0.945104 0.363316 0.851836
#
# Coordination Sequence:
#
# PCOD8014988 Si02
#       8
#     2   2   2   2   2   2   2   2
#     4  10  21  42  64  94 134 173 225 276 338 395
#     4  12  25  46  70 104 138 177 232 281 345 414
#     4  11  23  42  67  99 133 177 227 276 332 405
#     4  11  24  44  72  99 130 178 224 280 344 405
#     4  11  25  43  65 100 139 174 227 275 340 404
#     4  10  24  41  63  98 133 174 225 278 328 407
#     4  11  24  44  69  97 138 177 221 284 341 405
#     4  12  25  43  70  98 138 179 227 280 339 400
#
# _framework density 21.497494
#
# number of rings (size 3 to 8) (size 9 to 14) (size 15 to 20)
#    0.000    1.000    5.000    1.125    3.500    0.500 
#    2.250    0.000    0.000    0.000    0.000    0.000 
#    0.000    0.000    0.000    0.000    0.000    0.000 
#
# Total GULP energy -198302.621189 kJ/mol
# GULP energy per Si atom -12393.913824 kJ/mol
# Density = 2.144856 g / cm^3
# Si number density = 21.497494 Si / 1000 Ang^3
#
#
#
# Elastic Constant Matrix: (Units=GPa)
#
#
# Indices 1 2 3 4 5 6 
#
# 1 90.1519 38.1276 57.1039 -2.4736 -4.4344 -7.7878
# 2 38.1276 120.4901 44.2440 12.4411 -0.2668 -16.6961
# 3 57.1039 44.2440 128.1673 12.3294 -14.7993 -10.9885
# 4 -2.4736 12.4411 12.3294 23.5563 -9.8154 -5.3238
# 5 -4.4344 -0.2668 -14.7993 -9.8154 36.4537 -3.2780
# 6 -7.7878 -16.6961 -10.9885 -5.3238 -3.2780 40.3357
#
#
#
# Elastic Compliance Matrix: (Units=1/GPa)
#
#
# Indices 1 2 3 4 5 6 
#
# 1 0.017527 -0.003650 -0.007070 0.008406 0.001605 0.001187
# 2 -0.003650 0.010999 -0.001683 -0.005750 -0.002376 0.002437
# 3 -0.007070 -0.001683 0.012424 -0.004932 0.002925 0.000910
# 4 0.008406 -0.005750 -0.004932 0.056610 0.014812 0.006575
# 5 0.001605 -0.002376 0.002925 0.014812 0.033215 0.004778
# 6 0.001187 0.002437 0.000910 0.006575 0.004778 0.027534
#
#
# Mechanical properties :
#
#
# Convention : Reuss Voigt Hill
#
# Bulk Modulus (GPa) = 61.94749 68.64003 65.29376
# Shear Modulus (GPa) = 26.52588 33.35806 29.94197
#
# Velocity S-wave (km/s) = 3.51651 3.94346 3.73609
# Velocity P-wave (km/s) = 6.73547 7.26176 7.00356
#
# Compressibility (1/GPa) = 0.01614271
#
# Stress axis : x y z
#
# Youngs Moduli (GPa) = 57.05602 90.92141 80.49198
#
# Poissons Ratio (x) = 0.33184 0.56912
# Poissons Ratio (y) = 0.20824 0.13545
# Poissons Ratio (z) = 0.40341 0.15301
#
# Static dielectric constant tensor:
#      x y z
#    x 4.294520 0.012830 -0.178660 
#    y 0.012830 4.154090 0.069480 
#    z -0.178660 0.069480 3.888200 
# 
# 
# High freq. dielectric constant tensor:
#      x y z
#    x 1.856720 -0.002380 -0.015780 
#    y -0.002380 1.851080 0.003590 
#    z -0.015780 0.003590 1.837730 
# 
# From -- ./inp_files/590913.got.cif
#   From: 2010.06.25/outbox.cif.g09.slc.cpg/sg2_296_cif.got.tgz:590913.got - 2010.06.27 13:26:56.
