data_PCOD8014218
_publ_section_title
;
Structure prediction by ZEFSAII (Michael W. Deem and Ramdas Pophale) SiO2 
 PCOD8014218
Probable space group: P -1
;
_chemical_formula_sum "Si O2"
_cell_formula_units_Z 16
_cell_length_a 15.398998
_cell_length_b 9.076690
_cell_length_c 8.948947
_cell_angle_alpha 102.240187
_cell_angle_beta 121.913447
_cell_angle_gamma 116.140687
_cell_volume 773.816157
_symmetry_space_group_name_H-M "P -1"
_symmetry_group_IT_number 2
_symmetry_cell_setting 'triclinic'
loop_
_space_group_symop_operation_xyz
x,y,z
-x,-y,-z
loop_
_atom_site_type_symbol
_atom_site_label
_atom_site_fract_x
_atom_site_fract_y
_atom_site_fract_z
Si Si1 0.716540 0.069711 0.298219
Si Si2 0.974273 0.148183 0.467334
Si Si3 0.779008 0.489677 0.069224
Si Si4 0.362674 0.692856 0.615862
Si Si5 0.662432 0.052183 0.898710
Si Si6 0.145419 0.321062 0.138256
Si Si7 0.886664 0.055608 0.026453
Si Si8 0.541340 0.368860 0.005035
O O1 0.852391 0.101114 0.446582
O O2 0.726640 0.244471 0.419440
O O3 0.687388 0.065631 0.098597
O O4 0.589850 0.857465 0.211750
O O5 0.942516 0.122704 0.259066
O O6 0.107051 0.382635 0.669285
O O7 0.000000 0.000000 0.500000
O O8 0.652244 0.470402 0.995884
O O9 0.721782 0.267797 0.943054
O O10 0.850174 0.614676 0.010905
O O11 0.275979 0.501091 0.389404
O O12 0.397069 0.634504 0.785001
O O13 0.499899 0.873282 0.687633
O O14 0.745194 0.008123 0.871651
O O15 0.003808 0.240008 0.065711
O O16 0.149745 0.146058 0.102731
O O17 0.500000 0.500000 0.000000
#
# Coordination Sequence:
#
# PCOD8014218 Si02
#       8
#     2   2   2   2   2   2   2   2
#     4  10  21  41  65  97 126 166 213 270 318 370
#     4  11  22  40  71  94 124 165 224 270 307 368
#     4  12  23  41  63 100 126 163 220 265 308 380
#     4  11  22  45  65  96 132 170 206 261 330 383
#     4  10  22  41  68  91 125 166 218 266 309 380
#     4  11  26  42  63  91 136 170 208 260 327 385
#     4  10  24  46  62  91 128 172 212 262 323 379
#     4  11  22  41  69  96 127 164 219 267 309 372
#
# _framework density 20.676746000000001
#
# number of rings (size 3 to 8) (size 9 to 14) (size 15 to 20)
#    0.000    1.250    3.750    2.250    5.250    2.500 
#    0.000    0.000    0.000    0.000    0.000    0.000 
#    0.000    0.000    0.000    0.000    0.000    0.000 
#
# Total GULP energy -198405.179819 kJ/mol
# GULP energy per Si atom -12400.323739 kJ/mol
# Density = 2.062968 g / cm^3
# Si number density = 20.676746 Si / 1000 Ang^3
#
#
#
# Elastic Constant Matrix: (Units=GPa)
#
#
# Indices 1 2 3 4 5 6 
#
# 1 187.1754 75.0482 57.3149 9.2607 20.4814 3.9235
# 2 75.0482 130.5813 36.4052 17.7550 9.0119 3.2426
# 3 57.3149 36.4052 82.4202 31.4190 2.0203 -3.3523
# 4 9.2607 17.7550 31.4190 30.2024 -1.0979 5.3239
# 5 20.4814 9.0119 2.0203 -1.0979 29.2630 4.3678
# 6 3.9235 3.2426 -3.3523 5.3239 4.3678 39.9668
#
#
#
# Elastic Compliance Matrix: (Units=1/GPa)
#
#
# Indices 1 2 3 4 5 6 
#
# 1 0.009400 -0.003961 -0.007628 0.007539 -0.004284 -0.001777
# 2 -0.003961 0.010671 0.000051 -0.005193 -0.000757 0.000302
# 3 -0.007628 0.000051 0.028536 -0.028529 0.001268 0.006800
# 4 0.007539 -0.005193 -0.028529 0.065689 0.002508 -0.011736
# 5 -0.004284 -0.000757 0.001268 0.002508 0.037993 -0.003898
# 6 -0.001777 0.000302 0.006800 -0.011736 -0.003898 0.027730
#
#
# Mechanical properties :
#
#
# Convention : Reuss Voigt Hill
#
# Bulk Modulus (GPa) = 39.16832 81.96814 60.56823
# Shear Modulus (GPa) = 23.62893 35.31367 29.47130
#
# Velocity S-wave (km/s) = 3.38417 4.13715 3.77946
# Velocity P-wave (km/s) = 5.85273 7.90886 6.95717
#
# Compressibility (1/GPa) = 0.02553084
#
# Stress axis : x y z
#
# Youngs Moduli (GPa) = 106.38818 93.71257 35.04347
#
# Poissons Ratio (x) = 0.37117 0.26732
# Poissons Ratio (y) = 0.42138 -0.00180
# Poissons Ratio (z) = 0.81156 -0.00480
#
# Static dielectric constant tensor:
#      x y z
#    x 4.246220 0.111400 0.138340 
#    y 0.111400 3.964460 0.264300 
#    z 0.138340 0.264300 3.774270 
# 
# 
# High freq. dielectric constant tensor:
#      x y z
#    x 1.828280 0.002500 0.006120 
#    y 0.002500 1.812480 0.021420 
#    z 0.006120 0.021420 1.795280 
# 
# From -- ./inp_files/179301.got.cif
#   From: 2010.06.25/outbox.cif.g09.slc.cpg/sg2_90_cif.got.tgz:179301.got - 2010.06.27 13:26:56.
