data_PCOD8014740
_publ_section_title
;
Structure prediction by ZEFSAII (Michael W. Deem and Ramdas Pophale) SiO2 
 PCOD8014740
Probable space group: P -1
;
_chemical_formula_sum "Si O2"
_cell_formula_units_Z 16
_cell_length_a 9.738505
_cell_length_b 9.300711
_cell_length_c 11.875654
_cell_angle_alpha 92.992987
_cell_angle_beta 98.984702
_cell_angle_gamma 132.106429
_cell_volume 769.938604
_symmetry_space_group_name_H-M "P -1"
_symmetry_group_IT_number 2
_symmetry_cell_setting 'triclinic'
loop_
_space_group_symop_operation_xyz
x,y,z
-x,-y,-z
loop_
_atom_site_type_symbol
_atom_site_label
_atom_site_fract_x
_atom_site_fract_y
_atom_site_fract_z
Si Si1 0.031184 0.564664 0.340495
Si Si2 0.914688 0.083940 0.033389
Si Si3 0.512184 0.163932 0.058974
Si Si4 0.960725 0.752064 0.691618
Si Si5 0.395279 0.775236 0.672716
Si Si6 0.371650 0.280983 0.430842
Si Si7 0.083158 0.444846 0.924530
Si Si8 0.736816 0.065126 0.454665
O O1 0.128046 0.473171 0.344469
O O2 0.154079 0.774274 0.425103
O O3 0.832258 0.414905 0.378435
O O4 0.997234 0.593186 0.211674
O O5 0.972345 0.181181 0.168234
O O6 0.002713 0.240634 0.951754
O O7 0.686774 0.898827 0.991076
O O8 0.000000 0.000000 0.000000
O O9 0.549853 0.153091 0.191660
O O10 0.684775 0.382152 0.038655
O O11 0.500000 0.000000 0.000000
O O12 0.818728 0.781535 0.645480
O O13 0.139246 0.889694 0.636402
O O14 0.515415 0.721274 0.652223
O O15 0.434438 0.947968 0.609497
O O16 0.500000 0.500000 0.500000
O O17 0.335893 0.140159 0.519063
O O18 0.000000 0.500000 0.000000
#
# Coordination Sequence:
#
# PCOD8014740 Si02
#       8
#     2   2   2   2   2   2   2   2
#     4  10  21  41  71  91 128 165 223 269 318 398
#     4  12  26  45  67 100 142 175 224 274 334 399
#     4  11  22  42  72  98 133 172 228 278 323 397
#     4  11  23  44  64  96 131 169 213 275 330 385
#     4  10  22  41  64  97 126 164 220 270 321 387
#     4  12  25  42  60  95 136 165 213 269 328 394
#     4  11  22  43  70 101 129 182 224 273 331 390
#     4  11  23  41  68  93 122 177 215 258 334 391
#
# _framework density 20.780878000000001
#
# number of rings (size 3 to 8) (size 9 to 14) (size 15 to 20)
#    0.000    1.000    2.500    6.000    3.500    0.500 
#    6.750    0.000    0.000    0.000    0.000    0.000 
#    0.000    0.000    0.000    0.000    0.000    0.000 
#
# Total GULP energy -198313.971754 kJ/mol
# GULP energy per Si atom -12394.623235 kJ/mol
# Density = 2.073358 g / cm^3
# Si number density = 20.780878 Si / 1000 Ang^3
#
#
#
# Elastic Constant Matrix: (Units=GPa)
#
#
# Indices 1 2 3 4 5 6 
#
# 1 150.5845 47.5345 30.8165 1.0435 -1.4083 -12.5469
# 2 47.5345 109.5891 49.4033 -16.6972 -6.2021 -17.8533
# 3 30.8165 49.4033 79.0149 -8.1432 -10.3851 1.3408
# 4 1.0435 -16.6972 -8.1432 29.7975 -2.0193 3.8399
# 5 -1.4083 -6.2021 -10.3851 -2.0193 34.7187 0.3484
# 6 -12.5469 -17.8533 1.3408 3.8399 0.3484 31.6606
#
#
#
# Elastic Compliance Matrix: (Units=1/GPa)
#
#
# Indices 1 2 3 4 5 6 
#
# 1 0.008080 -0.002812 -0.001821 -0.002679 -0.000896 0.002028
# 2 -0.002812 0.016449 -0.008636 0.005986 0.000511 0.007795
# 3 -0.001821 -0.008636 0.019642 0.001754 0.004428 -0.006685
# 4 -0.002679 0.005986 0.001754 0.038051 0.003723 -0.002416
# 5 -0.000896 0.000511 0.004428 0.003723 0.030409 -0.001040
# 6 0.002028 0.007795 -0.006685 -0.002416 -0.001040 0.037372
#
#
# Mechanical properties :
#
#
# Convention : Reuss Voigt Hill
#
# Bulk Modulus (GPa) = 56.71438 66.07745 61.39592
# Shear Modulus (GPa) = 27.40942 33.33095 30.37018
#
# Velocity S-wave (km/s) = 3.63571 4.00925 3.82704
# Velocity P-wave (km/s) = 6.70637 7.30057 7.00977
#
# Compressibility (1/GPa) = 0.01763221
#
# Stress axis : x y z
#
# Youngs Moduli (GPa) = 123.75591 60.79517 50.91195
#
# Poissons Ratio (x) = 0.17097 0.09273
# Poissons Ratio (y) = 0.34803 0.43967
# Poissons Ratio (z) = 0.22539 0.52502
#
# Static dielectric constant tensor:
#      x y z
#    x 4.301160 -0.015480 0.125410 
#    y -0.015480 3.732070 -0.106400 
#    z 0.125410 -0.106400 3.919250 
# 
# 
# High freq. dielectric constant tensor:
#      x y z
#    x 1.825640 -0.003350 -0.007700 
#    y -0.003350 1.810950 -0.006180 
#    z -0.007700 -0.006180 1.832440 
# 
# From -- ./inp_files/283238.got.cif
#   From: 2010.06.25/outbox.cif.g09.slc.cpg/sg2_142_cif.got.tgz:283238.got - 2010.06.27 13:26:56.
