data_PCOD8014398
_publ_section_title
;
Structure prediction by ZEFSAII (Michael W. Deem and Ramdas Pophale) SiO2 
 PCOD8014398
Probable space group: P -1
;
_chemical_formula_sum "Si O2"
_cell_formula_units_Z 16
_cell_length_a 7.723508
_cell_length_b 8.907684
_cell_length_c 23.618774
_cell_angle_alpha 140.017622
_cell_angle_beta 121.905728
_cell_angle_gamma 49.402106
_cell_volume 791.295896
_symmetry_space_group_name_H-M "P -1"
_symmetry_group_IT_number 2
_symmetry_cell_setting 'triclinic'
loop_
_space_group_symop_operation_xyz
x,y,z
-x,-y,-z
loop_
_atom_site_type_symbol
_atom_site_label
_atom_site_fract_x
_atom_site_fract_y
_atom_site_fract_z
Si Si1 0.054899 0.619744 0.698756
Si Si2 0.270139 0.237967 0.782577
Si Si3 0.407033 0.703503 0.855190
Si Si4 0.831047 0.453183 0.702389
Si Si5 0.521676 0.973841 0.852979
Si Si6 0.346280 0.876292 0.271719
Si Si7 0.503964 0.783622 0.396216
Si Si8 0.748935 0.217041 0.030961
O O1 0.194624 0.646793 0.784507
O O2 0.234272 0.435049 0.629697
O O3 0.907365 0.480053 0.659037
O O4 0.901177 0.900208 0.724492
O O5 0.471157 0.101993 0.732630
O O6 0.257865 0.504750 0.882024
O O7 0.041435 0.255711 0.720190
O O8 0.325930 0.058265 0.795985
O O9 0.430989 0.893099 0.869190
O O10 0.633189 0.418745 0.814504
O O11 0.348574 0.849645 0.947388
O O12 0.745715 0.733352 0.798233
O O13 0.638290 0.354185 0.639929
O O14 0.589786 0.204278 0.948403
O O15 0.396703 0.923451 0.358689
O O16 0.500000 0.000000 0.500000
O O17 0.000000 0.000000 0.000000
#
# Coordination Sequence:
#
# PCOD8014398 Si02
#       8
#     2   2   2   2   2   2   2   2
#     4  11  21  43  67  95 126 171 212 261 316 390
#     4  11  23  40  66  94 127 178 218 261 317 379
#     4  10  22  40  59  93 132 167 219 269 309 372
#     4  12  22  43  69  91 128 172 213 261 322 385
#     4  12  22  38  63  95 125 177 222 260 321 371
#     4  10  21  41  67  91 129 166 211 262 319 379
#     4  11  26  45  67 100 131 160 208 270 325 388
#     4  11  21  39  58  88 138 172 216 271 313 360
#
# _framework density 20.219995000000001
#
# number of rings (size 3 to 8) (size 9 to 14) (size 15 to 20)
#    0.000    1.000    8.750    0.750    1.750    1.000 
#    0.000    1.250    0.000    0.000    0.000    0.000 
#    0.000    0.000    0.000    0.000    0.000    0.000 
#
# Total GULP energy -198352.955066 kJ/mol
# GULP energy per Si atom -12397.059692 kJ/mol
# Density = 2.017397 g / cm^3
# Si number density = 20.219995 Si / 1000 Ang^3
#
#
#
# Elastic Constant Matrix: (Units=GPa)
#
#
# Indices 1 2 3 4 5 6 
#
# 1 112.9310 35.0367 41.1524 9.4146 -3.0170 1.8625
# 2 35.0367 118.4532 17.4983 2.8905 -7.7315 -3.7265
# 3 41.1524 17.4983 97.5071 1.6853 -4.0311 -2.3644
# 4 9.4146 2.8905 1.6853 17.6373 0.6433 -5.1207
# 5 -3.0170 -7.7315 -4.0311 0.6433 20.3038 5.5550
# 6 1.8625 -3.7265 -2.3644 -5.1207 5.5550 29.5402
#
#
#
# Elastic Compliance Matrix: (Units=1/GPa)
#
#
# Indices 1 2 3 4 5 6 
#
# 1 0.011924 -0.002748 -0.004464 -0.006299 0.000776 -0.002693
# 2 -0.002748 0.009530 -0.000412 0.000072 0.002916 0.000807
# 3 -0.004464 -0.000412 0.012267 0.001599 0.001220 0.001259
# 4 -0.006299 0.000072 0.001599 0.063818 -0.006100 0.012744
# 5 0.000776 0.002916 0.001220 -0.006100 0.053859 -0.010769
# 6 -0.002693 0.000807 0.001259 0.012744 -0.010769 0.038459
#
#
# Mechanical properties :
#
#
# Convention : Reuss Voigt Hill
#
# Bulk Modulus (GPa) = 54.12996 57.36289 55.74643
# Shear Modulus (GPa) = 23.66734 29.17652 26.42193
#
# Velocity S-wave (km/s) = 3.42496 3.80274 3.61878
# Velocity P-wave (km/s) = 6.51683 6.90740 6.71495
#
# Compressibility (1/GPa) = 0.01847406
#
# Stress axis : x y z
#
# Youngs Moduli (GPa) = 83.86150 104.93497 81.52086
#
# Poissons Ratio (x) = 0.28837 0.36390
# Poissons Ratio (y) = 0.23046 0.03355
# Poissons Ratio (z) = 0.37435 0.04318
#
# Static dielectric constant tensor:
#      x y z
#    x 3.762710 0.032060 -0.192450 
#    y 0.032060 3.926440 0.055480 
#    z -0.192450 0.055480 3.574090 
# 
# 
# High freq. dielectric constant tensor:
#      x y z
#    x 1.798560 0.003500 -0.016060 
#    y 0.003500 1.793750 -0.002340 
#    z -0.016060 -0.002340 1.762660 
# 
# From -- ./inp_files/600580.got.cif
#   From: 2010.06.25/outbox.cif.g09.slc.cpg/sg2_301_cif.got.tgz:600580.got - 2010.06.27 13:26:56.
