data_PCOD8014631
_publ_section_title
;
Structure prediction by ZEFSAII (Michael W. Deem and Ramdas Pophale) SiO2 
 PCOD8014631
Probable space group: P -1
;
_chemical_formula_sum "Si O2"
_cell_formula_units_Z 16
_cell_length_a 9.605757
_cell_length_b 11.662255
_cell_length_c 8.853834
_cell_angle_alpha 110.537759
_cell_angle_beta 118.199593
_cell_angle_gamma 58.789360
_cell_volume 740.185899
_symmetry_space_group_name_H-M "P -1"
_symmetry_group_IT_number 2
_symmetry_cell_setting 'triclinic'
loop_
_space_group_symop_operation_xyz
x,y,z
-x,-y,-z
loop_
_atom_site_type_symbol
_atom_site_label
_atom_site_fract_x
_atom_site_fract_y
_atom_site_fract_z
Si Si1 0.160078 0.670224 0.513516
Si Si2 0.920196 0.537038 0.812065
Si Si3 0.599999 0.820923 0.813713
Si Si4 0.575677 0.300185 0.862061
Si Si5 0.343384 0.802833 0.455786
Si Si6 0.987092 0.953233 0.638712
Si Si7 0.236238 0.550050 0.816677
Si Si8 0.679365 0.065747 0.020260
O O1 0.103941 0.591814 0.322972
O O2 0.283718 0.731276 0.526905
O O3 0.250892 0.572449 0.655431
O O4 0.995958 0.801663 0.560746
O O5 0.736919 0.665555 0.797095
O O6 0.045192 0.566568 0.773015
O O7 0.000000 0.500000 0.000000
O O8 0.479197 0.854723 0.619032
O O9 0.478206 0.847957 0.909432
O O10 0.699573 0.916659 0.920800
O O11 0.569556 0.307099 0.680623
O O12 0.382185 0.401129 0.865748
O O13 0.723946 0.342091 0.018402
O O14 0.629414 0.149351 0.878845
O O15 0.198299 0.931928 0.351375
O O16 0.136887 0.952852 0.825805
O O17 0.000000 0.000000 0.500000
#
# Coordination Sequence:
#
# PCOD8014631 Si02
#       8
#     2   2   2   2   2   2   2   2
#     4  11  23  44  68  93 133 179 219 266 330 396
#     4  12  27  41  66 100 133 175 219 276 330 392
#     4  11  25  43  67  98 135 171 224 267 328 393
#     4  11  24  42  68  97 133 172 223 273 328 391
#     4  11  24  42  69 101 128 177 224 272 322 396
#     4  10  21  41  69  96 128 175 220 263 331 384
#     4  11  24  44  64  96 136 176 218 270 336 391
#     4  11  23  44  69  98 135 173 216 279 325 391
#
# _framework density 21.616191000000001
#
# number of rings (size 3 to 8) (size 9 to 14) (size 15 to 20)
#    0.000    1.000    3.750    2.625    5.250    7.000 
#    0.000    0.000    0.000    0.000    0.000    0.000 
#    0.000    0.000    0.000    0.000    0.000    0.000 
#
# Total GULP energy -198364.795412 kJ/mol
# GULP energy per Si atom -12397.799713 kJ/mol
# Density = 2.156699 g / cm^3
# Si number density = 21.616191 Si / 1000 Ang^3
#
#
#
# Elastic Constant Matrix: (Units=GPa)
#
#
# Indices 1 2 3 4 5 6 
#
# 1 55.9149 43.5173 40.5765 1.1457 3.5053 -14.0398
# 2 43.5173 121.5871 54.8962 3.2893 18.9389 0.6132
# 3 40.5765 54.8962 150.4541 14.1319 4.1595 9.3747
# 4 1.1457 3.2893 14.1319 45.0584 5.2071 -0.9050
# 5 3.5053 18.9389 4.1595 5.2071 33.0036 -5.7447
# 6 -14.0398 0.6132 9.3747 -0.9050 -5.7447 22.4460
#
#
#
# Elastic Compliance Matrix: (Units=1/GPa)
#
#
# Indices 1 2 3 4 5 6 
#
# 1 0.042023 -0.012514 -0.009299 0.002354 0.009258 0.032975
# 2 -0.012514 0.014611 -0.001133 0.000414 -0.008713 -0.009966
# 3 -0.009299 -0.001133 0.010546 -0.003080 -0.001047 -0.010582
# 4 0.002354 0.000414 -0.003080 0.023509 -0.003313 0.002847
# 5 0.009258 -0.008713 -0.001047 -0.003313 0.037755 0.015995
# 6 0.032975 -0.009966 -0.010582 0.002847 0.015995 0.074077
#
#
# Mechanical properties :
#
#
# Convention : Reuss Voigt Hill
#
# Bulk Modulus (GPa) = 46.97669 67.32624 57.15147
# Shear Modulus (GPa) = 19.56873 32.69935 26.13404
#
# Velocity S-wave (km/s) = 3.01205 3.89360 3.48084
# Velocity P-wave (km/s) = 5.82031 7.17128 6.53082
#
# Compressibility (1/GPa) = 0.02128715
#
# Stress axis : x y z
#
# Youngs Moduli (GPa) = 23.79653 68.44011 94.82693
#
# Poissons Ratio (x) = 0.85646 0.88180
# Poissons Ratio (y) = 0.29779 0.10746
# Poissons Ratio (z) = 0.22128 0.07756
#
# Static dielectric constant tensor:
#      x y z
#    x 3.560270 0.366470 -0.042440 
#    y 0.366470 2.984280 0.202310 
#    z -0.042440 0.202310 3.938950 
# 
# 
# High freq. dielectric constant tensor:
#      x y z
#    x 1.829550 -0.008060 -0.004360 
#    y -0.008060 1.862090 0.004160 
#    z -0.004360 0.004160 1.865230 
# 
# From -- ./inp_files/189557.got.cif
#   From: 2010.06.25/outbox.cif.g09.slc.cpg/sg2_95_cif.got.tgz:189557.got - 2010.06.27 13:26:56.
