data_PCOD8014808
_publ_section_title
;
Structure prediction by ZEFSAII (Michael W. Deem and Ramdas Pophale) SiO2 
 PCOD8014808
Probable space group: P -1
;
_chemical_formula_sum "Si O2"
_cell_formula_units_Z 12
_cell_length_a 10.133802
_cell_length_b 16.003946
_cell_length_c 8.549006
_cell_angle_alpha 114.761964
_cell_angle_beta 137.471904
_cell_angle_gamma 43.644213
_cell_volume 627.071999
_symmetry_space_group_name_H-M "P -1"
_symmetry_group_IT_number 2
_symmetry_cell_setting 'triclinic'
loop_
_space_group_symop_operation_xyz
x,y,z
-x,-y,-z
loop_
_atom_site_type_symbol
_atom_site_label
_atom_site_fract_x
_atom_site_fract_y
_atom_site_fract_z
Si Si1 0.771238 0.959456 0.657072
Si Si2 0.016232 0.264051 0.534056
Si Si3 0.756496 0.175303 0.799651
Si Si4 0.564645 0.552353 0.811525
Si Si5 0.755742 0.622421 0.292140
Si Si6 0.241374 0.683426 0.345384
O O1 0.886799 0.866367 0.539534
O O2 0.500000 0.000000 0.500000
O O3 0.716635 0.080988 0.653546
O O4 0.976161 0.890835 0.924605
O O5 0.718560 0.377929 0.297989
O O6 0.008237 0.259932 0.714017
O O7 0.201898 0.285507 0.648946
O O8 0.504605 0.297967 0.765939
O O9 0.794107 0.209901 0.691175
O O10 0.507860 0.605855 0.625533
O O11 0.733685 0.404823 0.832100
O O12 0.724296 0.576014 0.068083
O O13 0.000000 0.500000 0.500000
#
# Coordination Sequence:
#
# PCOD8014808 Si02
#       6
#     2   2   2   2   2   2
#     4  11  23  42  66  87 124 164 214 259 294 365
#     4  10  21  42  58  89 125 162 204 252 310 357
#     4  11  23  41  64  93 119 164 214 255 303 362
#     4   9  21  42  60  89 136 157 200 256 309 371
#     4  12  24  36  67  96 122 167 207 249 317 369
#     4   9  21  42  63  88 128 167 194 262 315 357
#
# _framework density 19.136559999999999
#
# number of rings (size 3 to 8) (size 9 to 14) (size 15 to 20)
#    1.000    0.667    3.333    1.000    2.333    2.667 
#    3.000    0.833    0.000    0.000    0.000    0.000 
#    0.000    0.000    0.000    0.000    0.000    0.000 
#
# Total GULP energy -148754.109495 kJ/mol
# GULP energy per Si atom -12396.175791 kJ/mol
# Density = 1.909300 g / cm^3
# Si number density = 19.136560 Si / 1000 Ang^3
#
#
#
# Elastic Constant Matrix: (Units=GPa)
#
#
# Indices 1 2 3 4 5 6 
#
# 1 107.2583 42.6447 25.8669 -0.0118 3.0049 13.5415
# 2 42.6447 116.9822 36.9077 17.6316 -5.5156 -2.3656
# 3 25.8669 36.9077 82.8382 13.0607 3.7075 7.5909
# 4 -0.0118 17.6316 13.0607 33.1615 -3.8211 -2.2015
# 5 3.0049 -5.5156 3.7075 -3.8211 24.9666 -2.6945
# 6 13.5415 -2.3656 7.5909 -2.2015 -2.6945 39.3629
#
#
#
# Elastic Compliance Matrix: (Units=1/GPa)
#
#
# Indices 1 2 3 4 5 6 
#
# 1 0.012079 -0.004427 -0.001718 0.002505 -0.002236 -0.004103
# 2 -0.004427 0.012253 -0.003807 -0.004421 0.003450 0.002982
# 3 -0.001718 -0.003807 0.015526 -0.004764 -0.004011 -0.003173
# 4 0.002505 -0.004421 -0.004764 0.035102 0.005028 0.002099
# 5 -0.002236 0.003450 -0.004011 0.005028 0.042987 0.004974
# 6 -0.004103 0.002982 -0.003173 0.002099 0.004974 0.028065
#
#
# Mechanical properties :
#
#
# Convention : Reuss Voigt Hill
#
# Bulk Modulus (GPa) = 50.11933 57.54637 53.83285
# Shear Modulus (GPa) = 28.97421 32.94214 30.95818
#
# Velocity S-wave (km/s) = 3.89533 4.15351 4.02649
# Velocity P-wave (km/s) = 6.81753 7.28964 7.05753
#
# Compressibility (1/GPa) = 0.01995238
#
# Stress axis : x y z
#
# Youngs Moduli (GPa) = 82.79039 81.61479 64.40824
#
# Poissons Ratio (x) = 0.36131 0.11066
# Poissons Ratio (y) = 0.36651 0.24522
# Poissons Ratio (z) = 0.14224 0.31074
#
# Static dielectric constant tensor:
#      x y z
#    x 3.364110 -0.125210 0.056880 
#    y -0.125210 3.643970 0.055060 
#    z 0.056880 0.055060 3.345750 
# 
# 
# High freq. dielectric constant tensor:
#      x y z
#    x 1.736380 -0.006340 0.003060 
#    y -0.006340 1.756880 0.009480 
#    z 0.003060 0.009480 1.729800 
# 
# From -- ./inp_files/59245.got.cif
#   From: 2010.06.25/outbox.cif.g09.slc.cpg/sg2_30_cif.got.tgz:59245.got - 2010.06.27 13:26:56.
