data_PCOD8014849
_publ_section_title
;
Structure prediction by ZEFSAII (Michael W. Deem and Ramdas Pophale) SiO2 
 PCOD8014849
Probable space group: P -1
;
_chemical_formula_sum "Si O2"
_cell_formula_units_Z 16
_cell_length_a 8.642613
_cell_length_b 17.562679
_cell_length_c 19.794065
_cell_angle_alpha 20.459989
_cell_angle_beta 123.972526
_cell_angle_gamma 112.370307
_cell_volume 757.694578
_symmetry_space_group_name_H-M "P -1"
_symmetry_group_IT_number 2
_symmetry_cell_setting 'triclinic'
loop_
_space_group_symop_operation_xyz
x,y,z
-x,-y,-z
loop_
_atom_site_type_symbol
_atom_site_label
_atom_site_fract_x
_atom_site_fract_y
_atom_site_fract_z
Si Si1 0.757989 0.446381 0.928853
Si Si2 0.695914 0.344125 0.415086
Si Si3 0.545677 0.691557 0.811779
Si Si4 0.022679 0.116405 0.055456
Si Si5 0.752678 0.873181 0.168621
Si Si6 0.931195 0.628066 0.275734
Si Si7 0.067962 0.447719 0.902006
Si Si8 0.113394 0.894667 0.480663
O O1 0.556098 0.511967 0.777821
O O2 0.686890 0.571669 0.879595
O O3 0.902856 0.539306 0.848054
O O4 0.893432 0.149682 0.220033
O O5 0.751328 0.562160 0.262444
O O6 0.831378 0.179178 0.521956
O O7 0.762240 0.149012 0.656004
O O8 0.311440 0.918148 0.544514
O O9 0.500000 0.500000 0.000000
O O10 0.692045 0.760509 0.838894
O O11 0.034863 0.207603 0.908349
O O12 0.992431 0.328757 0.924575
O O13 0.819148 0.071602 0.049013
O O14 0.851816 0.798167 0.180983
O O15 0.846527 0.627760 0.443143
O O16 0.500000 0.000000 0.000000
O O17 0.075535 0.688773 0.678920
#
# Coordination Sequence:
#
# PCOD8014849 Si02
#       8
#     2   2   2   2   2   2   2   2
#     4  11  23  40  63  91 126 166 216 256 307 361
#     4  10  22  40  61  93 126 164 203 257 308 362
#     4   9  22  42  60  88 125 169 213 256 312 362
#     4  11  22  42  65  93 129 160 205 253 310 370
#     4  10  24  43  67  94 125 161 201 250 308 369
#     4  10  22  43  67  90 128 163 200 249 310 372
#     4  11  22  39  63  94 122 162 213 259 309 366
#     4  10  21  42  62  85 128 166 207 261 307 361
#
# _framework density 21.116688
#
# number of rings (size 3 to 8) (size 9 to 14) (size 15 to 20)
#    0.000    1.750    2.500    0.750    1.750    4.000 
#    4.500    0.000    0.000    0.000    0.000    0.000 
#    0.000    0.000    0.000    0.000    0.000    0.000 
#
# Total GULP energy -198363.836653 kJ/mol
# GULP energy per Si atom -12397.739791 kJ/mol
# Density = 2.106863 g / cm^3
# Si number density = 21.116688 Si / 1000 Ang^3
#
#
#
# Elastic Constant Matrix: (Units=GPa)
#
#
# Indices 1 2 3 4 5 6 
#
# 1 107.3150 42.8868 68.4184 17.7543 -6.6097 7.8116
# 2 42.8868 109.8115 43.8408 19.8173 4.4885 18.8532
# 3 68.4184 43.8408 140.5618 25.7020 -4.5971 14.3570
# 4 17.7543 19.8173 25.7020 32.4974 -1.1131 4.7319
# 5 -6.6097 4.4885 -4.5971 -1.1131 32.0228 15.5554
# 6 7.8116 18.8532 14.3570 4.7319 15.5554 30.7650
#
#
#
# Elastic Compliance Matrix: (Units=1/GPa)
#
#
# Indices 1 2 3 4 5 6 
#
# 1 0.014722 -0.003272 -0.005790 -0.001347 0.002715 -0.000196
# 2 -0.003272 0.012519 -0.000937 -0.004256 0.000106 -0.005802
# 3 -0.005790 -0.000937 0.011556 -0.004781 0.002251 -0.003751
# 4 -0.001347 -0.004256 -0.004781 0.038170 0.001715 -0.001556
# 5 0.002715 0.000106 0.002251 0.001715 0.043957 -0.024294
# 6 -0.000196 -0.005802 -0.003751 -0.001556 -0.024294 0.050383
#
#
# Mechanical properties :
#
#
# Convention : Reuss Voigt Hill
#
# Bulk Modulus (GPa) = 53.20008 74.22004 63.71006
# Shear Modulus (GPa) = 25.30724 32.55987 28.93355
#
# Velocity S-wave (km/s) = 3.46562 3.93097 3.70560
# Velocity P-wave (km/s) = 6.42356 7.47176 6.96740
#
# Compressibility (1/GPa) = 0.01879696
#
# Stress axis : x y z
#
# Youngs Moduli (GPa) = 67.92630 79.88054 86.53445
#
# Poissons Ratio (x) = 0.26139 0.50105
# Poissons Ratio (y) = 0.22227 0.08112
# Poissons Ratio (z) = 0.39331 0.07488
#
# Static dielectric constant tensor:
#      x y z
#    x 3.845460 0.149400 -0.141540 
#    y 0.149400 4.165370 0.341990 
#    z -0.141540 0.341990 3.901730 
# 
# 
# High freq. dielectric constant tensor:
#      x y z
#    x 1.825900 0.007120 -0.016220 
#    y 0.007120 1.842040 0.017240 
#    z -0.016220 0.017240 1.829640 
# 
# From -- ./inp_files/582413.got.cif
#   From: 2010.06.25/outbox.cif.g09.slc.cpg/sg2_292_cif.got.tgz:582413.got - 2010.06.27 13:26:56.
