data_PCOD8014267
_publ_section_title
;
Structure prediction by ZEFSAII (Michael W. Deem and Ramdas Pophale) SiO2 
 PCOD8014267
Probable space group: P -1
;
_chemical_formula_sum "Si O2"
_cell_formula_units_Z 16
_cell_length_a 16.595367
_cell_length_b 9.720621
_cell_length_c 10.929631
_cell_angle_alpha 116.117199
_cell_angle_beta 36.065733
_cell_angle_gamma 130.251036
_cell_volume 778.875452
_symmetry_space_group_name_H-M "P -1"
_symmetry_group_IT_number 2
_symmetry_cell_setting 'triclinic'
loop_
_space_group_symop_operation_xyz
x,y,z
-x,-y,-z
loop_
_atom_site_type_symbol
_atom_site_label
_atom_site_fract_x
_atom_site_fract_y
_atom_site_fract_z
Si Si1 0.308576 0.395262 0.977005
Si Si2 0.342899 0.367685 0.434434
Si Si3 0.190278 0.208388 0.798229
Si Si4 0.727607 0.359164 0.494707
Si Si5 0.162074 0.891829 0.841655
Si Si6 0.935906 0.603700 0.551413
Si Si7 0.154457 0.008038 0.364539
Si Si8 0.364751 0.112711 0.910321
O O1 0.476385 0.575233 0.799947
O O2 0.200303 0.290839 0.950938
O O3 0.346735 0.279266 0.973717
O O4 0.214563 0.449669 0.199589
O O5 0.331554 0.344819 0.585740
O O6 0.315344 0.531025 0.504147
O O7 0.227348 0.173989 0.435153
O O8 0.213021 0.039241 0.726871
O O9 0.022649 0.165336 0.923344
O O10 0.820769 0.273235 0.285303
O O11 0.862274 0.518856 0.477755
O O12 0.560122 0.194176 0.700592
O O13 0.271955 0.966120 0.858318
O O14 0.000000 0.500000 0.500000
O O15 0.083804 0.816565 0.446183
O O16 0.283079 0.030733 0.111284
O O17 0.000000 0.000000 0.500000
#
# Coordination Sequence:
#
# PCOD8014267 Si02
#       8
#     2   2   2   2   2   2   2   2
#     4  10  21  42  63  90 128 164 199 251 305 364
#     4  11  23  39  66  93 121 162 209 250 301 365
#     4  10  22  39  65  91 123 168 203 242 307 368
#     4  11  23  41  63  94 126 158 201 262 304 353
#     4  10  22  39  65  90 127 162 201 254 302 361
#     4  12  26  42  63  91 126 159 205 257 311 357
#     4  12  22  41  66  90 119 163 211 251 296 373
#     4  10  21  41  66  91 122 164 207 245 307 362
#
# _framework density 20.542439000000002
#
# number of rings (size 3 to 8) (size 9 to 14) (size 15 to 20)
#    0.000    1.250    2.500    3.000    5.250    2.500 
#    4.500    1.250    0.000    0.000    0.000    0.000 
#    0.000    0.000    0.000    0.000    0.000    0.000 
#
# Total GULP energy -198286.299718 kJ/mol
# GULP energy per Si atom -12392.893732 kJ/mol
# Density = 2.049568 g / cm^3
# Si number density = 20.542439 Si / 1000 Ang^3
#
#
#
# Elastic Constant Matrix: (Units=GPa)
#
#
# Indices 1 2 3 4 5 6 
#
# 1 41.7166 23.8883 15.9993 -1.2522 1.0769 -6.6365
# 2 23.8883 110.9979 44.1675 7.9100 -3.7416 -6.1164
# 3 15.9993 44.1675 91.8562 5.5253 10.2864 -14.8322
# 4 -1.2522 7.9100 5.5253 33.9276 2.2012 1.9409
# 5 1.0769 -3.7416 10.2864 2.2012 27.5829 -8.8078
# 6 -6.6365 -6.1164 -14.8322 1.9409 -8.8078 33.3942
#
#
#
# Elastic Compliance Matrix: (Units=1/GPa)
#
#
# Indices 1 2 3 4 5 6 
#
# 1 0.028414 -0.005322 -0.001932 0.002405 -0.000142 0.003637
# 2 -0.005322 0.012654 -0.005460 -0.002534 0.004191 0.000087
# 3 -0.001932 -0.005460 0.015132 -0.001180 -0.004901 0.004113
# 4 0.002405 -0.002534 -0.001180 0.030756 -0.003479 -0.003215
# 5 -0.000142 0.004191 -0.004901 -0.003479 0.042083 0.009864
# 6 0.003637 0.000087 0.004113 -0.003215 0.009864 0.035300
#
#
# Mechanical properties :
#
#
# Convention : Reuss Voigt Hill
#
# Bulk Modulus (GPa) = 32.49647 45.85344 39.17495
# Shear Modulus (GPa) = 24.99684 29.68199 27.33941
#
# Velocity S-wave (km/s) = 3.49211 3.80532 3.65207
# Velocity P-wave (km/s) = 5.66686 6.45578 6.07414
#
# Compressibility (1/GPa) = 0.03077258
#
# Stress axis : x y z
#
# Youngs Moduli (GPa) = 35.19359 79.02665 66.08341
#
# Poissons Ratio (x) = 0.42061 0.12764
# Poissons Ratio (y) = 0.18731 0.36082
# Poissons Ratio (z) = 0.06798 0.43150
#
# Static dielectric constant tensor:
#      x y z
#    x 3.744030 0.007610 0.045850 
#    y 0.007610 3.725420 0.029220 
#    z 0.045850 0.029220 3.715220 
# 
# 
# High freq. dielectric constant tensor:
#      x y z
#    x 1.802320 0.009790 0.000630 
#    y 0.009790 1.804190 -0.007190 
#    z 0.000630 -0.007190 1.810220 
# 
# From -- ./inp_files/188777.got.cif
#   From: 2010.06.25/outbox.cif.g09.slc.cpg/sg2_95_cif.got.tgz:188777.got - 2010.06.27 13:26:56.
