data_PCOD8014015
_publ_section_title
;
Structure prediction by ZEFSAII (Michael W. Deem and Ramdas Pophale) SiO2 
 PCOD8014015
Probable space group: P -1
;
_chemical_formula_sum "Si O2"
_cell_formula_units_Z 14
_cell_length_a 6.845297
_cell_length_b 12.161896
_cell_length_c 12.077905
_cell_angle_alpha 114.135695
_cell_angle_beta 65.143598
_cell_angle_gamma 136.426002
_cell_volume 620.064853
_symmetry_space_group_name_H-M "P -1"
_symmetry_group_IT_number 2
_symmetry_cell_setting 'triclinic'
loop_
_space_group_symop_operation_xyz
x,y,z
-x,-y,-z
loop_
_atom_site_type_symbol
_atom_site_label
_atom_site_fract_x
_atom_site_fract_y
_atom_site_fract_z
Si Si1 0.711317 0.398687 0.187696
Si Si2 0.818451 0.367122 0.391674
Si Si3 0.944180 0.799904 0.697862
Si Si4 0.904507 0.888022 0.111091
Si Si5 0.289711 0.313014 0.513850
Si Si6 0.520038 0.863169 0.029770
Si Si7 0.026440 0.270606 0.793536
O O1 0.870419 0.440531 0.285884
O O2 0.395021 0.339239 0.252429
O O3 0.893195 0.559907 0.135834
O O4 0.683212 0.263240 0.072296
O O5 0.483000 0.264448 0.460538
O O6 0.000000 0.500000 0.500000
O O7 0.882580 0.249835 0.317843
O O8 0.965864 0.807341 0.562465
O O9 0.076837 0.970759 0.785433
O O10 0.660571 0.802789 0.039172
O O11 0.808228 0.756444 0.172201
O O12 0.213651 0.961793 0.014818
O O13 0.500000 0.500000 0.500000
O O14 0.118412 0.273532 0.649766
O O15 0.320254 0.871103 0.160739
#
# Coordination Sequence:
#
# PCOD8014015 Si02
#       7
#     2   2   2   2   2   2   2
#     4  10  22  39  65  99 123 161 217 268 311 371
#     4  11  19  36  66  93 125 166 202 256 321 369
#     4  10  21  41  64  91 130 167 208 254 321 379
#     4  10  25  43  63  91 128 173 211 258 314 386
#     4  11  21  40  62 100 128 158 207 265 320 377
#     4  10  24  44  62  89 130 171 217 256 315 376
#     4  12  22  40  66  95 129 162 213 268 319 371
#
# _framework density 22.578284
#
# number of rings (size 3 to 8) (size 9 to 14) (size 15 to 20)
#    0.000    1.429    4.286    0.857    0.000   11.429 
#    0.000    1.429    0.000    0.000    0.000    0.000 
#    0.000    0.000    0.000    0.000    0.000    0.000 
#
# Total GULP energy -173520.159456 kJ/mol
# GULP energy per Si atom -12394.297104 kJ/mol
# Density = 2.252690 g / cm^3
# Si number density = 22.578284 Si / 1000 Ang^3
#
#
#
# Elastic Constant Matrix: (Units=GPa)
#
#
# Indices 1 2 3 4 5 6 
#
# 1 114.0456 41.9646 45.4381 -7.9406 8.2192 -15.6558
# 2 41.9646 54.9413 37.5322 -0.9976 14.4686 -14.0644
# 3 45.4381 37.5322 134.3943 -17.8204 9.5359 -3.5566
# 4 -7.9406 -0.9976 -17.8204 30.3132 3.1879 6.0219
# 5 8.2192 14.4686 9.5359 3.1879 46.7227 1.4655
# 6 -15.6558 -14.0644 -3.5566 6.0219 1.4655 28.1326
#
#
#
# Elastic Compliance Matrix: (Units=1/GPa)
#
#
# Indices 1 2 3 4 5 6 
#
# 1 0.012883 -0.007944 -0.001907 0.001427 0.000403 0.002630
# 2 -0.007944 0.034493 -0.006948 -0.006957 -0.007825 0.013842
# 3 -0.001907 -0.006948 0.010769 0.006511 -0.000012 -0.004566
# 4 0.001427 -0.006957 0.006511 0.039165 -0.001779 -0.010151
# 5 0.000403 -0.007825 -0.000012 -0.001779 0.024022 -0.004560
# 6 0.002630 0.013842 -0.004566 -0.010151 -0.004560 0.045763
#
#
# Mechanical properties :
#
#
# Convention : Reuss Voigt Hill
#
# Bulk Modulus (GPa) = 40.73778 61.47233 51.10506
# Shear Modulus (GPa) = 23.93765 32.93012 28.43389
#
# Velocity S-wave (km/s) = 3.25961 3.82316 3.55258
# Velocity P-wave (km/s) = 5.67881 6.83916 6.28582
#
# Compressibility (1/GPa) = 0.02454724
#
# Stress axis : x y z
#
# Youngs Moduli (GPa) = 77.62357 28.99105 92.85765
#
# Poissons Ratio (x) = 0.23032 0.17705
# Poissons Ratio (y) = 0.61667 0.64517
# Poissons Ratio (z) = 0.14800 0.20143
#
# Static dielectric constant tensor:
#      x y z
#    x 4.286410 0.023340 0.101000 
#    y 0.023340 3.773800 0.022950 
#    z 0.101000 0.022950 4.449800 
# 
# 
# High freq. dielectric constant tensor:
#      x y z
#    x 1.900350 -0.005790 0.003590 
#    y -0.005790 1.850710 0.006610 
#    z 0.003590 0.006610 1.907780 
# 
# From -- ./inp_files/364736.got.cif
#   From: 2010.06.25/outbox.cif.g09.slc.cpg/sg2_183_cif.got.tgz:364736.got - 2010.06.27 13:26:56.
