data_PCOD8014453
_publ_section_title
;
Structure prediction by ZEFSAII (Michael W. Deem and Ramdas Pophale) SiO2 
 PCOD8014453
Probable space group: P -1
;
_chemical_formula_sum "Si O2"
_cell_formula_units_Z 14
_cell_length_a 7.587156
_cell_length_b 11.039013
_cell_length_c 8.601459
_cell_angle_alpha 96.423165
_cell_angle_beta 60.365473
_cell_angle_gamma 98.434880
_cell_volume 618.758705
_symmetry_space_group_name_H-M "P -1"
_symmetry_group_IT_number 2
_symmetry_cell_setting 'triclinic'
loop_
_space_group_symop_operation_xyz
x,y,z
-x,-y,-z
loop_
_atom_site_type_symbol
_atom_site_label
_atom_site_fract_x
_atom_site_fract_y
_atom_site_fract_z
Si Si1 0.568364 0.179427 0.279359
Si Si2 0.965349 0.366790 0.567775
Si Si3 0.101598 0.372788 0.956207
Si Si4 0.806549 0.982666 0.694135
Si Si5 0.376707 0.373281 0.572120
Si Si6 0.234422 0.760378 0.100078
Si Si7 0.984361 0.206942 0.249521
O O1 0.519345 0.269921 0.451891
O O2 0.788442 0.140133 0.231551
O O3 0.607984 0.932428 0.672687
O O4 0.587611 0.245549 0.108514
O O5 0.175001 0.343744 0.554445
O O6 0.910377 0.262002 0.450249
O O7 0.000000 0.500000 0.500000
O O8 0.780082 0.345760 0.773638
O O9 0.324467 0.381213 0.780374
O O10 0.975182 0.261420 0.905753
O O11 0.103561 0.325237 0.125513
O O12 0.000000 0.500000 0.000000
O O13 0.857144 0.891712 0.798683
O O14 0.748890 0.106619 0.812058
O O15 0.000000 0.000000 0.500000
O O16 0.500000 0.500000 0.500000
#
# Coordination Sequence:
#
# PCOD8014453 Si02
#       7
#     2   2   2   2   2   2   2
#     4  11  24  43  66  99 135 171 225 270 332 394
#     4  11  21  41  66  97 130 173 222 272 334 395
#     4  10  21  41  67  96 134 173 218 278 329 388
#     4  12  23  46  67  97 138 171 227 276 325 396
#     4  11  21  40  64  97 139 171 215 283 325 390
#     4  10  22  42  67  92 137 177 210 286 327 381
#     4  11  23  43  69  96 130 181 220 268 340 389
#
# _framework density 22.625945000000002
#
# number of rings (size 3 to 8) (size 9 to 14) (size 15 to 20)
#    0.000    1.143    2.857    5.571    0.000    2.857 
#    5.143    1.429    0.000    0.000    0.000    0.000 
#    0.000    0.000    0.000    0.000    0.000    0.000 
#
# Total GULP energy -173449.966253 kJ/mol
# GULP energy per Si atom -12389.283304 kJ/mol
# Density = 2.257445 g / cm^3
# Si number density = 22.625945 Si / 1000 Ang^3
#
#
#
# Elastic Constant Matrix: (Units=GPa)
#
#
# Indices 1 2 3 4 5 6 
#
# 1 99.2974 20.9713 14.6396 -5.8856 1.3332 18.8250
# 2 20.9713 99.7962 20.3578 -2.1357 1.6665 5.1163
# 3 14.6396 20.3578 149.1447 -8.2649 -11.5578 2.1325
# 4 -5.8856 -2.1357 -8.2649 40.8489 0.7700 5.4822
# 5 1.3332 1.6665 -11.5578 0.7700 29.0196 -4.5202
# 6 18.8250 5.1163 2.1325 5.4822 -4.5202 39.4284
#
#
#
# Elastic Compliance Matrix: (Units=1/GPa)
#
#
# Indices 1 2 3 4 5 6 
#
# 1 0.011878 -0.001948 -0.000825 0.002266 -0.001740 -0.005888
# 2 -0.001948 0.010755 -0.001353 0.000102 -0.001154 -0.000539
# 3 -0.000825 -0.001353 0.007266 0.001175 0.003034 0.000361
# 4 0.002266 0.000102 0.001175 0.025722 -0.001081 -0.004859
# 5 -0.001740 -0.001154 0.003034 -0.001081 0.036648 0.005168
# 6 -0.005888 -0.000539 0.000361 -0.004859 0.005168 0.029492
#
#
# Mechanical properties :
#
#
# Convention : Reuss Voigt Hill
#
# Bulk Modulus (GPa) = 46.19802 51.13066 48.66434
# Shear Modulus (GPa) = 36.43569 41.34403 38.88986
#
# Velocity S-wave (km/s) = 4.01727 4.27931 4.15036
# Velocity P-wave (km/s) = 6.47923 6.86032 6.67250
#
# Compressibility (1/GPa) = 0.02164595
#
# Stress axis : x y z
#
# Youngs Moduli (GPa) = 84.19089 92.98123 137.63451
#
# Poissons Ratio (x) = 0.18116 0.11355
# Poissons Ratio (y) = 0.16403 0.18619
# Poissons Ratio (z) = 0.06946 0.12579
#
# Static dielectric constant tensor:
#      x y z
#    x 4.058140 0.181370 0.069870 
#    y 0.181370 4.207970 -0.427310 
#    z 0.069870 -0.427310 5.106720 
# 
# 
# High freq. dielectric constant tensor:
#      x y z
#    x 1.876960 0.027550 0.003040 
#    y 0.027550 1.876170 -0.008900 
#    z 0.003040 -0.008900 1.916400 
# 
# From -- ./inp_files/169190.got.cif
#   From: 2010.06.25/outbox.cif.g09.slc.cpg/sg2_85_cif.got.tgz:169190.got - 2010.06.27 13:26:56.
