data_PCOD8014232
_publ_section_title
;
Structure prediction by ZEFSAII (Michael W. Deem and Ramdas Pophale) SiO2 
 PCOD8014232
Probable space group: P -1
;
_chemical_formula_sum "Si O2"
_cell_formula_units_Z 16
_cell_length_a 19.929550
_cell_length_b 16.783729
_cell_length_c 11.643115
_cell_angle_alpha 21.671591
_cell_angle_beta 31.608361
_cell_angle_gamma 32.163256
_cell_volume 722.602771
_symmetry_space_group_name_H-M "P -1"
_symmetry_group_IT_number 2
_symmetry_cell_setting 'triclinic'
loop_
_space_group_symop_operation_xyz
x,y,z
-x,-y,-z
loop_
_atom_site_type_symbol
_atom_site_label
_atom_site_fract_x
_atom_site_fract_y
_atom_site_fract_z
Si Si1 0.105604 0.800810 0.728551
Si Si2 0.853261 0.589393 0.644345
Si Si3 0.840440 0.777784 0.792268
Si Si4 0.140201 0.580452 0.579656
Si Si5 0.814845 0.066335 0.796697
Si Si6 0.710567 0.470650 0.799767
Si Si7 0.452230 0.072319 0.599830
Si Si8 0.708334 0.965435 0.503938
O O1 0.173208 0.772105 0.543155
O O2 0.138914 0.001436 0.477992
O O3 0.172298 0.571187 0.003722
O O4 0.944522 0.847426 0.893824
O O5 0.752365 0.594374 0.681999
O O6 0.820512 0.837701 0.417426
O O7 0.000000 0.500000 0.500000
O O8 0.736963 0.848352 0.743466
O O9 0.981377 0.619485 0.753083
O O10 0.788407 0.637744 0.153638
O O11 0.182661 0.795246 0.276331
O O12 0.183757 0.545068 0.433266
O O13 0.681579 0.991172 0.086365
O O14 0.572050 0.655780 0.717604
O O15 0.702532 0.225853 0.173093
O O16 0.500000 0.000000 0.500000
O O17 0.564919 0.948877 0.692296
#
# Coordination Sequence:
#
# PCOD8014232 Si02
#       8
#     2   2   2   2   2   2   2   2
#     4  10  21  42  69 100 138 175 231 292 350 406
#     4  12  25  40  69 104 140 176 230 295 348 403
#     4  10  21  41  66 100 140 177 226 288 347 411
#     4  10  22  40  68 100 137 177 228 288 351 405
#     4  10  22  42  70  99 135 187 229 283 352 409
#     4  12  25  44  67  99 137 183 234 283 345 407
#     4  12  25  46  69  99 140 189 234 279 345 418
#     4  12  26  44  69  99 140 183 235 281 340 417
#
# _framework density 22.142178999999999
#
# number of rings (size 3 to 8) (size 9 to 14) (size 15 to 20)
#    0.000    1.000    2.500    4.125    3.500    5.000 
#    0.000    5.000    0.000    0.000    0.000    0.000 
#    0.000    0.000    0.000    0.000    0.000    0.000 
#
# Total GULP energy -198413.092855 kJ/mol
# GULP energy per Si atom -12400.818303 kJ/mol
# Density = 2.209178 g / cm^3
# Si number density = 22.142179 Si / 1000 Ang^3
#
#
#
# Elastic Constant Matrix: (Units=GPa)
#
#
# Indices 1 2 3 4 5 6 
#
# 1 117.1356 17.8270 29.1167 4.8020 21.2921 -17.8648
# 2 17.8270 73.3290 23.1773 -4.5667 1.1807 -5.0737
# 3 29.1167 23.1773 87.1086 -6.3282 13.4928 -7.6756
# 4 4.8020 -4.5667 -6.3282 31.6400 -4.0523 0.6532
# 5 21.2921 1.1807 13.4928 -4.0523 38.8447 -1.6143
# 6 -17.8648 -5.0737 -7.6756 0.6532 -1.6143 35.0955
#
#
#
# Elastic Compliance Matrix: (Units=1/GPa)
#
#
# Indices 1 2 3 4 5 6 
#
# 1 0.011218 -0.001802 -0.002238 -0.003207 -0.005453 0.004769
# 2 -0.001802 0.015344 -0.003594 0.002014 0.002003 0.000570
# 3 -0.002238 -0.003594 0.013949 0.002172 -0.003232 0.001203
# 4 -0.003207 0.002014 0.002172 0.033404 0.004373 -0.001287
# 5 -0.005453 0.002003 -0.003232 0.004373 0.030172 -0.001887
# 6 0.004769 0.000570 0.001203 -0.001287 -0.001887 0.031204
#
#
# Mechanical properties :
#
#
# Convention : Reuss Voigt Hill
#
# Bulk Modulus (GPa) = 39.61639 46.42391 43.02015
# Shear Modulus (GPa) = 31.45191 34.94620 33.19905
#
# Velocity S-wave (km/s) = 3.77298 3.97705 3.87636
# Velocity P-wave (km/s) = 6.07545 6.48853 6.28539
#
# Compressibility (1/GPa) = 0.02524208
#
# Stress axis : x y z
#
# Youngs Moduli (GPa) = 89.14467 65.17311 71.69035
#
# Poissons Ratio (x) = 0.11742 0.16047
# Poissons Ratio (y) = 0.16060 0.25767
# Poissons Ratio (z) = 0.19954 0.23424
#
# Static dielectric constant tensor:
#      x y z
#    x 4.246140 -0.034210 0.169050 
#    y -0.034210 4.218090 -0.196060 
#    z 0.169050 -0.196060 3.937220 
# 
# 
# High freq. dielectric constant tensor:
#      x y z
#    x 1.885550 0.014290 0.009870 
#    y 0.014290 1.865370 -0.020500 
#    z 0.009870 -0.020500 1.868050 
# 
# From -- ./inp_files/472301.got.cif
#   From: 2010.06.25/outbox.cif.g09.slc.cpg/sg2_237_cif.got.tgz:472301.got - 2010.06.27 13:26:56.
