data_PCOD8014023
_publ_section_title
;
Structure prediction by ZEFSAII (Michael W. Deem and Ramdas Pophale) SiO2 
 PCOD8014023
Probable space group: P -1
;
_chemical_formula_sum "Si O2"
_cell_formula_units_Z 16
_cell_length_a 12.011684
_cell_length_b 13.792694
_cell_length_c 15.561673
_cell_angle_alpha 52.181184
_cell_angle_beta 150.365296
_cell_angle_gamma 106.582275
_cell_volume 778.941174
_symmetry_space_group_name_H-M "P -1"
_symmetry_group_IT_number 2
_symmetry_cell_setting 'triclinic'
loop_
_space_group_symop_operation_xyz
x,y,z
-x,-y,-z
loop_
_atom_site_type_symbol
_atom_site_label
_atom_site_fract_x
_atom_site_fract_y
_atom_site_fract_z
Si Si1 0.383870 0.221367 0.314624
Si Si2 0.342037 0.626879 0.519804
Si Si3 0.189774 0.668288 0.210142
Si Si4 0.699747 0.033322 0.294792
Si Si5 0.912120 0.671463 0.343780
Si Si6 0.293624 0.024940 0.478705
Si Si7 0.327172 0.734781 0.104023
Si Si8 0.704614 0.835718 0.275139
O O1 0.453513 0.330731 0.339457
O O2 0.393292 0.122963 0.454815
O O3 0.619129 0.106359 0.462136
O O4 0.070365 0.331205 0.996471
O O5 0.154213 0.722079 0.255852
O O6 0.551125 0.439287 0.747270
O O7 0.106453 0.681513 0.404243
O O8 0.500000 0.500000 0.500000
O O9 0.197012 0.781205 0.089038
O O10 0.580061 0.052079 0.301097
O O11 0.782559 0.871785 0.397609
O O12 0.433494 0.197119 0.980533
O O13 0.000000 0.000000 0.500000
O O14 0.969218 0.712833 0.453990
O O15 0.000000 0.500000 0.500000
O O16 0.950207 0.137246 0.209392
O O17 0.572163 0.749789 0.253095
O O18 0.500000 0.000000 0.000000
#
# Coordination Sequence:
#
# PCOD8014023 Si02
#       8
#     2   2   2   2   2   2   2   2
#     4  10  23  41  65  97 131 171 210 274 324 382
#     4  11  23  40  69  92 130 174 215 268 331 386
#     4   9  21  40  61  95 130 162 215 262 319 390
#     4  11  25  41  67  93 126 174 216 268 328 394
#     4  11  23  44  65  92 128 166 218 273 324 388
#     4  10  22  42  62  94 133 160 216 264 321 394
#     4  10  21  41  64  92 127 168 211 267 318 395
#     4  10  22  40  64  89 125 170 214 259 327 383
#
# _framework density 20.540704999999999
#
# number of rings (size 3 to 8) (size 9 to 14) (size 15 to 20)
#    0.000    1.750    1.250    2.250    7.000    4.500 
#    2.250    3.125    0.000    0.000    0.000    0.000 
#    0.000    0.000    0.000    0.000    0.000    0.000 
#
# Total GULP energy -198242.451174 kJ/mol
# GULP energy per Si atom -12390.153198 kJ/mol
# Density = 2.049395 g / cm^3
# Si number density = 20.540705 Si / 1000 Ang^3
#
#
#
# Elastic Constant Matrix: (Units=GPa)
#
#
# Indices 1 2 3 4 5 6 
#
# 1 134.8663 69.2399 28.7709 10.3540 10.5226 -12.3517
# 2 69.2399 162.9757 42.8181 4.1491 -1.2872 -0.8713
# 3 28.7709 42.8181 87.5929 2.7714 6.8670 1.4772
# 4 10.3540 4.1491 2.7714 31.2331 -1.5240 3.6261
# 5 10.5226 -1.2872 6.8670 -1.5240 29.0294 0.3918
# 6 -12.3517 -0.8713 1.4772 3.6261 0.3918 31.0313
#
#
#
# Elastic Compliance Matrix: (Units=1/GPa)
#
#
# Indices 1 2 3 4 5 6 
#
# 1 0.010870 -0.004231 -0.001143 -0.003692 -0.004115 0.004746
# 2 -0.004231 0.008740 -0.003098 0.000814 0.002716 -0.001421
# 3 -0.001143 -0.003098 0.013569 -0.000429 -0.002941 -0.001100
# 4 -0.003692 0.000814 -0.000429 0.033965 0.003332 -0.005437
# 5 -0.004115 0.002716 -0.002941 0.003332 0.036961 -0.002278
# 6 0.004746 -0.001421 -0.001100 -0.005437 -0.002278 0.034791
#
#
# Mechanical properties :
#
#
# Convention : Reuss Voigt Hill
#
# Bulk Modulus (GPa) = 61.59005 74.12140 67.85573
# Shear Modulus (GPa) = 31.00767 34.56584 32.78675
#
# Velocity S-wave (km/s) = 3.88954 4.10664 3.99956
# Velocity P-wave (km/s) = 7.08666 7.65829 7.37802
#
# Compressibility (1/GPa) = 0.01623639
#
# Stress axis : x y z
#
# Youngs Moduli (GPa) = 91.99815 114.41217 73.69943
#
# Poissons Ratio (x) = 0.48407 0.08422
# Poissons Ratio (y) = 0.38924 0.22829
# Poissons Ratio (z) = 0.10513 0.35440
#
# Static dielectric constant tensor:
#      x y z
#    x 4.273220 -0.383970 -0.372660 
#    y -0.383970 3.870960 0.081390 
#    z -0.372660 0.081390 3.853170 
# 
# 
# High freq. dielectric constant tensor:
#      x y z
#    x 1.829240 -0.010230 0.004040 
#    y -0.010230 1.792480 -0.004530 
#    z 0.004040 -0.004530 1.794070 
# 
# From -- ./inp_files/519650.got.cif
#   From: 2010.06.25/outbox.cif.g09.slc.cpg/sg2_260_cif.got.tgz:519650.got - 2010.06.27 13:26:56.
