data_PCOD8014448
_publ_section_title
;
Structure prediction by ZEFSAII (Michael W. Deem and Ramdas Pophale) SiO2 
 PCOD8014448
Probable space group: P -1
;
_chemical_formula_sum "Si O2"
_cell_formula_units_Z 16
_cell_length_a 11.665658
_cell_length_b 11.036261
_cell_length_c 12.077761
_cell_angle_alpha 51.608507
_cell_angle_beta 73.510069
_cell_angle_gamma 114.388431
_cell_volume 725.465982
_symmetry_space_group_name_H-M "P -1"
_symmetry_group_IT_number 2
_symmetry_cell_setting 'triclinic'
loop_
_space_group_symop_operation_xyz
x,y,z
-x,-y,-z
loop_
_atom_site_type_symbol
_atom_site_label
_atom_site_fract_x
_atom_site_fract_y
_atom_site_fract_z
Si Si1 0.538534 0.658851 0.303993
Si Si2 0.920015 0.215639 0.952292
Si Si3 0.189448 0.851149 0.345010
Si Si4 0.040003 0.394482 0.249129
Si Si5 0.832739 0.514393 0.485511
Si Si6 0.599015 0.635573 0.058633
Si Si7 0.971977 0.826836 0.826685
Si Si8 0.180276 0.241417 0.385127
O O1 0.500000 0.500000 0.500000
O O2 0.349474 0.568094 0.387801
O O3 0.585783 0.610742 0.208641
O O4 0.716367 0.948805 0.118736
O O5 0.880084 0.351037 0.924380
O O6 0.079757 0.362462 0.729672
O O7 0.998987 0.194212 0.043932
O O8 0.239807 0.736431 0.344039
O O9 0.158316 0.805703 0.511936
O O10 0.993360 0.714046 0.419655
O O11 0.356109 0.142205 0.111955
O O12 0.999099 0.290007 0.196423
O O13 0.187865 0.434443 0.255693
O O14 0.386998 0.381506 0.210727
O O15 0.755778 0.672191 0.952449
O O16 0.127624 0.120949 0.590457
O O17 0.000000 0.000000 0.500000
#
# Coordination Sequence:
#
# PCOD8014448 Si02
#       8
#     2   2   2   2   2   2   2   2
#     4  12  26  39  66  99 131 175 219 269 333 399
#     4  11  24  43  68  97 133 179 218 269 336 388
#     4  10  21  41  67  96 132 170 218 274 331 393
#     4  10  22  44  67  94 133 173 220 277 321 389
#     4  10  23  43  62  97 137 167 215 279 328 389
#     4  12  24  39  70  98 128 178 218 268 340 390
#     4  11  24  44  66  96 136 176 220 273 323 392
#     4  10  23  42  64  94 130 169 220 273 315 386
#
# _framework density 22.054791000000002
#
# number of rings (size 3 to 8) (size 9 to 14) (size 15 to 20)
#    0.000    1.250    2.500    2.625    3.500    3.500 
#    0.000    0.000    0.000    6.750    0.000    0.000 
#    0.000    0.000    0.000    0.000    0.000    0.000 
#
# Total GULP energy -198350.571734 kJ/mol
# GULP energy per Si atom -12396.910733 kJ/mol
# Density = 2.200459 g / cm^3
# Si number density = 22.054791 Si / 1000 Ang^3
#
#
#
# Elastic Constant Matrix: (Units=GPa)
#
#
# Indices 1 2 3 4 5 6 
#
# 1 86.3615 1.1213 27.1296 -16.1463 -6.1028 6.9118
# 2 1.1213 68.1204 16.1639 -5.3715 -7.0040 6.1507
# 3 27.1296 16.1639 93.5889 -9.7486 -4.1730 9.6562
# 4 -16.1463 -5.3715 -9.7486 36.1754 3.3462 -1.4736
# 5 -6.1028 -7.0040 -4.1730 3.3462 40.8911 3.8826
# 6 6.9118 6.1507 9.6562 -1.4736 3.8826 31.6811
#
#
#
# Elastic Compliance Matrix: (Units=1/GPa)
#
#
# Indices 1 2 3 4 5 6 
#
# 1 0.013917 0.001376 -0.003418 0.005243 0.001747 -0.002232
# 2 0.001376 0.015958 -0.002533 0.001925 0.002796 -0.002879
# 3 -0.003418 -0.002533 0.012539 0.001329 0.000472 -0.002580
# 4 0.005243 0.001925 0.001329 0.030727 -0.001234 -0.000342
# 5 0.001747 0.002796 0.000472 -0.001234 0.025750 -0.004281
# 6 -0.002232 -0.002879 -0.002580 -0.000342 -0.004281 0.033906
#
#
# Mechanical properties :
#
#
# Convention : Reuss Voigt Hill
#
# Bulk Modulus (GPa) = 30.06114 37.43340 33.74727
# Shear Modulus (GPa) = 32.67250 35.32659 33.99954
#
# Velocity S-wave (km/s) = 3.85310 4.00655 3.93057
# Velocity P-wave (km/s) = 5.78403 6.19782 5.99450
#
# Compressibility (1/GPa) = 0.03326554
#
# Stress axis : x y z
#
# Youngs Moduli (GPa) = 71.85309 62.66645 79.75180
#
# Poissons Ratio (x) = -0.08626 0.27258
# Poissons Ratio (y) = -0.09890 0.20199
# Poissons Ratio (z) = 0.24558 0.15872
#
# Static dielectric constant tensor:
#      x y z
#    x 4.081890 -0.042940 0.222410 
#    y -0.042940 3.927980 0.136880 
#    z 0.222410 0.136880 4.245010 
# 
# 
# High freq. dielectric constant tensor:
#      x y z
#    x 1.860200 -0.007000 0.007980 
#    y -0.007000 1.872910 0.012180 
#    z 0.007980 0.012180 1.877950 
# 
# From -- ./inp_files/427562.got.cif
#   From: 2010.06.25/outbox.cif.g09.slc.cpg/sg2_214_cif.got.tgz:427562.got - 2010.06.27 13:26:56.
