data_PCOD8014249
_publ_section_title
;
Structure prediction by ZEFSAII (Michael W. Deem and Ramdas Pophale) SiO2 
 PCOD8014249
Probable space group: P -1
;
_chemical_formula_sum "Si O2"
_cell_formula_units_Z 16
_cell_length_a 21.595191
_cell_length_b 8.347175
_cell_length_c 13.939373
_cell_angle_alpha 141.101981
_cell_angle_beta 32.184520
_cell_angle_gamma 138.352986
_cell_volume 810.409998
_symmetry_space_group_name_H-M "P -1"
_symmetry_group_IT_number 2
_symmetry_cell_setting 'triclinic'
loop_
_space_group_symop_operation_xyz
x,y,z
-x,-y,-z
loop_
_atom_site_type_symbol
_atom_site_label
_atom_site_fract_x
_atom_site_fract_y
_atom_site_fract_z
Si Si1 0.196989 0.090580 0.605826
Si Si2 0.297572 0.885966 0.199831
Si Si3 0.390160 0.605400 0.657762
Si Si4 0.802251 0.493546 0.997921
Si Si5 0.006158 0.355689 0.024156
Si Si6 0.470245 0.839849 0.292431
Si Si7 0.492890 0.719641 0.988607
Si Si8 0.223017 0.922124 0.692759
O O1 0.294660 0.377960 0.618766
O O2 0.060768 0.114707 0.809143
O O3 0.214798 0.981753 0.428939
O O4 0.208333 0.887492 0.580569
O O5 0.371082 0.126287 0.148555
O O6 0.192850 0.666498 0.180053
O O7 0.394791 0.754858 0.057791
O O8 0.500000 0.500000 0.500000
O O9 0.324474 0.673343 0.869707
O O10 0.434851 0.883086 0.672006
O O11 0.908975 0.481553 0.926419
O O12 0.789456 0.786710 0.129425
O O13 0.000000 0.500000 0.000000
O O14 0.874581 0.275228 0.205932
O O15 0.515887 0.591610 0.150114
O O16 0.349573 0.855342 0.514447
O O17 0.456904 0.821222 0.185422
#
# Coordination Sequence:
#
# PCOD8014249 Si02
#       8
#     2   2   2   2   2   2   2   2
#     4  10  21  37  66  86 121 169 197 247 301 370
#     4  11  21  40  57  94 125 169 202 230 317 370
#     4  10  16  34  60  88 119 162 202 239 298 360
#     4  10  21  38  65  86 122 164 199 253 294 370
#     4  10  23  44  64  87 115 150 216 268 306 343
#     4  11  19  37  59  94 126 167 199 248 301 358
#     4  10  23  33  58  90 140 162 193 247 298 373
#     4  10  20  40  65  87 116 161 208 249 302 355
#
# _framework density 19.743095
#
# number of rings (size 3 to 8) (size 9 to 14) (size 15 to 20)
#    0.000    2.000    5.000    1.500    3.500    0.000 
#    4.500    4.375    0.000    0.000    0.000    0.000 
#    0.000    0.000    0.000    0.000    0.000    0.000 
#
# Total GULP energy -198212.297797 kJ/mol
# GULP energy per Si atom -12388.268612 kJ/mol
# Density = 1.969816 g / cm^3
# Si number density = 19.743095 Si / 1000 Ang^3
#
#
#
# Elastic Constant Matrix: (Units=GPa)
#
#
# Indices 1 2 3 4 5 6 
#
# 1 76.2030 39.7632 30.4176 4.8345 17.3331 3.2001
# 2 39.7632 99.0403 48.0506 -10.0113 9.2819 -11.6238
# 3 30.4176 48.0506 104.0360 -15.7909 18.7510 3.7737
# 4 4.8345 -10.0113 -15.7909 35.5508 0.0453 3.9451
# 5 17.3331 9.2819 18.7510 0.0453 33.2876 5.9302
# 6 3.2001 -11.6238 3.7737 3.9451 5.9302 25.0000
#
#
#
# Elastic Compliance Matrix: (Units=1/GPa)
#
#
# Indices 1 2 3 4 5 6 
#
# 1 0.019608 -0.007253 -0.001870 -0.005173 -0.006552 -0.003229
# 2 -0.007253 0.017125 -0.005922 0.002147 0.000681 0.009284
# 3 -0.001870 -0.005922 0.014804 0.005665 -0.004924 -0.004475
# 4 -0.005173 0.002147 0.005665 0.032422 -0.000389 -0.004219
# 5 -0.006552 0.000681 -0.004924 -0.000389 0.037263 -0.006879
# 6 -0.003229 0.009284 -0.004475 -0.004219 -0.006879 0.047703
#
#
# Mechanical properties :
#
#
# Convention : Reuss Voigt Hill
#
# Bulk Modulus (GPa) = 46.62886 57.30465 51.96676
# Shear Modulus (GPa) = 24.25247 29.50423 26.87835
#
# Velocity S-wave (km/s) = 3.50866 3.86995 3.69372
# Velocity P-wave (km/s) = 6.33114 7.00406 6.67608
#
# Compressibility (1/GPa) = 0.02144595
#
# Stress axis : x y z
#
# Youngs Moduli (GPa) = 50.99957 58.39398 67.54945
#
# Poissons Ratio (x) = 0.42352 0.12633
# Poissons Ratio (y) = 0.36989 0.40006
# Poissons Ratio (z) = 0.09538 0.34584
#
# Static dielectric constant tensor:
#      x y z
#    x 3.446250 -0.046170 0.097760 
#    y -0.046170 3.616290 -0.143440 
#    z 0.097760 -0.143440 3.757350 
# 
# 
# High freq. dielectric constant tensor:
#      x y z
#    x 1.752420 -0.008310 0.008810 
#    y -0.008310 1.758200 -0.006830 
#    z 0.008810 -0.006830 1.777290 
# 
# From -- ./inp_files/519817.got.cif
#   From: 2010.06.25/outbox.cif.g09.slc.cpg/sg2_260_cif.got.tgz:519817.got - 2010.06.27 13:26:56.
