data_PCOD8014678
_publ_section_title
;
Structure prediction by ZEFSAII (Michael W. Deem and Ramdas Pophale) SiO2 
 PCOD8014678
Probable space group: P -1
;
_chemical_formula_sum "Si O2"
_cell_formula_units_Z 16
_cell_length_a 14.829409
_cell_length_b 9.149664
_cell_length_c 11.856002
_cell_angle_alpha 77.421047
_cell_angle_beta 149.990542
_cell_angle_gamma 110.279897
_cell_volume 742.971203
_symmetry_space_group_name_H-M "P -1"
_symmetry_group_IT_number 2
_symmetry_cell_setting 'triclinic'
loop_
_space_group_symop_operation_xyz
x,y,z
-x,-y,-z
loop_
_atom_site_type_symbol
_atom_site_label
_atom_site_fract_x
_atom_site_fract_y
_atom_site_fract_z
Si Si1 0.493656 0.539998 0.356904
Si Si2 0.717570 0.178045 0.415780
Si Si3 0.035072 0.333603 0.569471
Si Si4 0.628374 0.777010 0.080234
Si Si5 0.692416 0.842630 0.390158
Si Si6 0.762350 0.369437 0.642288
Si Si7 0.895606 0.119534 0.239261
Si Si8 0.846679 0.369348 0.992655
O O1 0.500000 0.500000 0.500000
O O2 0.634364 0.714475 0.448646
O O3 0.568104 0.410116 0.397785
O O4 0.277510 0.532464 0.097971
O O5 0.924677 0.240845 0.573290
O O6 0.751328 0.219928 0.577823
O O7 0.626074 0.990071 0.331691
O O8 0.575915 0.265356 0.194578
O O9 0.946876 0.237308 0.379377
O O10 0.000000 0.500000 0.500000
O O11 0.259459 0.344793 0.815921
O O12 0.589907 0.768390 0.174557
O O13 0.756460 0.953315 0.156847
O O14 0.918907 0.905982 0.609429
O O15 0.787832 0.328554 0.805960
O O16 0.935069 0.526933 0.769917
O O17 0.797770 0.198817 0.026789
#
# Coordination Sequence:
#
# PCOD8014678 Si02
#       8
#     2   2   2   2   2   2   2   2
#     4  10  22  41  67  93 119 167 215 254 309 376
#     4  12  24  40  64  95 131 161 213 260 312 366
#     4  11  24  39  61  97 131 161 209 263 309 368
#     4  11  24  42  62  93 129 172 208 247 316 385
#     4  11  21  42  66  91 130 166 210 257 306 383
#     4  10  23  42  62  96 122 162 214 264 303 377
#     4  11  20  42  67  90 126 173 209 251 314 382
#     4  10  21  41  70  85 124 167 210 254 324 361
#
# _framework density 21.535155
#
# number of rings (size 3 to 8) (size 9 to 14) (size 15 to 20)
#    0.000    1.250    3.750    2.625    3.500    2.500 
#    0.000    6.250    0.000    0.000    0.000    0.000 
#    0.000    0.000    0.000    0.000    0.000    0.000 
#
# Total GULP energy -198356.375141 kJ/mol
# GULP energy per Si atom -12397.273446 kJ/mol
# Density = 2.148614 g / cm^3
# Si number density = 21.535155 Si / 1000 Ang^3
#
#
#
# Elastic Constant Matrix: (Units=GPa)
#
#
# Indices 1 2 3 4 5 6 
#
# 1 119.4851 46.4467 35.4730 -6.1885 1.6728 -10.8158
# 2 46.4467 89.3110 3.3171 -21.7853 -7.3050 -8.3230
# 3 35.4730 3.3171 68.2671 -19.0112 1.1953 -17.1838
# 4 -6.1885 -21.7853 -19.0112 28.2384 -2.8004 4.6124
# 5 1.6728 -7.3050 1.1953 -2.8004 21.7846 -4.3707
# 6 -10.8158 -8.3230 -17.1838 4.6124 -4.3707 45.4322
#
#
#
# Elastic Compliance Matrix: (Units=1/GPa)
#
#
# Indices 1 2 3 4 5 6 
#
# 1 0.015730 -0.011947 -0.011963 -0.014142 -0.006815 -0.002188
# 2 -0.011947 0.024781 0.013332 0.025880 0.012896 0.005352
# 3 -0.011963 0.013332 0.029909 0.027225 0.009057 0.009014
# 4 -0.014142 0.025880 0.027225 0.071448 0.018703 0.006218
# 5 -0.006815 0.012896 0.009057 0.018703 0.054159 0.007477
# 6 -0.002188 0.005352 0.009014 0.006218 0.007477 0.025968
#
#
# Mechanical properties :
#
#
# Convention : Reuss Voigt Hill
#
# Bulk Modulus (GPa) = 20.29842 49.72631 35.01236
# Shear Modulus (GPa) = 19.26257 31.87947 25.57102
#
# Velocity S-wave (km/s) = 2.99402 3.85170 3.44962
# Velocity P-wave (km/s) = 4.62583 6.55146 5.67098
#
# Compressibility (1/GPa) = 0.04926493
#
# Stress axis : x y z
#
# Youngs Moduli (GPa) = 63.57418 40.35323 33.43501
#
# Poissons Ratio (x) = 0.48209 0.39997
# Poissons Ratio (y) = 0.75951 -0.44576
# Poissons Ratio (z) = 0.76052 -0.53800
#
# Static dielectric constant tensor:
#      x y z
#    x 4.268720 -0.116680 0.372940 
#    y -0.116680 3.912480 -0.431050 
#    z 0.372940 -0.431050 3.903330 
# 
# 
# High freq. dielectric constant tensor:
#      x y z
#    x 1.861130 0.001410 0.019170 
#    y 0.001410 1.840250 -0.025610 
#    z 0.019170 -0.025610 1.831410 
# 
# From -- ./inp_files/206554.got.cif
#   From: 2010.06.25/outbox.cif.g09.slc.cpg/sg2_104_cif.got.tgz:206554.got - 2010.06.27 13:26:56.
