data_PCOD8014603
_publ_section_title
;
Structure prediction by ZEFSAII (Michael W. Deem and Ramdas Pophale) SiO2 
 PCOD8014603
Probable space group: P -1
;
_chemical_formula_sum "Si O2"
_cell_formula_units_Z 16
_cell_length_a 15.026882
_cell_length_b 14.891264
_cell_length_c 8.585494
_cell_angle_alpha 49.766454
_cell_angle_beta 101.073647
_cell_angle_gamma 142.767853
_cell_volume 635.864240
_symmetry_space_group_name_H-M "P -1"
_symmetry_group_IT_number 2
_symmetry_cell_setting 'triclinic'
loop_
_space_group_symop_operation_xyz
x,y,z
-x,-y,-z
loop_
_atom_site_type_symbol
_atom_site_label
_atom_site_fract_x
_atom_site_fract_y
_atom_site_fract_z
Si Si1 0.490853 0.309846 0.679526
Si Si2 0.419195 0.383657 0.848099
Si Si3 0.979639 0.531812 0.651587
Si Si4 0.297218 0.653920 0.452776
Si Si5 0.627732 0.969758 0.626346
Si Si6 0.259878 0.126118 0.379961
Si Si7 0.338232 0.794283 0.861098
Si Si8 0.947190 0.221345 0.029750
O O1 0.474250 0.325441 0.839696
O O2 0.626973 0.567004 0.346095
O O3 0.606342 0.319431 0.677893
O O4 0.262467 0.052837 0.822523
O O5 0.615847 0.638501 0.736195
O O6 0.225638 0.140733 0.176727
O O7 0.863741 0.429878 0.564926
O O8 0.208983 0.852455 0.374571
O O9 0.857603 0.465901 0.812371
O O10 0.957460 0.372829 0.877867
O O11 0.483774 0.937422 0.276691
O O12 0.153662 0.414531 0.794944
O O13 0.720386 0.188412 0.318371
O O14 0.601453 0.828456 0.661961
O O15 0.408209 0.749831 0.867458
O O16 0.061027 0.850161 0.720511
#
# Coordination Sequence:
#
# PCOD8014603 Si02
#       8
#     2   2   2   2   2   2   2   2
#     4  10  22  44  71  95 131 174 223 287 342 390
#     4   9  21  43  71  95 121 173 234 289 336 383
#     4  12  24  39  62 101 144 173 217 265 326 410
#     4  12  25  39  67 102 138 180 223 267 333 411
#     4  11  24  39  64  96 138 178 216 269 332 406
#     4  10  21  41  69  90 127 178 224 275 337 390
#     4  11  23  40  63  95 137 184 217 265 322 411
#     4  11  23  41  66  98 141 177 214 274 335 401
#
# _framework density 25.162603000000001
#
# number of rings (size 3 to 8) (size 9 to 14) (size 15 to 20)
#    0.000    1.250    3.750    1.875    3.500    0.000 
#    0.000    6.250    0.000    0.000    0.000    0.000 
#    0.000    0.000    0.000    0.000    0.000    0.000 
#
# Total GULP energy -198221.306713 kJ/mol
# GULP energy per Si atom -12388.831670 kJ/mol
# Density = 2.510533 g / cm^3
# Si number density = 25.162603 Si / 1000 Ang^3
#
#
#
# Elastic Constant Matrix: (Units=GPa)
#
#
# Indices 1 2 3 4 5 6 
#
# 1 57.3567 26.0639 6.9635 -16.3954 8.5401 -20.8917
# 2 26.0639 86.1277 4.8943 11.4181 0.5774 -17.8577
# 3 6.9635 4.8943 77.4307 15.3954 -11.4295 -19.6254
# 4 -16.3954 11.4181 15.3954 27.2982 -7.4395 -4.4873
# 5 8.5401 0.5774 -11.4295 -7.4395 25.7145 5.2896
# 6 -20.8917 -17.8577 -19.6254 -4.4873 5.2896 35.9174
#
#
#
# Elastic Compliance Matrix: (Units=1/GPa)
#
#
# Indices 1 2 3 4 5 6 
#
# 1 0.044202 -0.013222 -0.006489 0.036249 -0.011260 0.021778
# 2 -0.013222 0.017907 0.003838 -0.017290 0.000471 0.001080
# 3 -0.006489 0.003838 0.018088 -0.013399 0.005081 0.005595
# 4 0.036249 -0.017290 -0.013399 0.075948 0.001394 0.014450
# 5 -0.011260 0.000471 0.005081 0.001394 0.047408 -0.010347
# 6 0.021778 0.001080 0.005595 0.014450 -0.010347 0.047432
#
#
# Mechanical properties :
#
#
# Convention : Reuss Voigt Hill
#
# Bulk Modulus (GPa) = 20.63968 32.97317 26.80642
# Shear Modulus (GPa) = 16.72909 29.98556 23.35733
#
# Velocity S-wave (km/s) = 2.58125 3.45580 3.05003
# Velocity P-wave (km/s) = 4.13571 5.39036 4.80417
#
# Compressibility (1/GPa) = 0.04845036
#
# Stress axis : x y z
#
# Youngs Moduli (GPa) = 22.62351 55.84461 55.28521
#
# Poissons Ratio (x) = 0.73839 0.35875
# Poissons Ratio (y) = 0.29913 -0.21220
# Poissons Ratio (z) = 0.14681 -0.21434
#
# Static dielectric constant tensor:
#      x y z
#    x 4.609750 -0.199250 -0.143000 
#    y -0.199250 4.435680 0.431500 
#    z -0.143000 0.431500 5.193670 
# 
# 
# High freq. dielectric constant tensor:
#      x y z
#    x 1.984490 -0.027130 -0.005210 
#    y -0.027130 1.990950 0.023220 
#    z -0.005210 0.023220 2.019450 
# 
# From -- ./inp_files/314697.got.cif
#   From: 2010.06.25/outbox.cif.g09.slc.cpg/sg2_158_cif.got.tgz:314697.got - 2010.06.27 13:26:56.
