data_PCOD8014574
_publ_section_title
;
Structure prediction by ZEFSAII (Michael W. Deem and Ramdas Pophale) SiO2 
 PCOD8014574
Probable space group: P -1
;
_chemical_formula_sum "Si O2"
_cell_formula_units_Z 16
_cell_length_a 10.583165
_cell_length_b 14.172794
_cell_length_c 8.875818
_cell_angle_alpha 83.372104
_cell_angle_beta 75.951916
_cell_angle_gamma 138.155393
_cell_volume 766.000038
_symmetry_space_group_name_H-M "P -1"
_symmetry_group_IT_number 2
_symmetry_cell_setting 'triclinic'
loop_
_space_group_symop_operation_xyz
x,y,z
-x,-y,-z
loop_
_atom_site_type_symbol
_atom_site_label
_atom_site_fract_x
_atom_site_fract_y
_atom_site_fract_z
Si Si1 0.054559 0.299992 0.978022
Si Si2 0.399875 0.022720 0.866168
Si Si3 0.550696 0.269974 0.982861
Si Si4 0.003401 0.603587 0.738131
Si Si5 0.323239 0.915978 0.437838
Si Si6 0.682069 0.377625 0.260939
Si Si7 0.284725 0.072598 0.591046
Si Si8 0.889124 0.878376 0.919583
O O1 0.229502 0.462640 0.801772
O O2 0.982126 0.314886 0.143547
O O3 0.156139 0.257809 0.000142
O O4 0.830964 0.153678 0.976278
O O5 0.564829 0.034562 0.766743
O O6 0.358807 0.066340 0.726110
O O7 0.505931 0.140440 0.951998
O O8 0.618067 0.299185 0.131087
O O9 0.342593 0.215333 0.039282
O O10 0.752520 0.434507 0.801971
O O11 0.120103 0.724194 0.542525
O O12 0.127844 0.578597 0.741093
O O13 0.500000 0.000000 0.500000
O O14 0.248711 0.980470 0.476080
O O15 0.472382 0.256724 0.454312
O O16 0.051588 0.984758 0.708963
O O17 0.000000 0.000000 0.000000
#
# Coordination Sequence:
#
# PCOD8014574 Si02
#       8
#     2   2   2   2   2   2   2   2
#     4  10  19  36  63  87 117 163 200 239 307 358
#     4  10  18  37  64  85 117 161 206 239 294 364
#     4  11  24  36  62  95 121 158 205 249 301 352
#     4  11  20  38  60  94 126 155 195 255 304 362
#     4  10  16  34  66  87 113 162 213 231 299 366
#     4  11  23  39  60  94 129 150 195 259 314 347
#     4  10  19  39  67  83 116 166 200 244 299 357
#     4  11  21  41  68  83 118 166 212 244 286 365
#
# _framework density 20.887727999999999
#
# number of rings (size 3 to 8) (size 9 to 14) (size 15 to 20)
#    0.000    1.500    8.750    1.500    0.000    3.000 
#    0.000    6.250    0.000    0.000    0.000    0.000 
#    0.000    0.000    0.000    0.000    0.000    0.000 
#
# Total GULP energy -198331.458465 kJ/mol
# GULP energy per Si atom -12395.716154 kJ/mol
# Density = 2.084019 g / cm^3
# Si number density = 20.887728 Si / 1000 Ang^3
#
#
#
# Elastic Constant Matrix: (Units=GPa)
#
#
# Indices 1 2 3 4 5 6 
#
# 1 70.8525 27.2778 50.5383 -17.1408 -29.9841 -0.6285
# 2 27.2778 136.8324 61.6990 -26.3749 -14.4826 -2.1246
# 3 50.5383 61.6990 98.8139 -38.0109 -20.8508 -3.1766
# 4 -17.1408 -26.3749 -38.0109 35.2196 -1.2151 -6.1843
# 5 -29.9841 -14.4826 -20.8508 -1.2151 35.6031 -5.8830
# 6 -0.6285 -2.1246 -3.1766 -6.1843 -5.8830 33.6321
#
#
#
# Elastic Compliance Matrix: (Units=1/GPa)
#
#
# Indices 1 2 3 4 5 6 
#
# 1 0.032114 0.002021 -0.008747 0.009562 0.024040 0.005865
# 2 0.002021 0.010378 -0.005821 0.002770 0.002798 0.001142
# 3 -0.008747 -0.005821 0.031364 0.027266 0.011116 0.009389
# 4 0.009562 0.002770 0.027266 0.069323 0.031000 0.021099
# 5 0.024040 0.002798 0.011116 0.031000 0.059993 0.017870
# 6 0.005865 0.001142 0.009389 0.021099 0.017870 0.037808
#
#
# Mechanical properties :
#
#
# Convention : Reuss Voigt Hill
#
# Bulk Modulus (GPa) = 20.50786 65.05879 42.78333
# Shear Modulus (GPa) = 17.71005 32.02320 24.86662
#
# Velocity S-wave (km/s) = 2.91498 3.91974 3.45409
# Velocity P-wave (km/s) = 4.60097 7.19030 6.03611
#
# Compressibility (1/GPa) = 0.04876179
#
# Stress axis : x y z
#
# Youngs Moduli (GPa) = 31.13930 96.35968 31.88385
#
# Poissons Ratio (x) = -0.19471 0.27888
# Poissons Ratio (y) = -0.06292 0.18558
# Poissons Ratio (z) = 0.27237 0.56087
#
# Static dielectric constant tensor:
#      x y z
#    x 3.745410 -0.148720 -0.404320 
#    y -0.148720 4.138790 -0.211180 
#    z -0.404320 -0.211180 4.104300 
# 
# 
# High freq. dielectric constant tensor:
#      x y z
#    x 1.792950 -0.010080 -0.019430 
#    y -0.010080 1.822030 -0.020050 
#    z -0.019430 -0.020050 1.813830 
# 
# From -- ./inp_files/273089.got.cif
#   From: 2010.06.25/outbox.cif.g09.slc.cpg/sg2_137_cif.got.tgz:273089.got - 2010.06.27 13:26:56.
