data_PCOD8014949
_publ_section_title
;
Structure prediction by ZEFSAII (Michael W. Deem and Ramdas Pophale) SiO2 
 PCOD8014949
Probable space group: P -1
;
_chemical_formula_sum "Si O2"
_cell_formula_units_Z 14
_cell_length_a 11.613539
_cell_length_b 12.149800
_cell_length_c 11.229152
_cell_angle_alpha 99.910561
_cell_angle_beta 103.742832
_cell_angle_gamma 146.168849
_cell_volume 625.770336
_symmetry_space_group_name_H-M "P -1"
_symmetry_group_IT_number 2
_symmetry_cell_setting 'triclinic'
loop_
_space_group_symop_operation_xyz
x,y,z
-x,-y,-z
loop_
_atom_site_type_symbol
_atom_site_label
_atom_site_fract_x
_atom_site_fract_y
_atom_site_fract_z
Si Si1 0.657563 0.580477 0.226203
Si Si2 0.743248 0.971304 0.558988
Si Si3 0.280314 0.437370 0.021749
Si Si4 0.832564 0.287271 0.675947
Si Si5 0.373906 0.852768 0.815017
Si Si6 0.594120 0.228377 0.783662
Si Si7 0.624143 0.845571 0.761432
O O1 0.491117 0.556023 0.190569
O O2 0.001812 0.897082 0.384997
O O3 0.546322 0.400617 0.265432
O O4 0.590347 0.471774 0.059956
O O5 0.924922 0.237425 0.699678
O O6 0.545348 0.768738 0.586074
O O7 0.555477 0.834789 0.373119
O O8 0.274684 0.566079 0.060611
O O9 0.964623 0.116514 0.905943
O O10 0.849031 0.368140 0.820508
O O11 0.042131 0.530255 0.681563
O O12 0.500000 0.000000 0.500000
O O13 0.370740 0.957553 0.747541
O O14 0.552588 0.904348 0.811787
O O15 0.500000 0.000000 0.000000
#
# Coordination Sequence:
#
# PCOD8014949 Si02
#       7
#     2   2   2   2   2   2   2
#     4  10  21  42  64  87 120 164 215 245 311 366
#     4  10  22  39  61  89 121 168 201 251 309 372
#     4  10  23  40  63  90 123 164 201 266 302 363
#     4  10  22  40  58  89 128 163 201 245 310 372
#     4  12  24  36  66  96 125 164 208 257 312 371
#     4  11  24  40  59  93 132 154 204 257 311 365
#     4  11  21  38  64  89 121 161 213 247 309 369
#
# _framework density 22.372423000000001
#
# number of rings (size 3 to 8) (size 9 to 14) (size 15 to 20)
#    0.000    1.429    2.857    2.143    2.000    6.286 
#    0.000    0.714    0.000    0.000    0.000    0.000 
#    0.000    0.000    0.000    0.000    0.000    0.000 
#
# Total GULP energy -173538.951484 kJ/mol
# GULP energy per Si atom -12395.639392 kJ/mol
# Density = 2.232150 g / cm^3
# Si number density = 22.372423 Si / 1000 Ang^3
#
#
#
# Elastic Constant Matrix: (Units=GPa)
#
#
# Indices 1 2 3 4 5 6 
#
# 1 68.7217 19.4705 -4.7964 2.3512 2.7391 5.9201
# 2 19.4705 159.2002 18.3329 -8.1123 5.1148 5.5053
# 3 -4.7964 18.3329 26.3515 -6.3606 9.0053 8.3522
# 4 2.3512 -8.1123 -6.3606 31.0714 -1.1146 5.2336
# 5 2.7391 5.1148 9.0053 -1.1146 31.0154 2.2928
# 6 5.9201 5.5053 8.3522 5.2336 2.2928 32.2550
#
#
#
# Elastic Compliance Matrix: (Units=1/GPa)
#
#
# Indices 1 2 3 4 5 6 
#
# 1 0.016231 -0.002554 0.007034 0.000153 -0.002739 -0.004195
# 2 -0.002554 0.007254 -0.005701 0.000857 0.000677 0.000520
# 3 0.007034 -0.005701 0.055823 0.011525 -0.014320 -0.015625
# 4 0.000153 0.000857 0.011525 0.036203 -0.001540 -0.008923
# 5 -0.002739 0.000677 -0.014320 -0.001540 0.036345 0.001762
# 6 -0.004195 0.000520 -0.015625 -0.008923 0.001762 0.037053
#
#
# Mechanical properties :
#
#
# Convention : Reuss Voigt Hill
#
# Bulk Modulus (GPa) = 13.00973 35.58749 24.29861
# Shear Modulus (GPa) = 23.04430 33.61944 28.33187
#
# Velocity S-wave (km/s) = 3.21289 3.88070 3.56248
# Velocity P-wave (km/s) = 4.42620 6.00176 5.27316
#
# Compressibility (1/GPa) = 0.07686553
#
# Stress axis : x y z
#
# Youngs Moduli (GPa) = 61.60927 137.85044 17.91383
#
# Poissons Ratio (x) = 0.35211 -0.12600
# Poissons Ratio (y) = 0.15737 0.10213
# Poissons Ratio (z) = -0.43335 0.78588
#
# Static dielectric constant tensor:
#      x y z
#    x 4.619300 0.116070 -0.027510 
#    y 0.116070 4.115060 -0.176970 
#    z -0.027510 -0.176970 3.697080 
# 
# 
# High freq. dielectric constant tensor:
#      x y z
#    x 1.891210 0.008400 0.009590 
#    y 0.008400 1.886870 -0.012590 
#    z 0.009590 -0.012590 1.863620 
# 
# From -- ./inp_files/26831.got.cif
#   From: 2010.06.25/outbox.cif.g09.slc.cpg/sg2_14_cif.got.tgz:26831.got - 2010.06.27 13:26:56.
