data_PCOD8014213
_publ_section_title
;
Structure prediction by ZEFSAII (Michael W. Deem and Ramdas Pophale) SiO2 
 PCOD8014213
Probable space group: P -1
;
_chemical_formula_sum "Si O2"
_cell_formula_units_Z 16
_cell_length_a 9.049217
_cell_length_b 12.018014
_cell_length_c 8.721979
_cell_angle_alpha 91.033286
_cell_angle_beta 136.287051
_cell_angle_gamma 78.661788
_cell_volume 631.829486
_symmetry_space_group_name_H-M "P -1"
_symmetry_group_IT_number 2
_symmetry_cell_setting 'triclinic'
loop_
_space_group_symop_operation_xyz
x,y,z
-x,-y,-z
loop_
_atom_site_type_symbol
_atom_site_label
_atom_site_fract_x
_atom_site_fract_y
_atom_site_fract_z
Si Si1 0.759327 0.144377 0.691537
Si Si2 0.671957 0.760881 0.448584
Si Si3 0.352802 0.329435 0.022695
Si Si4 0.747682 0.496789 0.815917
Si Si5 0.009157 0.109388 0.191841
Si Si6 0.436198 0.885399 0.984567
Si Si7 0.413843 0.449903 0.768349
Si Si8 0.160315 0.646872 0.404432
O O1 0.505498 0.193221 0.549983
O O2 0.813888 0.224766 0.599822
O O3 0.923149 0.145437 0.957446
O O4 0.801107 0.012188 0.663572
O O5 0.596860 0.826688 0.237584
O O6 0.710781 0.626023 0.433481
O O7 0.899032 0.786397 0.674259
O O8 0.505674 0.199310 0.121388
O O9 0.428760 0.414296 0.957921
O O10 0.098560 0.341260 0.794431
O O11 0.382276 0.371496 0.221857
O O12 0.667738 0.422546 0.889289
O O13 0.694195 0.445078 0.613841
O O14 0.000000 0.500000 0.000000
O O15 0.818306 0.092180 0.161141
O O16 0.500000 0.000000 0.000000
O O17 0.268943 0.585305 0.642110
#
# Coordination Sequence:
#
# PCOD8014213 Si02
#       8
#     2   2   2   2   2   2   2   2
#     4  10  21  41  65  96 134 164 220 278 323 389
#     4  10  22  40  65  94 132 172 219 269 331 397
#     4  10  23  42  63  93 131 176 214 266 336 394
#     4  10  22  40  65  93 127 174 226 265 326 395
#     4  10  22  41  68  94 127 177 218 271 337 383
#     4  10  22  44  64  91 133 170 223 277 322 392
#     4  11  22  43  62  94 140 170 213 275 330 394
#     4  11  22  41  64  96 132 168 217 276 322 387
#
# _framework density 25.323288000000002
#
# number of rings (size 3 to 8) (size 9 to 14) (size 15 to 20)
#    0.000    1.750    1.250    2.250    0.000    3.500 
#    9.000    0.000    0.000    0.000    0.000    0.000 
#    0.000    0.000    0.000    0.000    0.000    0.000 
#
# Total GULP energy -198285.624794 kJ/mol
# GULP energy per Si atom -12392.851550 kJ/mol
# Density = 2.526565 g / cm^3
# Si number density = 25.323288 Si / 1000 Ang^3
#
#
#
# Elastic Constant Matrix: (Units=GPa)
#
#
# Indices 1 2 3 4 5 6 
#
# 1 110.8331 44.0695 18.0513 4.7706 4.6079 8.7443
# 2 44.0695 133.2244 29.5645 -4.1964 -10.9807 16.2245
# 3 18.0513 29.5645 61.0762 15.4210 4.3279 6.2174
# 4 4.7706 -4.1964 15.4210 41.1218 -0.4219 -0.8704
# 5 4.6079 -10.9807 4.3279 -0.4219 22.9273 12.9899
# 6 8.7443 16.2245 6.2174 -0.8704 12.9899 52.9160
#
#
#
# Elastic Compliance Matrix: (Units=1/GPa)
#
#
# Indices 1 2 3 4 5 6 
#
# 1 0.010886 -0.003893 -0.000725 -0.001421 -0.004221 0.000493
# 2 -0.003893 0.011560 -0.005633 0.003749 0.010088 -0.004654
# 3 -0.000725 -0.005633 0.021960 -0.008782 -0.007389 0.000936
# 4 -0.001421 0.003749 -0.008782 0.028194 0.004563 -0.000539
# 5 -0.004221 0.010088 -0.007389 0.004563 0.059933 -0.016165
# 6 0.000493 -0.004654 0.000936 -0.000539 -0.016165 0.024093
#
#
# Mechanical properties :
#
#
# Convention : Reuss Voigt Hill
#
# Bulk Modulus (GPa) = 41.83399 54.27825 48.05612
# Shear Modulus (GPa) = 27.01295 37.62292 32.31793
#
# Velocity S-wave (km/s) = 3.26962 3.85867 3.57629
# Velocity P-wave (km/s) = 5.55065 6.42908 6.00594
#
# Compressibility (1/GPa) = 0.02390401
#
# Stress axis : x y z
#
# Youngs Moduli (GPa) = 91.85828 86.50359 45.53816
#
# Poissons Ratio (x) = 0.33673 0.03304
# Poissons Ratio (y) = 0.35758 0.25651
# Poissons Ratio (z) = 0.06664 0.48727
#
# Static dielectric constant tensor:
#      x y z
#    x 4.905930 -0.395400 0.098080 
#    y -0.395400 3.717580 0.621250 
#    z 0.098080 0.621250 4.225100 
# 
# 
# High freq. dielectric constant tensor:
#      x y z
#    x 2.026700 0.005470 0.008790 
#    y 0.005470 2.019730 0.018170 
#    z 0.008790 0.018170 2.002110 
# 
# From -- ./inp_files/187980.got.cif
#   From: 2010.06.25/outbox.cif.g09.slc.cpg/sg2_94_cif.got.tgz:187980.got - 2010.06.27 13:26:56.
