data_PCOD8014898
_publ_section_title
;
Structure prediction by ZEFSAII (Michael W. Deem and Ramdas Pophale) SiO2 
 PCOD8014898
Probable space group: P -1
;
_chemical_formula_sum "Si O2"
_cell_formula_units_Z 16
_cell_length_a 21.754633
_cell_length_b 9.026461
_cell_length_c 21.961200
_cell_angle_alpha 142.169907
_cell_angle_beta 19.536649
_cell_angle_gamma 131.911602
_cell_volume 820.874351
_symmetry_space_group_name_H-M "P -1"
_symmetry_group_IT_number 2
_symmetry_cell_setting 'triclinic'
loop_
_space_group_symop_operation_xyz
x,y,z
-x,-y,-z
loop_
_atom_site_type_symbol
_atom_site_label
_atom_site_fract_x
_atom_site_fract_y
_atom_site_fract_z
Si Si1 0.462139 0.112471 0.243111
Si Si2 0.863463 0.259624 0.446580
Si Si3 0.630848 0.850507 0.885291
Si Si4 0.145038 0.908855 0.170279
Si Si5 0.148076 0.110738 0.024200
Si Si6 0.134240 0.558020 0.843400
Si Si7 0.571668 0.991693 0.625774
Si Si8 0.960410 0.490227 0.218664
O O1 0.458568 0.957487 0.257326
O O2 0.265067 0.367241 0.502716
O O3 0.652160 0.201831 0.095169
O O4 0.485180 0.913648 0.100747
O O5 0.720706 0.546848 0.690448
O O6 0.018631 0.267141 0.252805
O O7 0.728012 0.114632 0.496912
O O8 0.971394 0.112794 0.358722
O O9 0.810730 0.950108 0.764932
O O10 0.500000 0.000000 0.000000
O O11 0.082180 0.676393 0.175725
O O12 0.051293 0.233313 0.090803
O O13 0.174143 0.811854 0.907023
O O14 0.363739 0.128600 0.830674
O O15 0.343411 0.316992 0.566762
O O16 0.022985 0.596066 0.894926
O O17 0.000000 0.500000 0.000000
#
# Coordination Sequence:
#
# PCOD8014898 Si02
#       8
#     2   2   2   2   2   2   2   2
#     4   9  21  41  62  89 127 167 205 257 302 376
#     4  12  22  43  66  91 130 168 216 251 309 376
#     4  10  23  39  62  95 133 162 204 269 311 362
#     4  10  21  42  63  88 128 167 210 251 311 370
#     4  12  24  40  65  98 125 164 210 262 318 363
#     4  11  22  45  66  89 129 166 207 262 311 375
#     4  11  23  40  69  91 121 170 212 256 307 384
#     4  11  23  42  66  94 128 165 206 261 319 368
#
# _framework density 19.491412
#
# number of rings (size 3 to 8) (size 9 to 14) (size 15 to 20)
#    0.750    0.500    5.000    1.875    1.750    0.500 
#    2.250    1.875    0.000    0.000    0.000    0.000 
#    0.000    0.000    0.000    0.000    0.000    0.000 
#
# Total GULP energy -198390.180295 kJ/mol
# GULP energy per Si atom -12399.386268 kJ/mol
# Density = 1.944705 g / cm^3
# Si number density = 19.491412 Si / 1000 Ang^3
#
#
#
# Elastic Constant Matrix: (Units=GPa)
#
#
# Indices 1 2 3 4 5 6 
#
# 1 100.5581 18.6710 53.0350 6.2488 -4.7141 -1.5234
# 2 18.6710 67.9198 37.2307 -3.2587 -10.6834 1.9328
# 3 53.0350 37.2307 114.0969 -2.1284 -7.5925 -4.1398
# 4 6.2488 -3.2587 -2.1284 25.4744 8.8851 -1.6686
# 5 -4.7141 -10.6834 -7.5925 8.8851 38.7713 -4.3390
# 6 -1.5234 1.9328 -4.1398 -1.6686 -4.3390 27.0674
#
#
#
# Elastic Compliance Matrix: (Units=1/GPa)
#
#
# Indices 1 2 3 4 5 6 
#
# 1 0.013620 -0.000327 -0.006226 -0.004380 0.001326 -0.000220
# 2 -0.000327 0.018597 -0.005721 0.000604 0.003647 -0.001599
# 3 -0.006226 -0.005721 0.013655 0.002041 0.000130 0.002293
# 4 -0.004380 0.000604 0.002041 0.044123 -0.009949 0.001148
# 5 0.001326 0.003647 0.000130 -0.009949 0.029710 0.003983
# 6 -0.000220 -0.001599 0.002293 0.001148 0.003983 0.038107
#
#
# Mechanical properties :
#
#
# Convention : Reuss Voigt Hill
#
# Bulk Modulus (GPa) = 46.89170 55.60534 51.24852
# Shear Modulus (GPa) = 26.39019 29.83849 28.11434
#
# Velocity S-wave (km/s) = 3.68358 3.91686 3.80201
# Velocity P-wave (km/s) = 6.49627 7.00327 6.75453
#
# Compressibility (1/GPa) = 0.02132574
#
# Stress axis : x y z
#
# Youngs Moduli (GPa) = 73.42395 53.77222 73.23435
#
# Poissons Ratio (x) = 0.01757 0.45592
# Poissons Ratio (y) = 0.02399 0.41894
# Poissons Ratio (z) = 0.45710 0.30761
#
# Static dielectric constant tensor:
#      x y z
#    x 3.591830 0.005170 -0.040860 
#    y 0.005170 3.535950 -0.051290 
#    z -0.040860 -0.051290 3.694190 
# 
# 
# High freq. dielectric constant tensor:
#      x y z
#    x 1.761970 0.000930 -0.004200 
#    y 0.000930 1.745370 -0.003410 
#    z -0.004200 -0.003410 1.767170 
# 
# From -- ./inp_files/206691.got.cif
#   From: 2010.06.25/outbox.cif.g09.slc.cpg/sg2_104_cif.got.tgz:206691.got - 2010.06.27 13:26:56.
