data_PCOD8014130
_publ_section_title
;
Structure prediction by ZEFSAII (Michael W. Deem and Ramdas Pophale) SiO2 
 PCOD8014130
Probable space group: P -1
;
_chemical_formula_sum "Si O2"
_cell_formula_units_Z 16
_cell_length_a 8.315810
_cell_length_b 10.064159
_cell_length_c 11.982381
_cell_angle_alpha 80.008235
_cell_angle_beta 51.921526
_cell_angle_gamma 85.665966
_cell_volume 776.778147
_symmetry_space_group_name_H-M "P -1"
_symmetry_group_IT_number 2
_symmetry_cell_setting 'triclinic'
loop_
_space_group_symop_operation_xyz
x,y,z
-x,-y,-z
loop_
_atom_site_type_symbol
_atom_site_label
_atom_site_fract_x
_atom_site_fract_y
_atom_site_fract_z
Si Si1 0.466424 0.487574 0.887141
Si Si2 0.522561 0.640171 0.413357
Si Si3 0.558857 0.988155 0.106359
Si Si4 0.272480 0.761462 0.870260
Si Si5 0.798033 0.723363 0.086515
Si Si6 0.377099 0.861421 0.570795
Si Si7 0.826040 0.385190 0.605623
Si Si8 0.166941 0.891943 0.429387
O O1 0.413400 0.631142 0.834280
O O2 0.282353 0.377558 0.961676
O O3 0.679257 0.430678 0.760338
O O4 0.500000 0.500000 0.000000
O O5 0.500000 0.500000 0.500000
O O6 0.714739 0.661259 0.247420
O O7 0.541922 0.750180 0.487021
O O8 0.311094 0.647724 0.437964
O O9 0.723320 0.873199 0.071465
O O10 0.365925 0.955444 0.272644
O O11 0.657641 0.132086 0.080303
O O12 0.500000 0.000000 0.000000
O O13 0.277632 0.830095 0.737102
O O14 0.038794 0.717159 0.997671
O O15 0.209849 0.856509 0.545425
O O16 0.500000 0.000000 0.500000
O O17 0.919136 0.234790 0.594125
O O18 0.000000 0.500000 0.500000
O O19 0.000000 0.000000 0.500000
#
# Coordination Sequence:
#
# PCOD8014130 Si02
#       8
#     2   2   2   2   2   2   2   2
#     4  11  24  44  67  99 140 176 224 286 336 408
#     4  10  21  41  65  90 130 171 209 277 333 386
#     4  12  25  47  67  97 141 180 227 287 345 403
#     4  12  26  40  72 103 129 188 230 276 350 406
#     4  11  23  47  64  99 140 173 235 277 337 415
#     4  11  21  42  64  95 136 168 224 281 326 402
#     4  10  23  42  64  93 130 169 221 270 333 399
#     4  11  25  44  68  99 134 178 226 284 342 405
#
# _framework density 20.597902000000001
#
# number of rings (size 3 to 8) (size 9 to 14) (size 15 to 20)
#    0.000    1.000    5.000    3.000    3.500    4.000 
#    0.000    0.000    0.000    0.000    0.000    0.000 
#    0.000    0.000    0.000    0.000    0.000    0.000 
#
# Total GULP energy -198277.786096 kJ/mol
# GULP energy per Si atom -12392.361631 kJ/mol
# Density = 2.055102 g / cm^3
# Si number density = 20.597902 Si / 1000 Ang^3
#
#
#
# Elastic Constant Matrix: (Units=GPa)
#
#
# Indices 1 2 3 4 5 6 
#
# 1 65.0190 43.3791 70.4107 11.5734 0.3250 14.9598
# 2 43.3791 185.8387 64.2654 13.0492 -7.8367 11.2027
# 3 70.4107 64.2654 119.6736 1.5890 1.2569 5.5492
# 4 11.5734 13.0492 1.5890 35.3933 4.2925 -2.2316
# 5 0.3250 -7.8367 1.2569 4.2925 39.3064 -6.6384
# 6 14.9598 11.2027 5.5492 -2.2316 -6.6384 47.2217
#
#
#
# Elastic Compliance Matrix: (Units=1/GPa)
#
#
# Indices 1 2 3 4 5 6 
#
# 1 0.058435 0.000198 -0.033522 -0.018659 0.000049 -0.015495
# 2 0.000198 0.006976 -0.003789 -0.002736 0.001611 -0.001175
# 3 -0.033522 -0.003789 0.029581 0.011716 -0.001282 0.008416
# 4 -0.018659 -0.002736 0.011716 0.035674 -0.003587 0.006365
# 5 0.000049 0.001611 -0.001282 -0.003587 0.026760 0.003345
# 6 -0.015495 -0.001175 0.008416 0.006365 0.003345 0.026147
#
#
# Mechanical properties :
#
#
# Convention : Reuss Voigt Hill
#
# Bulk Modulus (GPa) = 48.15091 80.73797 64.44444
# Shear Modulus (GPa) = 18.88789 37.21604 28.05196
#
# Velocity S-wave (km/s) = 3.03146 4.25524 3.69438
# Velocity P-wave (km/s) = 5.97330 7.96399 7.03937
#
# Compressibility (1/GPa) = 0.02076804
#
# Stress axis : x y z
#
# Youngs Moduli (GPa) = 17.11290 143.35184 33.80543
#
# Poissons Ratio (x) = -0.02843 1.13321
# Poissons Ratio (y) = -0.00339 0.12808
# Poissons Ratio (z) = 0.57365 0.54314
#
# Static dielectric constant tensor:
#      x y z
#    x 3.537830 -0.158470 0.207980 
#    y -0.158470 4.237370 0.355950 
#    z 0.207980 0.355950 3.324870 
# 
# 
# High freq. dielectric constant tensor:
#      x y z
#    x 1.794510 0.005190 0.006300 
#    y 0.005190 1.840700 0.005800 
#    z 0.006300 0.005800 1.806870 
# 
# From -- ./inp_files/298739.got.cif
#   From: 2010.06.25/outbox.cif.g09.slc.cpg/sg2_150_cif.got.tgz:298739.got - 2010.06.27 13:26:56.
