data_PCOD8014888
_publ_section_title
;
Structure prediction by ZEFSAII (Michael W. Deem and Ramdas Pophale) SiO2 
 PCOD8014888
Probable space group: P -1
;
_chemical_formula_sum "Si O2"
_cell_formula_units_Z 16
_cell_length_a 11.999904
_cell_length_b 18.147113
_cell_length_c 9.099477
_cell_angle_alpha 143.401784
_cell_angle_beta 140.625241
_cell_angle_gamma 38.107319
_cell_volume 673.175708
_symmetry_space_group_name_H-M "P -1"
_symmetry_group_IT_number 2
_symmetry_cell_setting 'triclinic'
loop_
_space_group_symop_operation_xyz
x,y,z
-x,-y,-z
loop_
_atom_site_type_symbol
_atom_site_label
_atom_site_fract_x
_atom_site_fract_y
_atom_site_fract_z
Si Si1 0.936609 0.615348 0.937163
Si Si2 0.648184 0.013082 0.061793
Si Si3 0.283165 0.353352 0.946077
Si Si4 0.652402 0.518494 0.359435
Si Si5 0.572905 0.877723 0.495545
Si Si6 0.954967 0.171557 0.721849
Si Si7 0.365112 0.726109 0.188736
Si Si8 0.390708 0.713502 0.631361
O O1 0.850185 0.522854 0.619025
O O2 0.163063 0.514339 0.043489
O O3 0.816021 0.680535 0.067321
O O4 0.931331 0.732094 0.006421
O O5 0.862384 0.979362 0.302037
O O6 0.539115 0.173267 0.170771
O O7 0.683343 0.916635 0.800435
O O8 0.500000 0.000000 0.000000
O O9 0.277701 0.259923 0.655510
O O10 0.510805 0.324707 0.167104
O O11 0.571482 0.613152 0.283429
O O12 0.487255 0.577463 0.412121
O O13 0.705406 0.358616 0.130849
O O14 0.396776 0.847974 0.335263
O O15 0.500000 0.000000 0.500000
O O16 0.793690 0.206685 0.738827
O O17 0.846882 0.208115 0.507243
#
# Coordination Sequence:
#
# PCOD8014888 Si02
#       8
#     2   2   2   2   2   2   2   2
#     4  10  22  42  68 100 137 186 234 289 341 425
#     4  12  24  45  72  96 139 187 236 282 342 421
#     4  10  23  44  64  98 138 188 228 278 359 412
#     4   9  20  41  68  98 138 175 233 291 345 404
#     4  12  26  46  71  97 142 191 230 284 356 422
#     4  11  24  41  71 105 132 182 241 294 343 409
#     4  10  23  42  66 104 137 179 231 300 351 403
#     4  10  21  42  62  98 135 181 230 279 344 406
#
# _framework density 23.767938999999998
#
# number of rings (size 3 to 8) (size 9 to 14) (size 15 to 20)
#    0.000    1.500    1.250    4.125    7.000    1.000 
#    4.500    0.625    0.000    0.000    0.000    0.000 
#    0.000    0.000    0.000    0.000    0.000    0.000 
#
# Total GULP energy -198276.587652 kJ/mol
# GULP energy per Si atom -12392.286728 kJ/mol
# Density = 2.371384 g / cm^3
# Si number density = 23.767939 Si / 1000 Ang^3
#
#
#
# Elastic Constant Matrix: (Units=GPa)
#
#
# Indices 1 2 3 4 5 6 
#
# 1 102.1322 22.9531 27.3461 3.8500 1.1022 2.8381
# 2 22.9531 85.2974 3.0464 -17.2628 -5.6538 -11.8914
# 3 27.3461 3.0464 99.0981 -13.8152 -20.1239 -14.8368
# 4 3.8500 -17.2628 -13.8152 45.5122 -6.9452 7.0455
# 5 1.1022 -5.6538 -20.1239 -6.9452 35.0161 6.5283
# 6 2.8381 -11.8914 -14.8368 7.0455 6.5283 34.0558
#
#
#
# Elastic Compliance Matrix: (Units=1/GPa)
#
#
# Indices 1 2 3 4 5 6 
#
# 1 0.012694 -0.004964 -0.005465 -0.004824 -0.004688 -0.003276
# 2 -0.004964 0.015481 0.003766 0.007505 0.005401 0.004872
# 3 -0.005465 0.003766 0.015297 0.007301 0.010089 0.004990
# 4 -0.004824 0.007505 0.007301 0.029588 0.011836 -0.002187
# 5 -0.004688 0.005401 0.010089 0.011836 0.038306 -0.003120
# 6 -0.003276 0.004872 0.004990 -0.002187 -0.003120 0.034562
#
#
# Mechanical properties :
#
#
# Convention : Reuss Voigt Hill
#
# Bulk Modulus (GPa) = 33.17176 43.69100 38.43138
# Shear Modulus (GPa) = 29.53294 38.46228 33.99761
#
# Velocity S-wave (km/s) = 3.52881 4.02710 3.78616
# Velocity P-wave (km/s) = 5.53084 6.32816 5.94289
#
# Compressibility (1/GPa) = 0.03014612
#
# Stress axis : x y z
#
# Youngs Moduli (GPa) = 78.77936 64.59450 65.37135
#
# Poissons Ratio (x) = 0.32067 0.35726
# Poissons Ratio (y) = 0.39109 -0.24622
# Poissons Ratio (z) = 0.43054 -0.24329
#
# Static dielectric constant tensor:
#      x y z
#    x 4.028060 0.033380 -0.166820 
#    y 0.033380 4.730360 0.220880 
#    z -0.166820 0.220880 5.072200 
# 
# 
# High freq. dielectric constant tensor:
#      x y z
#    x 1.915530 0.010940 0.007820 
#    y 0.010940 1.948730 0.004690 
#    z 0.007820 0.004690 1.957360 
# 
# From -- ./inp_files/280206.got.cif
#   From: 2010.06.25/outbox.cif.g09.slc.cpg/sg2_141_cif.got.tgz:280206.got - 2010.06.27 13:26:56.
