data_PCOD8014590
_publ_section_title
;
Structure prediction by ZEFSAII (Michael W. Deem and Ramdas Pophale) SiO2 
 PCOD8014590
Probable space group: P -1
;
_chemical_formula_sum "Si O2"
_cell_formula_units_Z 16
_cell_length_a 8.565444
_cell_length_b 7.981852
_cell_length_c 21.714980
_cell_angle_alpha 108.560504
_cell_angle_beta 142.757705
_cell_angle_gamma 96.711379
_cell_volume 650.602712
_symmetry_space_group_name_H-M "P -1"
_symmetry_group_IT_number 2
_symmetry_cell_setting 'triclinic'
loop_
_space_group_symop_operation_xyz
x,y,z
-x,-y,-z
loop_
_atom_site_type_symbol
_atom_site_label
_atom_site_fract_x
_atom_site_fract_y
_atom_site_fract_z
Si Si1 0.244380 0.347396 0.264923
Si Si2 0.956884 0.158977 0.273561
Si Si3 0.772656 0.462975 0.263716
Si Si4 0.112217 0.115867 0.953665
Si Si5 0.392000 0.738135 0.981283
Si Si6 0.282569 0.272815 0.624791
Si Si7 0.842969 0.127686 0.659608
Si Si8 0.883107 0.294816 0.826296
O O1 0.606792 0.594845 0.391346
O O2 0.254436 0.274247 0.328452
O O3 0.936990 0.352183 0.171755
O O4 0.135530 0.162986 0.154538
O O5 0.964867 0.361810 0.327809
O O6 0.026351 0.020252 0.323597
O O7 0.577288 0.979979 0.104148
O O8 0.853317 0.629250 0.364471
O O9 0.892207 0.615739 0.256645
O O10 0.365765 0.246827 0.106148
O O11 0.868787 0.175115 0.870936
O O12 0.323353 0.210352 0.967511
O O13 0.265265 0.538128 0.967344
O O14 0.624690 0.338268 0.765699
O O15 0.000000 0.000000 0.500000
O O16 0.781211 0.144543 0.714099
O O17 0.500000 0.000000 0.500000
#
# Coordination Sequence:
#
# PCOD8014590 Si02
#       8
#     2   2   2   2   2   2   2   2
#     4  10  19  39  71 102 130 180 224 278 349 412
#     4  11  21  41  73 107 132 173 225 293 352 396
#     4  12  24  43  69 102 146 174 225 296 338 409
#     4  11  18  35  70 110 132 161 225 291 359 398
#     4  10  16  34  67 106 134 162 214 285 358 406
#     4  11  27  48  63  89 142 201 233 267 332 419
#     4  12  25  42  69 102 140 181 237 285 330 406
#     4  11  21  40  70  97 136 188 221 279 353 406
#
# _framework density 24.592580999999999
#
# number of rings (size 3 to 8) (size 9 to 14) (size 15 to 20)
#    0.000    1.000    6.250    3.375    0.000    1.500 
#    2.250    0.625    0.000    0.000    0.000    0.000 
#    0.000    0.000    0.000    0.000    0.000    0.000 
#
# Total GULP energy -198224.117828 kJ/mol
# GULP energy per Si atom -12389.007364 kJ/mol
# Density = 2.453661 g / cm^3
# Si number density = 24.592581 Si / 1000 Ang^3
#
#
#
# Elastic Constant Matrix: (Units=GPa)
#
#
# Indices 1 2 3 4 5 6 
#
# 1 66.3947 36.2920 27.6851 8.3016 -7.9908 -23.6028
# 2 36.2920 143.2739 28.5512 18.7900 1.0686 -26.4556
# 3 27.6851 28.5512 81.1488 31.9373 0.0300 1.5405
# 4 8.3016 18.7900 31.9373 44.3501 -0.1444 0.2117
# 5 -7.9908 1.0686 0.0300 -0.1444 24.9540 10.6533
# 6 -23.6028 -26.4556 1.5405 0.2117 10.6533 33.4526
#
#
#
# Elastic Compliance Matrix: (Units=1/GPa)
#
#
# Indices 1 2 3 4 5 6 
#
# 1 0.025853 -0.001927 -0.009556 0.002782 0.001240 0.016745
# 2 -0.001927 0.009628 -0.001942 -0.002371 -0.004346 0.007743
# 3 -0.009556 -0.001942 0.021490 -0.012815 0.000978 -0.009498
# 4 0.002782 -0.002371 -0.012815 0.032263 0.001148 0.000109
# 5 0.001240 -0.004346 0.000978 0.001148 0.048352 -0.018013
# 6 0.016745 0.007743 -0.009498 0.000109 -0.018013 0.054004
#
#
# Mechanical properties :
#
#
# Convention : Reuss Voigt Hill
#
# Bulk Modulus (GPa) = 33.19896 52.87488 43.03692
# Shear Modulus (GPa) = 21.88364 33.77062 27.82713
#
# Velocity S-wave (km/s) = 2.98627 3.70970 3.36746
# Velocity P-wave (km/s) = 5.04175 6.31634 5.71469
#
# Compressibility (1/GPa) = 0.03012143
#
# Stress axis : x y z
#
# Youngs Moduli (GPa) = 38.68010 103.86443 46.53308
#
# Poissons Ratio (x) = 0.20012 0.44465
# Poissons Ratio (y) = 0.07453 0.09039
# Poissons Ratio (z) = 0.36961 0.20176
#
# Static dielectric constant tensor:
#      x y z
#    x 4.047950 -0.116340 0.149020 
#    y -0.116340 4.793110 0.410260 
#    z 0.149020 0.410260 4.257950 
# 
# 
# High freq. dielectric constant tensor:
#      x y z
#    x 1.939380 -0.018240 0.005210 
#    y -0.018240 1.998690 0.022340 
#    z 0.005210 0.022340 1.958950 
# 
# From -- ./inp_files/606424.got.cif
#   From: 2010.06.25/outbox.cif.g09.slc.cpg/sg2_304_cif.got.tgz:606424.got - 2010.06.27 13:26:56.
