data_PCOD8014772
_publ_section_title
;
Structure prediction by ZEFSAII (Michael W. Deem and Ramdas Pophale) SiO2 
 PCOD8014772
Probable space group: P -1
;
_chemical_formula_sum "Si O2"
_cell_formula_units_Z 16
_cell_length_a 11.487778
_cell_length_b 8.261811
_cell_length_c 10.650235
_cell_angle_alpha 97.864891
_cell_angle_beta 54.228383
_cell_angle_gamma 118.912261
_cell_volume 702.621171
_symmetry_space_group_name_H-M "P -1"
_symmetry_group_IT_number 2
_symmetry_cell_setting 'triclinic'
loop_
_space_group_symop_operation_xyz
x,y,z
-x,-y,-z
loop_
_atom_site_type_symbol
_atom_site_label
_atom_site_fract_x
_atom_site_fract_y
_atom_site_fract_z
Si Si1 0.618626 0.246936 0.365230
Si Si2 0.144321 0.691123 0.985325
Si Si3 0.664158 0.135287 0.569679
Si Si4 0.475338 0.290448 0.846989
Si Si5 0.429919 0.350317 0.340076
Si Si6 0.102361 0.008982 0.558568
Si Si7 0.088257 0.017691 0.077200
Si Si8 0.558972 0.210615 0.033734
O O1 0.702703 0.296107 0.455257
O O2 0.578826 0.409699 0.356622
O O3 0.436156 0.061438 0.463514
O O4 0.732773 0.205544 0.196848
O O5 0.247863 0.671668 0.033286
O O6 0.071422 0.817115 0.096223
O O7 0.000000 0.500000 0.000000
O O8 0.553256 0.158487 0.747697
O O9 0.828403 0.138184 0.518547
O O10 0.546901 0.468940 0.729395
O O11 0.537253 0.341135 0.957034
O O12 0.277673 0.181049 0.958113
O O13 0.247368 0.229289 0.502301
O O14 0.444866 0.200001 0.221915
O O15 0.000000 0.000000 0.500000
O O16 0.993650 0.940281 0.747217
O O17 0.000000 0.000000 0.000000
O O18 0.500000 0.000000 0.000000
#
# Coordination Sequence:
#
# PCOD8014772 Si02
#       8
#     2   2   2   2   2   2   2   2
#     4   9  19  41  65  94 129 185 234 280 346 431
#     4  11  24  42  67 103 139 180 236 301 361 418
#     4  10  21  41  72  92 130 189 239 277 351 443
#     4  12  24  43  73 105 138 187 251 289 355 446
#     4  10  24  41  68 102 136 181 239 301 349 430
#     4  11  25  46  70 101 148 187 241 303 376 427
#     4  12  27  43  71 109 148 189 235 307 374 426
#     4  11  21  44  73  98 134 194 249 285 352 448
#
# _framework density 22.771875000000001
#
# number of rings (size 3 to 8) (size 9 to 14) (size 15 to 20)
#    0.000    1.250    2.500    3.375    8.750    1.500 
#    2.250    0.625    0.000    0.000    0.000    0.000 
#    0.000    0.000    0.000    0.000    0.000    0.000 
#
# Total GULP energy -198262.490561 kJ/mol
# GULP energy per Si atom -12391.405660 kJ/mol
# Density = 2.272005 g / cm^3
# Si number density = 22.771875 Si / 1000 Ang^3
#
#
#
# Elastic Constant Matrix: (Units=GPa)
#
#
# Indices 1 2 3 4 5 6 
#
# 1 206.0726 26.5017 60.7559 -12.3354 8.9152 5.2292
# 2 26.5017 67.6168 15.0604 -13.1987 -14.2616 1.8763
# 3 60.7559 15.0604 122.2502 -2.3434 -10.1750 -3.8840
# 4 -12.3354 -13.1987 -2.3434 23.6887 -7.4790 1.7237
# 5 8.9152 -14.2616 -10.1750 -7.4790 39.8673 -0.2380
# 6 5.2292 1.8763 -3.8840 1.7237 -0.2380 30.9484
#
#
#
# Elastic Compliance Matrix: (Units=1/GPa)
#
#
# Indices 1 2 3 4 5 6 
#
# 1 0.006254 -0.002109 -0.003104 0.001003 -0.002765 -0.001395
# 2 -0.002109 0.020602 -0.000422 0.013709 0.010296 -0.001630
# 3 -0.003104 -0.000422 0.010093 0.000001 0.003130 0.001841
# 4 0.001003 0.013709 0.000001 0.055416 0.015052 -0.003971
# 5 -0.002765 0.010296 0.003130 0.015052 0.033005 -0.000349
# 6 -0.001395 -0.001630 0.001841 -0.003971 -0.000349 0.033096
#
#
# Mechanical properties :
#
#
# Convention : Reuss Voigt Hill
#
# Bulk Modulus (GPa) = 38.93929 66.73062 52.83495
# Shear Modulus (GPa) = 28.04328 38.47565 33.25947
#
# Velocity S-wave (km/s) = 3.51306 4.11495 3.82586
# Velocity P-wave (km/s) = 5.79589 7.20726 6.53976
#
# Compressibility (1/GPa) = 0.02568100
#
# Stress axis : x y z
#
# Youngs Moduli (GPa) = 159.89954 48.53814 99.07446
#
# Poissons Ratio (x) = 0.10234 0.30748
# Poissons Ratio (y) = 0.33715 0.04184
# Poissons Ratio (z) = 0.49626 0.02050
#
# Static dielectric constant tensor:
#      x y z
#    x 4.724240 -0.188400 0.060480 
#    y -0.188400 3.729230 0.056900 
#    z 0.060480 0.056900 4.292810 
# 
# 
# High freq. dielectric constant tensor:
#      x y z
#    x 1.924110 -0.018510 0.008470 
#    y -0.018510 1.862660 0.006440 
#    z 0.008470 0.006440 1.903880 
# 
# From -- ./inp_files/419528.got.cif
#   From: 2010.06.25/outbox.cif.g09.slc.cpg/sg2_210_cif.got.tgz:419528.got - 2010.06.27 13:26:56.
