data_PCOD8014379
_publ_section_title
;
Structure prediction by ZEFSAII (Michael W. Deem and Ramdas Pophale) SiO2 
 PCOD8014379
Probable space group: P -1
;
_chemical_formula_sum "Si O2"
_cell_formula_units_Z 16
_cell_length_a 17.970734
_cell_length_b 8.910770
_cell_length_c 11.404411
_cell_angle_alpha 77.645238
_cell_angle_beta 131.121542
_cell_angle_gamma 139.836027
_cell_volume 713.794394
_symmetry_space_group_name_H-M "P -1"
_symmetry_group_IT_number 2
_symmetry_cell_setting 'triclinic'
loop_
_space_group_symop_operation_xyz
x,y,z
-x,-y,-z
loop_
_atom_site_type_symbol
_atom_site_label
_atom_site_fract_x
_atom_site_fract_y
_atom_site_fract_z
Si Si1 0.571847 0.798514 0.852374
Si Si2 0.795164 0.766462 0.788972
Si Si3 0.348694 0.685355 0.446161
Si Si4 0.179483 0.928112 0.417696
Si Si5 0.013034 0.630957 0.772021
Si Si6 0.985962 0.661607 0.487035
Si Si7 0.397752 0.714701 0.903347
Si Si8 0.560140 0.449462 0.821681
O O1 0.441754 0.728600 0.646615
O O2 0.533160 0.797182 0.945816
O O3 0.509425 0.540079 0.819852
O O4 0.792197 0.114644 0.997177
O O5 0.692538 0.489000 0.669754
O O6 0.695121 0.677957 0.819903
O O7 0.789158 0.901756 0.674052
O O8 0.000000 0.000000 0.000000
O O9 0.152017 0.505345 0.304595
O O10 0.500000 0.000000 0.500000
O O11 0.051986 0.627462 0.281271
O O12 0.090413 0.884957 0.451212
O O13 0.379239 0.127081 0.632993
O O14 0.064802 0.790435 0.678373
O O15 0.783624 0.467671 0.320680
O O16 0.000000 0.500000 0.500000
O O17 0.344727 0.543265 0.990919
O O18 0.500000 0.000000 0.000000
#
# Coordination Sequence:
#
# PCOD8014379 Si02
#       8
#     2   2   2   2   2   2   2   2
#     4  12  27  48  73 109 148 190 239 300 369 421
#     4  12  27  47  71 103 142 191 242 291 367 433
#     4  12  28  47  73 108 147 190 245 296 355 437
#     4  11  23  44  70 100 142 187 235 297 359 426
#     4  11  24  46  72 104 144 187 243 298 358 426
#     4  10  21  41  67 106 139 178 235 298 352 417
#     4  12  24  44  77 106 142 190 246 297 358 436
#     4  12  26  47  71 103 148 189 239 301 364 429
#
# _framework density 22.415419
#
# number of rings (size 3 to 8) (size 9 to 14) (size 15 to 20)
#    0.000    0.500    2.500    6.750    5.250    0.500 
#    0.000    1.875    0.000    0.000    0.000    0.000 
#    0.000    0.000    0.000    0.000    0.000    0.000 
#
# Total GULP energy -198386.876880 kJ/mol
# GULP energy per Si atom -12399.179805 kJ/mol
# Density = 2.236440 g / cm^3
# Si number density = 22.415419 Si / 1000 Ang^3
#
#
#
# Elastic Constant Matrix: (Units=GPa)
#
#
# Indices 1 2 3 4 5 6 
#
# 1 113.9755 47.0187 26.3667 -8.9950 4.6821 14.0579
# 2 47.0187 121.6805 25.7627 -10.9489 -7.6341 1.5831
# 3 26.3667 25.7627 118.1463 10.7522 13.8727 -2.9049
# 4 -8.9950 -10.9489 10.7522 35.2755 3.6940 -0.6229
# 5 4.6821 -7.6341 13.8727 3.6940 41.5449 5.7697
# 6 14.0579 1.5831 -2.9049 -0.6229 5.7697 36.6101
#
#
#
# Elastic Compliance Matrix: (Units=1/GPa)
#
#
# Indices 1 2 3 4 5 6 
#
# 1 0.011561 -0.003848 -0.001946 0.002375 -0.000984 -0.004232
# 2 -0.003848 0.010525 -0.001983 0.002612 0.002731 0.000479
# 3 -0.001946 -0.001983 0.010138 -0.003799 -0.003487 0.002122
# 4 0.002375 0.002612 -0.003799 0.031037 -0.001194 -0.000610
# 5 -0.000984 0.002731 -0.003487 -0.001194 0.026540 -0.004220
# 6 -0.004232 0.000479 0.002122 -0.000610 -0.004220 0.029742
#
#
# Mechanical properties :
#
#
# Convention : Reuss Voigt Hill
#
# Bulk Modulus (GPa) = 59.98523 61.34427 60.66475
# Shear Modulus (GPa) = 35.54804 39.66304 37.60554
#
# Velocity S-wave (km/s) = 3.98662 4.21105 4.10037
# Velocity P-wave (km/s) = 6.92890 7.14635 7.03847
#
# Compressibility (1/GPa) = 0.01667077
#
# Stress axis : x y z
#
# Youngs Moduli (GPa) = 86.49509 95.00877 98.63800
#
# Poissons Ratio (x) = 0.36564 0.19191
# Poissons Ratio (y) = 0.33287 0.19559
# Poissons Ratio (z) = 0.16829 0.18839
#
# Static dielectric constant tensor:
#      x y z
#    x 4.234400 0.309010 -0.142450 
#    y 0.309010 4.267580 -0.114390 
#    z -0.142450 -0.114390 4.073380 
# 
# 
# High freq. dielectric constant tensor:
#      x y z
#    x 1.890280 0.010560 0.002000 
#    y 0.010560 1.886020 -0.003590 
#    z 0.002000 -0.003590 1.898350 
# 
# From -- ./inp_files/462149.got.cif
#   From: 2010.06.25/outbox.cif.g09.slc.cpg/sg2_232_cif.got.tgz:462149.got - 2010.06.27 13:26:56.
