data_PCOD8014624
_publ_section_title
;
Structure prediction by ZEFSAII (Michael W. Deem and Ramdas Pophale) SiO2 
 PCOD8014624
Probable space group: P -1
;
_chemical_formula_sum "Si O2"
_cell_formula_units_Z 16
_cell_length_a 15.570189
_cell_length_b 11.911079
_cell_length_c 8.850261
_cell_angle_alpha 104.785019
_cell_angle_beta 86.929184
_cell_angle_gamma 153.261138
_cell_volume 654.190322
_symmetry_space_group_name_H-M "P -1"
_symmetry_group_IT_number 2
_symmetry_cell_setting 'triclinic'
loop_
_space_group_symop_operation_xyz
x,y,z
-x,-y,-z
loop_
_atom_site_type_symbol
_atom_site_label
_atom_site_fract_x
_atom_site_fract_y
_atom_site_fract_z
Si Si1 0.304206 0.912409 0.910972
Si Si2 0.139955 0.619973 0.310890
Si Si3 0.467454 0.888266 0.749730
Si Si4 0.451371 0.567227 0.967727
Si Si5 0.895745 0.646838 0.579971
Si Si6 0.269490 0.025111 0.504584
Si Si7 0.730154 0.636009 0.792813
Si Si8 0.604693 0.701730 0.691323
O O1 0.338570 0.846772 0.774233
O O2 0.057342 0.610988 0.863140
O O3 0.447397 0.070635 0.097217
O O4 0.369498 0.116846 0.903260
O O5 0.090798 0.458923 0.376216
O O6 0.182699 0.789635 0.459560
O O7 0.342919 0.834853 0.273715
O O8 0.316948 0.610113 0.586478
O O9 0.435561 0.541601 0.776456
O O10 0.500000 0.500000 0.000000
O O11 0.251127 0.356363 0.021374
O O12 0.890955 0.748220 0.733079
O O13 0.103023 0.913444 0.549256
O O14 0.490138 0.313160 0.662689
O O15 0.281632 0.054888 0.328271
O O16 0.769714 0.819214 0.801734
O O17 0.500000 0.500000 0.500000
#
# Coordination Sequence:
#
# PCOD8014624 Si02
#       8
#     2   2   2   2   2   2   2   2
#     4  11  24  41  64  95 136 174 217 274 334 393
#     4  12  23  39  66  94 135 177 218 272 327 397
#     4  11  24  40  62  98 135 176 221 269 335 391
#     4  10  21  41  69  95 125 173 224 270 328 391
#     4  12  24  38  67 101 135 176 224 268 335 396
#     4  11  22  39  67  96 136 175 222 273 328 397
#     4  10  22  41  68  94 135 174 225 275 327 391
#     4   9  21  41  68  95 124 179 223 271 337 392
#
# _framework density 24.457713999999999
#
# number of rings (size 3 to 8) (size 9 to 14) (size 15 to 20)
#    0.000    1.250    2.500    3.375    3.500    0.500 
#    0.000    0.000    2.750   15.750    0.000    0.000 
#    0.000    0.000    0.000    0.000    0.000    0.000 
#
# Total GULP energy -198238.135390 kJ/mol
# GULP energy per Si atom -12389.883462 kJ/mol
# Density = 2.440205 g / cm^3
# Si number density = 24.457714 Si / 1000 Ang^3
#
#
#
# Elastic Constant Matrix: (Units=GPa)
#
#
# Indices 1 2 3 4 5 6 
#
# 1 74.5496 15.9786 38.1325 -11.2493 1.7437 7.2657
# 2 15.9786 40.2824 20.9669 -26.5468 18.4018 16.3688
# 3 38.1325 20.9669 83.3702 -32.7032 -12.6425 20.1144
# 4 -11.2493 -26.5468 -32.7032 55.6789 12.7170 -10.7603
# 5 1.7437 18.4018 -12.6425 12.7170 29.0275 -7.0961
# 6 7.2657 16.3688 20.1144 -10.7603 -7.0961 38.9990
#
#
#
# Elastic Compliance Matrix: (Units=1/GPa)
#
#
# Indices 1 2 3 4 5 6 
#
# 1 0.017837 0.012233 -0.010202 0.006502 -0.017228 -0.004536
# 2 0.012233 -0.410900 0.026384 -0.241220 0.417499 0.165988
# 3 -0.010202 0.026384 0.020259 0.024170 -0.022024 -0.016961
# 4 0.006502 -0.241220 0.024170 -0.116918 0.238403 0.098688
# 5 -0.017228 0.417499 -0.022024 0.238403 -0.383476 -0.164663
# 6 -0.004536 0.165988 -0.016961 0.098688 -0.164663 -0.037167
#
#
# Mechanical properties :
#
#
# Convention : Reuss Voigt Hill
#
# Bulk Modulus (GPa) = -3.16481 38.70647 17.77083
# Shear Modulus (GPa) = -4.66192 32.94937 14.14373
#
# Velocity S-wave (km/s) = -1.38212 3.67440 2.40738
# Velocity P-wave (km/s) = 1.96056 5.81909 3.87415
#
# Compressibility (1/GPa) = -0.31597455
#
# Stress axis : x y z
#
# Youngs Moduli (GPa) = 56.06463 -2.43368 49.36079
#
# Poissons Ratio (x) = 0.02977 0.50359
# Poissons Ratio (y) = -0.68586 -1.30232
# Poissons Ratio (z) = 0.57199 0.06421
#
# Static dielectric constant tensor:
#      x y z
#    x 4.753470 -0.336640 -0.140320 
#    y -0.336640 4.852830 -0.588040 
#    z -0.140320 -0.588040 4.744210 
# 
# 
# High freq. dielectric constant tensor:
#      x y z
#    x 1.977500 -0.009910 -0.018780 
#    y -0.009910 1.965710 -0.022890 
#    z -0.018780 -0.022890 1.970000 
# 
# From -- ./inp_files/307753.got.cif
#   From: 2010.06.25/outbox.cif.g09.slc.cpg/sg2_154_cif.got.tgz:307753.got - 2010.06.27 13:26:56.
