data_PCOD8014704
_publ_section_title
;
Structure prediction by ZEFSAII (Michael W. Deem and Ramdas Pophale) SiO2 
 PCOD8014704
Probable space group: P -1
;
_chemical_formula_sum "Si O2"
_cell_formula_units_Z 16
_cell_length_a 12.483028
_cell_length_b 19.324815
_cell_length_c 9.714052
_cell_angle_alpha 46.365366
_cell_angle_beta 131.624873
_cell_angle_gamma 154.094611
_cell_volume 733.905752
_symmetry_space_group_name_H-M "P -1"
_symmetry_group_IT_number 2
_symmetry_cell_setting 'triclinic'
loop_
_space_group_symop_operation_xyz
x,y,z
-x,-y,-z
loop_
_atom_site_type_symbol
_atom_site_label
_atom_site_fract_x
_atom_site_fract_y
_atom_site_fract_z
Si Si1 0.220264 0.334789 0.944608
Si Si2 0.412311 0.002607 0.784752
Si Si3 0.074694 0.632340 0.296397
Si Si4 0.059769 0.507643 0.195943
Si Si5 0.185718 0.282772 0.669967
Si Si6 0.484844 0.365015 0.593736
Si Si7 0.061160 0.141809 0.332373
Si Si8 0.263747 0.851017 0.591657
O O1 0.216053 0.289858 0.849411
O O2 0.081257 0.360634 0.799082
O O3 0.500000 0.500000 0.000000
O O4 0.087036 0.185056 0.135120
O O5 0.634839 0.192859 0.666213
O O6 0.352344 0.890678 0.771163
O O7 0.158639 0.919487 0.703705
O O8 0.500000 0.000000 0.000000
O O9 0.000000 0.500000 0.500000
O O10 0.016594 0.576048 0.163561
O O11 0.881285 0.322877 0.343432
O O12 0.353545 0.643213 0.275172
O O13 0.000000 0.500000 0.000000
O O14 0.312118 0.261760 0.726156
O O15 0.313808 0.442687 0.486233
O O16 0.899358 0.141427 0.580892
O O17 0.321657 0.303167 0.406835
O O18 0.000000 0.000000 0.500000
O O19 0.500000 0.000000 0.500000
#
# Coordination Sequence:
#
# PCOD8014704 Si02
#       8
#     2   2   2   2   2   2   2   2
#     4  12  26  43  72 102 139 184 239 290 348 424
#     4  12  24  44  71 101 140 187 235 286 352 414
#     4  12  26  46  71 104 141 182 235 290 346 421
#     4  11  25  42  70 100 134 180 234 285 340 421
#     4  10  21  41  70  97 132 180 230 279 348 418
#     4  10  21  43  68  98 136 180 229 281 350 421
#     4  12  26  45  69 101 139 185 232 292 355 417
#     4  11  23  42  66  99 137 181 224 284 352 406
#
# _framework density 21.801165000000001
#
# number of rings (size 3 to 8) (size 9 to 14) (size 15 to 20)
#    0.000    0.750    3.750    4.500    3.500    0.000 
#    0.000    0.625    0.000    0.000    0.000    0.000 
#    0.000    0.000    0.000    0.000    0.000    0.000 
#
# Total GULP energy -198368.124066 kJ/mol
# GULP energy per Si atom -12398.007754 kJ/mol
# Density = 2.175154 g / cm^3
# Si number density = 21.801165 Si / 1000 Ang^3
#
#
#
# Elastic Constant Matrix: (Units=GPa)
#
#
# Indices 1 2 3 4 5 6 
#
# 1 108.4166 24.1792 39.9630 4.8995 -16.3029 11.6577
# 2 24.1792 90.4910 21.4994 10.5433 -0.3310 18.9325
# 3 39.9630 21.4994 111.8061 8.0938 -10.5667 9.8887
# 4 4.8995 10.5433 8.0938 43.8936 -3.5829 -2.3346
# 5 -16.3029 -0.3310 -10.5667 -3.5829 38.9068 8.2682
# 6 11.6577 18.9325 9.8887 -2.3346 8.2682 44.6800
#
#
#
# Elastic Compliance Matrix: (Units=1/GPa)
#
#
# Indices 1 2 3 4 5 6 
#
# 1 0.011764 -0.001856 -0.003201 -0.000034 0.004555 -0.002419
# 2 -0.001856 0.013232 -0.001245 -0.003024 -0.000227 -0.004963
# 3 -0.003201 -0.001245 0.010705 -0.001250 0.001737 -0.001393
# 4 -0.000034 -0.003024 -0.001250 0.023985 0.001280 0.002583
# 5 0.004555 -0.000227 0.001737 0.001280 0.029665 -0.006899
# 6 -0.002419 -0.004963 -0.001393 0.002583 -0.006899 0.026836
#
#
# Mechanical properties :
#
#
# Convention : Reuss Voigt Hill
#
# Bulk Modulus (GPa) = 43.29271 53.55523 48.42397
# Shear Modulus (GPa) = 36.63242 40.50087 38.56665
#
# Velocity S-wave (km/s) = 4.10359 4.31483 4.21053
# Velocity P-wave (km/s) = 6.50797 7.03152 6.77480
#
# Compressibility (1/GPa) = 0.02309858
#
# Stress axis : x y z
#
# Youngs Moduli (GPa) = 85.00352 75.57187 93.41079
#
# Poissons Ratio (x) = 0.14027 0.29901
# Poissons Ratio (y) = 0.15778 0.11626
# Poissons Ratio (z) = 0.27210 0.09406
#
# Static dielectric constant tensor:
#      x y z
#    x 4.265300 0.148140 0.057340 
#    y 0.148140 4.285440 0.366970 
#    z 0.057340 0.366970 3.866350 
# 
# 
# High freq. dielectric constant tensor:
#      x y z
#    x 1.870380 0.016310 -0.013760 
#    y 0.016310 1.862450 0.015940 
#    z -0.013760 0.015940 1.848400 
# 
# From -- ./inp_files/244454.got.cif
#   From: 2010.06.25/outbox.cif.g09.slc.cpg/sg2_123_cif.got.tgz:244454.got - 2010.06.27 13:26:56.
