data_PCOD8014480
_publ_section_title
;
Structure prediction by ZEFSAII (Michael W. Deem and Ramdas Pophale) SiO2 
 PCOD8014480
Probable space group: P -1
;
_chemical_formula_sum "Si O2"
_cell_formula_units_Z 14
_cell_length_a 5.479698
_cell_length_b 15.985122
_cell_length_c 12.585681
_cell_angle_alpha 142.440888
_cell_angle_beta 68.843736
_cell_angle_gamma 109.569608
_cell_volume 624.404188
_symmetry_space_group_name_H-M "P -1"
_symmetry_group_IT_number 2
_symmetry_cell_setting 'triclinic'
loop_
_space_group_symop_operation_xyz
x,y,z
-x,-y,-z
loop_
_atom_site_type_symbol
_atom_site_label
_atom_site_fract_x
_atom_site_fract_y
_atom_site_fract_z
Si Si1 0.966354 0.217558 0.039809
Si Si2 0.152175 0.495375 0.361619
Si Si3 0.549161 0.148356 0.191364
Si Si4 0.252665 0.967118 0.747953
Si Si5 0.263846 0.355343 0.554646
Si Si6 0.769791 0.119588 0.759151
Si Si7 0.029927 0.838677 0.450966
O O1 0.712665 0.246286 0.180068
O O2 0.186239 0.338779 0.159937
O O3 0.918628 0.220914 0.923939
O O4 0.013954 0.059648 0.905235
O O5 0.448292 0.565053 0.396000
O O6 0.000000 0.500000 0.500000
O O7 0.964550 0.557397 0.365483
O O8 0.700348 0.133728 0.264249
O O9 0.288662 0.225184 0.338412
O O10 0.500000 0.000000 0.000000
O O11 0.222025 0.869380 0.551695
O O12 0.470589 0.093099 0.815365
O O13 0.169566 0.293843 0.622297
O O14 0.803073 0.192084 0.711509
O O15 0.870319 0.969038 0.586351
#
# Coordination Sequence:
#
# PCOD8014480 Si02
#       7
#     2   2   2   2   2   2   2
#     4  11  25  40  63  98 135 175 226 272 336 405
#     4  12  28  45  69  94 137 192 226 270 326 406
#     4  12  22  38  68 101 137 164 214 288 352 402
#     4  11  21  39  67 101 133 174 216 283 350 406
#     4  12  26  46  67 100 135 181 229 275 333 400
#     4  10  21  41  67  98 132 171 220 281 347 397
#     4  10  22  41  66  99 132 170 224 280 342 403
#
# _framework density 22.421374
#
# number of rings (size 3 to 8) (size 9 to 14) (size 15 to 20)
#    0.000    0.857    4.286    3.000    4.000    0.000 
#    0.000    1.429    0.000    0.000    0.000    0.000 
#    0.000    0.000    0.000    0.000    0.000    0.000 
#
# Total GULP energy -173526.532573 kJ/mol
# GULP energy per Si atom -12394.752327 kJ/mol
# Density = 2.237034 g / cm^3
# Si number density = 22.421374 Si / 1000 Ang^3
#
#
#
# Elastic Constant Matrix: (Units=GPa)
#
#
# Indices 1 2 3 4 5 6 
#
# 1 79.4449 24.7133 11.0696 -2.3457 16.5968 -0.8570
# 2 24.7133 125.8620 36.9396 -23.6669 15.9916 4.2986
# 3 11.0696 36.9396 79.8266 -3.9353 20.1123 -5.8925
# 4 -2.3457 -23.6669 -3.9353 36.2344 3.4590 8.2529
# 5 16.5968 15.9916 20.1123 3.4590 33.6798 3.1693
# 6 -0.8570 4.2986 -5.8925 8.2529 3.1693 36.5354
#
#
#
# Elastic Compliance Matrix: (Units=1/GPa)
#
#
# Indices 1 2 3 4 5 6 
#
# 1 0.014608 -0.002341 0.000839 -0.000165 -0.006700 0.001372
# 2 -0.002341 0.011604 -0.004367 0.008018 -0.002220 -0.003743
# 3 0.000839 -0.004367 0.016887 -0.001103 -0.008712 0.004262
# 4 -0.000165 0.008018 -0.001103 0.035218 -0.005877 -0.008571
# 5 -0.006700 -0.002220 -0.008712 -0.005877 0.040178 -0.003459
# 6 0.001372 -0.003743 0.004262 -0.008571 -0.003459 0.030767
#
#
# Mechanical properties :
#
#
# Convention : Reuss Voigt Hill
#
# Bulk Modulus (GPa) = 31.88704 47.84206 39.86455
# Shear Modulus (GPa) = 29.16231 35.45066 32.30648
#
# Velocity S-wave (km/s) = 3.61036 3.98063 3.80001
# Velocity P-wave (km/s) = 5.62425 6.52007 6.08866
#
# Compressibility (1/GPa) = 0.03136070
#
# Stress axis : x y z
#
# Youngs Moduli (GPa) = 68.45369 86.17647 59.21796
#
# Poissons Ratio (x) = 0.20176 -0.04968
# Poissons Ratio (y) = 0.16027 0.25860
# Poissons Ratio (z) = -0.05742 0.37633
#
# Static dielectric constant tensor:
#      x y z
#    x 4.066110 0.148920 0.000690 
#    y 0.148920 4.481350 -0.179080 
#    z 0.000690 -0.179080 4.118550 
# 
# 
# High freq. dielectric constant tensor:
#      x y z
#    x 1.879090 0.007110 0.007470 
#    y 0.007110 1.884510 -0.005670 
#    z 0.007470 -0.005670 1.872950 
# 
# From -- ./inp_files/60683.got.cif
#   From: 2010.06.25/outbox.cif.g09.slc.cpg/sg2_31_cif.got.tgz:60683.got - 2010.06.27 13:26:56.
