data_PCOD8014090
_publ_section_title
;
Structure prediction by ZEFSAII (Michael W. Deem and Ramdas Pophale) SiO2 
 PCOD8014090
Probable space group: P -1
;
_chemical_formula_sum "Si O2"
_cell_formula_units_Z 14
_cell_length_a 6.485473
_cell_length_b 13.463619
_cell_length_c 11.567353
_cell_angle_alpha 54.558329
_cell_angle_beta 57.648733
_cell_angle_gamma 91.664042
_cell_volume 604.792903
_symmetry_space_group_name_H-M "P -1"
_symmetry_group_IT_number 2
_symmetry_cell_setting 'triclinic'
loop_
_space_group_symop_operation_xyz
x,y,z
-x,-y,-z
loop_
_atom_site_type_symbol
_atom_site_label
_atom_site_fract_x
_atom_site_fract_y
_atom_site_fract_z
Si Si1 0.660617 0.462345 0.684148
Si Si2 0.309805 0.036172 0.846469
Si Si3 0.771305 0.351688 0.513398
Si Si4 0.739449 0.433905 0.209010
Si Si5 0.131064 0.939812 0.721331
Si Si6 0.498416 0.185402 0.034614
Si Si7 0.502677 0.816298 0.698849
O O1 0.665589 0.443902 0.556022
O O2 0.372811 0.457335 0.808981
O O3 0.923913 0.607801 0.552092
O O4 0.690444 0.335151 0.817474
O O5 0.552142 0.187785 0.713538
O O6 0.321749 0.035956 0.704554
O O7 0.371713 0.915887 0.958406
O O8 0.000000 0.000000 0.000000
O O9 0.807764 0.390261 0.341355
O O10 0.496297 0.300072 0.306288
O O11 0.000000 0.500000 0.000000
O O12 0.208276 0.816157 0.766712
O O13 0.807695 0.882298 0.885986
O O14 0.226882 0.035035 0.513620
O O15 0.468305 0.216110 0.156109
#
# Coordination Sequence:
#
# PCOD8014090 Si02
#       7
#     2   2   2   2   2   2   2
#     4  11  27  46  69 102 142 184 234 281 350 415
#     4  11  25  43  72 101 135 179 234 286 346 410
#     4  11  26  48  70  99 138 187 233 290 342 415
#     4  12  25  44  72 101 141 186 232 286 343 416
#     4  10  21  41  64  99 136 174 222 280 342 400
#     4  11  24  43  68 102 137 177 222 285 343 413
#     4  10  22  39  65 100 133 176 223 276 342 402
#
# _framework density 23.148420999999999
#
# number of rings (size 3 to 8) (size 9 to 14) (size 15 to 20)
#    0.000    1.143    1.429    3.429    2.000   11.429 
#    0.000    0.000    0.000    0.000    0.000    0.000 
#    0.000    0.000    0.000    0.000    0.000    0.000 
#
# Total GULP energy -173583.860239 kJ/mol
# GULP energy per Si atom -12398.847160 kJ/mol
# Density = 2.309573 g / cm^3
# Si number density = 23.148421 Si / 1000 Ang^3
#
#
#
# Elastic Constant Matrix: (Units=GPa)
#
#
# Indices 1 2 3 4 5 6 
#
# 1 54.7481 32.2156 22.3605 -9.0578 -12.2810 -7.6184
# 2 32.2156 114.0059 27.4294 4.9860 -5.3296 3.2787
# 3 22.3605 27.4294 106.8066 1.8599 -10.5538 -4.3167
# 4 -9.0578 4.9860 1.8599 37.9796 1.4461 -5.0603
# 5 -12.2810 -5.3296 -10.5538 1.4461 38.3961 8.5985
# 6 -7.6184 3.2787 -4.3167 -5.0603 8.5985 48.2269
#
#
#
# Elastic Compliance Matrix: (Units=1/GPa)
#
#
# Indices 1 2 3 4 5 6 
#
# 1 0.026834 -0.007013 -0.003240 0.007840 0.005466 0.004274
# 2 -0.007013 0.011310 -0.001514 -0.003371 -0.000451 -0.002286
# 3 -0.003240 -0.001514 0.010622 -0.001142 0.001689 0.000121
# 4 0.007840 -0.003371 -0.001142 0.029314 -0.000388 0.004510
# 5 0.005466 -0.000451 0.001689 -0.000388 0.029148 -0.004192
# 6 0.004274 -0.002286 0.000121 0.004510 -0.004192 0.022797
#
#
# Mechanical properties :
#
#
# Convention : Reuss Voigt Hill
#
# Bulk Modulus (GPa) = 39.63689 48.84129 44.23909
# Shear Modulus (GPa) = 30.86989 37.82419 34.34704
#
# Velocity S-wave (km/s) = 3.65576 4.04664 3.85616
# Velocity P-wave (km/s) = 5.91435 6.55582 6.24333
#
# Compressibility (1/GPa) = 0.02522902
#
# Stress axis : x y z
#
# Youngs Moduli (GPa) = 37.26645 88.41954 94.14698
#
# Poissons Ratio (x) = 0.62011 0.30507
# Poissons Ratio (y) = 0.26136 0.14258
# Poissons Ratio (z) = 0.12076 0.13391
#
# Static dielectric constant tensor:
#      x y z
#    x 3.990730 0.077970 0.043290 
#    y 0.077970 4.437190 0.067770 
#    z 0.043290 0.067770 4.028850 
# 
# 
# High freq. dielectric constant tensor:
#      x y z
#    x 1.904060 0.010220 0.000520 
#    y 0.010220 1.926320 0.010530 
#    z 0.000520 0.010530 1.922200 
# 
# From -- ./inp_files/68264.got.cif
#   From: 2010.06.25/outbox.cif.g09.slc.cpg/sg2_35_cif.got.tgz:68264.got - 2010.06.27 13:26:56.
