data_PCOD8014421
_publ_section_title
;
Structure prediction by ZEFSAII (Michael W. Deem and Ramdas Pophale) SiO2 
 PCOD8014421
Probable space group: P -1
;
_chemical_formula_sum "Si O2"
_cell_formula_units_Z 16
_cell_length_a 14.703568
_cell_length_b 8.604025
_cell_length_c 12.520059
_cell_angle_alpha 113.681722
_cell_angle_beta 44.687651
_cell_angle_gamma 137.135149
_cell_volume 733.737447
_symmetry_space_group_name_H-M "P -1"
_symmetry_group_IT_number 2
_symmetry_cell_setting 'triclinic'
loop_
_space_group_symop_operation_xyz
x,y,z
-x,-y,-z
loop_
_atom_site_type_symbol
_atom_site_label
_atom_site_fract_x
_atom_site_fract_y
_atom_site_fract_z
Si Si1 0.860666 0.865657 0.171706
Si Si2 0.467431 0.490776 0.398071
Si Si3 0.411648 0.916393 0.824987
Si Si4 0.875827 0.290058 0.807593
Si Si5 0.882168 0.537048 0.165283
Si Si6 0.085859 0.736814 0.643346
Si Si7 0.591275 0.207553 0.562940
Si Si8 0.751970 0.023733 0.633185
O O1 0.664516 0.650903 0.225076
O O2 0.927344 0.772172 0.164214
O O3 0.852953 0.037505 0.285773
O O4 0.000000 0.000000 0.000000
O O5 0.500000 0.500000 0.500000
O O6 0.380058 0.589902 0.466483
O O7 0.323833 0.229471 0.399905
O O8 0.322906 0.688186 0.760602
O O9 0.588574 0.006931 0.758313
O O10 0.467011 0.115177 0.749222
O O11 0.277737 0.852980 0.012931
O O12 0.070329 0.435021 0.741206
O O13 0.896548 0.489799 0.780510
O O14 0.830518 0.100773 0.708730
O O15 0.000000 0.500000 0.000000
O O16 0.223707 0.708325 0.532823
O O17 0.084404 0.779896 0.530239
O O18 0.500000 0.000000 0.500000
#
# Coordination Sequence:
#
# PCOD8014421 Si02
#       8
#     2   2   2   2   2   2   2   2
#     4  12  24  40  66 102 130 165 224 278 320 379
#     4  12  24  42  68  97 131 171 222 271 324 391
#     4  10  21  41  67  94 127 172 223 267 314 392
#     4  11  24  41  66  97 134 172 217 269 334 383
#     4  10  22  38  64  96 131 164 211 265 326 373
#     4  11  24  41  65  94 133 174 218 269 325 394
#     4  11  22  39  67  96 128 168 221 271 326 379
#     4  11  23  44  64  95 134 176 216 266 328 397
#
# _framework density 21.806166999999999
#
# number of rings (size 3 to 8) (size 9 to 14) (size 15 to 20)
#    0.000    1.000    3.750    3.750    5.250    0.000 
#    0.000    5.625    0.000    0.000    0.000    0.000 
#    0.000    0.000    0.000    0.000    0.000    0.000 
#
# Total GULP energy -198252.268885 kJ/mol
# GULP energy per Si atom -12390.766805 kJ/mol
# Density = 2.175654 g / cm^3
# Si number density = 21.806167 Si / 1000 Ang^3
#
#
#
# Elastic Constant Matrix: (Units=GPa)
#
#
# Indices 1 2 3 4 5 6 
#
# 1 90.6069 52.9829 40.6412 16.3507 20.3280 -8.1683
# 2 52.9829 127.1438 39.2676 12.7126 24.1745 -9.1140
# 3 40.6412 39.2676 126.7789 -4.9601 27.9254 -9.0845
# 4 16.3507 12.7126 -4.9601 28.7655 0.0621 7.1545
# 5 20.3280 24.1745 27.9254 0.0621 38.7263 2.7594
# 6 -8.1683 -9.1140 -9.0845 7.1545 2.7594 49.3427
#
#
#
# Elastic Compliance Matrix: (Units=1/GPa)
#
#
# Indices 1 2 3 4 5 6 
#
# 1 0.018362 -0.004453 -0.003692 -0.009897 -0.004410 0.003219
# 2 -0.004453 0.011280 -0.001183 -0.003097 -0.003974 0.001800
# 3 -0.003692 -0.001183 0.010806 0.004291 -0.005181 0.000827
# 4 -0.009897 -0.003097 0.004291 0.044510 0.004543 -0.008128
# 5 -0.004410 -0.003974 -0.005181 0.004543 0.034705 -0.005018
# 6 0.003219 0.001800 0.000827 -0.008128 -0.005018 0.022743
#
#
# Mechanical properties :
#
#
# Convention : Reuss Voigt Hill
#
# Bulk Modulus (GPa) = 45.88739 67.81253 56.84996
# Shear Modulus (GPa) = 29.70387 37.47610 33.58999
#
# Velocity S-wave (km/s) = 3.69477 4.15010 3.92904
# Velocity P-wave (km/s) = 6.26824 7.35730 6.83449
#
# Compressibility (1/GPa) = 0.02179248
#
# Stress axis : x y z
#
# Youngs Moduli (GPa) = 54.45952 88.64873 92.53805
#
# Poissons Ratio (x) = 0.39472 0.34168
# Poissons Ratio (y) = 0.24249 0.10950
# Poissons Ratio (z) = 0.20108 0.10490
#
# Static dielectric constant tensor:
#      x y z
#    x 3.987430 -0.046140 0.196980 
#    y -0.046140 3.936350 -0.327960 
#    z 0.196980 -0.327960 4.272320 
# 
# 
# High freq. dielectric constant tensor:
#      x y z
#    x 1.847360 -0.007340 0.012570 
#    y -0.007340 1.848170 -0.018700 
#    z 0.012570 -0.018700 1.869800 
# 
# From -- ./inp_files/447804.got.cif
#   From: 2010.06.25/outbox.cif.g09.slc.cpg/sg2_224_cif.got.tgz:447804.got - 2010.06.27 13:26:56.
