data_PCOD8014525
_publ_section_title
;
Structure prediction by ZEFSAII (Michael W. Deem and Ramdas Pophale) SiO2 
 PCOD8014525
Probable space group: P -1
;
_chemical_formula_sum "Si O2"
_cell_formula_units_Z 16
_cell_length_a 25.593495
_cell_length_b 4.974252
_cell_length_c 6.227780
_cell_angle_alpha 79.894770
_cell_angle_beta 81.886977
_cell_angle_gamma 108.360594
_cell_volume 724.265147
_symmetry_space_group_name_H-M "P -1"
_symmetry_group_IT_number 2
_symmetry_cell_setting 'triclinic'
loop_
_space_group_symop_operation_xyz
x,y,z
-x,-y,-z
loop_
_atom_site_type_symbol
_atom_site_label
_atom_site_fract_x
_atom_site_fract_y
_atom_site_fract_z
Si Si1 0.064603 0.679107 0.402526
Si Si2 0.485489 0.282363 0.238197
Si Si3 0.299017 0.439602 0.535969
Si Si4 0.787513 0.830578 0.029215
Si Si5 0.111980 0.294652 0.141956
Si Si6 0.752164 0.125222 0.626970
Si Si7 0.140439 0.737648 0.722503
Si Si8 0.429614 0.650302 0.461966
O O1 0.096411 0.475299 0.314710
O O2 0.095264 0.813383 0.589792
O O3 0.000000 0.500000 0.500000
O O4 0.070613 0.958281 0.211878
O O5 0.442934 0.379158 0.395168
O O6 0.542290 0.294113 0.326378
O O7 0.453374 0.938630 0.254016
O O8 0.500000 0.500000 0.000000
O O9 0.263734 0.403636 0.783053
O O10 0.285631 0.141042 0.459022
O O11 0.363699 0.566220 0.545289
O O12 0.282879 0.659695 0.357379
O O13 0.834056 0.021539 0.143972
O O14 0.821914 0.680899 0.876392
O O15 0.762847 0.028615 0.871408
O O16 0.106043 0.429103 0.896073
O O17 0.810392 0.295542 0.449501
#
# Coordination Sequence:
#
# PCOD8014525 Si02
#       8
#     2   2   2   2   2   2   2   2
#     4  12  29  46  68  99 130 166 217 276 324 385
#     4  10  21  41  68  89 127 181 219 262 324 377
#     4  11  25  40  63 100 135 167 213 277 319 380
#     4  11  25  43  69  98 126 179 216 260 328 406
#     4  12  24  45  69  95 128 169 216 259 327 396
#     4  11  24  40  65  92 133 170 214 257 330 385
#     4  11  24  43  72  91 131 169 215 265 323 393
#     4  10  22  40  62  98 131 166 222 270 316 379
#
# _framework density 22.091359000000001
#
# number of rings (size 3 to 8) (size 9 to 14) (size 15 to 20)
#    0.000    1.000    3.750    1.500    5.250    3.000 
#    0.000    0.000    0.000    0.000    0.000    0.000 
#    0.000    0.000    0.000    0.000    0.000    0.000 
#
# Total GULP energy -198407.306693 kJ/mol
# GULP energy per Si atom -12400.456668 kJ/mol
# Density = 2.204108 g / cm^3
# Si number density = 22.091359 Si / 1000 Ang^3
#
#
#
# Elastic Constant Matrix: (Units=GPa)
#
#
# Indices 1 2 3 4 5 6 
#
# 1 139.1543 47.8471 57.9513 -6.3552 0.2564 17.0400
# 2 47.8471 91.4886 29.4599 -21.1848 -2.8539 4.7398
# 3 57.9513 29.4599 102.5642 -19.5479 6.4162 12.8647
# 4 -6.3552 -21.1848 -19.5479 31.9574 -0.9824 1.0915
# 5 0.2564 -2.8539 6.4162 -0.9824 24.2265 -5.5184
# 6 17.0400 4.7398 12.8647 1.0915 -5.5184 37.2227
#
#
#
# Elastic Compliance Matrix: (Units=1/GPa)
#
#
# Indices 1 2 3 4 5 6 
#
# 1 0.011293 -0.005025 -0.005445 -0.004331 -0.000020 -0.002524
# 2 -0.005025 0.015847 -0.000103 0.009504 0.002423 0.000399
# 3 -0.005445 -0.000103 0.015131 0.008092 -0.004459 -0.003622
# 4 -0.004331 0.009504 0.008092 0.041791 -0.000024 -0.003253
# 5 -0.000020 0.002423 -0.004459 -0.000024 0.044529 0.007844
# 6 -0.002524 0.000399 -0.003622 -0.003253 0.007844 0.030480
#
#
# Mechanical properties :
#
#
# Convention : Reuss Voigt Hill
#
# Bulk Modulus (GPa) = 47.33540 67.08042 57.20791
# Shear Modulus (GPa) = 26.70085 31.87792 29.28938
#
# Velocity S-wave (km/s) = 3.48034 3.80281 3.64514
# Velocity P-wave (km/s) = 6.13384 7.05073 6.60821
#
# Compressibility (1/GPa) = 0.02112584
#
# Stress axis : x y z
#
# Youngs Moduli (GPa) = 88.54937 63.10243 66.08747
#
# Poissons Ratio (x) = 0.31712 0.35984
# Poissons Ratio (y) = 0.44500 0.00678
# Poissons Ratio (z) = 0.48215 0.00647
#
# Static dielectric constant tensor:
#      x y z
#    x 3.911660 -0.125200 0.031270 
#    y -0.125200 4.046250 -0.184590 
#    z 0.031270 -0.184590 4.061390 
# 
# 
# High freq. dielectric constant tensor:
#      x y z
#    x 1.861600 -0.011240 0.003040 
#    y -0.011240 1.873510 -0.015950 
#    z 0.003040 -0.015950 1.869650 
# 
# From -- ./inp_files/121459.got.cif
#   From: 2010.06.25/outbox.cif.g09.slc.cpg/sg2_61_cif.got.tgz:121459.got - 2010.06.27 13:26:56.
