data_PCOD8014323
_publ_section_title
;
Structure prediction by ZEFSAII (Michael W. Deem and Ramdas Pophale) SiO2 
 PCOD8014323
Probable space group: P -1
;
_chemical_formula_sum "Si O2"
_cell_formula_units_Z 16
_cell_length_a 11.699653
_cell_length_b 5.224495
_cell_length_c 15.661870
_cell_angle_alpha 67.848148
_cell_angle_beta 116.591534
_cell_angle_gamma 111.902701
_cell_volume 768.386113
_symmetry_space_group_name_H-M "P -1"
_symmetry_group_IT_number 2
_symmetry_cell_setting 'triclinic'
loop_
_space_group_symop_operation_xyz
x,y,z
-x,-y,-z
loop_
_atom_site_type_symbol
_atom_site_label
_atom_site_fract_x
_atom_site_fract_y
_atom_site_fract_z
Si Si1 0.112939 0.787926 0.657004
Si Si2 0.337518 0.725333 0.635948
Si Si3 0.052982 0.579455 0.846384
Si Si4 0.617428 0.741398 0.714297
Si Si5 0.759945 0.241884 0.821498
Si Si6 0.625601 0.752548 0.521347
Si Si7 0.151632 0.355902 0.494074
Si Si8 0.113940 0.021348 0.966664
O O1 0.247504 0.690051 0.695037
O O2 0.090691 0.779457 0.751462
O O3 0.986945 0.587526 0.590714
O O4 0.128299 0.105697 0.588029
O O5 0.463678 0.594373 0.707088
O O6 0.240373 0.627421 0.535991
O O7 0.403625 0.046207 0.589052
O O8 0.147391 0.354311 0.906819
O O9 0.904118 0.389078 0.814449
O O10 0.069078 0.793514 0.904553
O O11 0.688723 0.490884 0.786312
O O12 0.629882 0.858169 0.606815
O O13 0.679898 0.019347 0.755167
O O14 0.765922 0.066874 0.933413
O O15 0.500000 0.500000 0.500000
O O16 0.768373 0.694320 0.557095
O O17 0.000000 0.000000 0.000000
#
# Coordination Sequence:
#
# PCOD8014323 Si02
#       8
#     2   2   2   2   2   2   2   2
#     4  10  24  39  60  90 120 171 218 252 301 371
#     4  11  24  39  59  82 132 170 207 259 306 360
#     4  11  22  40  70  95 127 163 203 257 319 388
#     4  12  24  37  65  92 126 170 208 254 314 382
#     4  11  23  40  64 100 125 152 207 264 325 381
#     4  11  22  38  58  90 125 168 212 255 314 365
#     4  10  22  41  59  85 129 164 215 262 302 355
#     4  10  21  41  66  96 131 156 193 267 334 372
#
# _framework density 20.822866000000001
#
# number of rings (size 3 to 8) (size 9 to 14) (size 15 to 20)
#    0.000    1.250    1.250    6.000    7.000    0.000 
#    0.000    0.000    0.000    4.500    0.000    0.000 
#    0.000    0.000    0.000    0.000    0.000    0.000 
#
# Total GULP energy -198286.147603 kJ/mol
# GULP energy per Si atom -12392.884225 kJ/mol
# Density = 2.077547 g / cm^3
# Si number density = 20.822866 Si / 1000 Ang^3
#
#
#
# Elastic Constant Matrix: (Units=GPa)
#
#
# Indices 1 2 3 4 5 6 
#
# 1 124.5019 33.3353 53.6735 -4.7355 -0.3844 8.5418
# 2 33.3353 90.7396 26.1836 15.5491 -12.0947 -0.0497
# 3 53.6735 26.1836 95.9886 10.7150 -12.6474 9.3511
# 4 -4.7355 15.5491 10.7150 32.4928 -8.1519 0.7803
# 5 -0.3844 -12.0947 -12.6474 -8.1519 30.3810 -0.0536
# 6 8.5418 -0.0497 9.3511 0.7803 -0.0536 28.1561
#
#
#
# Elastic Compliance Matrix: (Units=1/GPa)
#
#
# Indices 1 2 3 4 5 6 
#
# 1 0.012173 -0.003828 -0.006528 0.005117 -0.002717 -0.001679
# 2 -0.003828 0.014186 -0.000710 -0.006240 0.003632 0.001602
# 3 -0.006528 -0.000710 0.015719 -0.004473 0.004973 -0.003108
# 4 0.005117 -0.006240 -0.004473 0.037456 0.005767 -0.001105
# 5 -0.002717 0.003632 0.004973 0.005767 0.037943 -0.000908
# 6 -0.001679 0.001602 -0.003108 -0.001105 -0.000908 0.037089
#
#
# Mechanical properties :
#
#
# Convention : Reuss Voigt Hill
#
# Bulk Modulus (GPa) = 50.13718 59.73498 54.93608
# Shear Modulus (GPa) = 27.27063 31.40849 29.33956
#
# Velocity S-wave (km/s) = 3.62283 3.88798 3.75775
# Velocity P-wave (km/s) = 6.45214 6.99319 6.72810
#
# Compressibility (1/GPa) = 0.01994528
#
# Stress axis : x y z
#
# Youngs Moduli (GPa) = 82.15103 70.49182 63.61668
#
# Poissons Ratio (x) = 0.26986 0.41529
# Poissons Ratio (y) = 0.31449 0.04517
# Poissons Ratio (z) = 0.53629 0.05005
#
# Static dielectric constant tensor:
#      x y z
#    x 4.102260 -0.037630 0.353680 
#    y -0.037630 3.824830 -0.088360 
#    z 0.353680 -0.088360 4.710690 
# 
# 
# High freq. dielectric constant tensor:
#      x y z
#    x 1.815130 -0.007990 0.005070 
#    y -0.007990 1.817410 0.002370 
#    z 0.005070 0.002370 1.805560 
# 
# From -- ./inp_files/78676.got.cif
#   From: 2010.06.25/outbox.cif.g09.slc.cpg/sg2_40_cif.got.tgz:78676.got - 2010.06.27 13:26:56.
