data_PCOD8014315
_publ_section_title
;
Structure prediction by ZEFSAII (Michael W. Deem and Ramdas Pophale) SiO2 
 PCOD8014315
Probable space group: P -1
;
_chemical_formula_sum "Si O2"
_cell_formula_units_Z 16
_cell_length_a 8.655150
_cell_length_b 13.941869
_cell_length_c 7.555811
_cell_angle_alpha 83.361818
_cell_angle_beta 84.155312
_cell_angle_gamma 137.372651
_cell_volume 589.178823
_symmetry_space_group_name_H-M "P -1"
_symmetry_group_IT_number 2
_symmetry_cell_setting 'triclinic'
loop_
_space_group_symop_operation_xyz
x,y,z
-x,-y,-z
loop_
_atom_site_type_symbol
_atom_site_label
_atom_site_fract_x
_atom_site_fract_y
_atom_site_fract_z
Si Si1 0.961037 0.975299 0.732829
Si Si2 0.722651 0.411212 0.462723
Si Si3 0.738910 0.519247 0.814191
Si Si4 0.693895 0.954544 0.074909
Si Si5 0.241813 0.837748 0.779219
Si Si6 0.260558 0.962086 0.411457
Si Si7 0.807361 0.273163 0.678847
Si Si8 0.429249 0.349374 0.207654
O O1 0.829805 0.810927 0.779493
O O2 0.926508 0.032911 0.553217
O O3 0.802319 0.973576 0.873605
O O4 0.215703 0.078094 0.772533
O O5 0.711113 0.441620 0.660752
O O6 0.746054 0.305876 0.498662
O O7 0.495929 0.331338 0.390293
O O8 0.950926 0.566999 0.303946
O O9 0.592318 0.547114 0.784521
O O10 0.012861 0.666274 0.801977
O O11 0.616143 0.409301 0.019216
O O12 0.406212 0.817100 0.136152
O O13 0.783395 0.108741 0.051956
O O14 0.301015 0.953757 0.611829
O O15 0.485981 0.889730 0.741192
O O16 0.140573 0.812289 0.364936
#
# Coordination Sequence:
#
# PCOD8014315 Si02
#       8
#     2   2   2   2   2   2   2   2
#     4  11  24  43  65 104 130 176 224 273 341 402
#     4  11  24  44  71  95 138 180 230 271 335 403
#     4  11  23  47  66  99 142 175 229 279 330 404
#     4  10  23  43  66  93 139 171 217 287 334 388
#     4  10  21  41  66  95 132 176 212 282 333 387
#     4  10  23  39  69  98 133 169 222 273 340 400
#     4  10  23  44  66 100 134 177 222 281 332 401
#     4  11  26  42  69 103 135 183 224 275 339 398
#
# _framework density 27.156438999999999
#
# number of rings (size 3 to 8) (size 9 to 14) (size 15 to 20)
#    0.000    1.500    2.500    1.125    5.250    5.500 
#    4.500    3.750    0.000    0.000    0.000    0.000 
#    0.000    0.000    0.000    0.000    0.000    0.000 
#
# Total GULP energy -198363.148566 kJ/mol
# GULP energy per Si atom -12397.696785 kJ/mol
# Density = 2.709463 g / cm^3
# Si number density = 27.156439 Si / 1000 Ang^3
#
#
#
# Elastic Constant Matrix: (Units=GPa)
#
#
# Indices 1 2 3 4 5 6 
#
# 1 110.3142 8.0609 -3.8766 -4.5611 -2.2861 -4.2862
# 2 8.0609 79.3082 13.1407 -11.7787 -8.7779 -0.8275
# 3 -3.8766 13.1407 50.2199 -7.2869 -11.2333 -4.7399
# 4 -4.5611 -11.7787 -7.2869 29.9610 5.3176 0.1783
# 5 -2.2861 -8.7779 -11.2333 5.3176 43.5160 -3.9947
# 6 -4.2862 -0.8275 -4.7399 0.1783 -3.9947 34.7133
#
#
#
# Elastic Compliance Matrix: (Units=1/GPa)
#
#
# Indices 1 2 3 4 5 6 
#
# 1 0.009301 -0.000904 0.001415 0.001283 0.000642 0.001387
# 2 -0.000904 0.013981 -0.002746 0.004421 0.001524 -0.000001
# 3 0.001415 -0.002746 0.022828 0.003723 0.005309 0.003818
# 4 0.001283 0.004421 0.003723 0.036663 -0.002533 0.000292
# 5 0.000642 0.001524 0.005309 -0.002533 0.025347 0.003770
# 6 0.001387 -0.000001 0.003818 0.000292 0.003770 0.029932
#
#
# Mechanical properties :
#
#
# Convention : Reuss Voigt Hill
#
# Bulk Modulus (GPa) = 24.01462 30.49914 27.25688
# Shear Modulus (GPa) = 31.96873 36.47253 34.22063
#
# Velocity S-wave (km/s) = 3.43477 3.66874 3.55368
# Velocity P-wave (km/s) = 4.95907 5.40384 5.18623
#
# Compressibility (1/GPa) = 0.04164130
#
# Stress axis : x y z
#
# Youngs Moduli (GPa) = 107.51486 71.52537 43.80534
#
# Poissons Ratio (x) = 0.06464 -0.06199
# Poissons Ratio (y) = 0.09717 0.12029
# Poissons Ratio (z) = -0.15215 0.19640
#
# Static dielectric constant tensor:
#      x y z
#    x 5.225050 -0.105810 -0.308620 
#    y -0.105810 4.628510 0.030790 
#    z -0.308620 0.030790 5.186080 
# 
# 
# High freq. dielectric constant tensor:
#      x y z
#    x 2.117320 -0.005460 -0.015240 
#    y -0.005460 2.079640 0.003780 
#    z -0.015240 0.003780 2.102550 
# 
# From -- ./inp_files/206964.got.cif
#   From: 2010.06.25/outbox.cif.g09.slc.cpg/sg2_104_cif.got.tgz:206964.got - 2010.06.27 13:26:56.
