data_PCOD8014924
_publ_section_title
;
Structure prediction by ZEFSAII (Michael W. Deem and Ramdas Pophale) SiO2 
 PCOD8014924
Probable space group: P -1
;
_chemical_formula_sum "Si O2"
_cell_formula_units_Z 16
_cell_length_a 9.377346
_cell_length_b 17.549605
_cell_length_c 11.391640
_cell_angle_alpha 42.546304
_cell_angle_beta 128.472450
_cell_angle_gamma 96.543080
_cell_volume 753.726800
_symmetry_space_group_name_H-M "P -1"
_symmetry_group_IT_number 2
_symmetry_cell_setting 'triclinic'
loop_
_space_group_symop_operation_xyz
x,y,z
-x,-y,-z
loop_
_atom_site_type_symbol
_atom_site_label
_atom_site_fract_x
_atom_site_fract_y
_atom_site_fract_z
Si Si1 0.916798 0.416753 0.108857
Si Si2 0.142357 0.901588 0.348064
Si Si3 0.051926 0.462332 0.803586
Si Si4 0.111149 0.303826 0.712767
Si Si5 0.599845 0.544772 0.596911
Si Si6 0.180803 0.777750 0.270188
Si Si7 0.222131 0.134085 0.722880
Si Si8 0.569060 0.844466 0.743176
O O1 0.812701 0.497413 0.091928
O O2 0.128332 0.241643 0.439321
O O3 0.724051 0.436538 0.899010
O O4 0.000000 0.500000 0.000000
O O5 0.262161 0.785055 0.433211
O O6 0.348490 0.848266 0.607002
O O7 0.930662 0.919368 0.284473
O O8 0.045689 0.058128 0.071471
O O9 0.005717 0.527904 0.573236
O O10 0.790271 0.547567 0.628022
O O11 0.208140 0.285292 0.078096
O O12 0.189152 0.215659 0.732053
O O13 0.906666 0.316360 0.662710
O O14 0.352124 0.207952 0.022916
O O15 0.500000 0.500000 0.500000
O O16 0.387669 0.706289 0.359574
O O17 0.500000 0.000000 0.000000
O O18 0.500000 0.000000 0.500000
#
# Coordination Sequence:
#
# PCOD8014924 Si02
#       8
#     2   2   2   2   2   2   2   2
#     4   9  21  40  61  93 122 166 215 252 323 381
#     4  10  23  39  67  92 130 172 216 264 325 387
#     4  10  23  41  64  92 127 174 215 265 323 383
#     4  10  22  41  63  94 126 170 214 268 325 381
#     4  11  23  38  65  95 133 163 213 274 322 378
#     4  10  21  42  63  95 127 172 217 258 327 392
#     4  10  23  42  66  94 129 172 217 269 321 389
#     4  12  23  40  63  95 131 167 219 268 323 393
#
# _framework density 21.227851000000001
#
# number of rings (size 3 to 8) (size 9 to 14) (size 15 to 20)
#    0.000    1.750    1.250    1.875    5.250    4.000 
#    0.000    4.375    0.000    0.000    0.000    0.000 
#    0.000    0.000    0.000    0.000    0.000    0.000 
#
# Total GULP energy -198279.390025 kJ/mol
# GULP energy per Si atom -12392.461877 kJ/mol
# Density = 2.117954 g / cm^3
# Si number density = 21.227851 Si / 1000 Ang^3
#
#
#
# Elastic Constant Matrix: (Units=GPa)
#
#
# Indices 1 2 3 4 5 6 
#
# 1 104.7007 38.7355 48.0462 -0.7908 5.1589 4.1998
# 2 38.7355 105.3565 71.2502 27.6137 0.7516 -1.6702
# 3 48.0462 71.2502 143.1738 13.0438 -11.7852 0.6324
# 4 -0.7908 27.6137 13.0438 51.2933 -4.7863 -0.9303
# 5 5.1589 0.7516 -11.7852 -4.7863 43.3058 -0.8627
# 6 4.1998 -1.6702 0.6324 -0.9303 -0.8627 28.2599
#
#
#
# Elastic Compliance Matrix: (Units=1/GPa)
#
#
# Indices 1 2 3 4 5 6 
#
# 1 0.012256 -0.003203 -0.002893 0.002431 -0.001961 -0.001926
# 2 -0.003203 0.017691 -0.007235 -0.007966 -0.002748 0.001337
# 3 -0.002893 -0.007235 0.011759 0.001213 0.003802 -0.000105
# 4 0.002431 -0.007966 0.001213 0.023775 0.002807 0.000009
# 5 -0.001961 -0.002748 0.003802 0.002807 0.024736 0.000891
# 6 -0.001926 0.001337 -0.000105 0.000009 0.000891 0.035781
#
#
# Mechanical properties :
#
#
# Convention : Reuss Voigt Hill
#
# Bulk Modulus (GPa) = 66.47875 74.36610 70.42243
# Shear Modulus (GPa) = 31.71071 37.58508 34.64790
#
# Velocity S-wave (km/s) = 3.86920 4.21236 4.04442
# Velocity P-wave (km/s) = 7.16559 7.66597 7.42000
#
# Compressibility (1/GPa) = 0.01504240
#
# Stress axis : x y z
#
# Youngs Moduli (GPa) = 81.59234 56.52604 85.04089
#
# Poissons Ratio (x) = 0.18106 0.24605
# Poissons Ratio (y) = 0.26135 0.61530
# Poissons Ratio (z) = 0.23607 0.40899
#
# Static dielectric constant tensor:
#      x y z
#    x 3.693630 -0.092510 -0.215920 
#    y -0.092510 4.294150 0.391610 
#    z -0.215920 0.391610 4.143630 
# 
# 
# High freq. dielectric constant tensor:
#      x y z
#    x 1.812520 -0.005990 -0.008440 
#    y -0.005990 1.842670 0.011170 
#    z -0.008440 0.011170 1.839740 
# 
# From -- ./inp_files/402883.got.cif
#   From: 2010.06.25/outbox.cif.g09.slc.cpg/sg2_202_cif.got.tgz:402883.got - 2010.06.27 13:26:56.
