data_PCOD8014044
_publ_section_title
;
Structure prediction by ZEFSAII (Michael W. Deem and Ramdas Pophale) SiO2 
 PCOD8014044
Probable space group: P -1
;
_chemical_formula_sum "Si O2"
_cell_formula_units_Z 16
_cell_length_a 15.155527
_cell_length_b 12.200431
_cell_length_c 9.430424
_cell_angle_alpha 85.621347
_cell_angle_beta 107.482286
_cell_angle_gamma 152.072563
_cell_volume 705.740416
_symmetry_space_group_name_H-M "P -1"
_symmetry_group_IT_number 2
_symmetry_cell_setting 'triclinic'
loop_
_space_group_symop_operation_xyz
x,y,z
-x,-y,-z
loop_
_atom_site_type_symbol
_atom_site_label
_atom_site_fract_x
_atom_site_fract_y
_atom_site_fract_z
Si Si1 0.060488 0.479539 0.177424
Si Si2 0.668936 0.644005 0.779231
Si Si3 0.345095 0.580385 0.399696
Si Si4 0.683857 0.111353 0.536731
Si Si5 0.235173 0.600017 0.974652
Si Si6 0.302401 0.859189 0.778262
Si Si7 0.108249 0.224513 0.871568
Si Si8 0.224685 0.301397 0.612246
O O1 0.203374 0.526984 0.276056
O O2 0.129381 0.666072 0.278201
O O3 0.077927 0.507658 0.009573
O O4 0.825435 0.203019 0.161195
O O5 0.640521 0.499115 0.700550
O O6 0.436702 0.453391 0.678735
O O7 0.754040 0.712006 0.971953
O O8 0.855026 0.917778 0.766593
O O9 0.236559 0.419724 0.506034
O O10 0.587996 0.885202 0.524078
O O11 0.784654 0.237436 0.415538
O O12 0.500000 0.000000 0.500000
O O13 0.459848 0.830397 0.148099
O O14 0.298319 0.728872 0.846109
O O15 0.118438 0.359099 0.920728
O O16 0.225189 0.347047 0.765990
O O17 0.000000 0.000000 0.500000
#
# Coordination Sequence:
#
# PCOD8014044 Si02
#       8
#     2   2   2   2   2   2   2   2
#     4  11  23  43  65  99 134 178 224 275 339 400
#     4  11  24  49  69  97 141 176 227 286 341 407
#     4  11  23  43  69  93 138 177 220 282 343 401
#     4  10  21  41  64  94 133 171 216 272 329 397
#     4  11  24  42  66  99 137 174 227 277 330 406
#     4  11  23  41  68  95 136 180 222 275 333 402
#     4  11  25  45  71 101 135 183 228 276 347 406
#     4  12  27  44  70 104 132 177 232 288 339 411
#
# _framework density 22.671223000000001
#
# number of rings (size 3 to 8) (size 9 to 14) (size 15 to 20)
#    0.000    1.000    5.000    1.500    3.500    4.000 
#    0.000    0.000    0.000    0.000    0.000    0.000 
#    0.000    0.000    0.000    0.000    0.000    0.000 
#
# Total GULP energy -198352.385261 kJ/mol
# GULP energy per Si atom -12397.024079 kJ/mol
# Density = 2.261962 g / cm^3
# Si number density = 22.671223 Si / 1000 Ang^3
#
#
#
# Elastic Constant Matrix: (Units=GPa)
#
#
# Indices 1 2 3 4 5 6 
#
# 1 75.8399 52.8566 13.2256 21.4001 -22.3496 7.8307
# 2 52.8566 130.2048 48.6800 1.3676 -7.5631 -2.2869
# 3 13.2256 48.6800 106.3646 -9.4491 -24.3386 3.5427
# 4 21.4001 1.3676 -9.4491 46.5051 9.5447 -8.9061
# 5 -22.3496 -7.5631 -24.3386 9.5447 34.1247 0.6882
# 6 7.8307 -2.2869 3.5427 -8.9061 0.6882 44.9691
#
#
#
# Elastic Compliance Matrix: (Units=1/GPa)
#
#
# Indices 1 2 3 4 5 6 
#
# 1 0.054849 -0.024277 0.013306 -0.035963 0.050489 -0.019729
# 2 -0.024277 0.020114 -0.010503 0.015036 -0.023328 0.009413
# 3 0.013306 -0.010503 0.016791 -0.007800 0.020666 -0.006035
# 4 -0.035963 0.015036 -0.007800 0.047497 -0.039425 0.017652
# 5 0.050489 -0.023328 0.020666 -0.039425 0.083385 -0.020690
# 6 -0.019729 0.009413 -0.006035 0.017652 -0.020690 0.030440
#
#
# Mechanical properties :
#
#
# Convention : Reuss Voigt Hill
#
# Bulk Modulus (GPa) = 20.48890 60.21485 40.35188
# Shear Modulus (GPa) = 16.01069 38.29624 27.15347
#
# Velocity S-wave (km/s) = 2.66035 4.11445 3.46454
# Velocity P-wave (km/s) = 4.30042 7.01351 5.81734
#
# Compressibility (1/GPa) = 0.04880690
#
# Stress axis : x y z
#
# Youngs Moduli (GPa) = 18.23204 49.71558 59.55582
#
# Poissons Ratio (x) = 1.20693 -0.79245
# Poissons Ratio (y) = 0.44261 0.62551
# Poissons Ratio (z) = -0.24260 0.52216
#
# Static dielectric constant tensor:
#      x y z
#    x 4.044080 0.160240 -0.041900 
#    y 0.160240 4.582840 0.193100 
#    z -0.041900 0.193100 4.547760 
# 
# 
# High freq. dielectric constant tensor:
#      x y z
#    x 1.888750 0.007660 -0.001900 
#    y 0.007660 1.906560 -0.006610 
#    z -0.001900 -0.006610 1.913880 
# 
# From -- ./inp_files/307595.got.cif
#   From: 2010.06.25/outbox.cif.g09.slc.cpg/sg2_154_cif.got.tgz:307595.got - 2010.06.27 13:26:56.
