data_PCOD8014091
_publ_section_title
;
Structure prediction by ZEFSAII (Michael W. Deem and Ramdas Pophale) SiO2 
 PCOD8014091
Probable space group: P -1
;
_chemical_formula_sum "Si O2"
_cell_formula_units_Z 16
_cell_length_a 9.095769
_cell_length_b 9.950027
_cell_length_c 15.973949
_cell_angle_alpha 43.605681
_cell_angle_beta 81.447729
_cell_angle_gamma 110.278056
_cell_volume 735.463058
_symmetry_space_group_name_H-M "P -1"
_symmetry_group_IT_number 2
_symmetry_cell_setting 'triclinic'
loop_
_space_group_symop_operation_xyz
x,y,z
-x,-y,-z
loop_
_atom_site_type_symbol
_atom_site_label
_atom_site_fract_x
_atom_site_fract_y
_atom_site_fract_z
Si Si1 0.513065 0.039041 0.342173
Si Si2 0.710231 0.947161 0.502719
Si Si3 0.284229 0.528255 0.010049
Si Si4 0.833840 0.016625 0.992616
Si Si5 0.766787 0.298730 0.613732
Si Si6 0.308242 0.166789 0.095592
Si Si7 0.390151 0.584735 0.272849
Si Si8 0.890478 0.499852 0.798982
O O1 0.422750 0.127228 0.370412
O O2 0.651505 0.256240 0.161223
O O3 0.643865 0.008847 0.399588
O O4 0.340400 0.752942 0.443085
O O5 0.696574 0.708391 0.589936
O O6 0.935626 0.212874 0.383552
O O7 0.454653 0.588025 0.031005
O O8 0.190533 0.259463 0.091603
O O9 0.125512 0.479997 0.109034
O O10 0.937003 0.311252 0.873196
O O11 0.773068 0.973439 0.921652
O O12 0.631328 0.797516 0.160625
O O13 0.000000 0.000000 0.000000
O O14 0.686152 0.375010 0.655725
O O15 0.000000 0.500000 0.500000
O O16 0.715192 0.028454 0.750466
O O17 0.311315 0.631944 0.176697
#
# Coordination Sequence:
#
# PCOD8014091 Si02
#       8
#     2   2   2   2   2   2   2   2
#     4  10  24  46  65  98 144 185 222 292 358 412
#     4  11  27  43  73  99 144 184 232 290 357 420
#     4  10  22  41  74  95 138 176 236 285 343 413
#     4  12  26  43  72 103 142 183 232 288 359 413
#     4  11  24  41  70  99 141 182 234 285 349 424
#     4  10  21  41  65 100 129 183 223 286 343 412
#     4  12  25  47  72 102 142 184 235 293 348 423
#     4  12  25  45  72 107 136 184 237 292 344 425
#
# _framework density 21.755002000000001
#
# number of rings (size 3 to 8) (size 9 to 14) (size 15 to 20)
#    0.000    1.000    2.500    3.750   10.500    1.000 
#    2.250    0.000    0.000    0.000    0.000    0.000 
#    0.000    0.000    0.000    0.000    0.000    0.000 
#
# Total GULP energy -198357.624922 kJ/mol
# GULP energy per Si atom -12397.351558 kJ/mol
# Density = 2.170549 g / cm^3
# Si number density = 21.755002 Si / 1000 Ang^3
#
#
#
# Elastic Constant Matrix: (Units=GPa)
#
#
# Indices 1 2 3 4 5 6 
#
# 1 91.9152 29.2884 36.0771 0.3522 -5.6179 -13.1460
# 2 29.2884 125.0497 38.5154 -2.5205 3.0278 -23.9431
# 3 36.0771 38.5154 73.5026 -3.5534 -3.8917 -15.6612
# 4 0.3522 -2.5205 -3.5534 47.9494 0.6238 7.0616
# 5 -5.6179 3.0278 -3.8917 0.6238 32.5575 -5.5867
# 6 -13.1460 -23.9431 -15.6612 7.0616 -5.5867 37.5117
#
#
#
# Elastic Compliance Matrix: (Units=1/GPa)
#
#
# Indices 1 2 3 4 5 6 
#
# 1 0.013945 -0.001151 -0.005679 -0.000951 0.002246 0.002295
# 2 -0.001151 0.010364 -0.003971 -0.000393 -0.000857 0.004500
# 3 -0.005679 -0.003971 0.019444 0.000681 0.002355 0.003815
# 4 -0.000951 -0.000393 0.000681 0.021578 -0.001240 -0.004546
# 5 0.002246 -0.000857 0.002355 -0.001240 0.032570 0.006307
# 6 0.002295 0.004500 0.003815 -0.004546 0.006307 0.033723
#
#
# Mechanical properties :
#
#
# Convention : Reuss Voigt Hill
#
# Bulk Modulus (GPa) = 45.14826 55.35880 50.25353
# Shear Modulus (GPa) = 31.13131 36.04283 33.58707
#
# Velocity S-wave (km/s) = 3.78695 4.07475 3.93348
# Velocity P-wave (km/s) = 6.31819 6.90216 6.61662
#
# Compressibility (1/GPa) = 0.02214925
#
# Stress axis : x y z
#
# Youngs Moduli (GPa) = 71.71190 96.48743 51.42934
#
# Poissons Ratio (x) = 0.11105 0.29209
# Poissons Ratio (y) = 0.08254 0.20425
# Poissons Ratio (z) = 0.40728 0.38319
#
# Static dielectric constant tensor:
#      x y z
#    x 3.983110 -0.079640 0.173650 
#    y -0.079640 3.978580 0.083660 
#    z 0.173650 0.083660 4.045870 
# 
# 
# High freq. dielectric constant tensor:
#      x y z
#    x 1.849540 -0.002650 0.001600 
#    y -0.002650 1.877850 0.000760 
#    z 0.001600 0.000760 1.845350 
# 
# From -- ./inp_files/494362.got.cif
#   From: 2010.06.25/outbox.cif.g09.slc.cpg/sg2_248_cif.got.tgz:494362.got - 2010.06.27 13:26:56.
