data_PCOD8014176
_publ_section_title
;
Structure prediction by ZEFSAII (Michael W. Deem and Ramdas Pophale) SiO2 
 PCOD8014176
Probable space group: P -1
;
_chemical_formula_sum "Si O2"
_cell_formula_units_Z 16
_cell_length_a 24.390390
_cell_length_b 18.541869
_cell_length_c 15.251999
_cell_angle_alpha 150.229229
_cell_angle_beta 19.060405
_cell_angle_gamma 158.942363
_cell_volume 803.533538
_symmetry_space_group_name_H-M "P -1"
_symmetry_group_IT_number 2
_symmetry_cell_setting 'triclinic'
loop_
_space_group_symop_operation_xyz
x,y,z
-x,-y,-z
loop_
_atom_site_type_symbol
_atom_site_label
_atom_site_fract_x
_atom_site_fract_y
_atom_site_fract_z
Si Si1 0.466670 0.369249 0.990527
Si Si2 0.004498 0.134995 0.527858
Si Si3 0.269306 0.951024 0.802005
Si Si4 0.716584 0.027870 0.682685
Si Si5 0.983651 0.627858 0.548118
Si Si6 0.045902 0.229079 0.753129
Si Si7 0.466424 0.400788 0.537253
Si Si8 0.935211 0.650885 0.843654
O O1 0.286288 0.319192 0.283997
O O2 0.500000 0.500000 0.000000
O O3 0.708193 0.464865 0.770276
O O4 0.329775 0.154976 0.927804
O O5 0.944468 0.184929 0.761310
O O6 0.872054 0.128725 0.641207
O O7 0.910061 0.914184 0.445212
O O8 0.120990 0.845317 0.827251
O O9 0.500000 0.000000 0.500000
O O10 0.134381 0.816187 0.950946
O O11 0.641175 0.821879 0.551195
O O12 0.872228 0.180979 0.530205
O O13 0.500000 0.000000 0.000000
O O14 0.023183 0.707338 0.670666
O O15 0.086904 0.527761 0.276900
O O16 0.284819 0.463671 0.647824
O O17 0.500000 0.500000 0.500000
O O18 0.306217 0.407134 0.846474
#
# Coordination Sequence:
#
# PCOD8014176 Si02
#       8
#     2   2   2   2   2   2   2   2
#     4  11  21  41  66  90 128 165 203 260 329 372
#     4  10  21  41  65  94 122 166 211 257 314 376
#     4  11  22  39  63  93 122 163 211 259 309 377
#     4  12  26  42  64  95 134 168 209 265 324 375
#     4  11  25  43  65  96 128 168 211 268 319 376
#     4  10  22  39  67  93 121 164 217 257 303 379
#     4  12  21  42  68  94 127 172 212 260 317 377
#     4  11  24  43  68  92 127 167 220 261 317 379
#
# _framework density 19.912051000000002
#
# number of rings (size 3 to 8) (size 9 to 14) (size 15 to 20)
#    0.000    1.000    5.000    2.250    0.000    1.500 
#    2.250    0.625    0.000    0.000    0.000    0.000 
#    0.000    0.000    0.000    0.000    0.000    0.000 
#
# Total GULP energy -198424.865552 kJ/mol
# GULP energy per Si atom -12401.554097 kJ/mol
# Density = 1.986673 g / cm^3
# Si number density = 19.912051 Si / 1000 Ang^3
#
#
#
# Elastic Constant Matrix: (Units=GPa)
#
#
# Indices 1 2 3 4 5 6 
#
# 1 139.0719 67.2873 50.8127 -2.5291 17.3610 4.0581
# 2 67.2873 121.3876 51.0762 -13.1908 8.6842 2.1072
# 3 50.8127 51.0762 135.2165 -8.2574 1.5576 8.5900
# 4 -2.5291 -13.1908 -8.2574 28.9205 1.2532 -1.9357
# 5 17.3610 8.6842 1.5576 1.2532 24.8586 4.7210
# 6 4.0581 2.1072 8.5900 -1.9357 4.7210 32.4856
#
#
#
# Elastic Compliance Matrix: (Units=1/GPa)
#
#
# Indices 1 2 3 4 5 6 
#
# 1 0.011146 -0.004947 -0.002375 -0.001684 -0.005882 0.000311
# 2 -0.004947 0.012698 -0.002697 0.004707 -0.001233 0.000967
# 3 -0.002375 -0.002697 0.009489 0.001012 0.002397 -0.002325
# 4 -0.001684 0.004707 0.001012 0.037140 -0.002834 0.002262
# 5 -0.005882 -0.001233 0.002397 -0.002834 0.046027 -0.006677
# 6 0.000311 0.000967 -0.002325 0.002262 -0.006677 0.032401
#
#
# Mechanical properties :
#
#
# Convention : Reuss Voigt Hill
#
# Bulk Modulus (GPa) = 75.21641 81.55870 78.38756
# Shear Modulus (GPa) = 28.83985 32.35293 30.59639
#
# Velocity S-wave (km/s) = 3.80986 4.03524 3.92417
# Velocity P-wave (km/s) = 7.56371 7.92208 7.74497
#
# Compressibility (1/GPa) = 0.01329497
#
# Stress axis : x y z
#
# Youngs Moduli (GPa) = 89.71668 78.75174 105.38776
#
# Poissons Ratio (x) = 0.38958 0.25028
# Poissons Ratio (y) = 0.44382 0.28427
# Poissons Ratio (z) = 0.21306 0.21242
#
# Static dielectric constant tensor:
#      x y z
#    x 3.775800 0.139310 0.066880 
#    y 0.139310 3.794180 -0.123310 
#    z 0.066880 -0.123310 4.263520 
# 
# 
# High freq. dielectric constant tensor:
#      x y z
#    x 1.781950 0.009730 0.009300 
#    y 0.009730 1.778270 -0.009230 
#    z 0.009300 -0.009230 1.783990 
# 
# From -- ./inp_files/272391.got.cif
#   From: 2010.06.25/outbox.cif.g09.slc.cpg/sg2_137_cif.got.tgz:272391.got - 2010.06.27 13:26:56.
