data_PCOD8014997
_publ_section_title
;
Structure prediction by ZEFSAII (Michael W. Deem and Ramdas Pophale) SiO2 
 PCOD8014997
Probable space group: P -1
;
_chemical_formula_sum "Si O2"
_cell_formula_units_Z 16
_cell_length_a 12.174041
_cell_length_b 18.316398
_cell_length_c 9.325952
_cell_angle_alpha 65.600491
_cell_angle_beta 95.644121
_cell_angle_gamma 37.844516
_cell_volume 755.308494
_symmetry_space_group_name_H-M "P -1"
_symmetry_group_IT_number 2
_symmetry_cell_setting 'triclinic'
loop_
_space_group_symop_operation_xyz
x,y,z
-x,-y,-z
loop_
_atom_site_type_symbol
_atom_site_label
_atom_site_fract_x
_atom_site_fract_y
_atom_site_fract_z
Si Si1 0.962291 0.561822 0.099628
Si Si2 0.009471 0.719036 0.947294
Si Si3 0.150929 0.920254 0.227956
Si Si4 0.509965 0.461340 0.371301
Si Si5 0.423426 0.844278 0.755984
Si Si6 0.225841 0.815272 0.784592
Si Si7 0.472714 0.845073 0.431259
Si Si8 0.174473 0.697429 0.712813
O O1 0.199160 0.362410 0.391648
O O2 0.002726 0.630010 0.050880
O O3 0.000000 0.500000 0.000000
O O4 0.649630 0.746108 0.952644
O O5 0.109847 0.666578 0.837696
O O6 0.205508 0.635701 0.149591
O O7 0.700486 0.957439 0.747430
O O8 0.291486 0.747541 0.449881
O O9 0.365479 0.851057 0.297016
O O10 0.914511 0.113822 0.141739
O O11 0.000000 0.000000 0.000000
O O12 0.500000 0.500000 0.500000
O O13 0.633829 0.446858 0.287144
O O14 0.458935 0.728087 0.906811
O O15 0.456509 0.818472 0.609937
O O16 0.121019 0.077339 0.568754
O O17 0.339370 0.657832 0.856099
O O18 0.000000 0.000000 0.500000
#
# Coordination Sequence:
#
# PCOD8014997 Si02
#       8
#     2   2   2   2   2   2   2   2
#     4  10  22  35  60  95 126 166 207 257 309 361
#     4  11  22  39  64  92 126 164 209 257 307 381
#     4  12  21  36  62  92 126 165 202 259 324 376
#     4  12  24  38  57  97 130 162 204 261 326 382
#     4   9  17  33  61  89 119 162 204 249 309 363
#     4  10  16  35  64  88 120 162 197 261 320 363
#     4  10  19  38  57  88 125 158 206 254 307 357
#     4  10  20  36  63  89 129 157 206 263 322 364
#
# _framework density 21.183398
#
# number of rings (size 3 to 8) (size 9 to 14) (size 15 to 20)
#    0.000    1.500    7.500    1.125    1.750    4.500 
#    0.000    0.000    0.000    1.500    6.500    0.000 
#    0.000    0.000    0.000    0.000    0.000    0.000 
#
# Total GULP energy -198258.545465 kJ/mol
# GULP energy per Si atom -12391.159092 kJ/mol
# Density = 2.113518 g / cm^3
# Si number density = 21.183398 Si / 1000 Ang^3
#
#
#
# Elastic Constant Matrix: (Units=GPa)
#
#
# Indices 1 2 3 4 5 6 
#
# 1 94.7302 32.8004 40.4576 -15.1684 22.8828 0.5177
# 2 32.8004 93.7264 43.6108 -0.4042 11.0003 7.0055
# 3 40.4576 43.6108 105.3009 -10.3686 23.6369 1.0408
# 4 -15.1684 -0.4042 -10.3686 35.3168 3.1253 -2.4507
# 5 22.8828 11.0003 23.6369 3.1253 36.1819 -4.4785
# 6 0.5177 7.0055 1.0408 -2.4507 -4.4785 24.2835
#
#
#
# Elastic Compliance Matrix: (Units=1/GPa)
#
#
# Indices 1 2 3 4 5 6 
#
# 1 0.015722 -0.003552 -0.002081 0.006816 -0.008096 -0.000026
# 2 -0.003552 0.014470 -0.005125 -0.003231 0.000977 -0.004025
# 3 -0.002081 -0.005125 0.014328 0.003860 -0.006814 0.000042
# 4 0.006816 -0.003231 0.003860 0.033252 -0.008422 0.002424
# 5 -0.008096 0.000977 -0.006814 -0.008422 0.038435 0.006421
# 6 -0.000026 -0.004025 0.000042 0.002424 0.006421 0.043769
#
#
# Mechanical properties :
#
#
# Convention : Reuss Voigt Hill
#
# Bulk Modulus (GPa) = 43.47285 58.61057 51.04171
# Shear Modulus (GPa) = 26.43258 30.94902 28.69080
#
# Velocity S-wave (km/s) = 3.53625 3.82645 3.68421
# Velocity P-wave (km/s) = 6.10247 6.87390 6.49964
#
# Compressibility (1/GPa) = 0.02300286
#
# Stress axis : x y z
#
# Youngs Moduli (GPa) = 63.60500 69.11029 69.79356
#
# Poissons Ratio (x) = 0.24551 0.14522
# Poissons Ratio (y) = 0.22595 0.35772
# Poissons Ratio (z) = 0.13234 0.35421
#
# Static dielectric constant tensor:
#      x y z
#    x 4.644940 -0.081060 0.355930 
#    y -0.081060 3.614470 -0.698350 
#    z 0.355930 -0.698350 4.491150 
# 
# 
# High freq. dielectric constant tensor:
#      x y z
#    x 1.815280 0.013580 0.007110 
#    y 0.013580 1.806040 -0.038140 
#    z 0.007110 -0.038140 1.838750 
# 
# From -- ./inp_files/277733.got.cif
#   From: 2010.06.25/outbox.cif.g09.slc.cpg/sg2_139_cif.got.tgz:277733.got - 2010.06.27 13:26:56.
