data_PCOD8014981
_publ_section_title
;
Structure prediction by ZEFSAII (Michael W. Deem and Ramdas Pophale) SiO2 
 PCOD8014981
Probable space group: P -1
;
_chemical_formula_sum "Si O2"
_cell_formula_units_Z 14
_cell_length_a 12.203325
_cell_length_b 8.902731
_cell_length_c 11.827546
_cell_angle_alpha 131.435700
_cell_angle_beta 135.233263
_cell_angle_gamma 64.209741
_cell_volume 676.937614
_symmetry_space_group_name_H-M "P -1"
_symmetry_group_IT_number 2
_symmetry_cell_setting 'triclinic'
loop_
_space_group_symop_operation_xyz
x,y,z
-x,-y,-z
loop_
_atom_site_type_symbol
_atom_site_label
_atom_site_fract_x
_atom_site_fract_y
_atom_site_fract_z
Si Si1 0.018286 0.942755 0.613171
Si Si2 0.529684 0.111521 0.816673
Si Si3 0.681240 0.059042 0.687209
Si Si4 0.602360 0.325874 0.444803
Si Si5 0.315812 0.720873 0.766991
Si Si6 0.247044 0.285514 0.577978
Si Si7 0.880533 0.315403 0.794303
O O1 0.191429 0.882596 0.733100
O O2 0.893530 0.760783 0.460832
O O3 0.000000 0.000000 0.500000
O O4 0.988420 0.133025 0.762769
O O5 0.685684 0.109894 0.850497
O O6 0.409321 0.259536 0.748551
O O7 0.452028 0.887025 0.647339
O O8 0.567184 0.186692 0.007006
O O9 0.756784 0.255672 0.774706
O O10 0.500000 0.000000 0.500000
O O11 0.771066 0.863186 0.618711
O O12 0.500000 0.500000 0.500000
O O13 0.587468 0.317212 0.294344
O O14 0.781692 0.369504 0.637522
O O15 0.233096 0.512051 0.642694
O O16 0.000000 0.500000 0.000000
#
# Coordination Sequence:
#
# PCOD8014981 Si02
#       7
#     2   2   2   2   2   2   2
#     4  11  22  45  65  88 142 178 211 274 338 394
#     4  11  22  43  67  99 131 173 220 280 329 387
#     4   9  18  41  70  89 131 177 216 270 330 388
#     4  12  25  44  67  96 136 173 224 280 333 395
#     4  12  25  39  66 104 129 169 226 272 335 401
#     4  10  21  42  64  92 134 179 217 269 337 391
#     4  11  24  44  68  99 129 181 224 269 334 396
#
# _framework density 20.681374000000002
#
# number of rings (size 3 to 8) (size 9 to 14) (size 15 to 20)
#    0.000    1.143    5.714    2.143    4.000    1.143 
#    2.571    1.429    0.000    0.000    0.000    0.000 
#    0.000    0.000    0.000    0.000    0.000    0.000 
#
# Total GULP energy -173589.133741 kJ/mol
# GULP energy per Si atom -12399.223839 kJ/mol
# Density = 2.063430 g / cm^3
# Si number density = 20.681374 Si / 1000 Ang^3
#
#
#
# Elastic Constant Matrix: (Units=GPa)
#
#
# Indices 1 2 3 4 5 6 
#
# 1 132.6896 29.9239 50.2398 1.7881 -12.1195 7.5415
# 2 29.9239 102.6336 31.6352 4.5000 -2.0467 -3.1628
# 3 50.2398 31.6352 105.7116 6.0880 -12.7896 5.4524
# 4 1.7881 4.5000 6.0880 30.4902 12.0821 5.8788
# 5 -12.1195 -2.0467 -12.7896 12.0821 34.6438 3.6987
# 6 7.5415 -3.1628 5.4524 5.8788 3.6987 38.1689
#
#
#
# Elastic Compliance Matrix: (Units=1/GPa)
#
#
# Indices 1 2 3 4 5 6 
#
# 1 0.009610 -0.001661 -0.003724 -0.000079 0.002097 -0.001695
# 2 -0.001661 0.011140 -0.002666 -0.001086 -0.000728 0.001870
# 3 -0.003724 -0.002666 0.012860 -0.003567 0.004662 -0.001225
# 4 -0.000079 -0.001086 -0.003567 0.040480 -0.015063 -0.004340
# 5 0.002097 -0.000728 0.004662 -0.015063 0.036785 -0.002385
# 6 -0.001695 0.001870 -0.001225 -0.004340 -0.002385 0.027764
#
#
# Mechanical properties :
#
#
# Convention : Reuss Voigt Hill
#
# Bulk Modulus (GPa) = 57.11945 62.73696 59.92820
# Shear Modulus (GPa) = 31.13728 35.94295 33.54012
#
# Velocity S-wave (km/s) = 3.88438 4.17338 4.03147
# Velocity P-wave (km/s) = 6.91351 7.32282 7.12111
#
# Compressibility (1/GPa) = 0.01750717
#
# Stress axis : x y z
#
# Youngs Moduli (GPa) = 104.05694 89.76424 77.75832
#
# Poissons Ratio (x) = 0.14909 0.28961
# Poissons Ratio (y) = 0.17283 0.20734
# Poissons Ratio (z) = 0.38756 0.23935
#
# Static dielectric constant tensor:
#      x y z
#    x 4.500910 -0.438770 0.119690 
#    y -0.438770 4.975140 -0.781290 
#    z 0.119690 -0.781290 4.159320 
# 
# 
# High freq. dielectric constant tensor:
#      x y z
#    x 1.826820 0.004630 -0.007430 
#    y 0.004630 1.810980 0.007830 
#    z -0.007430 0.007830 1.789130 
# 
# From -- ./inp_files/151751.got.cif
#   From: 2010.06.25/outbox.cif.g09.slc.cpg/sg2_76_cif.got.tgz:151751.got - 2010.06.27 13:26:56.
