data_PCOD8014544
_publ_section_title
;
Structure prediction by ZEFSAII (Michael W. Deem and Ramdas Pophale) SiO2 
 PCOD8014544
Probable space group: P -1
;
_chemical_formula_sum "Si O2"
_cell_formula_units_Z 16
_cell_length_a 12.548254
_cell_length_b 9.544361
_cell_length_c 8.293225
_cell_angle_alpha 96.256484
_cell_angle_beta 128.434611
_cell_angle_gamma 74.025623
_cell_volume 745.431278
_symmetry_space_group_name_H-M "P -1"
_symmetry_group_IT_number 2
_symmetry_cell_setting 'triclinic'
loop_
_space_group_symop_operation_xyz
x,y,z
-x,-y,-z
loop_
_atom_site_type_symbol
_atom_site_label
_atom_site_fract_x
_atom_site_fract_y
_atom_site_fract_z
Si Si1 0.911747 0.714048 0.052942
Si Si2 0.649688 0.010526 0.205261
Si Si3 0.662443 0.785662 0.612195
Si Si4 0.871586 0.217609 0.975852
Si Si5 0.642812 0.115295 0.557127
Si Si6 0.109679 0.536236 0.789132
Si Si7 0.808322 0.689201 0.420603
Si Si8 0.900770 0.998120 0.254998
O O1 0.960303 0.555585 0.162091
O O2 0.999257 0.737906 0.982658
O O3 0.922267 0.829365 0.213090
O O4 0.751018 0.728330 0.848395
O O5 0.629955 0.119820 0.352119
O O6 0.735877 0.072047 0.156569
O O7 0.750191 0.851646 0.319457
O O8 0.500000 0.000000 0.000000
O O9 0.500687 0.786636 0.486828
O O10 0.722574 0.681001 0.503528
O O11 0.676370 0.949107 0.623534
O O12 0.767367 0.183139 0.740631
O O13 0.798534 0.364759 0.027476
O O14 0.934404 0.080961 0.137704
O O15 0.213071 0.431154 0.744518
O O16 0.977012 0.653877 0.598251
O O17 0.000000 0.000000 0.500000
#
# Coordination Sequence:
#
# PCOD8014544 Si02
#       8
#     2   2   2   2   2   2   2   2
#     4  12  23  41  69  94 130 178 230 269 333 400
#     4  11  23  43  71 101 129 177 227 274 331 405
#     4  10  21  41  68  95 125 176 219 271 330 399
#     4  12  25  41  63 102 135 170 222 286 332 387
#     4  10  23  41  65  98 135 167 217 283 338 384
#     4  11  24  43  66  99 135 182 219 272 335 410
#     4  10  22  41  69  94 132 174 229 267 324 406
#     4  12  25  39  65 102 136 170 222 289 334 381
#
# _framework density 21.464084
#
# number of rings (size 3 to 8) (size 9 to 14) (size 15 to 20)
#    0.000    1.000    3.750    3.000    7.000    0.000 
#    0.000    1.250    0.000    0.000    0.000    0.000 
#    0.000    0.000    0.000    0.000    0.000    0.000 
#
# Total GULP energy -198363.969330 kJ/mol
# GULP energy per Si atom -12397.748083 kJ/mol
# Density = 2.141523 g / cm^3
# Si number density = 21.464084 Si / 1000 Ang^3
#
#
#
# Elastic Constant Matrix: (Units=GPa)
#
#
# Indices 1 2 3 4 5 6 
#
# 1 84.1965 29.8897 37.9160 -0.9362 2.9556 -16.5162
# 2 29.8897 83.6359 43.6647 11.6987 -0.8446 -4.8574
# 3 37.9160 43.6647 129.5684 13.1900 -4.7830 1.3558
# 4 -0.9362 11.6987 13.1900 34.3225 -4.6341 -6.1852
# 5 2.9556 -0.8446 -4.7830 -4.6341 30.6064 3.5270
# 6 -16.5162 -4.8574 1.3558 -6.1852 3.5270 34.8527
#
#
#
# Elastic Compliance Matrix: (Units=1/GPa)
#
#
# Indices 1 2 3 4 5 6 
#
# 1 0.017148 -0.004043 -0.004332 0.004734 -0.002747 0.008849
# 2 -0.004043 0.015938 -0.003773 -0.004188 -0.000364 -0.000254
# 3 -0.004332 -0.003773 0.010710 -0.003372 0.001914 -0.003787
# 4 0.004734 -0.004188 -0.003372 0.033758 0.003152 0.007463
# 5 -0.002747 -0.000364 0.001914 0.003152 0.034203 -0.004329
# 6 0.008849 -0.000254 -0.003787 0.007463 -0.004329 0.034760
#
#
# Mechanical properties :
#
#
# Convention : Reuss Voigt Hill
#
# Bulk Modulus (GPa) = 51.27513 57.81574 54.54543
# Shear Modulus (GPa) = 28.19868 32.35168 30.27518
#
# Velocity S-wave (km/s) = 3.62852 3.88654 3.75974
# Velocity P-wave (km/s) = 6.44170 6.86548 6.65696
#
# Compressibility (1/GPa) = 0.01950263
#
# Stress axis : x y z
#
# Youngs Moduli (GPa) = 58.31666 62.74149 93.36686
#
# Poissons Ratio (x) = 0.25365 0.40442
# Poissons Ratio (y) = 0.23576 0.35224
# Poissons Ratio (z) = 0.25260 0.23670
#
# Static dielectric constant tensor:
#      x y z
#    x 4.115760 -0.221660 -0.296050 
#    y -0.221660 3.898650 0.151010 
#    z -0.296050 0.151010 3.900600 
# 
# 
# High freq. dielectric constant tensor:
#      x y z
#    x 1.840960 -0.017050 -0.022890 
#    y -0.017050 1.829180 0.010360 
#    z -0.022890 0.010360 1.846210 
# 
# From -- ./inp_files/244200.got.cif
#   From: 2010.06.25/outbox.cif.g09.slc.cpg/sg2_123_cif.got.tgz:244200.got - 2010.06.27 13:26:56.
