data_PCOD8014696
_publ_section_title
;
Structure prediction by ZEFSAII (Michael W. Deem and Ramdas Pophale) SiO2 
 PCOD8014696
Probable space group: P -1
;
_chemical_formula_sum "Si O2"
_cell_formula_units_Z 14
_cell_length_a 17.321281
_cell_length_b 9.072566
_cell_length_c 11.564514
_cell_angle_alpha 43.862513
_cell_angle_beta 150.558623
_cell_angle_gamma 127.661366
_cell_volume 618.221718
_symmetry_space_group_name_H-M "P -1"
_symmetry_group_IT_number 2
_symmetry_cell_setting 'triclinic'
loop_
_space_group_symop_operation_xyz
x,y,z
-x,-y,-z
loop_
_atom_site_type_symbol
_atom_site_label
_atom_site_fract_x
_atom_site_fract_y
_atom_site_fract_z
Si Si1 0.829499 0.103849 0.696211
Si Si2 0.541005 0.831001 0.451097
Si Si3 0.618695 0.563514 0.504923
Si Si4 0.230714 0.088767 0.886233
Si Si5 0.810438 0.543034 0.540623
Si Si6 0.060852 0.723322 0.488211
Si Si7 0.150627 0.686376 0.881708
O O1 0.789880 0.295892 0.624851
O O2 0.825137 0.187175 0.511197
O O3 0.702391 0.926219 0.649872
O O4 0.000000 0.000000 0.000000
O O5 0.545582 0.782021 0.344537
O O6 0.511121 0.606396 0.604286
O O7 0.397798 0.998037 0.203594
O O8 0.722876 0.614393 0.503191
O O9 0.713973 0.453917 0.798930
O O10 0.260404 0.313818 0.737103
O O11 0.096706 0.120578 0.791969
O O12 0.156951 0.931228 0.787448
O O13 0.991267 0.585303 0.772074
O O14 0.162656 0.687950 0.757524
O O15 0.000000 0.500000 0.500000
#
# Coordination Sequence:
#
# PCOD8014696 Si02
#       7
#     2   2   2   2   2   2   2
#     4  12  27  43  67  98 129 174 217 264 328 391
#     4  10  25  45  62  95 132 174 218 261 331 380
#     4  10  23  44  65  95 132 169 219 270 317 378
#     4  10  23  43  66  99 132 170 215 265 326 381
#     4  11  22  41  65 101 130 168 218 266 321 380
#     4  11  22  44  66  98 132 169 215 264 321 388
#     4  10  21  41  70  96 129 170 215 268 317 381
#
# _framework density 22.645598
#
# number of rings (size 3 to 8) (size 9 to 14) (size 15 to 20)
#    0.000    1.429    2.857    3.000    8.000    1.714 
#    5.143    0.000    0.000    0.000    0.000    0.000 
#    0.000    0.000    0.000    0.000    0.000    0.000 
#
# Total GULP energy -173539.294870 kJ/mol
# GULP energy per Si atom -12395.663919 kJ/mol
# Density = 2.259406 g / cm^3
# Si number density = 22.645598 Si / 1000 Ang^3
#
#
#
# Elastic Constant Matrix: (Units=GPa)
#
#
# Indices 1 2 3 4 5 6 
#
# 1 79.9917 -13.5789 -5.3976 7.3076 4.8635 -1.0264
# 2 -13.5789 125.5483 13.6802 12.0618 8.4159 7.2779
# 3 -5.3976 13.6802 50.5661 3.6616 18.0678 3.8598
# 4 7.3076 12.0618 3.6616 32.5675 -2.2602 10.7792
# 5 4.8635 8.4159 18.0678 -2.2602 26.6010 -5.3193
# 6 -1.0264 7.2779 3.8598 10.7792 -5.3193 36.8979
#
#
#
# Elastic Compliance Matrix: (Units=1/GPa)
#
#
# Indices 1 2 3 4 5 6 
#
# 1 0.013838 0.001958 0.003335 -0.004666 -0.005775 0.000180
# 2 0.001958 0.008867 -0.000717 -0.003516 -0.003186 -0.001052
# 3 0.003335 -0.000717 0.028425 -0.003571 -0.020936 -0.004714
# 4 -0.004666 -0.003516 -0.003571 0.036831 0.005721 -0.008998
# 5 -0.005775 -0.003186 -0.020936 0.005721 0.056179 0.009085
# 6 0.000180 -0.001052 -0.004714 -0.008998 0.009085 0.031746
#
#
# Mechanical properties :
#
#
# Convention : Reuss Voigt Hill
#
# Bulk Modulus (GPa) = 16.58825 27.27928 21.93376
# Shear Modulus (GPa) = 26.76258 36.64011 31.70134
#
# Velocity S-wave (km/s) = 3.44146 4.02678 3.74557
# Velocity P-wave (km/s) = 4.80964 5.80450 5.33033
#
# Compressibility (1/GPa) = 0.06028363
#
# Stress axis : x y z
#
# Youngs Moduli (GPa) = 72.26243 112.77449 35.18032
#
# Poissons Ratio (x) = -0.22084 -0.11733
# Poissons Ratio (y) = -0.14151 0.02522
# Poissons Ratio (z) = -0.24100 0.08084
#
# Static dielectric constant tensor:
#      x y z
#    x 5.025080 -0.275980 0.214590 
#    y -0.275980 4.298730 -0.155750 
#    z 0.214590 -0.155750 3.905080 
# 
# 
# High freq. dielectric constant tensor:
#      x y z
#    x 1.897150 -0.002530 0.020370 
#    y -0.002530 1.903540 -0.008280 
#    z 0.020370 -0.008280 1.875300 
# 
# From -- ./inp_files/190878.got.cif
#   From: 2010.06.25/outbox.cif.g09.slc.cpg/sg2_96_cif.got.tgz:190878.got - 2010.06.27 13:26:56.
