data_PCOD8014065
_publ_section_title
;
Structure prediction by ZEFSAII (Michael W. Deem and Ramdas Pophale) SiO2 
 PCOD8014065
Probable space group: P -1
;
_chemical_formula_sum "Si O2"
_cell_formula_units_Z 16
_cell_length_a 11.857375
_cell_length_b 19.482278
_cell_length_c 17.539023
_cell_angle_alpha 159.446545
_cell_angle_beta 149.697606
_cell_angle_gamma 39.689983
_cell_volume 700.199620
_symmetry_space_group_name_H-M "P -1"
_symmetry_group_IT_number 2
_symmetry_cell_setting 'triclinic'
loop_
_space_group_symop_operation_xyz
x,y,z
-x,-y,-z
loop_
_atom_site_type_symbol
_atom_site_label
_atom_site_fract_x
_atom_site_fract_y
_atom_site_fract_z
Si Si1 0.440432 0.783501 0.276236
Si Si2 0.760916 0.565829 0.312751
Si Si3 0.224512 0.501626 0.461312
Si Si4 0.506072 0.543273 0.285135
Si Si5 0.306946 0.903195 0.585589
Si Si6 0.016634 0.162025 0.884653
Si Si7 0.528389 0.843007 0.919920
Si Si8 0.113749 0.179632 0.645841
O O1 0.660707 0.753956 0.420928
O O2 0.216291 0.753955 0.171083
O O3 0.500000 0.000000 0.500000
O O4 0.389636 0.632287 0.019066
O O5 0.727123 0.553846 0.371637
O O6 0.026859 0.596144 0.480999
O O7 0.432217 0.518282 0.658810
O O8 0.326451 0.640546 0.592078
O O9 0.132479 0.265870 0.138978
O O10 0.440119 0.755620 0.469278
O O11 0.295285 0.386326 0.961319
O O12 0.110694 0.782476 0.402597
O O13 0.206580 0.011540 0.571520
O O14 0.486415 0.057552 0.902699
O O15 0.945087 0.917646 0.575753
O O16 0.225108 0.223670 0.009561
O O17 0.500000 0.000000 0.000000
#
# Coordination Sequence:
#
# PCOD8014065 Si02
#       8
#     2   2   2   2   2   2   2   2
#     4  10  21  42  67  94 131 164 219 271 314 379
#     4  10  24  41  64  98 127 171 220 260 322 385
#     4  11  24  44  65  93 139 169 213 274 320 387
#     4  12  22  42  68  93 133 178 210 265 328 380
#     4  10  22  40  63  97 129 168 224 264 319 390
#     4  10  22  40  67  96 123 171 215 262 328 383
#     4  11  23  42  64  96 132 170 217 267 327 391
#     4  10  21  41  64  95 135 165 217 273 318 381
#
# _framework density 22.850625999999998
#
# number of rings (size 3 to 8) (size 9 to 14) (size 15 to 20)
#    0.000    1.500    1.250    3.375    1.750    0.000 
#   13.500    0.625    0.000    0.000    0.000    0.000 
#    0.000    0.000    0.000    0.000    0.000    0.000 
#
# Total GULP energy -198212.049980 kJ/mol
# GULP energy per Si atom -12388.253124 kJ/mol
# Density = 2.279862 g / cm^3
# Si number density = 22.850626 Si / 1000 Ang^3
#
#
#
# Elastic Constant Matrix: (Units=GPa)
#
#
# Indices 1 2 3 4 5 6 
#
# 1 100.2972 27.8617 35.7107 10.2658 -10.8250 -20.0021
# 2 27.8617 71.1664 26.5999 8.4740 2.6196 -6.6628
# 3 35.7107 26.5999 111.0231 0.3963 -11.3257 -6.9291
# 4 10.2658 8.4740 0.3963 25.2752 -2.9776 -0.4049
# 5 -10.8250 2.6196 -11.3257 -2.9776 31.3908 2.6429
# 6 -20.0021 -6.6628 -6.9291 -0.4049 2.6429 42.0054
#
#
#
# Elastic Compliance Matrix: (Units=1/GPa)
#
#
# Indices 1 2 3 4 5 6 
#
# 1 0.013772 -0.003446 -0.002938 -0.003936 0.003158 0.005290
# 2 -0.003446 0.017525 -0.003476 -0.004932 -0.004440 0.000797
# 3 -0.002938 -0.003476 0.011119 0.002599 0.003562 -0.000315
# 4 -0.003936 -0.004932 0.002599 0.043245 0.004269 -0.002079
# 5 0.003158 -0.004440 0.003562 0.004269 0.035072 -0.000778
# 6 0.005290 0.000797 -0.000315 -0.002079 -0.000778 0.026429
#
#
# Mechanical properties :
#
#
# Convention : Reuss Voigt Hill
#
# Bulk Modulus (GPa) = 44.05864 51.42571 47.74218
# Shear Modulus (GPa) = 28.66174 32.55524 30.60849
#
# Velocity S-wave (km/s) = 3.54546 3.77861 3.66389
# Velocity P-wave (km/s) = 6.00695 6.44913 6.23196
#
# Compressibility (1/GPa) = 0.02269702
#
# Stress axis : x y z
#
# Youngs Moduli (GPa) = 72.60885 57.06040 89.93376
#
# Poissons Ratio (x) = 0.19664 0.26421
# Poissons Ratio (y) = 0.25022 0.31261
# Poissons Ratio (z) = 0.21331 0.19834
#
# Static dielectric constant tensor:
#      x y z
#    x 4.179530 -0.389130 -0.166500 
#    y -0.389130 3.970840 -0.111240 
#    z -0.166500 -0.111240 4.248890 
# 
# 
# High freq. dielectric constant tensor:
#      x y z
#    x 1.902270 -0.028180 -0.013130 
#    y -0.028180 1.883620 -0.005590 
#    z -0.013130 -0.005590 1.905520 
# 
# From -- ./inp_files/570835.got.cif
#   From: 2010.06.25/outbox.cif.g09.slc.cpg/sg2_286_cif.got.tgz:570835.got - 2010.06.27 13:26:56.
