data_PCOD8014051
_publ_section_title
;
Structure prediction by ZEFSAII (Michael W. Deem and Ramdas Pophale) SiO2 
 PCOD8014051
Probable space group: P -1
;
_chemical_formula_sum "Si O2"
_cell_formula_units_Z 12
_cell_length_a 15.896732
_cell_length_b 9.795959
_cell_length_c 10.408794
_cell_angle_alpha 127.101456
_cell_angle_beta 146.087703
_cell_angle_gamma 45.304119
_cell_volume 642.067271
_symmetry_space_group_name_H-M "P -1"
_symmetry_group_IT_number 2
_symmetry_cell_setting 'triclinic'
loop_
_space_group_symop_operation_xyz
x,y,z
-x,-y,-z
loop_
_atom_site_type_symbol
_atom_site_label
_atom_site_fract_x
_atom_site_fract_y
_atom_site_fract_z
Si Si1 0.006932 0.089625 0.193834
Si Si2 0.699428 0.480381 0.100590
Si Si3 0.331350 0.619024 0.718513
Si Si4 0.320627 0.013927 0.936368
Si Si5 0.012324 0.859096 0.318593
Si Si6 0.312470 0.118017 0.699948
O O1 0.848046 0.296876 0.120472
O O2 0.176245 0.117478 0.426854
O O3 0.009367 0.945892 0.225636
O O4 0.000000 0.000000 0.000000
O O5 0.713485 0.476325 0.271008
O O6 0.713318 0.668929 0.179259
O O7 0.521618 0.485209 0.831536
O O8 0.188173 0.663499 0.451887
O O9 0.336745 0.810003 0.887449
O O10 0.156547 0.174413 0.896720
O O11 0.286276 0.029759 0.749164
O O12 0.498136 0.017909 0.193391
O O13 0.000000 0.000000 0.500000
#
# Coordination Sequence:
#
# PCOD8014051 Si02
#       6
#     2   2   2   2   2   2
#     4  12  23  36  54  86 121 148 175 228 296 336
#     4  10  19  32  57  90 108 136 194 242 263 309
#     4   9  16  31  60  84 103 141 197 225 263 322
#     4   9  16  31  60  84 103 141 197 225 263 322
#     4  10  16  34  59  77 101 157 191 211 263 349
#     4  10  19  32  57  90 108 136 194 242 263 309
#
# _framework density 18.689627999999999
#
# number of rings (size 3 to 8) (size 9 to 14) (size 15 to 20)
#    0.000    2.000    6.667    0.500    0.000    0.000 
#    0.000    1.667    0.000    2.000    0.000    0.000 
#    0.000    0.000    0.000    0.000    0.000    0.000 
#
# Total GULP energy -148697.393534 kJ/mol
# GULP energy per Si atom -12391.449461 kJ/mol
# Density = 1.864709 g / cm^3
# Si number density = 18.689628 Si / 1000 Ang^3
#
#
#
# Elastic Constant Matrix: (Units=GPa)
#
#
# Indices 1 2 3 4 5 6 
#
# 1 102.6735 29.0991 70.4695 -14.6240 19.0116 -7.7858
# 2 29.0991 56.2932 47.8361 -24.0751 6.5697 -5.9507
# 3 70.4695 47.8361 109.5385 -27.4387 20.6199 -31.0515
# 4 -14.6240 -24.0751 -27.4387 29.9332 -7.6056 5.5900
# 5 19.0116 6.5697 20.6199 -7.6056 36.4761 -13.8627
# 6 -7.7858 -5.9507 -31.0515 5.5900 -13.8627 25.5340
#
#
#
# Elastic Compliance Matrix: (Units=1/GPa)
#
#
# Indices 1 2 3 4 5 6 
#
# 1 0.024208 0.004339 -0.023746 -0.004404 -0.010473 -0.025206
# 2 0.004339 0.038476 -0.020303 0.017681 -0.001224 -0.018935
# 3 -0.023746 -0.020303 0.047688 0.009040 0.009699 0.049307
# 4 -0.004404 0.017681 0.009040 0.054592 0.007655 0.005975
# 5 -0.010473 -0.001224 0.009699 0.007655 0.039981 0.028347
# 6 -0.025206 -0.018935 0.049307 0.005975 0.028347 0.101108
#
#
# Mechanical properties :
#
#
# Convention : Reuss Voigt Hill
#
# Bulk Modulus (GPa) = 32.30615 62.59052 47.44833
# Shear Modulus (GPa) = 12.63297 26.46203 19.54750
#
# Velocity S-wave (km/s) = 2.60270 3.76688 3.23755
# Velocity P-wave (km/s) = 5.13373 7.24440 6.27840
#
# Compressibility (1/GPa) = 0.03095386
#
# Stress axis : x y z
#
# Youngs Moduli (GPa) = 41.30811 25.98991 20.96977
#
# Poissons Ratio (x) = -0.11277 0.49794
# Poissons Ratio (y) = -0.17923 0.42574
# Poissons Ratio (z) = 0.98089 0.52766
#
# Static dielectric constant tensor:
#      x y z
#    x 3.743800 -0.102190 0.677610 
#    y -0.102190 3.409120 -0.741890 
#    z 0.677610 -0.741890 3.597490 
# 
# 
# High freq. dielectric constant tensor:
#      x y z
#    x 1.733490 0.018990 0.040060 
#    y 0.018990 1.701110 -0.058740 
#    z 0.040060 -0.058740 1.699030 
# 
# From -- ./inp_files/153460.got.cif
#   From: 2010.06.25/outbox.cif.g09.slc.cpg/sg2_77_cif.got.tgz:153460.got - 2010.06.27 13:26:56.
