data_PCOD8014754
_publ_section_title
;
Structure prediction by ZEFSAII (Michael W. Deem and Ramdas Pophale) SiO2 
 PCOD8014754
Probable space group: P -1
;
_chemical_formula_sum "Si O2"
_cell_formula_units_Z 16
_cell_length_a 12.359368
_cell_length_b 9.596395
_cell_length_c 15.631309
_cell_angle_alpha 64.026424
_cell_angle_beta 26.478439
_cell_angle_gamma 74.674570
_cell_volume 704.385388
_symmetry_space_group_name_H-M "P -1"
_symmetry_group_IT_number 2
_symmetry_cell_setting 'triclinic'
loop_
_space_group_symop_operation_xyz
x,y,z
-x,-y,-z
loop_
_atom_site_type_symbol
_atom_site_label
_atom_site_fract_x
_atom_site_fract_y
_atom_site_fract_z
Si Si1 0.603590 0.638719 0.516643
Si Si2 0.195872 0.637000 0.939447
Si Si3 0.769982 0.676381 0.933965
Si Si4 0.596422 0.902192 0.116159
Si Si5 0.985014 0.179109 0.451244
Si Si6 0.682669 0.706682 0.252684
Si Si7 0.188590 0.728565 0.108978
Si Si8 0.762720 0.508730 0.720062
O O1 0.427248 0.696778 0.692077
O O2 0.599736 0.722602 0.404632
O O3 0.515288 0.443832 0.617395
O O4 0.885538 0.690956 0.342069
O O5 0.105069 0.439285 0.069151
O O6 0.278983 0.723452 0.948916
O O7 0.959988 0.684700 0.055989
O O8 0.953404 0.756325 0.705406
O O9 0.754262 0.827694 0.959932
O O10 0.491741 0.554068 0.138454
O O11 0.298985 0.819832 0.327747
O O12 0.674452 0.869552 0.166448
O O13 0.671216 0.095255 0.996852
O O14 0.183732 0.301811 0.342364
O O15 0.000000 0.000000 0.500000
O O16 0.272889 0.597103 0.139408
O O17 0.000000 0.500000 0.500000
#
# Coordination Sequence:
#
# PCOD8014754 Si02
#       8
#     2   2   2   2   2   2   2   2
#     4  10  21  41  71  97 132 175 225 274 337 396
#     4  11  23  42  72 102 127 181 233 272 329 412
#     4  12  26  43  72  98 137 183 229 270 338 401
#     4  12  27  46  65 103 141 177 222 286 335 391
#     4  12  28  45  69 103 136 174 229 281 334 401
#     4  10  23  41  72  99 137 172 230 282 330 399
#     4  11  26  44  67  99 140 176 227 277 337 403
#     4  12  24  46  73  97 137 181 222 278 340 401
#
# _framework density 22.714839000000001
#
# number of rings (size 3 to 8) (size 9 to 14) (size 15 to 20)
#    0.000    0.750    3.750    3.000    7.000    4.000 
#    0.000    1.250    0.000    0.000    0.000    0.000 
#    0.000    0.000    0.000    0.000    0.000    0.000 
#
# Total GULP energy -198491.820173 kJ/mol
# GULP energy per Si atom -12405.738761 kJ/mol
# Density = 2.266314 g / cm^3
# Si number density = 22.714839 Si / 1000 Ang^3
#
#
#
# Elastic Constant Matrix: (Units=GPa)
#
#
# Indices 1 2 3 4 5 6 
#
# 1 62.1885 17.7925 9.0940 -6.0384 -0.3008 -1.4375
# 2 17.7925 122.8257 18.5928 -11.7108 5.1013 10.1241
# 3 9.0940 18.5928 88.4356 10.3477 5.8340 9.2194
# 4 -6.0384 -11.7108 10.3477 38.5223 10.1033 3.6450
# 5 -0.3008 5.1013 5.8340 10.1033 28.5487 3.7032
# 6 -1.4375 10.1241 9.2194 3.6450 3.7032 38.3107
#
#
#
# Elastic Compliance Matrix: (Units=1/GPa)
#
#
# Indices 1 2 3 4 5 6 
#
# 1 0.017206 -0.002107 -0.001748 0.002426 -0.000126 0.001404
# 2 -0.002107 0.009373 -0.001811 0.003847 -0.002396 -0.002255
# 3 -0.001748 -0.001811 0.012586 -0.003834 -0.000626 -0.002191
# 4 0.002426 0.003847 -0.003834 0.031555 -0.010791 -0.001962
# 5 -0.000126 -0.002396 -0.000626 -0.010791 0.039665 -0.002028
# 6 0.001404 -0.002255 -0.002191 -0.001962 -0.002028 0.027661
#
#
# Mechanical properties :
#
#
# Convention : Reuss Voigt Hill
#
# Bulk Modulus (GPa) = 35.92866 40.48983 38.20925
# Shear Modulus (GPa) = 31.51469 36.27439 33.89454
#
# Velocity S-wave (km/s) = 3.72883 4.00052 3.86706
# Velocity P-wave (km/s) = 5.86434 6.26122 6.06603
#
# Compressibility (1/GPa) = 0.02783293
#
# Stress axis : x y z
#
# Youngs Moduli (GPa) = 58.11894 106.68741 79.45032
#
# Poissons Ratio (x) = 0.22479 0.13891
# Poissons Ratio (y) = 0.12246 0.14389
# Poissons Ratio (z) = 0.10161 0.19321
#
# Static dielectric constant tensor:
#      x y z
#    x 4.200460 -0.002290 0.070980 
#    y -0.002290 4.011320 0.092920 
#    z 0.070980 0.092920 4.266150 
# 
# 
# High freq. dielectric constant tensor:
#      x y z
#    x 1.902390 0.000320 0.004520 
#    y 0.000320 1.889560 0.014200 
#    z 0.004520 0.014200 1.904770 
# 
# From -- ./inp_files/333338.got.cif
#   From: 2010.06.25/outbox.cif.g09.slc.cpg/sg2_167_cif.got.tgz:333338.got - 2010.06.27 13:26:56.
