data_PCOD8014380
_publ_section_title
;
Structure prediction by ZEFSAII (Michael W. Deem and Ramdas Pophale) SiO2 
 PCOD8014380
Probable space group: P -1
;
_chemical_formula_sum "Si O2"
_cell_formula_units_Z 14
_cell_length_a 8.426049
_cell_length_b 16.893308
_cell_length_c 24.122049
_cell_angle_alpha 20.530153
_cell_angle_beta 34.014412
_cell_angle_gamma 31.789221
_cell_volume 624.220167
_symmetry_space_group_name_H-M "P -1"
_symmetry_group_IT_number 2
_symmetry_cell_setting 'triclinic'
loop_
_space_group_symop_operation_xyz
x,y,z
-x,-y,-z
loop_
_atom_site_type_symbol
_atom_site_label
_atom_site_fract_x
_atom_site_fract_y
_atom_site_fract_z
Si Si1 0.899108 0.734417 0.838503
Si Si2 0.069715 0.281771 0.776372
Si Si3 0.232306 0.248176 0.933573
Si Si4 0.238335 0.755017 0.617901
Si Si5 0.076078 0.352726 0.517544
Si Si6 0.771123 0.201303 0.014558
Si Si7 0.732829 0.033186 0.791539
O O1 0.567256 0.766391 0.889346
O O2 0.135578 0.731478 0.725087
O O3 0.868659 0.963600 0.736397
O O4 0.000000 0.500000 0.000000
O O5 0.374335 0.199996 0.779946
O O6 0.055290 0.497263 0.598682
O O7 0.044122 0.074609 0.878827
O O8 0.788729 0.362183 0.849671
O O9 0.279972 0.500754 0.741213
O O10 0.919871 0.269093 0.980617
O O11 0.500000 0.000000 0.000000
O O12 0.213922 0.217411 0.025586
O O13 0.561056 0.785661 0.503042
O O14 0.000000 0.000000 0.500000
O O15 0.000000 0.500000 0.500000
O O16 0.911034 0.162013 0.692396
#
# Coordination Sequence:
#
# PCOD8014380 Si02
#       7
#     2   2   2   2   2   2   2
#     4  11  24  47  69  98 144 193 241 294 358 442
#     4  10  21  41  67 109 140 180 244 302 353 423
#     4  12  23  46  74 108 138 190 249 298 350 433
#     4  12  30  47  70 108 155 186 239 304 367 426
#     4  12  27  45  71 105 148 191 239 304 364 427
#     4  10  22  37  73 100 138 185 241 292 356 421
#     4  11  24  41  75 101 138 192 246 294 360 431
#
# _framework density 22.427985
#
# number of rings (size 3 to 8) (size 9 to 14) (size 15 to 20)
#    0.000    0.857    2.857    3.857    8.000    3.429 
#    0.000    0.000    0.000    0.000    0.000    0.000 
#    0.000    0.000    0.000    0.000    0.000    0.000 
#
# Total GULP energy -173549.499399 kJ/mol
# GULP energy per Si atom -12396.392814 kJ/mol
# Density = 2.237694 g / cm^3
# Si number density = 22.427985 Si / 1000 Ang^3
#
#
#
# Elastic Constant Matrix: (Units=GPa)
#
#
# Indices 1 2 3 4 5 6 
#
# 1 119.9932 30.7351 34.6788 -3.6558 -12.0916 -12.5796
# 2 30.7351 89.0188 28.6616 8.7690 -1.7185 -0.7876
# 3 34.6788 28.6616 102.5368 -9.0359 6.5396 -8.4008
# 4 -3.6558 8.7690 -9.0359 43.6115 0.6840 4.2233
# 5 -12.0916 -1.7185 6.5396 0.6840 49.8645 -1.3050
# 6 -12.5796 -0.7876 -8.4008 4.2233 -1.3050 30.1433
#
#
#
# Elastic Compliance Matrix: (Units=1/GPa)
#
#
# Indices 1 2 3 4 5 6 
#
# 1 0.010477 -0.002733 -0.002623 0.000488 0.002879 0.003626
# 2 -0.002733 0.013581 -0.003297 -0.003531 0.000255 -0.001199
# 3 -0.002623 -0.003297 0.012098 0.002822 -0.002331 0.001694
# 4 0.000488 -0.003531 0.002822 0.024527 -0.000777 -0.002572
# 5 0.002879 0.000255 -0.002331 -0.000777 0.021119 0.001582
# 6 0.003626 -0.001199 0.001694 -0.002572 0.001582 0.035558
#
#
# Mechanical properties :
#
#
# Convention : Reuss Voigt Hill
#
# Bulk Modulus (GPa) = 53.05488 55.52219 54.28853
# Shear Modulus (GPa) = 35.47379 39.22210 37.34795
#
# Velocity S-wave (km/s) = 3.98134 4.18640 4.08516
# Velocity P-wave (km/s) = 6.69640 6.94100 6.81980
#
# Compressibility (1/GPa) = 0.01884841
#
# Stress axis : x y z
#
# Youngs Moduli (GPa) = 95.44691 73.63160 82.66126
#
# Poissons Ratio (x) = 0.20126 0.21681
# Poissons Ratio (y) = 0.26088 0.27257
# Poissons Ratio (z) = 0.25035 0.24280
#
# Static dielectric constant tensor:
#      x y z
#    x 4.124050 0.254220 0.296010 
#    y 0.254220 4.292800 0.474500 
#    z 0.296010 0.474500 4.653030 
# 
# 
# High freq. dielectric constant tensor:
#      x y z
#    x 1.895690 0.000130 0.005040 
#    y 0.000130 1.875890 0.011560 
#    z 0.005040 0.011560 1.885080 
# 
# From -- ./inp_files/608420.got.cif
#   From: 2010.06.25/outbox.cif.g09.slc.cpg/sg2_305_cif.got.tgz:608420.got - 2010.06.27 13:26:56.
