data_PCOD8014445
_publ_section_title
;
Structure prediction by ZEFSAII (Michael W. Deem and Ramdas Pophale) SiO2 
 PCOD8014445
Probable space group: P -1
;
_chemical_formula_sum "Si O2"
_cell_formula_units_Z 12
_cell_length_a 12.590126
_cell_length_b 16.945153
_cell_length_c 7.067961
_cell_angle_alpha 41.751083
_cell_angle_beta 125.185761
_cell_angle_gamma 146.799198
_cell_volume 545.028153
_symmetry_space_group_name_H-M "P -1"
_symmetry_group_IT_number 2
_symmetry_cell_setting 'triclinic'
loop_
_space_group_symop_operation_xyz
x,y,z
-x,-y,-z
loop_
_atom_site_type_symbol
_atom_site_label
_atom_site_fract_x
_atom_site_fract_y
_atom_site_fract_z
Si Si1 0.395696 0.060422 0.503989
Si Si2 0.987769 0.876129 0.332952
Si Si3 0.693440 0.245239 0.164797
Si Si4 0.603860 0.586393 0.652921
Si Si5 0.930851 0.598226 0.557656
Si Si6 0.377697 0.595302 0.692963
O O1 0.493610 0.141713 0.251450
O O2 0.537079 0.213728 0.532853
O O3 0.196569 0.998616 0.424079
O O4 0.349739 0.889184 0.791859
O O5 0.826614 0.780821 0.502495
O O6 0.926487 0.726943 0.402362
O O7 0.000000 0.000000 0.000000
O O8 0.852880 0.309571 0.370229
O O9 0.773293 0.414455 0.841162
O O10 0.500000 0.500000 0.500000
O O11 0.495609 0.611976 0.617236
O O12 0.605600 0.463023 0.987986
O O13 0.850298 0.548041 0.348890
#
# Coordination Sequence:
#
# PCOD8014445 Si02
#       6
#     2   2   2   2   2   2
#     4  10  22  40  61 100 129 167 217 266 322 382
#     4  11  23  39  67  96 133 171 206 267 340 376
#     4   9  21  43  68  86 136 176 208 270 325 362
#     4  11  23  43  65  94 138 170 207 266 329 390
#     4  10  21  41  67  96 122 178 221 256 318 389
#     4  11  24  39  70 100 121 173 224 257 320 393
#
# _framework density 22.017211
#
# number of rings (size 3 to 8) (size 9 to 14) (size 15 to 20)
#    0.000    1.667    1.667    2.000    4.667    2.000 
#    0.000    0.000    0.000    0.000    0.000    0.000 
#    0.000    0.000    0.000    0.000    0.000    0.000 
#
# Total GULP energy -148789.955019 kJ/mol
# GULP energy per Si atom -12399.162918 kJ/mol
# Density = 2.196710 g / cm^3
# Si number density = 22.017211 Si / 1000 Ang^3
#
#
#
# Elastic Constant Matrix: (Units=GPa)
#
#
# Indices 1 2 3 4 5 6 
#
# 1 61.2074 21.5639 40.2526 -4.0085 -2.9364 7.5057
# 2 21.5639 127.1248 46.8000 -0.3052 11.7994 -14.1123
# 3 40.2526 46.8000 104.7329 -8.5552 5.4402 -5.4109
# 4 -4.0085 -0.3052 -8.5552 42.9641 -1.6763 0.3359
# 5 -2.9364 11.7994 5.4402 -1.6763 34.8937 -13.1418
# 6 7.5057 -14.1123 -5.4109 0.3359 -13.1418 38.5162
#
#
#
# Elastic Compliance Matrix: (Units=1/GPa)
#
#
# Indices 1 2 3 4 5 6 
#
# 1 0.023396 -0.001593 -0.008621 0.000566 0.001703 -0.005778
# 2 -0.001593 0.009977 -0.003675 -0.000907 -0.001923 0.002801
# 3 -0.008621 -0.003675 0.014828 0.002070 -0.000908 0.002088
# 4 0.000566 -0.000907 0.002070 0.023780 0.001192 0.000048
# 5 0.001703 -0.001923 -0.000908 0.001192 0.033516 0.010261
# 6 -0.005778 0.002801 0.002088 0.000048 0.010261 0.031909
#
#
# Mechanical properties :
#
#
# Convention : Reuss Voigt Hill
#
# Bulk Modulus (GPa) = 48.96578 56.69979 52.83278
# Shear Modulus (GPa) = 29.07128 35.57138 32.32133
#
# Velocity S-wave (km/s) = 3.63766 4.02383 3.83561
# Velocity P-wave (km/s) = 6.31913 6.88453 6.60788
#
# Compressibility (1/GPa) = 0.02042243
#
# Stress axis : x y z
#
# Youngs Moduli (GPa) = 42.74281 100.23190 67.44067
#
# Poissons Ratio (x) = 0.15967 0.58138
# Poissons Ratio (y) = 0.06809 0.24787
# Poissons Ratio (z) = 0.36847 0.36839
#
# Static dielectric constant tensor:
#      x y z
#    x 4.102680 0.168750 0.117140 
#    y 0.168750 4.305240 -0.189410 
#    z 0.117140 -0.189410 3.847270 
# 
# 
# High freq. dielectric constant tensor:
#      x y z
#    x 1.869900 0.006610 0.013940 
#    y 0.006610 1.877670 -0.018670 
#    z 0.013940 -0.018670 1.850400 
# 
# From -- ./inp_files/26174.got.cif
#   From: 2010.06.25/outbox.cif.g09.slc.cpg/sg2_14_cif.got.tgz:26174.got - 2010.06.27 13:26:56.
