data_PCOD8014148
_publ_section_title
;
Structure prediction by ZEFSAII (Michael W. Deem and Ramdas Pophale) SiO2 
 PCOD8014148
Probable space group: P -1
;
_chemical_formula_sum "Si O2"
_cell_formula_units_Z 16
_cell_length_a 17.936101
_cell_length_b 6.759676
_cell_length_c 8.035855
_cell_angle_alpha 105.886914
_cell_angle_beta 109.737243
_cell_angle_gamma 116.595926
_cell_volume 707.827207
_symmetry_space_group_name_H-M "P -1"
_symmetry_group_IT_number 2
_symmetry_cell_setting 'triclinic'
loop_
_space_group_symop_operation_xyz
x,y,z
-x,-y,-z
loop_
_atom_site_type_symbol
_atom_site_label
_atom_site_fract_x
_atom_site_fract_y
_atom_site_fract_z
Si Si1 0.627946 0.070218 0.200301
Si Si2 0.339493 0.301998 0.009621
Si Si3 0.062140 0.395039 0.058761
Si Si4 0.395295 0.219932 0.365767
Si Si5 0.982344 0.884098 0.693447
Si Si6 0.855014 0.943292 0.390769
Si Si7 0.573595 0.147014 0.850614
Si Si8 0.759172 0.131252 0.578146
O O1 0.610926 0.799342 0.089117
O O2 0.536364 0.042196 0.207308
O O3 0.718439 0.228239 0.432288
O O4 0.649889 0.220683 0.077762
O O5 0.240111 0.237316 0.839115
O O6 0.324052 0.189983 0.157698
O O7 0.413845 0.607212 0.156593
O O8 0.178358 0.637929 0.188316
O O9 0.043557 0.294135 0.210329
O O10 0.000000 0.500000 0.000000
O O11 0.038542 0.180586 0.860209
O O12 0.500000 0.500000 0.500000
O O13 0.414690 0.005713 0.317748
O O14 0.330947 0.139804 0.468107
O O15 0.883894 0.791618 0.492832
O O16 0.054269 0.867498 0.621838
O O17 0.836415 0.101059 0.539114
#
# Coordination Sequence:
#
# PCOD8014148 Si02
#       8
#     2   2   2   2   2   2   2   2
#     4   9  21  40  62  94 127 163 224 273 327 392
#     4  10  22  39  65  92 131 169 220 274 321 398
#     4  11  24  44  70  99 137 170 214 277 331 399
#     4  11  26  44  63  96 137 175 224 279 330 392
#     4  10  24  46  67  99 137 170 219 270 336 384
#     4  10  23  44  66 100 131 179 216 274 323 396
#     4  10  21  41  65  92 124 176 217 270 339 384
#     4  11  24  43  68  98 133 178 223 266 337 388
#
# _framework density 22.604385000000001
#
# number of rings (size 3 to 8) (size 9 to 14) (size 15 to 20)
#    0.000    1.750    1.250    1.125    5.250    7.500 
#    0.000    0.000    0.000    0.000    0.000    0.000 
#    0.000    0.000    0.000    0.000    0.000    0.000 
#
# Total GULP energy -198315.098705 kJ/mol
# GULP energy per Si atom -12394.693669 kJ/mol
# Density = 2.255294 g / cm^3
# Si number density = 22.604385 Si / 1000 Ang^3
#
#
#
# Elastic Constant Matrix: (Units=GPa)
#
#
# Indices 1 2 3 4 5 6 
#
# 1 110.9467 32.5350 35.7385 -12.4626 -3.1332 -0.9168
# 2 32.5350 89.9443 20.7196 -5.1399 -1.7216 -4.6380
# 3 35.7385 20.7196 83.6541 -7.2638 6.4938 -2.4962
# 4 -12.4626 -5.1399 -7.2638 37.4720 -0.2976 2.7789
# 5 -3.1332 -1.7216 6.4938 -0.2976 31.0869 -4.9931
# 6 -0.9168 -4.6380 -2.4962 2.7789 -4.9931 31.7734
#
#
#
# Elastic Compliance Matrix: (Units=1/GPa)
#
#
# Indices 1 2 3 4 5 6 
#
# 1 0.011588 -0.003077 -0.004109 0.002679 0.001819 -0.000386
# 2 -0.003077 0.012786 -0.001861 0.000246 0.001075 0.001779
# 3 -0.004109 -0.001861 0.014548 0.001163 -0.003530 0.000096
# 4 0.002679 0.000246 0.001163 0.028003 -0.000053 -0.002253
# 5 0.001819 0.001075 -0.003530 -0.000053 0.033996 0.005279
# 6 -0.000386 0.001779 0.000096 -0.002253 0.005279 0.032756
#
#
# Mechanical properties :
#
#
# Convention : Reuss Voigt Hill
#
# Bulk Modulus (GPa) = 48.01169 51.39235 49.70202
# Shear Modulus (GPa) = 31.50311 33.10325 32.30318
#
# Velocity S-wave (km/s) = 3.73724 3.83098 3.78440
# Velocity P-wave (km/s) = 6.31734 6.50795 6.41335
#
# Compressibility (1/GPa) = 0.02082826
#
# Stress axis : x y z
#
# Youngs Moduli (GPa) = 86.29351 78.20909 68.73725
#
# Poissons Ratio (x) = 0.24067 0.28242
# Poissons Ratio (y) = 0.26555 0.12793
# Poissons Ratio (z) = 0.35456 0.14556
#
# Static dielectric constant tensor:
#      x y z
#    x 3.980580 -0.187170 0.099160 
#    y -0.187170 3.942010 -0.301190 
#    z 0.099160 -0.301190 4.285630 
# 
# 
# High freq. dielectric constant tensor:
#      x y z
#    x 1.888160 -0.014520 0.005510 
#    y -0.014520 1.880000 -0.023050 
#    z 0.005510 -0.023050 1.900650 
# 
# From -- ./inp_files/324004.got.cif
#   From: 2010.06.25/outbox.cif.g09.slc.cpg/sg2_163_cif.got.tgz:324004.got - 2010.06.27 13:26:56.
