data_PCOD8014545
_publ_section_title
;
Structure prediction by ZEFSAII (Michael W. Deem and Ramdas Pophale) SiO2 
 PCOD8014545
Probable space group: P -1
;
_chemical_formula_sum "Si O2"
_cell_formula_units_Z 16
_cell_length_a 9.957558
_cell_length_b 19.278019
_cell_length_c 11.689942
_cell_angle_alpha 30.358309
_cell_angle_beta 129.056961
_cell_angle_gamma 138.810277
_cell_volume 745.644530
_symmetry_space_group_name_H-M "P -1"
_symmetry_group_IT_number 2
_symmetry_cell_setting 'triclinic'
loop_
_space_group_symop_operation_xyz
x,y,z
-x,-y,-z
loop_
_atom_site_type_symbol
_atom_site_label
_atom_site_fract_x
_atom_site_fract_y
_atom_site_fract_z
Si Si1 0.993423 0.263562 0.299105
Si Si2 0.265887 0.369486 0.073490
Si Si3 0.827352 0.580571 0.582981
Si Si4 0.599768 0.223876 0.036863
Si Si5 0.010494 0.549467 0.308901
Si Si6 0.174795 0.154863 0.941464
Si Si7 0.047823 0.073845 0.239114
Si Si8 0.331352 0.909343 0.943908
O O1 0.790143 0.268275 0.160144
O O2 0.166084 0.359539 0.157568
O O3 0.087562 0.346779 0.350854
O O4 0.934019 0.080455 0.535440
O O5 0.211652 0.192925 0.252974
O O6 0.500000 0.500000 0.000000
O O7 0.174466 0.428439 0.844540
O O8 0.758470 0.685052 0.325654
O O9 0.004001 0.583202 0.598467
O O10 0.645615 0.392477 0.764638
O O11 0.570892 0.078045 0.146165
O O12 0.377209 0.147220 0.084251
O O13 0.000000 0.500000 0.500000
O O14 0.222146 0.718503 0.173319
O O15 0.089196 0.157292 0.017412
O O16 0.000000 0.000000 0.000000
O O17 0.822941 0.027114 0.226955
O O18 0.500000 0.000000 0.000000
#
# Coordination Sequence:
#
# PCOD8014545 Si02
#       8
#     2   2   2   2   2   2   2   2
#     4  12  24  46  69 100 140 181 226 275 352 417
#     4  11  25  44  68 101 135 176 231 279 340 405
#     4  11  23  44  73  96 136 180 226 282 342 404
#     4  11  25  43  69  99 136 180 226 281 340 406
#     4  10  22  44  66  97 133 170 223 282 327 397
#     4  12  25  46  65 104 137 174 233 282 340 397
#     4  11  24  45  69  98 143 178 226 286 333 412
#     4  10  21  41  68  95 128 178 226 268 335 396
#
# _framework density 21.457946
#
# number of rings (size 3 to 8) (size 9 to 14) (size 15 to 20)
#    0.000    1.000    5.000    3.375    1.750    1.500 
#    4.500    0.000    0.000    0.000    0.000    0.000 
#    0.000    0.000    0.000    0.000    0.000    0.000 
#
# Total GULP energy -198266.120559 kJ/mol
# GULP energy per Si atom -12391.632535 kJ/mol
# Density = 2.140911 g / cm^3
# Si number density = 21.457946 Si / 1000 Ang^3
#
#
#
# Elastic Constant Matrix: (Units=GPa)
#
#
# Indices 1 2 3 4 5 6 
#
# 1 113.2824 62.1347 36.8289 -1.1512 6.7474 -1.7125
# 2 62.1347 122.9256 29.5449 -3.1266 3.7786 3.6347
# 3 36.8289 29.5449 96.7409 8.8728 9.5567 -0.9254
# 4 -1.1512 -3.1266 8.8728 27.1838 -13.9820 -5.3356
# 5 6.7474 3.7786 9.5567 -13.9820 22.0960 -0.6314
# 6 -1.7125 3.6347 -0.9254 -5.3356 -0.6314 43.8172
#
#
#
# Elastic Compliance Matrix: (Units=1/GPa)
#
#
# Indices 1 2 3 4 5 6 
#
# 1 0.013166 -0.005886 -0.003095 0.000343 -0.001430 0.000959
# 2 -0.005886 0.011557 -0.001756 0.002620 0.002213 -0.000875
# 3 -0.003095 -0.001756 0.014319 -0.011590 -0.012318 -0.001262
# 4 0.000343 0.002620 -0.011590 0.066623 0.046856 0.008339
# 5 -0.001430 0.002213 -0.012318 0.046856 0.080474 0.006366
# 6 0.000959 -0.000875 -0.001262 0.008339 0.006366 0.024013
#
#
# Mechanical properties :
#
#
# Convention : Reuss Voigt Hill
#
# Bulk Modulus (GPa) = 56.92670 65.55176 61.23923
# Shear Modulus (GPa) = 21.05418 32.24876 26.65147
#
# Velocity S-wave (km/s) = 3.13578 3.88091 3.52807
# Velocity P-wave (km/s) = 6.30062 7.12020 6.72291
#
# Compressibility (1/GPa) = 0.01756645
#
# Stress axis : x y z
#
# Youngs Moduli (GPa) = 75.95485 86.52834 69.83572
#
# Poissons Ratio (x) = 0.50935 0.21617
# Poissons Ratio (y) = 0.44711 0.12262
# Poissons Ratio (z) = 0.23511 0.15193
#
# Static dielectric constant tensor:
#      x y z
#    x 17.338690 -1.242670 3.506510 
#    y -1.242670 3.920330 -0.289640 
#    z 3.506510 -0.289640 4.810050 
# 
# 
# High freq. dielectric constant tensor:
#      x y z
#    x 1.851200 -0.016200 0.009320 
#    y -0.016200 1.843580 -0.000540 
#    z 0.009320 -0.000540 1.841210 
# 
# From -- ./inp_files/402693.got.cif
#   From: 2010.06.25/outbox.cif.g09.slc.cpg/sg2_202_cif.got.tgz:402693.got - 2010.06.27 13:26:56.
