data_PCOD8014443
_publ_section_title
;
Structure prediction by ZEFSAII (Michael W. Deem and Ramdas Pophale) SiO2 
 PCOD8014443
Probable space group: P -1
;
_chemical_formula_sum "Si O2"
_cell_formula_units_Z 16
_cell_length_a 12.113983
_cell_length_b 22.209444
_cell_length_c 8.530357
_cell_angle_alpha 36.557025
_cell_angle_beta 43.354709
_cell_angle_gamma 30.098508
_cell_volume 681.540249
_symmetry_space_group_name_H-M "P -1"
_symmetry_group_IT_number 2
_symmetry_cell_setting 'triclinic'
loop_
_space_group_symop_operation_xyz
x,y,z
-x,-y,-z
loop_
_atom_site_type_symbol
_atom_site_label
_atom_site_fract_x
_atom_site_fract_y
_atom_site_fract_z
Si Si1 0.150532 0.906486 0.396948
Si Si2 0.505328 0.879174 0.209131
Si Si3 0.820987 0.510147 0.083764
Si Si4 0.874743 0.922803 0.389351
Si Si5 0.421270 0.199315 0.360215
Si Si6 0.041597 0.724107 0.365227
Si Si7 0.055198 0.304328 0.007016
Si Si8 0.726390 0.346963 0.046207
O O1 0.314952 0.932004 0.169067
O O2 0.023358 0.942491 0.287994
O O3 0.288619 0.748882 0.637877
O O4 0.000000 0.000000 0.500000
O O5 0.482545 0.832725 0.496179
O O6 0.722645 0.741699 0.189449
O O7 0.500000 0.000000 0.000000
O O8 0.792773 0.420879 0.402762
O O9 0.907407 0.447685 0.952141
O O10 0.605939 0.674138 0.942241
O O11 0.000000 0.500000 0.000000
O O12 0.871674 0.821475 0.701391
O O13 0.982130 0.850944 0.260065
O O14 0.618837 0.066485 0.329686
O O15 0.190992 0.233847 0.522572
O O16 0.200624 0.695813 0.121227
O O17 0.926148 0.328660 0.936255
O O18 0.500000 0.500000 0.000000
#
# Coordination Sequence:
#
# PCOD8014443 Si02
#       8
#     2   2   2   2   2   2   2   2
#     4  11  24  42  67 100 141 169 226 282 329 401
#     4  12  22  40  72 102 130 176 228 279 334 391
#     4   9  22  40  60 100 137 171 217 282 324 394
#     4  10  21  42  69 101 135 176 213 281 338 401
#     4  11  20  37  72 104 132 176 230 272 328 402
#     4  10  22  44  68  95 142 179 223 270 344 400
#     4  10  21  41  67  95 134 173 223 273 338 395
#     4  11  25  44  69  99 133 180 223 277 338 402
#
# _framework density 23.476237000000001
#
# number of rings (size 3 to 8) (size 9 to 14) (size 15 to 20)
#    0.000    1.500    3.750    1.125    1.750    2.500 
#    0.000    8.750    2.750    0.000    0.000    0.000 
#    0.000    0.000    0.000    0.000    0.000    0.000 
#
# Total GULP energy -198247.917002 kJ/mol
# GULP energy per Si atom -12390.494813 kJ/mol
# Density = 2.342280 g / cm^3
# Si number density = 23.476237 Si / 1000 Ang^3
#
#
#
# Elastic Constant Matrix: (Units=GPa)
#
#
# Indices 1 2 3 4 5 6 
#
# 1 111.5657 42.6500 20.0635 1.6397 -9.5976 12.6266
# 2 42.6500 162.0534 38.3731 -9.8124 6.4978 6.8006
# 3 20.0635 38.3731 60.4778 -15.9345 2.5942 -2.4522
# 4 1.6397 -9.8124 -15.9345 43.8276 -0.5542 4.5882
# 5 -9.5976 6.4978 2.5942 -0.5542 32.7570 5.2378
# 6 12.6266 6.8006 -2.4522 4.5882 5.2378 39.5298
#
#
#
# Elastic Compliance Matrix: (Units=1/GPa)
#
#
# Indices 1 2 3 4 5 6 
#
# 1 0.011257 -0.002374 -0.002997 -0.001587 0.004587 -0.003797
# 2 -0.002374 0.007881 -0.004049 0.000427 -0.001826 -0.000656
# 3 -0.002997 -0.004049 0.022124 0.006961 -0.002109 0.002498
# 4 -0.001587 0.000427 0.006961 0.025716 -0.000334 -0.002075
# 5 0.004587 -0.001826 -0.002109 -0.000334 0.033300 -0.005655
# 6 -0.003797 -0.000656 0.002498 -0.002075 -0.005655 0.027768
#
#
# Mechanical properties :
#
#
# Convention : Reuss Voigt Hill
#
# Bulk Modulus (GPa) = 44.59738 59.58556 52.09147
# Shear Modulus (GPa) = 32.39187 38.75691 35.57439
#
# Velocity S-wave (km/s) = 3.71856 4.06753 3.89695
# Velocity P-wave (km/s) = 6.12168 6.89174 6.51809
#
# Compressibility (1/GPa) = 0.02242284
#
# Stress axis : x y z
#
# Youngs Moduli (GPa) = 88.83019 126.88997 45.19946
#
# Poissons Ratio (x) = 0.30120 0.13548
# Poissons Ratio (y) = 0.21086 0.18300
# Poissons Ratio (z) = 0.26626 0.51375
#
# Static dielectric constant tensor:
#      x y z
#    x 4.681220 -0.110300 0.297180 
#    y -0.110300 4.584030 -0.160970 
#    z 0.297180 -0.160970 5.307340 
# 
# 
# High freq. dielectric constant tensor:
#      x y z
#    x 1.933970 0.007910 0.006610 
#    y 0.007910 1.933930 -0.015360 
#    z 0.006610 -0.015360 1.919220 
# 
# From -- ./inp_files/282696.got.cif
#   From: 2010.06.25/outbox.cif.g09.slc.cpg/sg2_142_cif.got.tgz:282696.got - 2010.06.27 13:26:56.
