data_PCOD8014236
_publ_section_title
;
Structure prediction by ZEFSAII (Michael W. Deem and Ramdas Pophale) SiO2 
 PCOD8014236
Probable space group: P -1
;
_chemical_formula_sum "Si O2"
_cell_formula_units_Z 14
_cell_length_a 26.073709
_cell_length_b 11.952175
_cell_length_c 11.280588
_cell_angle_alpha 142.812011
_cell_angle_beta 21.695954
_cell_angle_gamma 155.051377
_cell_volume 523.999955
_symmetry_space_group_name_H-M "P -1"
_symmetry_group_IT_number 2
_symmetry_cell_setting 'triclinic'
loop_
_space_group_symop_operation_xyz
x,y,z
-x,-y,-z
loop_
_atom_site_type_symbol
_atom_site_label
_atom_site_fract_x
_atom_site_fract_y
_atom_site_fract_z
Si Si1 0.164212 0.911792 0.278535
Si Si2 0.894092 0.568135 0.056549
Si Si3 0.726729 0.130361 0.362080
Si Si4 0.999083 0.713280 0.705759
Si Si5 0.461750 0.314706 0.793886
Si Si6 0.563418 0.354116 0.244781
Si Si7 0.281937 0.494655 0.209836
O O1 0.155706 0.956229 0.475422
O O2 0.958017 0.781734 0.544708
O O3 0.192781 0.719312 0.038708
O O4 0.364899 0.222553 0.057744
O O5 0.708616 0.527539 0.447243
O O6 0.043253 0.795388 0.819958
O O7 0.031987 0.686255 0.978629
O O8 0.703167 0.329474 0.575200
O O9 0.649825 0.973789 0.270968
O O10 0.602159 0.936326 0.579323
O O11 0.000000 0.500000 0.500000
O O12 0.769923 0.562430 0.054582
O O13 0.394303 0.424065 0.955532
O O14 0.500000 0.500000 0.500000
O O15 0.599625 0.313972 0.000399
#
# Coordination Sequence:
#
# PCOD8014236 Si02
#       7
#     2   2   2   2   2   2   2
#     4   9  21  38  68  94 136 180 212 273 341 383
#     4  10  21  41  66 102 129 173 231 267 328 400
#     4  11  24  41  70  98 135 174 217 282 331 388
#     4   9  18  37  64  97 129 169 222 266 326 395
#     4  12  22  44  70  96 135 179 216 277 332 392
#     4  11  19  40  67  96 129 174 218 274 330 387
#     4  10  22  39  65 101 129 174 229 261 335 404
#
# _framework density 26.717561
#
# number of rings (size 3 to 8) (size 9 to 14) (size 15 to 20)
#    0.000    1.714    2.857    2.143    0.000    2.286 
#    0.000    7.143    3.143    3.429    0.000    0.000 
#    0.000    0.000    0.000    0.000    0.000    0.000 
#
# Total GULP energy -173578.198935 kJ/mol
# GULP energy per Si atom -12398.442781 kJ/mol
# Density = 2.665675 g / cm^3
# Si number density = 26.717561 Si / 1000 Ang^3
#
#
#
# Elastic Constant Matrix: (Units=GPa)
#
#
# Indices 1 2 3 4 5 6 
#
# 1 59.8298 -12.8512 23.6884 -2.0836 4.7309 -10.1114
# 2 -12.8512 26.6779 8.7687 -4.6927 8.6905 -18.2216
# 3 23.6884 8.7687 142.7496 1.9167 -6.0413 -20.5215
# 4 -2.0836 -4.6927 1.9167 34.9013 -17.4553 10.8342
# 5 4.7309 8.6905 -6.0413 -17.4553 31.2249 0.5097
# 6 -10.1114 -18.2216 -20.5215 10.8342 0.5097 32.9858
#
#
#
# Elastic Compliance Matrix: (Units=1/GPa)
#
#
# Indices 1 2 3 4 5 6 
#
# 1 0.057152 0.097752 -0.005800 -0.038251 -0.059700 0.081396
# 2 0.097752 0.249878 -0.008278 -0.090411 -0.139678 0.194703
# 3 -0.005800 -0.008278 0.008461 0.001397 0.005628 -0.001633
# 4 -0.038251 -0.090411 0.001397 0.080397 0.077616 -0.088406
# 5 -0.059700 -0.139678 0.005628 0.077616 0.126373 -0.119404
# 6 0.081396 0.194703 -0.001633 -0.088406 -0.119404 0.192689
#
#
# Mechanical properties :
#
#
# Convention : Reuss Voigt Hill
#
# Bulk Modulus (GPa) = 2.07109 29.82990 15.95049
# Shear Modulus (GPa) = 7.05668 33.79916 20.42792
#
# Velocity S-wave (km/s) = 1.62694 3.56062 2.76812
# Velocity P-wave (km/s) = 2.07512 5.30030 4.02488
#
# Compressibility (1/GPa) = 0.48283849
#
# Stress axis : x y z
#
# Youngs Moduli (GPa) = 17.49721 4.00195 118.19021
#
# Poissons Ratio (x) = -0.39120 0.68553
# Poissons Ratio (y) = -1.71038 0.97835
# Poissons Ratio (z) = 0.10149 0.03313
#
# Static dielectric constant tensor:
#      x y z
#    x 3.759170 0.681700 -0.449300 
#    y 0.681700 3.978100 0.384790 
#    z -0.449300 0.384790 4.856970 
# 
# 
# High freq. dielectric constant tensor:
#      x y z
#    x 2.082770 -0.014610 0.000870 
#    y -0.014610 2.049780 0.004350 
#    z 0.000870 0.004350 2.092560 
# 
# From -- ./inp_files/391502.got.cif
#   From: 2010.06.25/outbox.cif.g09.slc.cpg/sg2_196_cif.got.tgz:391502.got - 2010.06.27 13:26:56.
