data_PCOD8014921
_publ_section_title
;
Structure prediction by ZEFSAII (Michael W. Deem and Ramdas Pophale) SiO2 
 PCOD8014921
Probable space group: P -1
;
_chemical_formula_sum "Si O2"
_cell_formula_units_Z 16
_cell_length_a 16.011163
_cell_length_b 13.571132
_cell_length_c 13.035587
_cell_angle_alpha 117.757521
_cell_angle_beta 27.123495
_cell_angle_gamma 135.310305
_cell_volume 775.236944
_symmetry_space_group_name_H-M "P -1"
_symmetry_group_IT_number 2
_symmetry_cell_setting 'triclinic'
loop_
_space_group_symop_operation_xyz
x,y,z
-x,-y,-z
loop_
_atom_site_type_symbol
_atom_site_label
_atom_site_fract_x
_atom_site_fract_y
_atom_site_fract_z
Si Si1 0.735620 0.378584 0.796620
Si Si2 0.933850 0.924701 0.924615
Si Si3 0.254205 0.459743 0.793630
Si Si4 0.092728 0.343578 0.142846
Si Si5 0.494776 0.844612 0.239229
Si Si6 0.318625 0.186634 0.462480
Si Si7 0.628053 0.166187 0.985473
Si Si8 0.090782 0.800585 0.115336
O O1 0.691160 0.480243 0.947678
O O2 0.500967 0.235128 0.904544
O O3 0.776627 0.304368 0.803449
O O4 0.000000 0.500000 0.500000
O O5 0.887119 0.772284 0.894915
O O6 0.659860 0.859822 0.156117
O O7 0.184024 0.070384 0.651156
O O8 0.000000 0.000000 0.000000
O O9 0.500000 0.500000 0.500000
O O10 0.375142 0.637720 0.757732
O O11 0.006420 0.337123 0.925951
O O12 0.155453 0.369254 0.966600
O O13 0.797848 0.261814 0.446583
O O14 0.631769 0.022240 0.143638
O O15 0.135869 0.204642 0.625559
O O16 0.367245 0.116267 0.288772
O O17 0.855246 0.236917 0.855063
O O18 0.500000 0.000000 0.000000
#
# Coordination Sequence:
#
# PCOD8014921 Si02
#       8
#     2   2   2   2   2   2   2   2
#     4  10  23  44  62  94 131 160 214 266 310 378
#     4  11  24  42  68  96 127 171 214 255 316 385
#     4  10  21  42  63  94 134 159 206 270 311 371
#     4  11  22  43  68  90 132 173 202 265 320 365
#     4  10  22  43  64  97 128 164 217 261 310 380
#     4  10  23  43  62  99 129 161 212 265 315 373
#     4  12  23  42  68  91 122 173 215 258 316 380
#     4  10  22  40  67  94 129 162 211 266 311 377
#
# _framework density 20.638853000000001
#
# number of rings (size 3 to 8) (size 9 to 14) (size 15 to 20)
#    0.000    1.500    2.500    3.000    1.750    4.500 
#   13.500    0.000    0.000    0.000    0.000    0.000 
#    0.000    0.000    0.000    0.000    0.000    0.000 
#
# Total GULP energy -198356.564529 kJ/mol
# GULP energy per Si atom -12397.285283 kJ/mol
# Density = 2.059188 g / cm^3
# Si number density = 20.638853 Si / 1000 Ang^3
#
#
#
# Elastic Constant Matrix: (Units=GPa)
#
#
# Indices 1 2 3 4 5 6 
#
# 1 143.2952 41.7116 42.8280 -0.9350 15.6300 0.0944
# 2 41.7116 105.4074 31.5444 -2.2774 5.5779 -4.7262
# 3 42.8280 31.5444 89.4776 0.9629 19.7330 -0.5998
# 4 -0.9350 -2.2774 0.9629 35.4303 -0.5583 3.0221
# 5 15.6300 5.5779 19.7330 -0.5583 29.7411 -4.3332
# 6 0.0944 -4.7262 -0.5998 3.0221 -4.3332 41.6042
#
#
#
# Elastic Compliance Matrix: (Units=1/GPa)
#
#
# Indices 1 2 3 4 5 6 
#
# 1 0.008820 -0.002549 -0.002803 0.000160 -0.002383 -0.000610
# 2 -0.002549 0.011431 -0.003136 0.000660 0.001488 0.001366
# 3 -0.002803 -0.003136 0.015467 -0.000747 -0.008352 -0.000943
# 4 0.000160 0.000660 -0.000747 0.028466 0.000539 -0.001948
# 5 -0.002383 0.001488 -0.008352 0.000539 0.040769 0.004261
# 6 -0.000610 0.001366 -0.000943 -0.001948 0.004261 0.024764
#
#
# Mechanical properties :
#
#
# Convention : Reuss Voigt Hill
#
# Bulk Modulus (GPa) = 53.35747 63.37201 58.36474
# Shear Modulus (GPa) = 32.69244 36.16152 34.42698
#
# Velocity S-wave (km/s) = 3.98430 4.19036 4.08863
# Velocity P-wave (km/s) = 6.86114 7.36098 7.11545
#
# Compressibility (1/GPa) = 0.01874152
#
# Stress axis : x y z
#
# Youngs Moduli (GPa) = 113.38146 87.48213 64.65429
#
# Poissons Ratio (x) = 0.22300 0.18124
# Poissons Ratio (y) = 0.28902 0.20274
# Poissons Ratio (z) = 0.31783 0.27433
#
# Static dielectric constant tensor:
#      x y z
#    x 3.510380 0.168010 0.022770 
#    y 0.168010 4.573680 -0.095240 
#    z 0.022770 -0.095240 3.550330 
# 
# 
# High freq. dielectric constant tensor:
#      x y z
#    x 1.804600 0.003060 0.017800 
#    y 0.003060 1.834270 -0.004340 
#    z 0.017800 -0.004340 1.797570 
# 
# From -- ./inp_files/455784.got.cif
#   From: 2010.06.25/outbox.cif.g09.slc.cpg/sg2_228_cif.got.tgz:455784.got - 2010.06.27 13:26:56.
