data_PCOD8014221
_publ_section_title
;
Structure prediction by ZEFSAII (Michael W. Deem and Ramdas Pophale) SiO2 
 PCOD8014221
Probable space group: P -1
;
_chemical_formula_sum "Si O2"
_cell_formula_units_Z 16
_cell_length_a 8.969095
_cell_length_b 14.738879
_cell_length_c 8.698577
_cell_angle_alpha 41.606378
_cell_angle_beta 71.311837
_cell_angle_gamma 69.375339
_cell_volume 711.593375
_symmetry_space_group_name_H-M "P -1"
_symmetry_group_IT_number 2
_symmetry_cell_setting 'triclinic'
loop_
_space_group_symop_operation_xyz
x,y,z
-x,-y,-z
loop_
_atom_site_type_symbol
_atom_site_label
_atom_site_fract_x
_atom_site_fract_y
_atom_site_fract_z
Si Si1 0.145133 0.135630 0.160242
Si Si2 0.180449 0.822623 0.648606
Si Si3 0.156701 0.654703 0.569202
Si Si4 0.623665 0.858396 0.171990
Si Si5 0.576931 0.269649 0.819179
Si Si6 0.349819 0.942118 0.683991
Si Si7 0.208350 0.222232 0.470324
Si Si8 0.703441 0.640079 0.014973
O O1 0.267940 0.213101 0.112141
O O2 0.968048 0.216435 0.156175
O O3 0.153884 0.977169 0.399111
O O4 0.200197 0.138220 0.961622
O O5 0.218694 0.719948 0.621551
O O6 0.320098 0.818761 0.734318
O O7 0.266733 0.675148 0.361122
O O8 0.975174 0.717925 0.502002
O O9 0.168917 0.491256 0.803974
O O10 0.539472 0.738883 0.276700
O O11 0.662584 0.817037 0.387090
O O12 0.500000 0.000000 0.000000
O O13 0.629422 0.119221 0.072890
O O14 0.475424 0.372992 0.849796
O O15 0.500000 0.000000 0.500000
O O16 0.204053 0.075877 0.567566
O O17 0.278990 0.338171 0.200949
#
# Coordination Sequence:
#
# PCOD8014221 Si02
#       8
#     2   2   2   2   2   2   2   2
#     4  10  21  41  65  97 138 178 224 289 342 401
#     4  11  22  40  67 102 136 176 237 288 341 398
#     4  12  27  44  71 105 145 180 234 288 340 418
#     4  11  23  40  68 101 141 174 233 288 351 404
#     4  11  25  43  69 102 141 184 232 291 343 408
#     4  12  23  42  71 101 140 182 235 287 353 404
#     4  12  24  42  72 104 134 185 232 281 351 413
#     4  11  23  49  70  97 146 191 222 277 358 424
#
# _framework density 22.484753000000001
#
# number of rings (size 3 to 8) (size 9 to 14) (size 15 to 20)
#    0.000    0.750    5.000    3.000    3.500    0.500 
#    0.000    7.500    0.000    0.000    0.000    0.000 
#    0.000    0.000    0.000    0.000    0.000    0.000 
#
# Total GULP energy -198241.070635 kJ/mol
# GULP energy per Si atom -12390.066915 kJ/mol
# Density = 2.243358 g / cm^3
# Si number density = 22.484753 Si / 1000 Ang^3
#
#
#
# Elastic Constant Matrix: (Units=GPa)
#
#
# Indices 1 2 3 4 5 6 
#
# 1 97.5622 34.4176 50.0594 18.7067 3.8419 -17.2942
# 2 34.4176 67.1199 42.1612 12.3422 -5.0341 -21.4118
# 3 50.0594 42.1612 131.4026 17.6548 6.7648 -16.2725
# 4 18.7067 12.3422 17.6548 41.2116 -11.2618 1.3197
# 5 3.8419 -5.0341 6.7648 -11.2618 35.3142 6.3129
# 6 -17.2942 -21.4118 -16.2725 1.3197 6.3129 40.7324
#
#
#
# Elastic Compliance Matrix: (Units=1/GPa)
#
#
# Indices 1 2 3 4 5 6 
#
# 1 0.015132 -0.003819 -0.003068 -0.005667 -0.004128 0.004015
# 2 -0.003819 0.023175 -0.004658 -0.002887 0.002179 0.008456
# 3 -0.003068 -0.004658 0.011020 -0.002965 -0.003621 0.001308
# 4 -0.005667 -0.002887 -0.002965 0.032689 0.012651 -0.008128
# 5 -0.004128 0.002179 -0.003621 0.012651 0.035221 -0.007922
# 6 0.004015 0.008456 0.001308 -0.008128 -0.007922 0.032714
#
#
# Mechanical properties :
#
#
# Convention : Reuss Voigt Hill
#
# Bulk Modulus (GPa) = 38.11424 61.04012 49.57718
# Shear Modulus (GPa) = 27.50458 34.74808 31.12633
#
# Velocity S-wave (km/s) = 3.50130 3.93543 3.72470
# Velocity P-wave (km/s) = 5.77351 6.91783 6.37141
#
# Compressibility (1/GPa) = 0.02623692
#
# Stress axis : x y z
#
# Youngs Moduli (GPa) = 66.08333 43.15081 90.74043
#
# Poissons Ratio (x) = 0.16478 0.27843
# Poissons Ratio (y) = 0.25236 0.42267
# Poissons Ratio (z) = 0.20277 0.20100
#
# Static dielectric constant tensor:
#      x y z
#    x 4.043060 -0.175570 -0.133390 
#    y -0.175570 4.328620 0.291510 
#    z -0.133390 0.291510 4.159170 
# 
# 
# High freq. dielectric constant tensor:
#      x y z
#    x 1.871660 -0.015670 -0.006840 
#    y -0.015670 1.882920 0.021290 
#    z -0.006840 0.021290 1.886330 
# 
# From -- ./inp_files/205033.got.cif
#   From: 2010.06.25/outbox.cif.g09.slc.cpg/sg2_103_cif.got.tgz:205033.got - 2010.06.27 13:26:56.
