data_PCOD8014817
_publ_section_title
;
Structure prediction by ZEFSAII (Michael W. Deem and Ramdas Pophale) SiO2 
 PCOD8014817
Probable space group: P -1
;
_chemical_formula_sum "Si O2"
_cell_formula_units_Z 16
_cell_length_a 14.073034
_cell_length_b 11.374890
_cell_length_c 14.647354
_cell_angle_alpha 31.246110
_cell_angle_beta 135.716690
_cell_angle_gamma 114.291270
_cell_volume 706.913326
_symmetry_space_group_name_H-M "P -1"
_symmetry_group_IT_number 2
_symmetry_cell_setting 'triclinic'
loop_
_space_group_symop_operation_xyz
x,y,z
-x,-y,-z
loop_
_atom_site_type_symbol
_atom_site_label
_atom_site_fract_x
_atom_site_fract_y
_atom_site_fract_z
Si Si1 0.589567 0.761903 0.792943
Si Si2 0.686111 0.595987 0.612170
Si Si3 0.026505 0.147374 0.074377
Si Si4 0.820748 0.859309 0.000025
Si Si5 0.121342 0.811641 0.631512
Si Si6 0.972499 0.723667 0.417359
Si Si7 0.263102 0.062442 0.442955
Si Si8 0.356255 0.860657 0.139097
O O1 0.683808 0.825111 0.888189
O O2 0.500000 0.000000 0.500000
O O3 0.438684 0.783778 0.728487
O O4 0.713177 0.461426 0.034959
O O5 0.712892 0.710453 0.647664
O O6 0.530575 0.831401 0.288548
O O7 0.626416 0.396484 0.729857
O O8 0.853460 0.433653 0.777795
O O9 0.076092 0.104729 0.030158
O O10 0.159288 0.175295 0.202730
O O11 0.025295 0.886980 0.279989
O O12 0.726626 0.117039 0.832188
O O13 0.936594 0.602795 0.320337
O O14 0.027886 0.726901 0.556720
O O15 0.165283 0.002877 0.485745
O O16 0.000000 0.000000 0.500000
O O17 0.775559 0.868878 0.187412
#
# Coordination Sequence:
#
# PCOD8014817 Si02
#       8
#     2   2   2   2   2   2   2   2
#     4  11  22  38  63 100 128 167 216 260 334 389
#     4  10  22  37  63  90 129 169 211 263 323 376
#     4  10  22  39  65  98 124 163 215 272 327 384
#     4  11  21  40  67  90 127 166 220 265 317 391
#     4  10  24  42  66  97 133 165 212 277 330 390
#     4   9  22  40  62  92 125 165 215 260 330 380
#     4  11  21  40  65  95 131 166 209 269 325 389
#     4  10  21  42  60  90 126 173 213 261 316 385
#
# _framework density 22.633609
#
# number of rings (size 3 to 8) (size 9 to 14) (size 15 to 20)
#    0.000    1.750    2.500    1.125    3.500    5.000 
#    0.000    0.625    0.000    3.000    0.000    0.000 
#    0.000    0.000    0.000    0.000    0.000    0.000 
#
# Total GULP energy -198274.790949 kJ/mol
# GULP energy per Si atom -12392.174434 kJ/mol
# Density = 2.258209 g / cm^3
# Si number density = 22.633609 Si / 1000 Ang^3
#
#
#
# Elastic Constant Matrix: (Units=GPa)
#
#
# Indices 1 2 3 4 5 6 
#
# 1 101.2912 19.6268 49.9016 4.5895 26.0979 -18.3745
# 2 19.6268 107.3633 51.9894 -0.3414 17.4268 10.3736
# 3 49.9016 51.9894 149.9351 16.6781 29.0031 -5.6445
# 4 4.5895 -0.3414 16.6781 39.3609 0.0761 11.9508
# 5 26.0979 17.4268 29.0031 0.0761 44.5217 3.8621
# 6 -18.3745 10.3736 -5.6445 11.9508 3.8621 24.6569
#
#
#
# Elastic Compliance Matrix: (Units=1/GPa)
#
#
# Indices 1 2 3 4 5 6 
#
# 1 0.017343 -0.002712 -0.001449 -0.007091 -0.009771 0.018701
# 2 -0.002712 0.013257 -0.004938 0.006100 0.000630 -0.011785
# 3 -0.001449 -0.004938 0.010851 -0.006746 -0.004928 0.007524
# 4 -0.007091 0.006100 -0.006746 0.037980 0.008628 -0.029155
# 5 -0.009771 0.000630 -0.004928 0.008628 0.032697 -0.017977
# 6 0.018701 -0.011785 0.007524 -0.029155 -0.017977 0.078119
#
#
# Mechanical properties :
#
#
# Convention : Reuss Voigt Hill
#
# Bulk Modulus (GPa) = 43.00625 66.84725 54.92675
# Shear Modulus (GPa) = 23.12714 37.51268 30.31991
#
# Velocity S-wave (km/s) = 3.20004 4.07552 3.66402
# Velocity P-wave (km/s) = 5.71804 7.19341 6.49773
#
# Compressibility (1/GPa) = 0.02325243
#
# Stress axis : x y z
#
# Youngs Moduli (GPa) = 57.66007 75.43140 92.15841
#
# Poissons Ratio (x) = 0.20460 0.13352
# Poissons Ratio (y) = 0.15639 0.45509
# Poissons Ratio (z) = 0.08354 0.37249
#
# Static dielectric constant tensor:
#      x y z
#    x 3.975430 0.126190 0.509850 
#    y 0.126190 4.458140 0.330180 
#    z 0.509850 0.330180 4.681330 
# 
# 
# High freq. dielectric constant tensor:
#      x y z
#    x 1.867520 0.000300 0.031620 
#    y 0.000300 1.914640 0.013940 
#    z 0.031620 0.013940 1.898960 
# 
# From -- ./inp_files/531521.got.cif
#   From: 2010.06.25/outbox.cif.g09.slc.cpg/sg2_266_cif.got.tgz:531521.got - 2010.06.27 13:26:56.
