data_PCOD8014674
_publ_section_title
;
Structure prediction by ZEFSAII (Michael W. Deem and Ramdas Pophale) SiO2 
 PCOD8014674
Probable space group: P -1
;
_chemical_formula_sum "Si O2"
_cell_formula_units_Z 14
_cell_length_a 20.923627
_cell_length_b 12.643162
_cell_length_c 16.388588
_cell_angle_alpha 30.732989
_cell_angle_beta 160.648143
_cell_angle_gamma 157.003975
_cell_volume 559.897459
_symmetry_space_group_name_H-M "P -1"
_symmetry_group_IT_number 2
_symmetry_cell_setting 'triclinic'
loop_
_space_group_symop_operation_xyz
x,y,z
-x,-y,-z
loop_
_atom_site_type_symbol
_atom_site_label
_atom_site_fract_x
_atom_site_fract_y
_atom_site_fract_z
Si Si1 0.073982 0.056356 0.145632
Si Si2 0.481475 0.236507 0.157305
Si Si3 0.342198 0.539507 0.939597
Si Si4 0.959971 0.331937 0.941957
Si Si5 0.234100 0.487914 0.532001
Si Si6 0.272564 0.843996 0.768370
Si Si7 0.504060 0.272786 0.624777
O O1 0.357380 0.160551 0.434618
O O2 0.062329 0.279402 0.020483
O O3 0.000000 0.000000 0.000000
O O4 0.863251 0.774545 0.126435
O O5 0.622190 0.267586 0.389620
O O6 0.208659 0.936035 0.027001
O O7 0.500000 0.500000 0.000000
O O8 0.616957 0.267064 0.214604
O O9 0.608035 0.609603 0.233805
O O10 0.239488 0.588117 0.862854
O O11 0.802785 0.415874 0.661105
O O12 0.198941 0.586939 0.113939
O O13 0.969505 0.241226 0.418110
O O14 0.331864 0.030429 0.640940
O O15 0.500000 0.000000 0.000000
O O16 0.500000 0.500000 0.500000
#
# Coordination Sequence:
#
# PCOD8014674 Si02
#       7
#     2   2   2   2   2   2   2
#     4  11  23  42  73 111 143 188 251 298 355 438
#     4  10  21  41  70 105 147 188 241 300 353 435
#     4  11  26  45  72 111 140 192 252 293 363 433
#     4  11  21  44  71 109 147 197 233 295 382 418
#     4  11  23  43  78 105 148 192 237 305 356 435
#     4  12  26  49  72 107 148 195 242 299 375 426
#     4  10  25  44  71 103 150 191 235 299 368 431
#
# _framework density 25.004579
#
# number of rings (size 3 to 8) (size 9 to 14) (size 15 to 20)
#    0.000    1.143    4.286    2.143    8.000    4.000 
#    0.000    2.143    0.000    0.000    0.000    0.000 
#    0.000    0.000    0.000    0.000    0.000    0.000 
#
# Total GULP energy -173524.921663 kJ/mol
# GULP energy per Si atom -12394.637262 kJ/mol
# Density = 2.494767 g / cm^3
# Si number density = 25.004579 Si / 1000 Ang^3
#
#
#
# Elastic Constant Matrix: (Units=GPa)
#
#
# Indices 1 2 3 4 5 6 
#
# 1 61.3959 19.8144 27.2278 5.4104 -14.0949 9.4264
# 2 19.8144 103.6562 48.4323 18.6730 -3.1543 23.0211
# 3 27.2278 48.4323 155.0685 24.4103 -28.1211 3.9212
# 4 5.4104 18.6730 24.4103 43.3109 -1.8222 2.8971
# 5 -14.0949 -3.1543 -28.1211 -1.8222 45.3639 1.5836
# 6 9.4264 23.0211 3.9212 2.8971 1.5836 38.6104
#
#
#
# Elastic Compliance Matrix: (Units=1/GPa)
#
#
# Indices 1 2 3 4 5 6 
#
# 1 0.019391 -0.001880 -0.001818 -0.000140 0.004888 -0.003619
# 2 -0.001880 0.013801 -0.003600 -0.003286 -0.001740 -0.007086
# 3 -0.001818 -0.003600 0.009229 -0.003339 0.004712 0.001710
# 4 -0.000140 -0.003286 -0.003339 0.026323 -0.001298 0.000411
# 5 0.004888 -0.001740 0.004712 -0.001298 0.026367 -0.001618
# 6 -0.003619 -0.007086 0.001710 0.000411 -0.001618 0.030870
#
#
# Mechanical properties :
#
#
# Convention : Reuss Voigt Hill
#
# Bulk Modulus (GPa) = 35.93657 56.78549 46.36103
# Shear Modulus (GPa) = 33.36650 40.43344 36.89997
#
# Velocity S-wave (km/s) = 3.65693 4.02561 3.84569
# Velocity P-wave (km/s) = 5.67750 6.66083 6.18873
#
# Compressibility (1/GPa) = 0.02782681
#
# Stress axis : x y z
#
# Youngs Moduli (GPa) = 51.57145 72.45684 108.35329
#
# Poissons Ratio (x) = 0.13620 0.19695
# Poissons Ratio (y) = 0.09694 0.39004
# Poissons Ratio (z) = 0.09374 0.26082
#
# Static dielectric constant tensor:
#      x y z
#    x 4.462550 0.360380 -0.039040 
#    y 0.360380 2.533640 -0.230490 
#    z -0.039040 -0.230490 4.872610 
# 
# 
# High freq. dielectric constant tensor:
#      x y z
#    x 1.985490 0.008010 -0.008950 
#    y 0.008010 2.002720 0.007440 
#    z -0.008950 0.007440 1.999880 
# 
# From -- ./inp_files/579310.got.cif
#   From: 2010.06.25/outbox.cif.g09.slc.cpg/sg2_290_cif.got.tgz:579310.got - 2010.06.27 13:26:56.
