data_PCOD8014370
_publ_section_title
;
Structure prediction by ZEFSAII (Michael W. Deem and Ramdas Pophale) SiO2 
 PCOD8014370
Probable space group: P -1
;
_chemical_formula_sum "Si O2"
_cell_formula_units_Z 14
_cell_length_a 14.648677
_cell_length_b 9.744602
_cell_length_c 13.039566
_cell_angle_alpha 46.211464
_cell_angle_beta 28.444516
_cell_angle_gamma 57.753047
_cell_volume 624.648979
_symmetry_space_group_name_H-M "P -1"
_symmetry_group_IT_number 2
_symmetry_cell_setting 'triclinic'
loop_
_space_group_symop_operation_xyz
x,y,z
-x,-y,-z
loop_
_atom_site_type_symbol
_atom_site_label
_atom_site_fract_x
_atom_site_fract_y
_atom_site_fract_z
Si Si1 0.573069 0.141168 0.647087
Si Si2 0.367481 0.751315 0.944192
Si Si3 0.117442 0.075419 0.490869
Si Si4 0.841533 0.426640 0.108472
Si Si5 0.234545 0.378301 0.391215
Si Si6 0.947382 0.208279 0.928989
Si Si7 0.255242 0.197610 0.079807
O O1 0.628393 0.320871 0.420201
O O2 0.433010 0.954152 0.832831
O O3 0.787128 0.104540 0.480669
O O4 0.469342 0.201228 0.820019
O O5 0.551183 0.660755 0.776569
O O6 0.237958 0.592205 0.230987
O O7 0.252937 0.797618 0.933011
O O8 0.112930 0.217340 0.517166
O O9 0.259159 0.190505 0.202704
O O10 0.896117 0.992832 0.715538
O O11 0.925222 0.281574 0.027159
O O12 0.810884 0.606571 0.980269
O O13 0.000000 0.500000 0.000000
O O14 0.121685 0.357046 0.621595
O O15 0.000000 0.000000 0.000000
#
# Coordination Sequence:
#
# PCOD8014370 Si02
#       7
#     2   2   2   2   2   2   2
#     4  11  23  43  68  94 137 174 223 273 330 395
#     4  10  23  43  69 102 130 172 229 277 330 399
#     4  10  21  41  67 102 134 164 225 273 326 403
#     4  12  27  47  63  97 137 176 225 271 324 404
#     4  10  22  44  69  98 136 170 221 283 331 395
#     4  12  26  44  71  97 136 181 221 274 339 392
#     4  11  23  41  68  95 134 180 211 273 338 387
#
# _framework density 22.412589000000001
#
# number of rings (size 3 to 8) (size 9 to 14) (size 15 to 20)
#    0.000    1.143    1.429    4.714    2.000    4.571 
#   10.286    0.000    0.000    0.000    0.000    0.000 
#    0.000    0.000    0.000    0.000    0.000    0.000 
#
# Total GULP energy -173651.582593 kJ/mol
# GULP energy per Si atom -12403.684471 kJ/mol
# Density = 2.236158 g / cm^3
# Si number density = 22.412589 Si / 1000 Ang^3
#
#
#
# Elastic Constant Matrix: (Units=GPa)
#
#
# Indices 1 2 3 4 5 6 
#
# 1 85.4292 24.7524 9.8662 -2.8766 9.1447 -7.3882
# 2 24.7524 88.3397 28.0447 -6.5662 7.4806 2.7276
# 3 9.8662 28.0447 124.6771 0.8768 22.3897 15.0096
# 4 -2.8766 -6.5662 0.8768 40.5544 1.5443 8.4753
# 5 9.1447 7.4806 22.3897 1.5443 32.2870 3.1377
# 6 -7.3882 2.7276 15.0096 8.4753 3.1377 22.9308
#
#
#
# Elastic Compliance Matrix: (Units=1/GPa)
#
#
# Indices 1 2 3 4 5 6 
#
# 1 0.013635 -0.003659 -0.000354 -0.000698 -0.003296 0.005769
# 2 -0.003659 0.013386 -0.002444 0.002393 -0.000289 -0.002017
# 3 -0.000354 -0.002444 0.010408 0.000865 -0.005996 -0.006135
# 4 -0.000698 0.002393 0.000865 0.027324 -0.001193 -0.011011
# 5 -0.003296 -0.000289 -0.005996 -0.001193 0.036347 -0.001635
# 6 0.005769 -0.002017 -0.006135 -0.011011 -0.001635 0.054017
#
#
# Mechanical properties :
#
#
# Convention : Reuss Voigt Hill
#
# Bulk Modulus (GPa) = 40.79024 47.08585 43.93804
# Shear Modulus (GPa) = 28.37683 34.87328 31.62505
#
# Velocity S-wave (km/s) = 3.56211 3.94886 3.76046
# Velocity P-wave (km/s) = 5.92936 6.46881 6.20495
#
# Compressibility (1/GPa) = 0.02451567
#
# Stress axis : x y z
#
# Youngs Moduli (GPa) = 73.34153 74.70754 96.08360
#
# Poissons Ratio (x) = 0.27336 0.03397
# Poissons Ratio (y) = 0.26836 0.23478
# Poissons Ratio (z) = 0.02593 0.18255
#
# Static dielectric constant tensor:
#      x y z
#    x 4.131240 -0.191970 0.096720 
#    y -0.191970 4.015630 -0.074510 
#    z 0.096720 -0.074510 4.207700 
# 
# 
# High freq. dielectric constant tensor:
#      x y z
#    x 1.877980 -0.008290 0.007430 
#    y -0.008290 1.888050 -0.004070 
#    z 0.007430 -0.004070 1.897560 
# 
# From -- ./inp_files/255956.got.cif
#   From: 2010.06.25/outbox.cif.g09.slc.cpg/sg2_128_cif.got.tgz:255956.got - 2010.06.27 13:26:56.
