data_PCOD8014099
_publ_section_title
;
Structure prediction by ZEFSAII (Michael W. Deem and Ramdas Pophale) SiO2 
 PCOD8014099
Probable space group: P -1
;
_chemical_formula_sum "Si O2"
_cell_formula_units_Z 16
_cell_length_a 8.886122
_cell_length_b 12.211935
_cell_length_c 14.814297
_cell_angle_alpha 135.358408
_cell_angle_beta 105.344447
_cell_angle_gamma 49.811254
_cell_volume 804.279191
_symmetry_space_group_name_H-M "P -1"
_symmetry_group_IT_number 2
_symmetry_cell_setting 'triclinic'
loop_
_space_group_symop_operation_xyz
x,y,z
-x,-y,-z
loop_
_atom_site_type_symbol
_atom_site_label
_atom_site_fract_x
_atom_site_fract_y
_atom_site_fract_z
Si Si1 0.161581 0.422554 0.057372
Si Si2 0.068127 0.714271 0.376950
Si Si3 0.220971 0.479737 0.617160
Si Si4 0.543445 0.504817 0.905605
Si Si5 0.671041 0.185397 0.602164
Si Si6 0.803869 0.588522 0.632824
Si Si7 0.399164 0.970335 0.890755
Si Si8 0.216632 0.807977 0.878692
O O1 0.336863 0.412441 0.033556
O O2 0.075773 0.570542 0.219420
O O3 0.000000 0.500000 0.000000
O O4 0.225313 0.200928 0.956399
O O5 0.227814 0.748105 0.404334
O O6 0.158569 0.597428 0.418173
O O7 0.825302 0.932452 0.477254
O O8 0.440533 0.285046 0.588300
O O9 0.222840 0.417190 0.480001
O O10 0.191725 0.684070 0.732281
O O11 0.009567 0.552437 0.672614
O O12 0.662502 0.269057 0.749782
O O13 0.346575 0.662104 0.900372
O O14 0.500000 0.500000 0.000000
O O15 0.580436 0.812993 0.755273
O O16 0.310508 0.877462 0.870794
O O17 0.500000 0.000000 0.000000
O O18 0.000000 0.000000 0.000000
#
# Coordination Sequence:
#
# PCOD8014099 Si02
#       8
#     2   2   2   2   2   2   2   2
#     4  11  25  40  62  96 123 166 212 255 315 379
#     4  10  21  41  65  86 125 165 209 258 308 372
#     4  10  24  41  60  96 127 159 215 256 314 374
#     4  10  22  41  61  91 131 162 206 260 306 374
#     4   9  21  42  62  90 121 166 211 253 310 371
#     4  11  23  41  64  92 127 164 206 264 312 373
#     4  12  22  43  67  90 129 168 211 265 315 374
#     4  11  24  41  67  95 125 167 211 261 319 375
#
# _framework density 19.893588999999999
#
# number of rings (size 3 to 8) (size 9 to 14) (size 15 to 20)
#    0.000    1.500    2.500    2.250    3.500    4.500 
#    4.500    0.000    0.000    0.000    0.000    0.000 
#    0.000    0.000    0.000    0.000    0.000    0.000 
#
# Total GULP energy -198232.580326 kJ/mol
# GULP energy per Si atom -12389.536270 kJ/mol
# Density = 1.984831 g / cm^3
# Si number density = 19.893589 Si / 1000 Ang^3
#
#
#
# Elastic Constant Matrix: (Units=GPa)
#
#
# Indices 1 2 3 4 5 6 
#
# 1 80.2581 24.9063 49.8051 0.3742 -10.4871 -0.6410
# 2 24.9063 100.4765 41.8668 12.7209 -3.9766 5.9610
# 3 49.8051 41.8668 105.7798 24.2590 -11.3441 3.1537
# 4 0.3742 12.7209 24.2590 36.3034 -3.8022 -1.9709
# 5 -10.4871 -3.9766 -11.3441 -3.8022 32.5495 -1.6321
# 6 -0.6410 5.9610 3.1537 -1.9709 -1.6321 36.8173
#
#
#
# Elastic Compliance Matrix: (Units=1/GPa)
#
#
# Indices 1 2 3 4 5 6 
#
# 1 0.019622 -0.001631 -0.009994 0.007536 0.003622 0.002026
# 2 -0.001631 0.012200 -0.003612 -0.002009 -0.000620 -0.001829
# 3 -0.009994 -0.003612 0.018256 -0.010779 0.001359 -0.001670
# 4 0.007536 -0.002009 -0.010779 0.035852 0.002786 0.003422
# 5 0.003622 -0.000620 0.001359 0.002786 0.032695 0.001646
# 6 0.002026 -0.001829 -0.001670 0.003422 0.001646 0.027892
#
#
# Mechanical properties :
#
#
# Convention : Reuss Voigt Hill
#
# Bulk Modulus (GPa) = 51.00752 57.74119 54.37435
# Shear Modulus (GPa) = 27.24422 32.46312 29.85367
#
# Velocity S-wave (km/s) = 3.70469 4.04398 3.87805
# Velocity P-wave (km/s) = 6.63291 7.13394 6.88798
#
# Compressibility (1/GPa) = 0.01960495
#
# Stress axis : x y z
#
# Youngs Moduli (GPa) = 50.96381 81.96537 54.77616
#
# Poissons Ratio (x) = 0.13366 0.54741
# Poissons Ratio (y) = 0.08311 0.19787
# Poissons Ratio (z) = 0.50931 0.29608
#
# Static dielectric constant tensor:
#      x y z
#    x 3.782140 -0.097980 -0.028910 
#    y -0.097980 3.557600 0.115820 
#    z -0.028910 0.115820 3.877940 
# 
# 
# High freq. dielectric constant tensor:
#      x y z
#    x 1.785000 -0.002800 -0.002020 
#    y -0.002800 1.777410 0.004800 
#    z -0.002020 0.004800 1.788150 
# 
# From -- ./inp_files/308660.got.cif
#   From: 2010.06.25/outbox.cif.g09.slc.cpg/sg2_155_cif.got.tgz:308660.got - 2010.06.27 13:26:56.
