data_PCOD8014584
_publ_section_title
;
Structure prediction by ZEFSAII (Michael W. Deem and Ramdas Pophale) SiO2 
 PCOD8014584
Probable space group: P -1
;
_chemical_formula_sum "Si O2"
_cell_formula_units_Z 14
_cell_length_a 6.057973
_cell_length_b 22.959318
_cell_length_c 5.113377
_cell_angle_alpha 60.331619
_cell_angle_beta 100.931699
_cell_angle_gamma 94.523716
_cell_volume 606.661062
_symmetry_space_group_name_H-M "P -1"
_symmetry_group_IT_number 2
_symmetry_cell_setting 'triclinic'
loop_
_space_group_symop_operation_xyz
x,y,z
-x,-y,-z
loop_
_atom_site_type_symbol
_atom_site_label
_atom_site_fract_x
_atom_site_fract_y
_atom_site_fract_z
Si Si1 0.722468 0.656876 0.566029
Si Si2 0.404878 0.915934 0.907832
Si Si3 0.416799 0.579878 0.037047
Si Si4 0.229159 0.979862 0.235604
Si Si5 0.636227 0.237251 0.826451
Si Si6 0.823679 0.534815 0.575786
Si Si7 0.851619 0.292018 0.229205
O O1 0.584403 0.716513 0.259302
O O2 0.891886 0.608622 0.537939
O O3 0.882302 0.692000 0.736607
O O4 0.535584 0.605929 0.745363
O O5 0.213051 0.941131 0.598149
O O6 0.637267 0.952734 0.818139
O O7 0.349534 0.930677 0.164368
O O8 0.449671 0.837433 0.060245
O O9 0.598421 0.551169 0.336470
O O10 0.237295 0.519275 0.085235
O O11 0.285783 0.640256 0.017349
O O12 0.000000 0.000000 0.000000
O O13 0.768006 0.259712 0.550017
O O14 0.811142 0.240585 0.098407
O O15 0.000000 0.500000 0.500000
#
# Coordination Sequence:
#
# PCOD8014584 Si02
#       7
#     2   2   2   2   2   2   2
#     4  11  25  43  66  90 132 174 221 283 340 403
#     4  10  22  40  66 100 137 174 219 268 324 380
#     4  10  23  41  62  92 127 166 220 287 343 406
#     4  10  21  41  69 101 136 174 217 271 316 385
#     4  11  25  44  64  98 135 177 222 273 326 403
#     4  11  23  39  68  93 124 167 225 284 351 402
#     4  11  25  42  69  91 133 174 226 273 339 398
#
# _framework density 23.07714
#
# number of rings (size 3 to 8) (size 9 to 14) (size 15 to 20)
#    0.000    1.429    1.429    2.571    4.000    5.714 
#    0.000    0.000    0.000    0.000    0.000    0.000 
#    0.000    0.000    0.000    0.000    0.000    0.000 
#
# Total GULP energy -173495.967734 kJ/mol
# GULP energy per Si atom -12392.569124 kJ/mol
# Density = 2.302462 g / cm^3
# Si number density = 23.077140 Si / 1000 Ang^3
#
#
#
# Elastic Constant Matrix: (Units=GPa)
#
#
# Indices 1 2 3 4 5 6 
#
# 1 74.0351 39.3033 33.0847 -8.5719 6.0681 12.8491
# 2 39.3033 173.8221 50.7662 -9.1657 -2.1379 12.0658
# 3 33.0847 50.7662 92.0867 2.2074 -2.9094 2.7899
# 4 -8.5719 -9.1657 2.2074 41.6229 0.8549 2.3149
# 5 6.0681 -2.1379 -2.9094 0.8549 25.7100 5.6746
# 6 12.8491 12.0658 2.7899 2.3149 5.6746 21.1770
#
#
#
# Elastic Compliance Matrix: (Units=1/GPa)
#
#
# Indices 1 2 3 4 5 6 
#
# 1 0.019637 -0.001827 -0.005975 0.004567 -0.003484 -0.009652
# 2 -0.001827 0.007474 -0.003362 0.001600 0.001334 -0.003239
# 3 -0.005975 -0.003362 0.014899 -0.002990 0.002183 0.003320
# 4 0.004567 0.001600 -0.002990 0.025821 -0.000843 -0.005886
# 5 -0.003484 0.001334 0.002183 -0.000843 0.042353 -0.010190
# 6 -0.009652 -0.003239 0.003320 -0.005886 -0.010190 0.057859
#
#
# Mechanical properties :
#
#
# Convention : Reuss Voigt Hill
#
# Bulk Modulus (GPa) = 50.80760 65.13914 57.97337
# Shear Modulus (GPa) = 25.38958 32.15466 28.77212
#
# Velocity S-wave (km/s) = 3.32053 3.73682 3.53481
# Velocity P-wave (km/s) = 6.06345 6.84882 6.46807
#
# Compressibility (1/GPa) = 0.01968210
#
# Stress axis : x y z
#
# Youngs Moduli (GPa) = 50.92543 133.80423 67.11714
#
# Poissons Ratio (x) = 0.24448 0.40101
# Poissons Ratio (y) = 0.09305 0.22563
# Poissons Ratio (z) = 0.30427 0.44982
#
# Static dielectric constant tensor:
#      x y z
#    x 4.762090 -0.408870 -0.359710 
#    y -0.408870 4.878320 0.221090 
#    z -0.359710 0.221090 4.408460 
# 
# 
# High freq. dielectric constant tensor:
#      x y z
#    x 1.897680 0.007600 0.006240 
#    y 0.007600 1.917450 0.002770 
#    z 0.006240 0.002770 1.914940 
# 
# From -- ./inp_files/7683.got.cif
#   From: 2010.06.25/outbox.cif.g09.slc.cpg/sg2_4_cif.got.tgz:7683.got - 2010.06.27 13:26:56.
