data_PCOD8014791
_publ_section_title
;
Structure prediction by ZEFSAII (Michael W. Deem and Ramdas Pophale) SiO2 
 PCOD8014791
Probable space group: P -1
;
_chemical_formula_sum "Si O2"
_cell_formula_units_Z 16
_cell_length_a 8.567018
_cell_length_b 9.122034
_cell_length_c 12.200355
_cell_angle_alpha 103.466258
_cell_angle_beta 57.100067
_cell_angle_gamma 124.930884
_cell_volume 652.065561
_symmetry_space_group_name_H-M "P -1"
_symmetry_group_IT_number 2
_symmetry_cell_setting 'triclinic'
loop_
_space_group_symop_operation_xyz
x,y,z
-x,-y,-z
loop_
_atom_site_type_symbol
_atom_site_label
_atom_site_fract_x
_atom_site_fract_y
_atom_site_fract_z
Si Si1 0.436923 0.305861 0.589837
Si Si2 0.630336 0.402739 0.313292
Si Si3 0.179441 0.253562 0.053218
Si Si4 0.916704 0.468207 0.902263
Si Si5 0.732045 0.794077 0.752295
Si Si6 0.248619 0.855732 0.238641
Si Si7 0.919566 0.625065 0.513343
Si Si8 0.681830 0.926148 0.195962
O O1 0.460351 0.260563 0.446712
O O2 0.278582 0.382120 0.672296
O O3 0.667531 0.494855 0.553468
O O4 0.382178 0.145900 0.666010
O O5 0.510624 0.329709 0.229535
O O6 0.858656 0.411903 0.234506
O O7 0.233636 0.452887 0.049759
O O8 0.298341 0.250658 0.116413
O O9 0.293355 0.219667 0.902648
O O10 0.913723 0.115086 0.136377
O O11 0.774408 0.259599 0.881193
O O12 0.000000 0.500000 0.000000
O O13 0.918448 0.761068 0.626689
O O14 0.811142 0.000879 0.746604
O O15 0.493661 0.946599 0.215232
O O16 0.070401 0.733045 0.374181
O O17 0.000000 0.500000 0.500000
#
# Coordination Sequence:
#
# PCOD8014791 Si02
#       8
#     2   2   2   2   2   2   2   2
#     4  10  21  41  73 103 141 188 233 296 355 428
#     4  10  23  43  70 106 145 183 238 292 361 420
#     4  11  28  48  69 104 142 189 244 297 354 429
#     4  12  27  46  75 106 143 191 243 293 360 426
#     4  11  27  44  72 106 148 188 235 293 359 425
#     4  12  26  45  72 107 144 190 238 296 359 427
#     4  11  21  44  71 110 144 181 237 293 356 427
#     4  11  26  46  74  98 145 189 244 294 362 415
#
# _framework density 24.537410999999999
#
# number of rings (size 3 to 8) (size 9 to 14) (size 15 to 20)
#    0.000    1.000    2.500    2.625    8.750    2.000 
#    0.000    1.875    0.000    0.000    0.000    0.000 
#    0.000    0.000    0.000    0.000    0.000    0.000 
#
# Total GULP energy -198354.632642 kJ/mol
# GULP energy per Si atom -12397.164540 kJ/mol
# Density = 2.448156 g / cm^3
# Si number density = 24.537411 Si / 1000 Ang^3
#
#
#
# Elastic Constant Matrix: (Units=GPa)
#
#
# Indices 1 2 3 4 5 6 
#
# 1 96.7270 33.7960 33.3443 8.1636 15.2810 -26.3919
# 2 33.7960 98.6544 19.9778 18.3921 2.4511 -33.4171
# 3 33.3443 19.9778 66.3980 -1.5114 9.4421 -8.3213
# 4 8.1636 18.3921 -1.5114 34.8235 -5.0399 -1.4475
# 5 15.2810 2.4511 9.4421 -5.0399 42.9851 0.3861
# 6 -26.3919 -33.4171 -8.3213 -1.4475 0.3861 51.6501
#
#
#
# Elastic Compliance Matrix: (Units=1/GPa)
#
#
# Indices 1 2 3 4 5 6 
#
# 1 0.015585 -0.001227 -0.006119 -0.003684 -0.004613 0.006115
# 2 -0.001227 0.015632 -0.003054 -0.007850 -0.000784 0.008781
# 3 -0.006119 -0.003054 0.019094 0.003593 -0.001406 -0.001915
# 4 -0.003684 -0.007850 0.003593 0.034386 0.005049 -0.005457
# 5 -0.004613 -0.000784 -0.001406 0.005049 0.025878 -0.003143
# 6 0.006115 0.008781 -0.001915 -0.005457 -0.003143 0.027729
#
#
# Mechanical properties :
#
#
# Convention : Reuss Voigt Hill
#
# Bulk Modulus (GPa) = 33.88496 48.44616 41.16556
# Shear Modulus (GPa) = 29.59632 37.53583 33.56607
#
# Velocity S-wave (km/s) = 3.47677 3.91543 3.70260
# Velocity P-wave (km/s) = 5.47327 6.34251 5.92386
#
# Compressibility (1/GPa) = 0.02951162
#
# Stress axis : x y z
#
# Youngs Moduli (GPa) = 64.16605 63.96979 52.37208
#
# Poissons Ratio (x) = 0.07848 0.32045
# Poissons Ratio (y) = 0.07873 0.15995
# Poissons Ratio (z) = 0.39261 0.19537
#
# Static dielectric constant tensor:
#      x y z
#    x 5.018530 -0.542470 -0.181440 
#    y -0.542470 4.948380 0.306020 
#    z -0.181440 0.306020 4.682520 
# 
# 
# High freq. dielectric constant tensor:
#      x y z
#    x 1.989660 -0.004720 -0.003340 
#    y -0.004720 1.963380 0.009650 
#    z -0.003340 0.009650 1.984560 
# 
# From -- ./inp_files/245665.got.cif
#   From: 2010.06.25/outbox.cif.g09.slc.cpg/sg2_123_cif.got.tgz:245665.got - 2010.06.27 13:26:56.
