data_PCOD8014508
_publ_section_title
;
Structure prediction by ZEFSAII (Michael W. Deem and Ramdas Pophale) SiO2 
 PCOD8014508
Probable space group: P -1
;
_chemical_formula_sum "Si O2"
_cell_formula_units_Z 14
_cell_length_a 9.827489
_cell_length_b 14.115482
_cell_length_c 13.160442
_cell_angle_alpha 43.945792
_cell_angle_beta 129.189380
_cell_angle_gamma 150.506283
_cell_volume 623.675369
_symmetry_space_group_name_H-M "P -1"
_symmetry_group_IT_number 2
_symmetry_cell_setting 'triclinic'
loop_
_space_group_symop_operation_xyz
x,y,z
-x,-y,-z
loop_
_atom_site_type_symbol
_atom_site_label
_atom_site_fract_x
_atom_site_fract_y
_atom_site_fract_z
Si Si1 0.547098 0.804808 0.863813
Si Si2 0.483795 0.912520 0.286166
Si Si3 0.081220 0.414216 0.828597
Si Si4 0.916809 0.876548 0.262134
Si Si5 0.192806 0.082106 0.433852
Si Si6 0.570931 0.546637 0.193505
Si Si7 0.238971 0.930853 0.901387
O O1 0.302982 0.662905 0.773017
O O2 0.552916 0.951643 0.810053
O O3 0.495574 0.653124 0.037867
O O4 0.834380 0.949142 0.832850
O O5 0.548244 0.857307 0.457082
O O6 0.197885 0.688978 0.271652
O O7 0.750442 0.054165 0.228054
O O8 0.213679 0.389044 0.832128
O O9 0.027079 0.302403 0.995862
O O10 0.714231 0.641019 0.300076
O O11 0.736888 0.905358 0.165373
O O12 0.026908 0.900739 0.407514
O O13 0.299822 0.288259 0.274967
O O14 0.000000 0.000000 0.500000
O O15 0.500000 0.000000 0.000000
#
# Coordination Sequence:
#
# PCOD8014508 Si02
#       7
#     2   2   2   2   2   2   2
#     4  12  24  43  77 108 129 178 241 288 339 409
#     4  11  26  46  67 102 147 176 229 292 338 408
#     4  11  22  42  71 104 137 178 231 285 349 399
#     4  12  23  45  74 100 140 182 232 284 345 410
#     4  12  28  49  67  98 145 189 227 277 350 421
#     4  12  24  43  76 102 136 183 230 285 345 410
#     4  10  21  41  68 101 143 175 221 292 343 394
#
# _framework density 22.447576000000002
#
# number of rings (size 3 to 8) (size 9 to 14) (size 15 to 20)
#    0.000    0.571    5.714    3.429    0.000    3.429 
#    5.143    0.000    0.000    0.000    0.000    0.000 
#    0.000    0.000    0.000    0.000    0.000    0.000 
#
# Total GULP energy -173556.577830 kJ/mol
# GULP energy per Si atom -12396.898416 kJ/mol
# Density = 2.239648 g / cm^3
# Si number density = 22.447576 Si / 1000 Ang^3
#
#
#
# Elastic Constant Matrix: (Units=GPa)
#
#
# Indices 1 2 3 4 5 6 
#
# 1 127.9131 24.6184 22.8472 -8.1499 -16.8779 -4.8854
# 2 24.6184 105.6498 7.9735 22.2210 -4.9134 -13.0686
# 3 22.8472 7.9735 84.8463 9.4581 3.6499 1.4610
# 4 -8.1499 22.2210 9.4581 31.0346 -1.4829 -2.9479
# 5 -16.8779 -4.9134 3.6499 -1.4829 27.3578 8.9805
# 6 -4.8854 -13.0686 1.4610 -2.9479 8.9805 26.1230
#
#
#
# Elastic Compliance Matrix: (Units=1/GPa)
#
#
# Indices 1 2 3 4 5 6 
#
# 1 0.010359 -0.003317 -0.003468 0.006371 0.007003 -0.001216
# 2 -0.003317 0.012822 0.000790 -0.009885 -0.002149 0.005373
# 3 -0.003468 0.000790 0.013470 -0.005800 -0.004017 -0.000280
# 4 0.006371 -0.009885 -0.005800 0.042957 0.005402 -0.000439
# 5 0.007003 -0.002149 -0.004017 0.005402 0.046176 -0.014805
# 6 -0.001216 0.005373 -0.000280 -0.000439 -0.014805 0.045797
#
#
# Mechanical properties :
#
#
# Convention : Reuss Voigt Hill
#
# Bulk Modulus (GPa) = 40.55012 47.69859 44.12436
# Shear Modulus (GPa) = 26.06991 34.43441 30.25216
#
# Velocity S-wave (km/s) = 3.41158 3.92087 3.67506
# Velocity P-wave (km/s) = 5.79846 6.46472 6.14063
#
# Compressibility (1/GPa) = 0.02466084
#
# Stress axis : x y z
#
# Youngs Moduli (GPa) = 96.53279 77.98881 74.23946
#
# Poissons Ratio (x) = 0.25869 0.25749
# Poissons Ratio (y) = 0.32020 -0.05865
# Poissons Ratio (z) = 0.33481 -0.06161
#
# Static dielectric constant tensor:
#      x y z
#    x 4.370440 0.025960 -0.556170 
#    y 0.025960 4.207840 0.182580 
#    z -0.556170 0.182580 4.819510 
# 
# 
# High freq. dielectric constant tensor:
#      x y z
#    x 1.896940 0.004220 -0.007230 
#    y 0.004220 1.886210 0.022970 
#    z -0.007230 0.022970 1.871980 
# 
# From -- ./inp_files/392201.got.cif
#   From: 2010.06.25/outbox.cif.g09.slc.cpg/sg2_197_cif.got.tgz:392201.got - 2010.06.27 13:26:56.
