data_PCOD8014196
_publ_section_title
;
Structure prediction by ZEFSAII (Michael W. Deem and Ramdas Pophale) SiO2 
 PCOD8014196
Probable space group: P -1
;
_chemical_formula_sum "Si O2"
_cell_formula_units_Z 16
_cell_length_a 16.490824
_cell_length_b 11.151840
_cell_length_c 9.497298
_cell_angle_alpha 64.795748
_cell_angle_beta 59.715109
_cell_angle_gamma 115.764816
_cell_volume 758.694883
_symmetry_space_group_name_H-M "P -1"
_symmetry_group_IT_number 2
_symmetry_cell_setting 'triclinic'
loop_
_space_group_symop_operation_xyz
x,y,z
-x,-y,-z
loop_
_atom_site_type_symbol
_atom_site_label
_atom_site_fract_x
_atom_site_fract_y
_atom_site_fract_z
Si Si1 0.475410 0.307194 0.956556
Si Si2 0.788812 0.211778 0.680736
Si Si3 0.104706 0.949424 0.836608
Si Si4 0.644384 0.270431 0.270188
Si Si5 0.856009 0.480568 0.720345
Si Si6 0.117607 0.532572 0.809392
Si Si7 0.150052 0.289943 0.576536
Si Si8 0.480997 0.338469 0.268991
O O1 0.658469 0.485263 0.640819
O O2 0.435001 0.416364 0.910681
O O3 0.470658 0.279714 0.143838
O O4 0.346145 0.057154 0.114953
O O5 0.737590 0.249303 0.837035
O O6 0.834653 0.366561 0.438981
O O7 0.949001 0.326763 0.547186
O O8 0.108383 0.089773 0.675927
O O9 0.294630 0.120179 0.611226
O O10 0.004283 0.734749 0.933197
O O11 0.997462 0.830096 0.133774
O O12 0.708331 0.309439 0.350196
O O13 0.588870 0.358309 0.253893
O O14 0.500000 0.000000 0.500000
O O15 0.796120 0.405298 0.969141
O O16 0.845907 0.621300 0.612526
O O17 0.000000 0.500000 0.000000
#
# Coordination Sequence:
#
# PCOD8014196 Si02
#       8
#     2   2   2   2   2   2   2   2
#     4  10  21  41  65  95 126 168 214 267 319 383
#     4  11  24  41  66  93 130 170 213 269 322 381
#     4  10  22  41  66  93 126 170 208 264 323 385
#     4  12  25  40  63  96 134 169 215 269 322 380
#     4  11  24  42  63  96 128 171 218 266 319 382
#     4  12  23  40  63  96 130 169 215 262 328 383
#     4  10  21  42  68  91 125 167 216 262 319 381
#     4  10  22  40  65  94 132 166 209 267 328 375
#
# _framework density 21.088844000000002
#
# number of rings (size 3 to 8) (size 9 to 14) (size 15 to 20)
#    0.000    1.250    3.750    2.250    0.000    2.500 
#    0.000    1.250    0.000    5.250    0.000    0.000 
#    0.000    0.000    0.000    0.000    0.000    0.000 
#
# Total GULP energy -198252.621767 kJ/mol
# GULP energy per Si atom -12390.788860 kJ/mol
# Density = 2.104085 g / cm^3
# Si number density = 21.088844 Si / 1000 Ang^3
#
#
#
# Elastic Constant Matrix: (Units=GPa)
#
#
# Indices 1 2 3 4 5 6 
#
# 1 132.3910 41.7951 17.5998 -15.9930 2.9772 -4.4103
# 2 41.7951 102.8411 34.2780 -29.8290 1.6937 -5.9692
# 3 17.5998 34.2780 85.7116 -15.2441 -9.9582 -11.6158
# 4 -15.9930 -29.8290 -15.2441 43.4370 -10.4715 1.5202
# 5 2.9772 1.6937 -9.9582 -10.4715 31.0839 -0.7774
# 6 -4.4103 -5.9692 -11.6158 1.5202 -0.7774 24.3982
#
#
#
# Elastic Compliance Matrix: (Units=1/GPa)
#
#
# Indices 1 2 3 4 5 6 
#
# 1 0.008723 -0.003155 -0.000375 0.000770 -0.000510 0.000562
# 2 -0.003155 0.014460 -0.003526 0.007746 0.001015 0.000839
# 3 -0.000375 -0.003526 0.015594 0.004339 0.006847 0.006442
# 4 0.000770 0.007746 0.004339 0.032970 0.012062 0.002430
# 5 -0.000510 0.001015 0.006847 0.012062 0.038519 0.003892
# 6 0.000562 0.000839 0.006442 0.002430 0.003892 0.044333
#
#
# Mechanical properties :
#
#
# Convention : Reuss Voigt Hill
#
# Bulk Modulus (GPa) = 40.54473 56.47662 48.51067
# Shear Modulus (GPa) = 28.25934 34.93519 31.59727
#
# Velocity S-wave (km/s) = 3.66459 4.07452 3.87498
# Velocity P-wave (km/s) = 6.09697 6.99815 6.56304
#
# Compressibility (1/GPa) = 0.02466412
#
# Stress axis : x y z
#
# Youngs Moduli (GPa) = 114.64387 69.15631 64.12661
#
# Poissons Ratio (x) = 0.21822 0.02407
# Poissons Ratio (y) = 0.36175 0.22609
# Poissons Ratio (z) = 0.04303 0.24382
#
# Static dielectric constant tensor:
#      x y z
#    x 3.994170 -0.281950 -0.015440 
#    y -0.281950 3.831300 0.038720 
#    z -0.015440 0.038720 4.032220 
# 
# 
# High freq. dielectric constant tensor:
#      x y z
#    x 1.837750 -0.023250 0.000150 
#    y -0.023250 1.813040 -0.004030 
#    z 0.000150 -0.004030 1.836750 
# 
# From -- ./inp_files/306721.got.cif
#   From: 2010.06.25/outbox.cif.g09.slc.cpg/sg2_154_cif.got.tgz:306721.got - 2010.06.27 13:26:56.
