data_PCOD8014020
_publ_section_title
;
Structure prediction by ZEFSAII (Michael W. Deem and Ramdas Pophale) SiO2 
 PCOD8014020
Probable space group: P -1
;
_chemical_formula_sum "Si O2"
_cell_formula_units_Z 14
_cell_length_a 13.223816
_cell_length_b 21.068832
_cell_length_c 7.260866
_cell_angle_alpha 104.249496
_cell_angle_beta 91.903551
_cell_angle_gamma 154.377746
_cell_volume 672.660890
_symmetry_space_group_name_H-M "P -1"
_symmetry_group_IT_number 2
_symmetry_cell_setting 'triclinic'
loop_
_space_group_symop_operation_xyz
x,y,z
-x,-y,-z
loop_
_atom_site_type_symbol
_atom_site_label
_atom_site_fract_x
_atom_site_fract_y
_atom_site_fract_z
Si Si1 0.023108 0.216016 0.705650
Si Si2 0.386243 0.952436 0.659175
Si Si3 0.227004 0.752199 0.798916
Si Si4 0.694295 0.949165 0.800929
Si Si5 0.436664 0.658187 0.450703
Si Si6 0.205584 0.186994 0.125552
Si Si7 0.470003 0.376515 0.892062
O O1 0.205102 0.260098 0.710391
O O2 0.857999 0.139086 0.454934
O O3 0.233893 0.401125 0.926089
O O4 0.772198 0.051712 0.728370
O O5 0.225659 0.797413 0.651521
O O6 0.500000 0.000000 0.500000
O O7 0.656755 0.141954 0.934409
O O8 0.426847 0.810058 0.812447
O O9 0.899151 0.528756 0.657482
O O10 0.619945 0.836209 0.612020
O O11 0.987672 0.117456 0.065795
O O12 0.555700 0.670958 0.595340
O O13 0.475291 0.655320 0.245439
O O14 0.389838 0.299336 0.029784
O O15 0.000000 0.000000 0.000000
#
# Coordination Sequence:
#
# PCOD8014020 Si02
#       7
#     2   2   2   2   2   2   2
#     4  10  21  41  64  92 125 161 206 262 301 366
#     4  11  22  40  63  88 123 164 205 253 309 359
#     4  11  24  39  64  93 123 163 211 252 306 369
#     4  10  22  42  62  93 126 160 209 252 307 371
#     4  11  23  41  64  90 129 166 199 257 308 366
#     4   9  21  40  63  90 123 161 204 249 302 367
#     4  10  22  40  64  95 125 158 210 254 309 363
#
# _framework density 20.812863
#
# number of rings (size 3 to 8) (size 9 to 14) (size 15 to 20)
#    0.000    1.714    1.429    2.143    4.000    5.143 
#    2.571    3.571    0.000    0.000    0.000    0.000 
#    0.000    0.000    0.000    0.000    0.000    0.000 
#
# Total GULP energy -173576.249939 kJ/mol
# GULP energy per Si atom -12398.303567 kJ/mol
# Density = 2.076549 g / cm^3
# Si number density = 20.812863 Si / 1000 Ang^3
#
#
#
# Elastic Constant Matrix: (Units=GPa)
#
#
# Indices 1 2 3 4 5 6 
#
# 1 67.7424 32.4578 27.0169 -6.9636 1.6108 4.3192
# 2 32.4578 107.2652 37.2139 2.1505 -1.0283 6.3362
# 3 27.0169 37.2139 75.8762 -5.7037 12.9045 1.2088
# 4 -6.9636 2.1505 -5.7037 28.7736 1.0744 3.2109
# 5 1.6108 -1.0283 12.9045 1.0744 40.4324 0.5967
# 6 4.3192 6.3362 1.2088 3.2109 0.5967 37.1913
#
#
#
# Elastic Compliance Matrix: (Units=1/GPa)
#
#
# Indices 1 2 3 4 5 6 
#
# 1 0.019093 -0.004204 -0.004472 0.004224 0.000473 -0.001728
# 2 -0.004204 0.012573 -0.005255 -0.002942 0.002261 -0.001265
# 3 -0.004472 -0.005255 0.018593 0.003149 -0.005983 0.000635
# 4 0.004224 -0.002942 0.003149 0.037065 -0.002185 -0.003257
# 5 0.000473 0.002261 -0.005983 -0.002185 0.026746 -0.000486
# 6 -0.001728 -0.001265 0.000635 -0.003257 -0.000486 0.027573
#
#
# Mechanical properties :
#
#
# Convention : Reuss Voigt Hill
#
# Bulk Modulus (GPa) = 44.64890 49.36231 47.00560
# Shear Modulus (GPa) = 28.25316 31.55914 29.90615
#
# Velocity S-wave (km/s) = 3.68840 3.89823 3.79477
# Velocity P-wave (km/s) = 6.29589 6.63553 6.46794
#
# Compressibility (1/GPa) = 0.02239697
#
# Stress axis : x y z
#
# Youngs Moduli (GPa) = 52.37631 79.53244 53.78280
#
# Poissons Ratio (x) = 0.33435 0.24051
# Poissons Ratio (y) = 0.22019 0.28265
# Poissons Ratio (z) = 0.23422 0.41798
#
# Static dielectric constant tensor:
#      x y z
#    x 3.886370 0.054060 0.468440 
#    y 0.054060 3.752090 0.092530 
#    z 0.468440 0.092530 3.879250 
# 
# 
# High freq. dielectric constant tensor:
#      x y z
#    x 1.815110 0.005580 0.020310 
#    y 0.005580 1.823110 0.005220 
#    z 0.020310 0.005220 1.806770 
# 
# From -- ./inp_files/77691.got.cif
#   From: 2010.06.25/outbox.cif.g09.slc.cpg/sg2_39_cif.got.tgz:77691.got - 2010.06.27 13:26:56.
