data_PCOD8014925
_publ_section_title
;
Structure prediction by ZEFSAII (Michael W. Deem and Ramdas Pophale) SiO2 
 PCOD8014925
Probable space group: P -1
;
_chemical_formula_sum "Si O2"
_cell_formula_units_Z 16
_cell_length_a 16.174247
_cell_length_b 9.643724
_cell_length_c 13.761686
_cell_angle_alpha 136.353152
_cell_angle_beta 143.901150
_cell_angle_gamma 63.644964
_cell_volume 818.964838
_symmetry_space_group_name_H-M "P -1"
_symmetry_group_IT_number 2
_symmetry_cell_setting 'triclinic'
loop_
_space_group_symop_operation_xyz
x,y,z
-x,-y,-z
loop_
_atom_site_type_symbol
_atom_site_label
_atom_site_fract_x
_atom_site_fract_y
_atom_site_fract_z
Si Si1 0.058293 0.711779 0.902883
Si Si2 0.384190 0.490204 0.802876
Si Si3 0.121996 0.467096 0.666987
Si Si4 0.400026 0.505994 0.501719
Si Si5 0.901337 0.400904 0.763864
Si Si6 0.235407 0.185157 0.347138
Si Si7 0.447166 0.196029 0.036344
Si Si8 0.875025 0.946500 0.434621
O O1 0.140172 0.616115 0.853003
O O2 0.001636 0.531910 0.838656
O O3 0.913545 0.756323 0.748608
O O4 0.187190 0.928903 0.170352
O O5 0.262256 0.555210 0.776312
O O6 0.330997 0.267184 0.578162
O O7 0.443673 0.673919 0.875699
O O8 0.500000 0.500000 0.000000
O O9 0.099447 0.223598 0.552709
O O10 0.000000 0.500000 0.500000
O O11 0.500000 0.500000 0.500000
O O12 0.263090 0.581149 0.377301
O O13 0.326002 0.287596 0.385447
O O14 0.523832 0.676127 0.770839
O O15 0.880469 0.151973 0.607011
O O16 0.000000 0.500000 0.000000
O O17 0.278394 0.143826 0.816232
O O18 0.500000 0.000000 0.000000
O O19 0.000000 0.000000 0.500000
#
# Coordination Sequence:
#
# PCOD8014925 Si02
#       8
#     2   2   2   2   2   2   2   2
#     4  10  21  42  63  95 127 173 219 272 326 388
#     4  11  23  42  65  96 131 172 218 272 335 394
#     4  12  25  41  69  99 133 172 229 272 329 402
#     4  10  23  42  67  98 131 178 223 268 334 402
#     4  11  25  42  65  97 137 174 223 278 332 393
#     4   9  21  41  66  90 132 169 216 275 329 383
#     4  11  24  44  69  93 136 178 218 277 336 396
#     4  12  26  44  69 101 133 177 228 282 333 397
#
# _framework density 19.536857999999999
#
# number of rings (size 3 to 8) (size 9 to 14) (size 15 to 20)
#    0.000    1.250    5.000    0.000    5.250    2.000 
#    0.000    0.625    0.000    0.000    0.000    0.000 
#    0.000    0.000    0.000    0.000    0.000    0.000 
#
# Total GULP energy -198290.179872 kJ/mol
# GULP energy per Si atom -12393.136242 kJ/mol
# Density = 1.949239 g / cm^3
# Si number density = 19.536858 Si / 1000 Ang^3
#
#
#
# Elastic Constant Matrix: (Units=GPa)
#
#
# Indices 1 2 3 4 5 6 
#
# 1 176.0904 50.3246 71.9986 3.8927 -6.0590 -4.4905
# 2 50.3246 126.0833 76.7578 2.5687 -11.5354 -7.5767
# 3 71.9986 76.7578 166.6899 -1.7925 -11.0238 -1.2011
# 4 3.8927 2.5687 -1.7925 40.9832 -0.1344 -1.0145
# 5 -6.0590 -11.5354 -11.0238 -0.1344 32.0749 -3.9222
# 6 -4.4905 -7.5767 -1.2011 -1.0145 -3.9222 21.7624
#
#
#
# Elastic Compliance Matrix: (Units=1/GPa)
#
#
# Indices 1 2 3 4 5 6 
#
# 1 0.007091 -0.001237 -0.002484 -0.000682 0.000147 0.000890
# 2 -0.001237 0.011804 -0.004688 -0.000717 0.002897 0.004084
# 3 -0.002484 -0.004688 0.009288 0.000903 0.000865 -0.001434
# 4 -0.000682 -0.000717 0.000903 0.024570 0.000128 0.000828
# 5 0.000147 0.002897 0.000865 0.000128 0.033414 0.007115
# 6 0.000890 0.004084 -0.001434 0.000828 0.007115 0.048798
#
#
# Mechanical properties :
#
#
# Convention : Reuss Voigt Hill
#
# Bulk Modulus (GPa) = 87.99820 96.33619 92.16720
# Shear Modulus (GPa) = 32.13936 36.94961 34.54449
#
# Velocity S-wave (km/s) = 4.06034 4.35360 4.20952
# Velocity P-wave (km/s) = 8.19278 8.64227 8.42053
#
# Compressibility (1/GPa) = 0.01136387
#
# Stress axis : x y z
#
# Youngs Moduli (GPa) = 141.02233 84.71677 107.67045
#
# Poissons Ratio (x) = 0.10480 0.26750
# Poissons Ratio (y) = 0.17445 0.50475
# Poissons Ratio (z) = 0.35036 0.39715
#
# Static dielectric constant tensor:
#      x y z
#    x 3.593190 0.031720 0.157890 
#    y 0.031720 3.533540 0.362060 
#    z 0.157890 0.362060 3.350330 
# 
# 
# High freq. dielectric constant tensor:
#      x y z
#    x 1.774630 0.007690 0.000320 
#    y 0.007690 1.761940 -0.000240 
#    z 0.000320 -0.000240 1.773320 
# 
# From -- ./inp_files/184409.got.cif
#   From: 2010.06.25/outbox.cif.g09.slc.cpg/sg2_93_cif.got.tgz:184409.got - 2010.06.27 13:26:56.
