data_PCOD8014455
_publ_section_title
;
Structure prediction by ZEFSAII (Michael W. Deem and Ramdas Pophale) SiO2 
 PCOD8014455
Probable space group: P -1
;
_chemical_formula_sum "Si O2"
_cell_formula_units_Z 16
_cell_length_a 12.793277
_cell_length_b 13.945521
_cell_length_c 8.911016
_cell_angle_alpha 134.764895
_cell_angle_beta 47.572011
_cell_angle_gamma 106.553207
_cell_volume 776.367950
_symmetry_space_group_name_H-M "P -1"
_symmetry_group_IT_number 2
_symmetry_cell_setting 'triclinic'
loop_
_space_group_symop_operation_xyz
x,y,z
-x,-y,-z
loop_
_atom_site_type_symbol
_atom_site_label
_atom_site_fract_x
_atom_site_fract_y
_atom_site_fract_z
Si Si1 0.516202 0.739399 0.361856
Si Si2 0.100804 0.575560 0.061626
Si Si3 0.744570 0.413682 0.797975
Si Si4 0.972276 0.859775 0.318749
Si Si5 0.624978 0.943220 0.683013
Si Si6 0.214436 0.707420 0.690746
Si Si7 0.559838 0.217199 0.848895
Si Si8 0.374485 0.460452 0.494406
O O1 0.594551 0.817103 0.482415
O O2 0.341030 0.780402 0.628002
O O3 0.513343 0.794928 0.254523
O O4 0.603901 0.566056 0.088396
O O5 0.112162 0.579948 0.236627
O O6 0.058625 0.736858 0.219313
O O7 0.266746 0.460439 0.735535
O O8 0.000000 0.500000 0.000000
O O9 0.817857 0.357369 0.504794
O O10 0.680580 0.297592 0.805768
O O11 0.795269 0.879928 0.513738
O O12 0.000000 0.000000 0.500000
O O13 0.053506 0.818896 0.031546
O O14 0.630021 0.061805 0.687369
O O15 0.500000 0.000000 0.000000
O O16 0.277906 0.578390 0.601828
O O17 0.430135 0.306867 0.189764
O O18 0.500000 0.500000 0.500000
#
# Coordination Sequence:
#
# PCOD8014455 Si02
#       8
#     2   2   2   2   2   2   2   2
#     4  11  21  42  66  99 128 160 213 265 316 376
#     4  11  24  39  61  94 130 161 214 266 318 358
#     4  11  20  41  71  96 126 166 216 261 312 384
#     4  11  25  45  61  89 131 171 214 255 315 385
#     4  12  28  42  64  92 131 172 211 261 319 376
#     4  10  21  41  67  97 122 167 210 262 314 376
#     4  11  22  40  66  95 125 165 217 254 316 374
#     4  11  20  36  67  95 122 165 213 262 303 374
#
# _framework density 20.608784
#
# number of rings (size 3 to 8) (size 9 to 14) (size 15 to 20)
#    0.000    1.000    3.750    3.375    7.000    0.000 
#    2.250    8.750    0.000    0.000    0.000    0.000 
#    0.000    0.000    0.000    0.000    0.000    0.000 
#
# Total GULP energy -198301.516405 kJ/mol
# GULP energy per Si atom -12393.844775 kJ/mol
# Density = 2.056188 g / cm^3
# Si number density = 20.608784 Si / 1000 Ang^3
#
#
#
# Elastic Constant Matrix: (Units=GPa)
#
#
# Indices 1 2 3 4 5 6 
#
# 1 143.1527 23.9229 55.5311 -14.0958 19.3560 12.5691
# 2 23.9229 66.2330 28.6203 3.9580 7.4189 -3.3906
# 3 55.5311 28.6203 137.4969 -13.4167 8.7858 7.7231
# 4 -14.0958 3.9580 -13.4167 27.1797 5.1891 1.9000
# 5 19.3560 7.4189 8.7858 5.1891 37.7140 -1.1509
# 6 12.5691 -3.3906 7.7231 1.9000 -1.1509 37.9079
#
#
#
# Elastic Compliance Matrix: (Units=1/GPa)
#
#
# Indices 1 2 3 4 5 6 
#
# 1 0.009824 -0.002455 -0.002428 0.005416 -0.004843 -0.003401
# 2 -0.002455 0.018076 -0.003486 -0.005753 -0.000588 0.003411
# 3 -0.002428 -0.003486 0.009549 0.004258 -0.000930 -0.001694
# 4 0.005416 -0.005753 0.004258 0.044649 -0.008957 -0.005688
# 5 -0.004843 -0.000588 -0.000930 -0.008957 0.030661 0.003122
# 6 -0.003401 0.003411 -0.001694 -0.005688 0.003122 0.028538
#
#
# Mechanical properties :
#
#
# Convention : Reuss Voigt Hill
#
# Bulk Modulus (GPa) = 48.28296 62.55902 55.42099
# Shear Modulus (GPa) = 30.31442 36.48088 33.39765
#
# Velocity S-wave (km/s) = 3.83945 4.21189 4.02998
# Velocity P-wave (km/s) = 6.56768 7.35356 6.97170
#
# Compressibility (1/GPa) = 0.02071124
#
# Stress axis : x y z
#
# Youngs Moduli (GPa) = 101.78868 55.32297 104.72008
#
# Poissons Ratio (x) = 0.13580 0.25424
# Poissons Ratio (y) = 0.24986 0.36510
# Poissons Ratio (z) = 0.24712 0.19288
#
# Static dielectric constant tensor:
#      x y z
#    x 3.645770 0.045800 0.193820 
#    y 0.045800 3.524310 -0.228000 
#    z 0.193820 -0.228000 4.121780 
# 
# 
# High freq. dielectric constant tensor:
#      x y z
#    x 1.816580 -0.008700 0.012990 
#    y -0.008700 1.800090 -0.000040 
#    z 0.012990 -0.000040 1.811540 
# 
# From -- ./inp_files/175031.got.cif
#   From: 2010.06.25/outbox.cif.g09.slc.cpg/sg2_88_cif.got.tgz:175031.got - 2010.06.27 13:26:56.
