data_PCOD8014062
_publ_section_title
;
Structure prediction by ZEFSAII (Michael W. Deem and Ramdas Pophale) SiO2 
 PCOD8014062
Probable space group: P -1
;
_chemical_formula_sum "Si O2"
_cell_formula_units_Z 16
_cell_length_a 20.982220
_cell_length_b 17.973082
_cell_length_c 11.844665
_cell_angle_alpha 142.169531
_cell_angle_beta 151.219482
_cell_angle_gamma 20.653001
_cell_volume 746.337282
_symmetry_space_group_name_H-M "P -1"
_symmetry_group_IT_number 2
_symmetry_cell_setting 'triclinic'
loop_
_space_group_symop_operation_xyz
x,y,z
-x,-y,-z
loop_
_atom_site_type_symbol
_atom_site_label
_atom_site_fract_x
_atom_site_fract_y
_atom_site_fract_z
Si Si1 0.369225 0.332067 0.661002
Si Si2 0.430583 0.920331 0.750439
Si Si3 0.885595 0.209066 0.742108
Si Si4 0.014569 0.790254 0.721991
Si Si5 0.190043 0.903230 0.043463
Si Si6 0.486998 0.328453 0.221895
Si Si7 0.239133 0.301769 0.200796
Si Si8 0.664408 0.030576 0.954314
O O1 0.190442 0.544274 0.715157
O O2 0.547774 0.289095 0.826572
O O3 0.226712 0.371548 0.388754
O O4 0.520447 0.124759 0.725728
O O5 0.492965 0.768377 0.752237
O O6 0.562484 0.791835 0.683748
O O7 0.154326 0.119139 0.535300
O O8 0.500000 0.000000 0.000000
O O9 0.688762 0.276872 0.458832
O O10 0.766150 0.417407 0.862355
O O11 0.003797 0.037648 0.815072
O O12 0.079544 0.105450 0.829402
O O13 0.168728 0.794357 0.947082
O O14 0.862337 0.935391 0.770867
O O15 0.498770 0.240887 0.023197
O O16 0.299964 0.116512 0.094789
O O17 0.000000 0.500000 0.000000
#
# Coordination Sequence:
#
# PCOD8014062 Si02
#       8
#     2   2   2   2   2   2   2   2
#     4  11  24  42  66  97 129 173 219 268 335 391
#     4  12  23  42  66  94 133 173 221 273 324 386
#     4  10  22  39  65  96 128 172 216 275 327 391
#     4  11  22  40  64  95 129 174 215 273 325 391
#     4  10  21  41  64  95 133 168 219 273 328 389
#     4  11  22  41  64  97 131 171 221 269 333 386
#     4  12  25  44  67  96 131 175 224 273 326 397
#     4  11  24  44  64  93 135 172 217 270 330 392
#
# _framework density 21.438030000000001
#
# number of rings (size 3 to 8) (size 9 to 14) (size 15 to 20)
#    0.000    1.000    3.750    3.375    0.000    0.000 
#    0.000    1.875    0.000    0.000    0.000    0.000 
#    0.000    0.000    0.000    0.000    0.000    0.000 
#
# Total GULP energy -198392.308737 kJ/mol
# GULP energy per Si atom -12399.519296 kJ/mol
# Density = 2.138924 g / cm^3
# Si number density = 21.438030 Si / 1000 Ang^3
#
#
#
# Elastic Constant Matrix: (Units=GPa)
#
#
# Indices 1 2 3 4 5 6 
#
# 1 86.1780 24.2536 23.4273 -5.9627 1.5505 -8.1394
# 2 24.2536 104.4390 26.8563 3.8716 1.2531 -4.2263
# 3 23.4273 26.8563 82.6326 -0.0741 -7.9605 9.2363
# 4 -5.9627 3.8716 -0.0741 31.0716 -1.0800 -10.5896
# 5 1.5505 1.2531 -7.9605 -1.0800 27.5770 2.9592
# 6 -8.1394 -4.2263 9.2363 -10.5896 2.9592 24.7310
#
#
#
# Elastic Compliance Matrix: (Units=1/GPa)
#
#
# Indices 1 2 3 4 5 6 
#
# 1 0.014862 -0.002011 -0.004882 0.006182 -0.002917 0.009367
# 2 -0.002011 0.011079 -0.003445 -0.001061 -0.001669 0.002264
# 3 -0.004882 -0.003445 0.016395 -0.003912 0.006162 -0.010731
# 4 0.006182 -0.001061 -0.003912 0.040553 -0.002086 0.020928
# 5 -0.002917 -0.001669 0.006162 -0.002086 0.039179 -0.009128
# 6 0.009367 0.002264 -0.010731 0.020928 -0.009128 0.057966
#
#
# Mechanical properties :
#
#
# Convention : Reuss Voigt Hill
#
# Bulk Modulus (GPa) = 46.17076 46.92489 46.54783
# Shear Modulus (GPa) = 24.04635 29.92341 26.98488
#
# Velocity S-wave (km/s) = 3.35276 3.74011 3.55172
# Velocity P-wave (km/s) = 6.04745 6.37082 6.21124
#
# Compressibility (1/GPa) = 0.02165873
#
# Stress axis : x y z
#
# Youngs Moduli (GPa) = 67.28525 90.26153 60.99270
#
# Poissons Ratio (x) = 0.18151 0.29780
# Poissons Ratio (y) = 0.13531 0.21014
# Poissons Ratio (z) = 0.32852 0.31099
#
# Static dielectric constant tensor:
#      x y z
#    x 3.857890 -0.090320 -0.012650 
#    y -0.090320 3.895100 -0.012420 
#    z -0.012650 -0.012420 3.793960 
# 
# 
# High freq. dielectric constant tensor:
#      x y z
#    x 1.842950 -0.005020 -0.003150 
#    y -0.005020 1.846500 -0.005850 
#    z -0.003150 -0.005850 1.839840 
# 
# From -- ./inp_files/272640.got.cif
#   From: 2010.06.25/outbox.cif.g09.slc.cpg/sg2_137_cif.got.tgz:272640.got - 2010.06.27 13:26:56.
