data_PCOD8014273
_publ_section_title
;
Structure prediction by ZEFSAII (Michael W. Deem and Ramdas Pophale) SiO2 
 PCOD8014273
Probable space group: P -1
;
_chemical_formula_sum "Si O2"
_cell_formula_units_Z 14
_cell_length_a 10.931266
_cell_length_b 8.910033
_cell_length_c 8.438547
_cell_angle_alpha 49.056905
_cell_angle_beta 73.928274
_cell_angle_gamma 76.812075
_cell_volume 595.326695
_symmetry_space_group_name_H-M "P -1"
_symmetry_group_IT_number 2
_symmetry_cell_setting 'triclinic'
loop_
_space_group_symop_operation_xyz
x,y,z
-x,-y,-z
loop_
_atom_site_type_symbol
_atom_site_label
_atom_site_fract_x
_atom_site_fract_y
_atom_site_fract_z
Si Si1 0.286301 0.753557 0.592091
Si Si2 0.743090 0.133082 0.118626
Si Si3 0.966372 0.149858 0.551272
Si Si4 0.905467 0.476174 0.810976
Si Si5 0.722172 0.648172 0.999542
Si Si6 0.533132 0.939036 0.707985
Si Si7 0.877400 0.860338 0.025962
O O1 0.243601 0.866879 0.694667
O O2 0.168821 0.739332 0.524713
O O3 0.395367 0.871927 0.381599
O O4 0.345229 0.531374 0.764991
O O5 0.598676 0.108638 0.126584
O O6 0.793037 0.339363 0.882558
O O7 0.829814 0.943699 0.155036
O O8 0.067182 0.319255 0.432509
O O9 0.958246 0.029650 0.800129
O O10 0.000000 0.000000 0.500000
O O11 0.857200 0.552974 0.948107
O O12 0.036909 0.343349 0.854192
O O13 0.629438 0.742384 0.830240
O O14 0.753773 0.820981 0.990917
O O15 0.500000 0.000000 0.500000
#
# Coordination Sequence:
#
# PCOD8014273 Si02
#       7
#     2   2   2   2   2   2   2
#     4  10  21  41  66  92 119 171 220 256 307 382
#     4  10  25  40  63  94 139 167 203 266 330 367
#     4  12  21  37  68  94 122 166 222 256 307 382
#     4  11  23  41  65  98 129 170 212 260 319 389
#     4  11  21  39  70  93 122 171 221 261 307 379
#     4  10  22  44  66  93 126 168 222 259 310 382
#     4  12  23  41  64 100 134 164 207 271 324 372
#
# _framework density 23.516500000000001
#
# number of rings (size 3 to 8) (size 9 to 14) (size 15 to 20)
#    0.000    1.143    4.286    2.571    0.000    7.429 
#    0.000    7.857    0.000    0.000    0.000    0.000 
#    0.000    0.000    0.000    0.000    0.000    0.000 
#
# Total GULP energy -173451.393316 kJ/mol
# GULP energy per Si atom -12389.385237 kJ/mol
# Density = 2.346298 g / cm^3
# Si number density = 23.516500 Si / 1000 Ang^3
#
#
#
# Elastic Constant Matrix: (Units=GPa)
#
#
# Indices 1 2 3 4 5 6 
#
# 1 112.7860 39.5423 38.0157 -19.3252 -26.3316 3.7107
# 2 39.5423 99.0326 33.9783 -16.2551 -14.4909 0.7140
# 3 38.0157 33.9783 80.3213 -41.7201 -18.2373 -1.4444
# 4 -19.3252 -16.2551 -41.7201 39.6248 6.3141 -3.2562
# 5 -26.3316 -14.4909 -18.2373 6.3141 42.1266 -10.7312
# 6 3.7107 0.7140 -1.4444 -3.2562 -10.7312 22.0328
#
#
#
# Elastic Compliance Matrix: (Units=1/GPa)
#
#
# Indices 1 2 3 4 5 6 
#
# 1 0.012275 -0.002992 -0.002742 0.001056 0.005469 0.000670
# 2 -0.002992 0.012719 -0.004154 -0.000740 0.000849 0.000124
# 3 -0.002742 -0.004154 0.035880 0.034125 0.010630 0.013170
# 4 0.001056 -0.000740 0.034125 0.061084 0.010107 0.016034
# 5 0.005469 0.000849 0.010630 0.010107 0.035222 0.018397
# 6 0.000670 0.000124 0.013170 0.016034 0.018397 0.057464
#
#
# Mechanical properties :
#
#
# Convention : Reuss Voigt Hill
#
# Bulk Modulus (GPa) = 24.33121 57.24583 40.78852
# Shear Modulus (GPa) = 20.15151 32.79706 26.47428
#
# Velocity S-wave (km/s) = 2.93048 3.73854 3.35890
# Velocity P-wave (km/s) = 4.67110 6.55982 5.69431
#
# Compressibility (1/GPa) = 0.04109947
#
# Stress axis : x y z
#
# Youngs Moduli (GPa) = 81.46553 78.61984 27.87033
#
# Poissons Ratio (x) = 0.23522 0.07642
# Poissons Ratio (y) = 0.24373 0.11578
# Poissons Ratio (z) = 0.22336 0.32660
#
# Static dielectric constant tensor:
#      x y z
#    x 4.722660 0.172090 -0.478990 
#    y 0.172090 4.097750 -0.352320 
#    z -0.478990 -0.352320 4.283730 
# 
# 
# High freq. dielectric constant tensor:
#      x y z
#    x 1.931330 0.014220 -0.015020 
#    y 0.014220 1.907570 -0.031510 
#    z -0.015020 -0.031510 1.923320 
# 
# From -- ./inp_files/236622.got.cif
#   From: 2010.06.25/outbox.cif.g09.slc.cpg/sg2_119_cif.got.tgz:236622.got - 2010.06.27 13:26:56.
