data_PCOD8014523
_publ_section_title
;
Structure prediction by ZEFSAII (Michael W. Deem and Ramdas Pophale) SiO2 
 PCOD8014523
Probable space group: P -1
;
_chemical_formula_sum "Si O2"
_cell_formula_units_Z 16
_cell_length_a 19.107101
_cell_length_b 18.852016
_cell_length_c 8.489599
_cell_angle_alpha 137.688616
_cell_angle_beta 45.629695
_cell_angle_gamma 158.080658
_cell_volume 767.382640
_symmetry_space_group_name_H-M "P -1"
_symmetry_group_IT_number 2
_symmetry_cell_setting 'triclinic'
loop_
_space_group_symop_operation_xyz
x,y,z
-x,-y,-z
loop_
_atom_site_type_symbol
_atom_site_label
_atom_site_fract_x
_atom_site_fract_y
_atom_site_fract_z
Si Si1 0.521289 0.563476 0.313374
Si Si2 0.785108 0.838681 0.062862
Si Si3 0.854744 0.487987 0.868593
Si Si4 0.236006 0.788286 0.655834
Si Si5 0.783300 0.313945 0.002070
Si Si6 0.666794 0.922518 0.202785
Si Si7 0.407371 0.567915 0.807532
Si Si8 0.482830 0.898298 0.662423
O O1 0.683954 0.757726 0.260163
O O2 0.446100 0.582075 0.585037
O O3 0.616313 0.558755 0.259624
O O4 0.340161 0.357691 0.163379
O O5 0.800169 0.964108 0.153644
O O6 0.000000 0.000000 0.000000
O O7 0.808858 0.368055 0.599559
O O8 0.752837 0.361444 0.980465
O O9 0.080264 0.688234 0.860117
O O10 0.783237 0.541318 0.039712
O O11 0.429587 0.947332 0.708151
O O12 0.239695 0.878949 0.660568
O O13 0.673566 0.103612 0.793119
O O14 0.689823 0.283181 0.248462
O O15 0.000000 0.500000 0.000000
O O16 0.503185 0.805274 0.389556
O O17 0.585748 0.797655 0.966613
#
# Coordination Sequence:
#
# PCOD8014523 Si02
#       8
#     2   2   2   2   2   2   2   2
#     4   9  22  46  65  94 124 157 214 263 316 373
#     4  10  23  45  67  91 126 163 203 262 321 377
#     4  11  22  38  64  92 131 171 207 258 311 368
#     4  11  22  40  62  95 129 169 217 251 302 383
#     4  11  23  40  55  86 127 165 207 248 305 363
#     4  11  22  40  65  91 120 169 211 250 322 370
#     4  10  21  41  68  89 123 165 207 269 312 361
#     4  11  22  40  62  83 128 166 204 262 296 371
#
# _framework density 20.850093999999999
#
# number of rings (size 3 to 8) (size 9 to 14) (size 15 to 20)
#    0.000    1.500    3.750    1.125    3.500    0.000 
#    4.500    1.875    0.000    0.000    0.000    0.000 
#    0.000    0.000    0.000    0.000    0.000    0.000 
#
# Total GULP energy -198304.664124 kJ/mol
# GULP energy per Si atom -12394.041508 kJ/mol
# Density = 2.080264 g / cm^3
# Si number density = 20.850094 Si / 1000 Ang^3
#
#
#
# Elastic Constant Matrix: (Units=GPa)
#
#
# Indices 1 2 3 4 5 6 
#
# 1 95.7960 38.7504 50.2126 -15.4880 -7.1791 15.8885
# 2 38.7504 95.7615 42.3968 -15.7465 -2.6250 18.5950
# 3 50.2126 42.3968 135.6108 -23.0314 -1.5985 5.0635
# 4 -15.4880 -15.7465 -23.0314 26.3308 -1.9451 0.5388
# 5 -7.1791 -2.6250 -1.5985 -1.9451 37.5274 -7.1067
# 6 15.8885 18.5950 5.0635 0.5388 -7.1067 32.6318
#
#
#
# Elastic Compliance Matrix: (Units=1/GPa)
#
#
# Indices 1 2 3 4 5 6 
#
# 1 0.015197 -0.002758 -0.003854 0.004154 0.001838 -0.004898
# 2 -0.002758 0.014844 -0.002489 0.005172 -0.000644 -0.006955
# 3 -0.003854 -0.002489 0.010427 0.005341 0.000115 0.001614
# 4 0.004154 0.005172 0.005341 0.048513 0.002763 -0.005998
# 5 0.001838 -0.000644 0.000115 0.002763 0.028151 0.005540
# 6 -0.004898 -0.006955 0.001614 -0.005998 0.005540 0.038048
#
#
# Mechanical properties :
#
#
# Convention : Reuss Voigt Hill
#
# Bulk Modulus (GPa) = 44.91443 65.54308 55.22875
# Shear Modulus (GPa) = 27.65402 32.35189 30.00295
#
# Velocity S-wave (km/s) = 3.64583 3.94336 3.79751
# Velocity P-wave (km/s) = 6.26986 7.22752 6.76566
#
# Compressibility (1/GPa) = 0.02226456
#
# Stress axis : x y z
#
# Youngs Moduli (GPa) = 65.80397 67.36641 95.90030
#
# Poissons Ratio (x) = 0.18583 0.36965
# Poissons Ratio (y) = 0.18152 0.23869
# Poissons Ratio (z) = 0.25364 0.16767
#
# Static dielectric constant tensor:
#      x y z
#    x 3.917600 -0.007840 0.129620 
#    y -0.007840 3.623430 -0.215010 
#    z 0.129620 -0.215010 3.895940 
# 
# 
# High freq. dielectric constant tensor:
#      x y z
#    x 1.822270 0.002200 0.010440 
#    y 0.002200 1.799880 -0.017900 
#    z 0.010440 -0.017900 1.818280 
# 
# From -- ./inp_files/312647.got.cif
#   From: 2010.06.25/outbox.cif.g09.slc.cpg/sg2_157_cif.got.tgz:312647.got - 2010.06.27 13:26:56.
