data_PCOD8014017
_publ_section_title
;
Structure prediction by ZEFSAII (Michael W. Deem and Ramdas Pophale) SiO2 
 PCOD8014017
Probable space group: P -1
;
_chemical_formula_sum "Si O2"
_cell_formula_units_Z 16
_cell_length_a 28.598700
_cell_length_b 11.955998
_cell_length_c 6.721988
_cell_angle_alpha 139.339875
_cell_angle_beta 51.406173
_cell_angle_gamma 151.489129
_cell_volume 708.035413
_symmetry_space_group_name_H-M "P -1"
_symmetry_group_IT_number 2
_symmetry_cell_setting 'triclinic'
loop_
_space_group_symop_operation_xyz
x,y,z
-x,-y,-z
loop_
_atom_site_type_symbol
_atom_site_label
_atom_site_fract_x
_atom_site_fract_y
_atom_site_fract_z
Si Si1 0.147253 0.059111 0.468986
Si Si2 0.638223 0.196531 0.745393
Si Si3 0.050851 0.275970 0.343153
Si Si4 0.550253 0.447800 0.705067
Si Si5 0.689250 0.694958 0.343160
Si Si6 0.220713 0.673680 0.702317
Si Si7 0.786677 0.405767 0.945989
Si Si8 0.731848 0.871345 0.032947
O O1 0.211024 0.113334 0.541927
O O2 0.165209 0.302171 0.729955
O O3 0.173867 0.030579 0.148250
O O4 0.031633 0.769101 0.445530
O O5 0.707003 0.317822 0.534196
O O6 0.528248 0.879000 0.572874
O O7 0.633238 0.388657 0.037525
O O8 0.685104 0.209082 0.831758
O O9 0.108760 0.366215 0.518039
O O10 0.137272 0.534426 0.309525
O O11 0.000000 0.000000 0.000000
O O12 0.611201 0.632347 0.589922
O O13 0.500000 0.500000 0.000000
O O14 0.629938 0.552939 0.792259
O O15 0.722156 0.870175 0.293940
O O16 0.229437 0.734148 0.995333
O O17 0.260037 0.926201 0.817619
#
# Coordination Sequence:
#
# PCOD8014017 Si02
#       8
#     2   2   2   2   2   2   2   2
#     4   9  20  39  60  88 122 155 205 253 304 358
#     4  10  21  41  64  92 120 163 210 249 303 360
#     4   9  20  37  60  91 121 159 207 252 302 364
#     4  11  23  42  61  94 125 156 205 255 310 366
#     4  10  23  41  65  86 126 162 204 252 301 368
#     4  11  22  38  60  92 126 159 207 252 302 365
#     4   9  20  38  63  89 120 161 206 255 298 356
#     4  11  24  40  58  91 125 163 199 251 313 360
#
# _framework density 22.597740000000002
#
# number of rings (size 3 to 8) (size 9 to 14) (size 15 to 20)
#    0.000    2.000    1.250    1.875    0.000    9.500 
#    0.000    1.250    0.000    0.000    0.000    0.000 
#    0.000    0.000    0.000    0.000    0.000    0.000 
#
# Total GULP energy -198324.135401 kJ/mol
# GULP energy per Si atom -12395.258463 kJ/mol
# Density = 2.254631 g / cm^3
# Si number density = 22.597740 Si / 1000 Ang^3
#
#
#
# Elastic Constant Matrix: (Units=GPa)
#
#
# Indices 1 2 3 4 5 6 
#
# 1 70.8415 56.2728 21.8963 -24.7701 8.4955 -2.8560
# 2 56.2728 113.0777 44.9992 -27.9079 10.1804 15.7200
# 3 21.8963 44.9992 79.2731 -40.9236 11.7928 7.2235
# 4 -24.7701 -27.9079 -40.9236 57.2200 4.0722 0.3766
# 5 8.4955 10.1804 11.7928 4.0722 41.1670 -8.3009
# 6 -2.8560 15.7200 7.2235 0.3766 -8.3009 39.2280
#
#
#
# Elastic Compliance Matrix: (Units=1/GPa)
#
#
# Indices 1 2 3 4 5 6 
#
# 1 0.027324 -0.013882 0.004727 0.008629 -0.003220 0.005918
# 2 -0.013882 0.019387 -0.006985 -0.001401 -0.001356 -0.007767
# 3 0.004727 -0.006985 0.026454 0.018255 -0.009418 -0.003896
# 4 0.008629 -0.001401 0.018255 0.034402 -0.011042 -0.004839
# 5 -0.003220 -0.001356 -0.009418 -0.011042 0.030830 0.008673
# 6 0.005918 -0.007767 -0.003896 -0.004839 0.008673 0.031635
#
#
# Mechanical properties :
#
#
# Convention : Reuss Voigt Hill
#
# Bulk Modulus (GPa) = 24.45831 56.61433 40.53632
# Shear Modulus (GPa) = 23.15464 36.85793 30.00628
#
# Velocity S-wave (km/s) = 3.20448 4.04300 3.64791
# Velocity P-wave (km/s) = 4.95363 6.84850 5.97664
#
# Compressibility (1/GPa) = 0.04088590
#
# Stress axis : x y z
#
# Youngs Moduli (GPa) = 36.59822 51.58003 37.80169
#
# Poissons Ratio (x) = 0.71603 -0.17869
# Poissons Ratio (y) = 0.50805 0.26403
# Poissons Ratio (z) = -0.17300 0.36027
#
# Static dielectric constant tensor:
#      x y z
#    x 3.724930 0.353500 0.112380 
#    y 0.353500 4.381020 -0.139720 
#    z 0.112380 -0.139720 4.525690 
# 
# 
# High freq. dielectric constant tensor:
#      x y z
#    x 1.855340 0.017620 0.002030 
#    y 0.017620 1.893460 -0.006190 
#    z 0.002030 -0.006190 1.915040 
# 
# From -- ./inp_files/98199.got.cif
#   From: 2010.06.25/outbox.cif.g09.slc.cpg/sg2_50_cif.got.tgz:98199.got - 2010.06.27 13:26:56.
