data_PCOD8014767
_publ_section_title
;
Structure prediction by ZEFSAII (Michael W. Deem and Ramdas Pophale) SiO2 
 PCOD8014767
Probable space group: P -1
;
_chemical_formula_sum "Si O2"
_cell_formula_units_Z 16
_cell_length_a 11.049095
_cell_length_b 19.718901
_cell_length_c 8.142771
_cell_angle_alpha 82.097489
_cell_angle_beta 125.725368
_cell_angle_gamma 141.064536
_cell_volume 709.625635
_symmetry_space_group_name_H-M "P -1"
_symmetry_group_IT_number 2
_symmetry_cell_setting 'triclinic'
loop_
_space_group_symop_operation_xyz
x,y,z
-x,-y,-z
loop_
_atom_site_type_symbol
_atom_site_label
_atom_site_fract_x
_atom_site_fract_y
_atom_site_fract_z
Si Si1 0.766396 0.651000 0.229838
Si Si2 0.861898 0.013557 0.312904
Si Si3 0.695929 0.468130 0.898871
Si Si4 0.368522 0.280858 0.412021
Si Si5 0.926441 0.709820 0.982368
Si Si6 0.189995 0.620639 0.483669
Si Si7 0.324073 0.808899 0.719053
Si Si8 0.525242 0.986615 0.212281
O O1 0.611956 0.654338 0.195331
O O2 0.972457 0.690117 0.511789
O O3 0.500000 0.500000 0.000000
O O4 0.957086 0.745435 0.185831
O O5 0.814206 0.050039 0.412006
O O6 0.526913 0.867718 0.016937
O O7 0.000000 0.000000 0.500000
O O8 0.079707 0.126008 0.304055
O O9 0.628160 0.393107 0.715668
O O10 0.770771 0.575327 0.873632
O O11 0.975418 0.547131 0.185326
O O12 0.272493 0.316691 0.266158
O O13 0.510506 0.298003 0.364714
O O14 0.254436 0.835990 0.121515
O O15 0.313261 0.741712 0.608026
O O16 0.000000 0.500000 0.500000
O O17 0.440976 0.927839 0.690954
O O18 0.500000 0.000000 0.000000
#
# Coordination Sequence:
#
# PCOD8014767 Si02
#       8
#     2   2   2   2   2   2   2   2
#     4  10  21  41  72 104 137 174 241 292 355 414
#     4  11  27  47  72 109 147 192 235 294 364 431
#     4  11  25  46  72 106 143 185 243 304 352 432
#     4  12  26  46  69 107 143 191 244 290 364 427
#     4  11  22  44  71 107 137 185 246 294 352 430
#     4  12  28  47  69 106 149 191 236 298 374 417
#     4  11  23  48  71 101 147 189 239 300 342 434
#     4  10  22  45  71 104 140 185 246 284 350 424
#
# _framework density 22.547098999999999
#
# number of rings (size 3 to 8) (size 9 to 14) (size 15 to 20)
#    0.000    1.000    5.000    2.250    7.000    3.000 
#    2.250    0.000    0.000    0.000    0.000    0.000 
#    0.000    0.000    0.000    0.000    0.000    0.000 
#
# Total GULP energy -198209.724994 kJ/mol
# GULP energy per Si atom -12388.107812 kJ/mol
# Density = 2.249578 g / cm^3
# Si number density = 22.547099 Si / 1000 Ang^3
#
#
#
# Elastic Constant Matrix: (Units=GPa)
#
#
# Indices 1 2 3 4 5 6 
#
# 1 121.3778 50.8878 7.6829 8.9982 16.2264 6.3252
# 2 50.8878 106.8337 33.4882 3.4857 6.7055 10.8584
# 3 7.6829 33.4882 125.8331 -0.2857 15.3953 -8.3316
# 4 8.9982 3.4857 -0.2857 34.4279 -5.2697 7.3333
# 5 16.2264 6.7055 15.3953 -5.2697 39.6359 3.1052
# 6 6.3252 10.8584 -8.3316 7.3333 3.1052 43.1574
#
#
#
# Elastic Compliance Matrix: (Units=1/GPa)
#
#
# Indices 1 2 3 4 5 6 
#
# 1 0.011290 -0.005506 0.001409 -0.003301 -0.004748 0.000905
# 2 -0.005506 0.013347 -0.003677 0.001104 0.001852 -0.003582
# 3 0.001409 -0.003677 0.009535 -0.001188 -0.004056 0.003053
# 4 -0.003301 0.001104 -0.001188 0.032020 0.006347 -0.005921
# 5 -0.004748 0.001852 -0.004056 0.006347 0.029574 -0.003759
# 6 0.000905 -0.003582 0.003053 -0.005921 -0.003759 0.025805
#
#
# Mechanical properties :
#
#
# Convention : Reuss Voigt Hill
#
# Bulk Modulus (GPa) = 53.69056 59.79584 56.74320
# Shear Modulus (GPa) = 34.88500 40.90996 37.89748
#
# Velocity S-wave (km/s) = 3.93772 4.26422 4.10422
# Velocity P-wave (km/s) = 6.67372 7.12901 6.90512
#
# Compressibility (1/GPa) = 0.01862525
#
# Stress axis : x y z
#
# Youngs Moduli (GPa) = 88.57287 74.92079 104.87390
#
# Poissons Ratio (x) = 0.41250 -0.14779
# Poissons Ratio (y) = 0.48767 0.38564
# Poissons Ratio (z) = -0.12482 0.27550
#
# Static dielectric constant tensor:
#      x y z
#    x 1.596320 1.336260 -1.145370 
#    y 1.336260 3.754960 0.491500 
#    z -1.145370 0.491500 3.909810 
# 
# 
# High freq. dielectric constant tensor:
#      x y z
#    x 1.896770 -0.004510 0.010830 
#    y -0.004510 1.874810 0.010420 
#    z 0.010830 0.010420 1.898360 
# 
# From -- ./inp_files/281937.got.cif
#   From: 2010.06.25/outbox.cif.g09.slc.cpg/sg2_141_cif.got.tgz:281937.got - 2010.06.27 13:26:56.
