data_PCOD8014112
_publ_section_title
;
Structure prediction by ZEFSAII (Michael W. Deem and Ramdas Pophale) SiO2 
 PCOD8014112
Probable space group: P -1
;
_chemical_formula_sum "Si O2"
_cell_formula_units_Z 16
_cell_length_a 7.917532
_cell_length_b 23.822661
_cell_length_c 8.914041
_cell_angle_alpha 31.499690
_cell_angle_beta 128.131489
_cell_angle_gamma 125.186269
_cell_volume 685.932552
_symmetry_space_group_name_H-M "P -1"
_symmetry_group_IT_number 2
_symmetry_cell_setting 'triclinic'
loop_
_space_group_symop_operation_xyz
x,y,z
-x,-y,-z
loop_
_atom_site_type_symbol
_atom_site_label
_atom_site_fract_x
_atom_site_fract_y
_atom_site_fract_z
Si Si1 0.235327 0.976051 0.643071
Si Si2 0.652749 0.595233 0.182146
Si Si3 0.102298 0.632297 0.445801
Si Si4 0.729430 0.691906 0.704005
Si Si5 0.767592 0.515259 0.907146
Si Si6 0.658266 0.178187 0.720522
Si Si7 0.179526 0.764920 0.900024
Si Si8 0.494264 0.805597 0.719443
O O1 0.238972 0.881483 0.740591
O O2 0.367089 0.084226 0.401952
O O3 0.344390 0.940384 0.938579
O O4 0.000000 0.000000 0.500000
O O5 0.421945 0.519235 0.243399
O O6 0.858759 0.565253 0.460104
O O7 0.707348 0.595203 0.035444
O O8 0.646351 0.719731 0.940900
O O9 0.116867 0.747136 0.281371
O O10 0.260552 0.561796 0.784401
O O11 0.180836 0.663378 0.247598
O O12 0.746731 0.637026 0.673668
O O13 0.534860 0.764730 0.438093
O O14 0.950472 0.768102 0.686130
O O15 0.000000 0.500000 0.000000
O O16 0.652904 0.167666 0.563009
O O17 0.355644 0.749184 0.906938
#
# Coordination Sequence:
#
# PCOD8014112 Si02
#       8
#     2   2   2   2   2   2   2   2
#     4  11  22  41  66  95 132 175 218 265 334 399
#     4  10  22  41  65  96 132 174 217 268 330 390
#     4  10  22  43  63  92 134 175 219 259 342 376
#     4  10  21  41  65  88 133 174 216 267 331 387
#     4  12  24  42  67  98 133 172 226 277 320 394
#     4  10  21  41  67  93 128 180 215 262 336 392
#     4  10  23  40  63  97 133 170 217 277 322 390
#     4  11  20  40  67  96 137 166 223 275 319 390
#
# _framework density 23.325908999999999
#
# number of rings (size 3 to 8) (size 9 to 14) (size 15 to 20)
#    0.000    1.500    2.500    4.875    0.000    2.500 
#    6.750    5.000    0.000    0.750    0.000    0.000 
#    0.000    0.000    0.000    0.000    0.000    0.000 
#
# Total GULP energy -198294.699054 kJ/mol
# GULP energy per Si atom -12393.418691 kJ/mol
# Density = 2.327282 g / cm^3
# Si number density = 23.325909 Si / 1000 Ang^3
#
#
#
# Elastic Constant Matrix: (Units=GPa)
#
#
# Indices 1 2 3 4 5 6 
#
# 1 93.4638 35.1931 12.4918 2.1764 -10.9872 3.8187
# 2 35.1931 129.6237 11.4229 8.3112 -2.7870 17.5495
# 3 12.4918 11.4229 57.2644 8.5498 -3.7986 -0.3153
# 4 2.1764 8.3112 8.5498 24.7510 8.9003 9.4305
# 5 -10.9872 -2.7870 -3.7986 8.9003 23.3135 -2.9156
# 6 3.8187 17.5495 -0.3153 9.4305 -2.9156 39.7848
#
#
#
# Elastic Compliance Matrix: (Units=1/GPa)
#
#
# Indices 1 2 3 4 5 6 
#
# 1 0.012877 -0.003249 -0.001366 -0.002383 0.006521 0.001229
# 2 -0.003249 0.009218 -0.001085 -0.000775 -0.000765 -0.003635
# 3 -0.001366 -0.001085 0.019995 -0.010316 0.006888 0.003718
# 4 -0.002383 -0.000775 -0.010316 0.060576 -0.028013 -0.015923
# 5 0.006521 -0.000765 0.006888 -0.028013 0.059035 0.010733
# 6 0.001229 -0.003635 0.003718 -0.015923 0.010733 0.031211
#
#
# Mechanical properties :
#
#
# Convention : Reuss Voigt Hill
#
# Bulk Modulus (GPa) = 32.58434 44.28527 38.43481
# Shear Modulus (GPa) = 23.30551 32.31947 27.81249
#
# Velocity S-wave (km/s) = 3.16432 3.72635 3.45678
# Velocity P-wave (km/s) = 5.22973 6.12706 5.69609
#
# Compressibility (1/GPa) = 0.03068959
#
# Stress axis : x y z
#
# Youngs Moduli (GPa) = 77.65647 108.48548 50.01297
#
# Poissons Ratio (x) = 0.35250 0.06831
# Poissons Ratio (y) = 0.25233 0.05427
# Poissons Ratio (z) = 0.10606 0.11771
#
# Static dielectric constant tensor:
#      x y z
#    x 3.978000 -0.000850 -0.017850 
#    y -0.000850 4.967270 -0.005960 
#    z -0.017850 -0.005960 4.094930 
# 
# 
# High freq. dielectric constant tensor:
#      x y z
#    x 1.905730 0.006620 0.004360 
#    y 0.006620 1.945200 0.006310 
#    z 0.004360 0.006310 1.901300 
# 
# From -- ./inp_files/225874.got.cif
#   From: 2010.06.25/outbox.cif.g09.slc.cpg/sg2_113_cif.got.tgz:225874.got - 2010.06.27 13:26:56.
