data_PCOD8014541
_publ_section_title
;
Structure prediction by ZEFSAII (Michael W. Deem and Ramdas Pophale) SiO2 
 PCOD8014541
Probable space group: P -1
;
_chemical_formula_sum "Si O2"
_cell_formula_units_Z 16
_cell_length_a 11.768618
_cell_length_b 8.168188
_cell_length_c 15.023216
_cell_angle_alpha 51.366935
_cell_angle_beta 44.508690
_cell_angle_gamma 47.642221
_cell_volume 718.678886
_symmetry_space_group_name_H-M "P -1"
_symmetry_group_IT_number 2
_symmetry_cell_setting 'triclinic'
loop_
_space_group_symop_operation_xyz
x,y,z
-x,-y,-z
loop_
_atom_site_type_symbol
_atom_site_label
_atom_site_fract_x
_atom_site_fract_y
_atom_site_fract_z
Si Si1 0.354576 0.939039 0.261516
Si Si2 0.092292 0.164695 0.476451
Si Si3 0.346621 0.955677 0.873501
Si Si4 0.847934 0.249669 0.829045
Si Si5 0.903100 0.610767 0.230620
Si Si6 0.707837 0.475758 0.525358
Si Si7 0.940246 0.888296 0.756206
Si Si8 0.644838 0.669677 0.670579
O O1 0.377533 0.707247 0.380589
O O2 0.197211 0.145773 0.331881
O O3 0.539850 0.963122 0.148463
O O4 0.271033 0.967933 0.199614
O O5 0.210557 0.223177 0.462673
O O6 0.898158 0.365347 0.506371
O O7 0.069395 0.933909 0.596165
O O8 0.466023 0.840521 0.760658
O O9 0.170577 0.174605 0.867775
O O10 0.289025 0.774204 0.015444
O O11 0.737814 0.431300 0.753918
O O12 0.973489 0.343768 0.780009
O O13 0.957772 0.998153 0.804675
O O14 0.732302 0.593633 0.381017
O O15 0.004739 0.386188 0.186450
O O16 0.581803 0.645667 0.613962
#
# Coordination Sequence:
#
# PCOD8014541 Si02
#       8
#     2   2   2   2   2   2   2   2
#     4  10  19  39  62  95 123 157 210 267 318 360
#     4  10  16  34  64  98 121 149 210 274 319 356
#     4  11  28  43  56  93 139 176 202 250 323 390
#     4  12  24  45  68  90 123 178 225 254 300 373
#     4  12  24  44  66  94 133 166 208 265 319 387
#     4  11  18  35  68  96 119 155 209 268 323 361
#     4  11  21  39  72  98 116 165 220 271 311 365
#     4  11  21  39  66  95 125 162 215 274 310 360
#
# _framework density 22.263074
#
# number of rings (size 3 to 8) (size 9 to 14) (size 15 to 20)
#    0.000    1.000    6.250    3.375    0.000    2.000 
#    4.500    0.000    0.000    0.000    0.000    0.000 
#    0.000    0.000    0.000    0.000    0.000    0.000 
#
# Total GULP energy -198289.879423 kJ/mol
# GULP energy per Si atom -12393.117464 kJ/mol
# Density = 2.221240 g / cm^3
# Si number density = 22.263074 Si / 1000 Ang^3
#
#
#
# Elastic Constant Matrix: (Units=GPa)
#
#
# Indices 1 2 3 4 5 6 
#
# 1 47.9169 38.0565 13.7351 -5.3357 -7.6402 16.1128
# 2 38.0565 84.0814 7.5050 -3.7124 -1.9837 21.6699
# 3 13.7351 7.5050 64.2769 -15.1052 -14.8070 0.3033
# 4 -5.3357 -3.7124 -15.1052 25.3585 5.9649 1.2292
# 5 -7.6402 -1.9837 -14.8070 5.9649 22.5964 -3.2351
# 6 16.1128 21.6699 0.3033 1.2292 -3.2351 31.2147
#
#
#
# Elastic Compliance Matrix: (Units=1/GPa)
#
#
# Indices 1 2 3 4 5 6 
#
# 1 0.037623 -0.014076 -0.004278 0.002136 0.006832 -0.008983
# 2 -0.014076 0.020069 0.000010 0.001359 -0.004377 -0.007174
# 3 -0.004278 0.000010 0.020949 0.009029 0.010286 0.002709
# 4 0.002136 0.001359 0.009029 0.047183 -0.006363 -0.004651
# 5 0.006832 -0.004377 0.010286 -0.006363 0.055374 0.005402
# 6 -0.008983 -0.007174 0.002709 -0.004651 0.005402 0.042370
#
#
# Mechanical properties :
#
#
# Convention : Reuss Voigt Hill
#
# Bulk Modulus (GPa) = 23.83638 34.98537 29.41087
# Shear Modulus (GPa) = 18.23201 24.96584 21.59892
#
# Velocity S-wave (km/s) = 2.86481 3.35237 3.11813
# Velocity P-wave (km/s) = 4.65540 5.54375 5.11888
#
# Compressibility (1/GPa) = 0.04195268
#
# Stress axis : x y z
#
# Youngs Moduli (GPa) = 26.57920 49.82791 47.73406
#
# Poissons Ratio (x) = 0.70139 0.20420
# Poissons Ratio (y) = 0.37414 -0.00046
# Poissons Ratio (z) = 0.11370 -0.00048
#
# Static dielectric constant tensor:
#      x y z
#    x 3.918340 0.391530 -0.109050 
#    y 0.391530 3.912070 -0.093170 
#    z -0.109050 -0.093170 3.936440 
# 
# 
# High freq. dielectric constant tensor:
#      x y z
#    x 1.858880 0.032570 -0.009550 
#    y 0.032570 1.869210 -0.006160 
#    z -0.009550 -0.006160 1.864890 
# 
# From -- ./inp_files/258273.got.cif
#   From: 2010.06.25/outbox.cif.g09.slc.cpg/sg2_130_cif.got.tgz:258273.got - 2010.06.27 13:26:56.
