data_PCOD8014661
_publ_section_title
;
Structure prediction by ZEFSAII (Michael W. Deem and Ramdas Pophale) SiO2 
 PCOD8014661
Probable space group: P -1
;
_chemical_formula_sum "Si O2"
_cell_formula_units_Z 16
_cell_length_a 9.134486
_cell_length_b 19.627082
_cell_length_c 11.704293
_cell_angle_alpha 44.510318
_cell_angle_beta 40.342434
_cell_angle_gamma 75.801279
_cell_volume 717.756512
_symmetry_space_group_name_H-M "P -1"
_symmetry_group_IT_number 2
_symmetry_cell_setting 'triclinic'
loop_
_space_group_symop_operation_xyz
x,y,z
-x,-y,-z
loop_
_atom_site_type_symbol
_atom_site_label
_atom_site_fract_x
_atom_site_fract_y
_atom_site_fract_z
Si Si1 0.799666 0.786563 0.579406
Si Si2 0.763805 0.112537 0.373088
Si Si3 0.116500 0.629286 0.223469
Si Si4 0.168265 0.261823 0.632026
Si Si5 0.290279 0.868395 0.354672
Si Si6 0.799963 0.991344 0.291030
Si Si7 0.756771 0.352706 0.280538
Si Si8 0.159879 0.384998 0.812221
O O1 0.793762 0.718561 0.550958
O O2 0.962483 0.780103 0.595514
O O3 0.968138 0.935193 0.266130
O O4 0.472791 0.726941 0.886616
O O5 0.711801 0.084632 0.572813
O O6 0.746977 0.008959 0.433723
O O7 0.517068 0.114690 0.459291
O O8 0.092844 0.252738 0.979908
O O9 0.000000 0.500000 0.500000
O O10 0.010527 0.693308 0.279547
O O11 0.944075 0.573193 0.273869
O O12 0.493897 0.345912 0.396092
O O13 0.986054 0.115838 0.952222
O O14 0.371675 0.773930 0.412460
O O15 0.500000 0.000000 0.000000
O O16 0.000000 0.500000 0.000000
O O17 0.933270 0.335086 0.109772
O O18 0.500000 0.500000 0.500000
#
# Coordination Sequence:
#
# PCOD8014661 Si02
#       8
#     2   2   2   2   2   2   2   2
#     4  12  25  44  70 108 148 181 231 302 359 435
#     4  10  21  41  70 101 137 186 245 284 348 438
#     4  12  27  44  69 106 140 190 239 293 365 412
#     4  12  24  46  75 102 139 188 241 294 359 433
#     4  11  25  45  68 105 152 187 235 302 373 419
#     4  11  20  42  75 101 134 181 241 291 353 427
#     4  11  25  44  72 103 139 192 250 291 350 442
#     4  11  22  45  68 101 143 188 241 293 349 434
#
# _framework density 22.291682000000002
#
# number of rings (size 3 to 8) (size 9 to 14) (size 15 to 20)
#    0.000    0.750    3.750    4.125    5.250    2.000 
#    0.000    1.250    0.000    0.000    0.000    0.000 
#    0.000    0.000    0.000    0.000    0.000    0.000 
#
# Total GULP energy -198235.763639 kJ/mol
# GULP energy per Si atom -12389.735227 kJ/mol
# Density = 2.224094 g / cm^3
# Si number density = 22.291682 Si / 1000 Ang^3
#
#
#
# Elastic Constant Matrix: (Units=GPa)
#
#
# Indices 1 2 3 4 5 6 
#
# 1 148.0712 47.1201 39.8278 1.6275 -5.8380 20.7396
# 2 47.1201 82.0319 38.8040 -2.7323 1.6155 2.3956
# 3 39.8278 38.8040 106.1523 -12.5184 -4.1414 7.4581
# 4 1.6275 -2.7323 -12.5184 42.2430 -4.4908 -0.6060
# 5 -5.8380 1.6155 -4.1414 -4.4908 41.9159 -3.6195
# 6 20.7396 2.3956 7.4581 -0.6060 -3.6195 34.7180
#
#
#
# Elastic Compliance Matrix: (Units=1/GPa)
#
#
# Indices 1 2 3 4 5 6 
#
# 1 0.009350 -0.004516 -0.001617 -0.001119 0.000777 -0.004865
# 2 -0.004516 0.016999 -0.004781 -0.000277 -0.001581 0.002382
# 3 -0.001617 -0.004781 0.012330 0.003546 0.001459 -0.001139
# 4 -0.001119 -0.000277 0.003546 0.025072 0.002949 0.000671
# 5 0.000777 -0.001581 0.001459 0.002949 0.024655 0.001954
# 6 -0.004865 0.002382 -0.001139 0.000671 0.001954 0.032005
#
#
# Mechanical properties :
#
#
# Convention : Reuss Voigt Hill
#
# Bulk Modulus (GPa) = 59.34817 65.30657 62.32737
# Shear Modulus (GPa) = 33.81673 37.80896 35.81284
#
# Velocity S-wave (km/s) = 3.89911 4.12284 4.01254
# Velocity P-wave (km/s) = 6.85215 7.21275 7.03476
#
# Compressibility (1/GPa) = 0.01684972
#
# Stress axis : x y z
#
# Youngs Moduli (GPa) = 106.95206 58.82852 81.10378
#
# Poissons Ratio (x) = 0.26569 0.13114
# Poissons Ratio (y) = 0.48303 0.38776
# Poissons Ratio (z) = 0.17293 0.28126
#
# Static dielectric constant tensor:
#      x y z
#    x 4.264250 0.012520 -0.027080 
#    y 0.012520 3.901580 -0.031000 
#    z -0.027080 -0.031000 4.003970 
# 
# 
# High freq. dielectric constant tensor:
#      x y z
#    x 1.883190 0.009030 -0.004310 
#    y 0.009030 1.877130 -0.007060 
#    z -0.004310 -0.007060 1.888510 
# 
# From -- ./inp_files/405371.got.cif
#   From: 2010.06.25/outbox.cif.g09.slc.cpg/sg2_203_cif.got.tgz:405371.got - 2010.06.27 13:26:56.
