data_PCOD8014308
_publ_section_title
;
Structure prediction by ZEFSAII (Michael W. Deem and Ramdas Pophale) SiO2 
 PCOD8014308
Probable space group: P -1
;
_chemical_formula_sum "Si O2"
_cell_formula_units_Z 16
_cell_length_a 15.069084
_cell_length_b 11.255345
_cell_length_c 15.692696
_cell_angle_alpha 138.936369
_cell_angle_beta 27.295934
_cell_angle_gamma 141.600464
_cell_volume 742.516523
_symmetry_space_group_name_H-M "P -1"
_symmetry_group_IT_number 2
_symmetry_cell_setting 'triclinic'
loop_
_space_group_symop_operation_xyz
x,y,z
-x,-y,-z
loop_
_atom_site_type_symbol
_atom_site_label
_atom_site_fract_x
_atom_site_fract_y
_atom_site_fract_z
Si Si1 0.336870 0.082347 0.722552
Si Si2 0.613039 0.709939 0.370291
Si Si3 0.935814 0.425240 0.740906
Si Si4 0.684243 0.643073 0.668799
Si Si5 0.204536 0.772483 0.799075
Si Si6 0.256280 0.939960 0.184054
Si Si7 0.019105 0.719824 0.102722
Si Si8 0.433335 0.472614 0.945179
O O1 0.250901 0.153448 0.749988
O O2 0.441564 0.269096 0.795544
O O3 0.500000 0.000000 0.500000
O O4 0.170298 0.914145 0.831413
O O5 0.495700 0.492840 0.314772
O O6 0.443538 0.784572 0.597476
O O7 0.782553 0.714869 0.298826
O O8 0.814321 0.201613 0.751181
O O9 0.130995 0.438429 0.522075
O O10 0.032875 0.556042 0.812409
O O11 0.794278 0.515891 0.859064
O O12 0.588732 0.643943 0.844714
O O13 0.781285 0.859311 0.662215
O O14 0.159778 0.834503 0.964393
O O15 0.129737 0.831935 0.151853
O O16 0.500000 0.000000 0.000000
O O17 0.000000 0.500000 0.000000
O O18 0.500000 0.500000 0.000000
#
# Coordination Sequence:
#
# PCOD8014308 Si02
#       8
#     2   2   2   2   2   2   2   2
#     4   9  20  41  68  93 124 168 213 264 327 382
#     4   9  21  43  65  92 126 161 211 265 317 379
#     4  11  23  44  67  92 130 173 218 261 330 391
#     4  10  22  44  67  93 130 175 211 265 326 390
#     4  10  21  41  66  95 122 164 208 270 321 371
#     4  12  24  44  65  91 130 177 215 263 326 391
#     4  12  24  39  61  95 127 160 218 266 312 379
#     4  11  24  42  66  96 135 171 215 268 327 390
#
# _framework density 21.548342000000002
#
# number of rings (size 3 to 8) (size 9 to 14) (size 15 to 20)
#    0.000    1.500    2.500    3.375    1.750    3.000 
#    9.000    0.000    0.000    0.000    0.000    0.000 
#    0.000    0.000    0.000    0.000    0.000    0.000 
#
# Total GULP energy -198344.045790 kJ/mol
# GULP energy per Si atom -12396.502862 kJ/mol
# Density = 2.149930 g / cm^3
# Si number density = 21.548342 Si / 1000 Ang^3
#
#
#
# Elastic Constant Matrix: (Units=GPa)
#
#
# Indices 1 2 3 4 5 6 
#
# 1 111.7377 26.3203 47.0906 -0.5537 -20.6087 20.0288
# 2 26.3203 103.8215 21.0442 4.0431 -10.4771 -7.0833
# 3 47.0906 21.0442 83.3038 3.1058 -16.0695 13.2896
# 4 -0.5537 4.0431 3.1058 36.9721 -1.2204 -2.2150
# 5 -20.6087 -10.4771 -16.0695 -1.2204 31.5845 -3.5243
# 6 20.0288 -7.0833 13.2896 -2.2150 -3.5243 29.7415
#
#
#
# Elastic Compliance Matrix: (Units=1/GPa)
#
#
# Indices 1 2 3 4 5 6 
#
# 1 0.013868 -0.002478 -0.005191 0.000656 0.004831 -0.006989
# 2 -0.002478 0.011216 -0.001933 -0.000725 0.001689 0.005350
# 3 -0.005191 -0.001933 0.016926 -0.001403 0.004066 -0.004150
# 4 0.000656 -0.000725 -0.001403 0.027408 0.000772 0.002145
# 5 0.004831 0.001689 0.004066 0.000772 0.037453 -0.000172
# 6 -0.006989 0.005350 -0.004150 0.002145 -0.000172 0.041597
#
#
# Mechanical properties :
#
#
# Convention : Reuss Voigt Hill
#
# Bulk Modulus (GPa) = 43.85055 54.19702 49.02379
# Shear Modulus (GPa) = 28.52678 33.28682 30.90680
#
# Velocity S-wave (km/s) = 3.64242 3.93460 3.79132
# Velocity P-wave (km/s) = 6.17120 6.77107 6.47808
#
# Compressibility (1/GPa) = 0.02280473
#
# Stress axis : x y z
#
# Youngs Moduli (GPa) = 72.10866 89.16079 59.08195
#
# Poissons Ratio (x) = 0.22097 0.30669
# Poissons Ratio (y) = 0.17871 0.11421
# Poissons Ratio (z) = 0.37431 0.17235
#
# Static dielectric constant tensor:
#      x y z
#    x 3.790940 -0.264200 -0.060950 
#    y -0.264200 4.354620 0.084750 
#    z -0.060950 0.084750 4.000580 
# 
# 
# High freq. dielectric constant tensor:
#      x y z
#    x 1.827180 -0.016260 -0.010320 
#    y -0.016260 1.850250 -0.002260 
#    z -0.010320 -0.002260 1.855870 
# 
# From -- ./inp_files/532019.got.cif
#   From: 2010.06.25/outbox.cif.g09.slc.cpg/sg2_267_cif.got.tgz:532019.got - 2010.06.27 13:26:56.
