data_PCOD8014827
_publ_section_title
;
Structure prediction by ZEFSAII (Michael W. Deem and Ramdas Pophale) SiO2 
 PCOD8014827
Probable space group: P -1
;
_chemical_formula_sum "Si O2"
_cell_formula_units_Z 12
_cell_length_a 8.774989
_cell_length_b 11.856275
_cell_length_c 14.252382
_cell_angle_alpha 135.546404
_cell_angle_beta 113.227505
_cell_angle_gamma 38.535818
_cell_volume 599.528854
_symmetry_space_group_name_H-M "P -1"
_symmetry_group_IT_number 2
_symmetry_cell_setting 'triclinic'
loop_
_space_group_symop_operation_xyz
x,y,z
-x,-y,-z
loop_
_atom_site_type_symbol
_atom_site_label
_atom_site_fract_x
_atom_site_fract_y
_atom_site_fract_z
Si Si1 0.934826 0.298049 0.375843
Si Si2 0.521126 0.078176 0.646205
Si Si3 0.118222 0.557705 0.938375
Si Si4 0.315641 0.224517 0.326826
Si Si5 0.850126 0.063571 0.096010
Si Si6 0.615060 0.766444 0.006829
O O1 0.732667 0.545496 0.544173
O O2 0.031959 0.349436 0.348040
O O3 0.794939 0.255455 0.265374
O O4 0.193852 0.047627 0.349549
O O5 0.284282 0.384474 0.782928
O O6 0.500000 0.000000 0.500000
O O7 0.486132 0.972165 0.657285
O O8 0.306059 0.399788 0.981770
O O9 0.026414 0.808961 0.049376
O O10 0.871177 0.623877 0.926513
O O11 0.452074 0.053709 0.164070
O O12 0.566531 0.204543 0.086346
O O13 0.000000 0.000000 0.000000
#
# Coordination Sequence:
#
# PCOD8014827 Si02
#       6
#     2   2   2   2   2   2
#     4   9  19  34  53  87 112 139 196 233 284 327
#     4   9  18  32  57  83 107 149 189 233 273 335
#     4  10  23  38  59  87 114 153 196 226 286 353
#     4   8  17  36  54  80 107 152 184 228 279 342
#     4  12  22  35  59  92 115 147 188 247 287 323
#     4  10  21  42  61  79 119 155 189 234 284 344
#
# _framework density 20.015718
#
# number of rings (size 3 to 8) (size 9 to 14) (size 15 to 20)
#    1.000    1.333    1.667    0.500    4.667    2.667 
#    0.000    0.833    0.000    3.000    0.000    0.000 
#    0.000    0.000    0.000    0.000    0.000    0.000 
#
# Total GULP energy -148684.891175 kJ/mol
# GULP energy per Si atom -12390.407598 kJ/mol
# Density = 1.997016 g / cm^3
# Si number density = 20.015718 Si / 1000 Ang^3
#
#
#
# Elastic Constant Matrix: (Units=GPa)
#
#
# Indices 1 2 3 4 5 6 
#
# 1 32.4741 30.3412 36.8138 -0.0989 11.9669 -6.1540
# 2 30.3412 83.6948 65.2490 1.3998 14.0632 -13.3243
# 3 36.8138 65.2490 153.7886 -5.2095 32.8639 -24.5903
# 4 -0.0989 1.3998 -5.2095 34.5290 -2.8727 5.2999
# 5 11.9669 14.0632 32.8639 -2.8727 21.8737 1.6461
# 6 -6.1540 -13.3243 -24.5903 5.2999 1.6461 29.5738
#
#
#
# Elastic Compliance Matrix: (Units=1/GPa)
#
#
# Indices 1 2 3 4 5 6 
#
# 1 0.053888 -0.013822 -0.002908 -0.001700 -0.016735 0.003804
# 2 -0.013822 0.021709 -0.006185 -0.001948 0.002494 0.001972
# 3 -0.002908 -0.006185 0.015458 -0.000594 -0.018532 0.010599
# 4 -0.001700 -0.001948 -0.000594 0.030762 0.007692 -0.007666
# 5 -0.016735 0.002494 -0.018532 0.007692 0.083915 -0.023817
# 6 0.003804 0.001972 0.010599 -0.007666 -0.023817 0.047006
#
#
# Mechanical properties :
#
#
# Convention : Reuss Voigt Hill
#
# Bulk Modulus (GPa) = 22.11304 59.41839 40.76571
# Shear Modulus (GPa) = 15.94166 26.36555 21.15361
#
# Velocity S-wave (km/s) = 2.82522 3.63332 3.25445
# Velocity P-wave (km/s) = 4.65986 6.88126 5.87648
#
# Compressibility (1/GPa) = 0.04522219
#
# Stress axis : x y z
#
# Youngs Moduli (GPa) = 18.55711 46.06473 64.69211
#
# Poissons Ratio (x) = 0.63671 0.18815
# Poissons Ratio (y) = 0.25650 0.40015
# Poissons Ratio (z) = 0.05397 0.28493
#
# Static dielectric constant tensor:
#      x y z
#    x 3.258150 -0.082730 -0.070860 
#    y -0.082730 3.718140 0.177550 
#    z -0.070860 0.177550 3.620530 
# 
# 
# High freq. dielectric constant tensor:
#      x y z
#    x 1.732960 -0.009790 -0.005400 
#    y -0.009790 1.781030 0.006570 
#    z -0.005400 0.006570 1.784930 
# 
# From -- ./inp_files/498525.got.cif
#   From: 2010.06.25/outbox.cif.g09.slc.cpg/sg2_250_cif.got.tgz:498525.got - 2010.06.27 13:26:56.
