data_PCOD8014280
_publ_section_title
;
Structure prediction by ZEFSAII (Michael W. Deem and Ramdas Pophale) SiO2 
 PCOD8014280
Probable space group: P -1
;
_chemical_formula_sum "Si O2"
_cell_formula_units_Z 16
_cell_length_a 15.080566
_cell_length_b 13.072721
_cell_length_c 9.589169
_cell_angle_alpha 147.585846
_cell_angle_beta 132.188503
_cell_angle_gamma 50.825438
_cell_volume 740.784256
_symmetry_space_group_name_H-M "P -1"
_symmetry_group_IT_number 2
_symmetry_cell_setting 'triclinic'
loop_
_space_group_symop_operation_xyz
x,y,z
-x,-y,-z
loop_
_atom_site_type_symbol
_atom_site_label
_atom_site_fract_x
_atom_site_fract_y
_atom_site_fract_z
Si Si1 0.475307 0.685195 0.086822
Si Si2 0.072459 0.098509 0.306378
Si Si3 0.080443 0.448346 0.888469
Si Si4 0.663765 0.657999 0.840270
Si Si5 0.266741 0.120260 0.089131
Si Si6 0.672010 0.915040 0.571537
Si Si7 0.411519 0.722792 0.759208
Si Si8 0.988970 0.133744 0.778004
O O1 0.600300 0.752803 0.248095
O O2 0.392995 0.867678 0.286017
O O3 0.500000 0.500000 0.000000
O O4 0.410253 0.644965 0.827769
O O5 0.017746 0.314393 0.558055
O O6 0.198279 0.121154 0.399724
O O7 0.085293 0.961329 0.294885
O O8 0.000000 0.000000 0.000000
O O9 0.213834 0.330519 0.930197
O O10 0.000000 0.500000 0.000000
O O11 0.091639 0.655667 0.076077
O O12 0.685846 0.725158 0.783672
O O13 0.541868 0.781500 0.919908
O O14 0.633522 0.441904 0.569391
O O15 0.326811 0.127249 0.311116
O O16 0.122262 0.160556 0.999029
O O17 0.309237 0.905493 0.828680
O O18 0.000000 0.000000 0.500000
#
# Coordination Sequence:
#
# PCOD8014280 Si02
#       8
#     2   2   2   2   2   2   2   2
#     4  10  21  41  66  92 131 175 220 276 346 410
#     4  12  26  45  67 101 141 177 233 291 337 405
#     4  12  25  43  70  98 135 184 229 282 342 414
#     4  11  22  40  62  97 129 166 226 277 330 407
#     4  11  21  40  63  89 129 173 220 273 337 400
#     4  10  23  41  63  96 131 174 224 280 341 407
#     4  10  23  37  64  94 126 168 218 280 336 398
#     4  12  24  43  69  99 133 187 229 279 346 407
#
# _framework density 21.598731999999998
#
# number of rings (size 3 to 8) (size 9 to 14) (size 15 to 20)
#    0.000    1.000    3.750    2.625    0.000    2.500 
#    2.250    5.000    0.000    0.000    0.000    0.000 
#    0.000    0.000    0.000    0.000    0.000    0.000 
#
# Total GULP energy -198318.152489 kJ/mol
# GULP energy per Si atom -12394.884531 kJ/mol
# Density = 2.154957 g / cm^3
# Si number density = 21.598732 Si / 1000 Ang^3
#
#
#
# Elastic Constant Matrix: (Units=GPa)
#
#
# Indices 1 2 3 4 5 6 
#
# 1 99.0700 27.4958 18.6899 8.6466 -0.7457 1.8574
# 2 27.4958 105.2460 24.8014 14.1660 -1.3115 10.0735
# 3 18.6899 24.8014 116.2628 8.7782 -7.1806 4.6345
# 4 8.6466 14.1660 8.7782 31.4042 -0.6684 5.8796
# 5 -0.7457 -1.3115 -7.1806 -0.6684 25.2651 -4.0179
# 6 1.8574 10.0735 4.6345 5.8796 -4.0179 32.3575
#
#
#
# Elastic Compliance Matrix: (Units=1/GPa)
#
#
# Indices 1 2 3 4 5 6 
#
# 1 0.011136 -0.002459 -0.001163 -0.001746 -0.000080 0.000600
# 2 -0.002459 0.011241 -0.001668 -0.003460 -0.000460 -0.002548
# 3 -0.001163 -0.001668 0.009416 -0.001472 0.002487 -0.000186
# 4 -0.001746 -0.003460 -0.001472 0.035236 -0.000525 -0.005080
# 5 -0.000080 -0.000460 0.002487 -0.000525 0.041039 0.004983
# 6 0.000600 -0.002548 -0.000186 -0.005080 0.004983 0.033232
#
#
# Mechanical properties :
#
#
# Convention : Reuss Voigt Hill
#
# Bulk Modulus (GPa) = 47.13948 51.39480 49.26714
# Shear Modulus (GPa) = 31.45628 34.44480 32.95054
#
# Velocity S-wave (km/s) = 3.82041 3.99778 3.91010
# Velocity P-wave (km/s) = 6.42909 6.71986 6.57609
#
# Compressibility (1/GPa) = 0.02121364
#
# Stress axis : x y z
#
# Youngs Moduli (GPa) = 89.79749 88.96084 106.20089
#
# Poissons Ratio (x) = 0.21873 0.12348
# Poissons Ratio (y) = 0.22079 0.17717
# Poissons Ratio (z) = 0.10441 0.14841
#
# Static dielectric constant tensor:
#      x y z
#    x 4.327620 0.167480 -0.599820 
#    y 0.167480 4.029600 -0.049550 
#    z -0.599820 -0.049550 4.542110 
# 
# 
# High freq. dielectric constant tensor:
#      x y z
#    x 1.852510 0.002980 0.003080 
#    y 0.002980 1.844400 0.001300 
#    z 0.003080 0.001300 1.854710 
# 
# From -- ./inp_files/308884.got.cif
#   From: 2010.06.25/outbox.cif.g09.slc.cpg/sg2_155_cif.got.tgz:308884.got - 2010.06.27 13:26:56.
