data_PCOD8014012
_publ_section_title
;
Structure prediction by ZEFSAII (Michael W. Deem and Ramdas Pophale) SiO2 
 PCOD8014012
Probable space group: P -1
;
_chemical_formula_sum "Si O2"
_cell_formula_units_Z 16
_cell_length_a 17.033117
_cell_length_b 9.187970
_cell_length_c 14.641972
_cell_angle_alpha 41.688673
_cell_angle_beta 148.837399
_cell_angle_gamma 138.244596
_cell_volume 749.559718
_symmetry_space_group_name_H-M "P -1"
_symmetry_group_IT_number 2
_symmetry_cell_setting 'triclinic'
loop_
_space_group_symop_operation_xyz
x,y,z
-x,-y,-z
loop_
_atom_site_type_symbol
_atom_site_label
_atom_site_fract_x
_atom_site_fract_y
_atom_site_fract_z
Si Si1 0.434774 0.538413 0.320624
Si Si2 0.240800 0.682495 0.832655
Si Si3 0.345040 0.180268 0.743534
Si Si4 0.784410 0.167083 0.003320
Si Si5 0.035695 0.305059 0.344283
Si Si6 0.895385 0.204216 0.893150
Si Si7 0.509286 0.710754 0.974445
Si Si8 0.771176 0.773725 0.862403
O O1 0.500000 0.500000 0.500000
O O2 0.571138 0.722309 0.313534
O O3 0.374102 0.290540 0.325166
O O4 0.277462 0.617587 0.138612
O O5 0.055211 0.669219 0.662765
O O6 0.342487 0.914618 0.880784
O O7 0.324662 0.716296 0.799656
O O8 0.261446 0.454002 0.002537
O O9 0.160912 0.174404 0.554813
O O10 0.431908 0.331110 0.845367
O O11 0.907905 0.158557 0.210772
O O12 0.631915 0.939954 0.948385
O O13 0.877902 0.200667 0.985835
O O14 0.125468 0.560049 0.276112
O O15 0.762631 0.988986 0.814097
O O16 0.063884 0.169751 0.054645
O O17 0.500000 0.500000 0.000000
#
# Coordination Sequence:
#
# PCOD8014012 Si02
#       8
#     2   2   2   2   2   2   2   2
#     4  12  24  40  65  96 127 170 218 264 315 384
#     4  11  20  43  68  90 124 167 213 261 320 379
#     4  12  23  42  65  97 129 165 219 267 315 380
#     4  12  22  41  64  93 125 170 220 259 315 387
#     4  11  23  39  69  92 127 172 218 264 320 376
#     4  10  22  39  64  91 129 168 213 261 320 383
#     4  12  24  41  67  96 130 169 210 263 328 386
#     4  10  21  41  64  91 124 171 209 263 328 371
#
# _framework density 21.345863999999999
#
# number of rings (size 3 to 8) (size 9 to 14) (size 15 to 20)
#    0.000    0.750    6.250    2.625    1.750    0.000 
#    2.250    1.875    2.750    0.000    0.000    0.000 
#    0.000    0.000    0.000    0.000    0.000    0.000 
#
# Total GULP energy -198292.197150 kJ/mol
# GULP energy per Si atom -12393.262322 kJ/mol
# Density = 2.129728 g / cm^3
# Si number density = 21.345864 Si / 1000 Ang^3
#
#
#
# Elastic Constant Matrix: (Units=GPa)
#
#
# Indices 1 2 3 4 5 6 
#
# 1 120.7405 42.8446 11.4502 -4.0529 7.2291 4.1065
# 2 42.8446 140.3797 11.0607 -4.4843 -6.8837 -9.8811
# 3 11.4502 11.0607 27.6920 -1.4185 -5.2465 -0.8120
# 4 -4.0529 -4.4843 -1.4185 22.0644 3.6964 -1.0866
# 5 7.2291 -6.8837 -5.2465 3.6964 26.7447 0.0606
# 6 4.1065 -9.8811 -0.8120 -1.0866 0.0606 38.1302
#
#
#
# Elastic Compliance Matrix: (Units=1/GPa)
#
#
# Indices 1 2 3 4 5 6 
#
# 1 0.010129 -0.003097 -0.003776 0.001648 -0.004499 -0.001920
# 2 -0.003097 0.008518 -0.001512 0.000750 0.002624 0.002526
# 3 -0.003776 -0.001512 0.039909 0.000195 0.008432 0.000857
# 4 0.001648 0.000750 0.000195 0.046981 -0.006710 0.001371
# 5 -0.004499 0.002624 0.008432 -0.006710 0.041861 0.001086
# 6 -0.001920 0.002526 0.000857 0.001371 0.001086 0.027143
#
#
# Mechanical properties :
#
#
# Convention : Reuss Voigt Hill
#
# Bulk Modulus (GPa) = 23.93085 46.61367 35.27226
# Shear Modulus (GPa) = 24.36165 32.28498 28.32331
#
# Velocity S-wave (km/s) = 3.38195 3.89327 3.64658
# Velocity P-wave (km/s) = 5.14640 6.48805 5.85578
#
# Compressibility (1/GPa) = 0.04178707
#
# Stress axis : x y z
#
# Youngs Moduli (GPa) = 98.72391 117.39352 25.05687
#
# Poissons Ratio (x) = 0.36358 0.09460
# Poissons Ratio (y) = 0.30576 0.03789
# Poissons Ratio (z) = 0.37274 0.17752
#
# Static dielectric constant tensor:
#      x y z
#    x 4.209890 0.214670 0.187660 
#    y 0.214670 4.332870 0.104370 
#    z 0.187660 0.104370 3.528760 
# 
# 
# High freq. dielectric constant tensor:
#      x y z
#    x 1.857490 0.019240 0.013490 
#    y 0.019240 1.852680 -0.001310 
#    z 0.013490 -0.001310 1.795140 
# 
# From -- ./inp_files/390350.got.cif
#   From: 2010.06.25/outbox.cif.g09.slc.cpg/sg2_196_cif.got.tgz:390350.got - 2010.06.27 13:26:56.
