data_PCOD8014931
_publ_section_title
;
Structure prediction by ZEFSAII (Michael W. Deem and Ramdas Pophale) SiO2 
 PCOD8014931
Probable space group: P -1
;
_chemical_formula_sum "Si O2"
_cell_formula_units_Z 14
_cell_length_a 11.104166
_cell_length_b 12.311015
_cell_length_c 17.285115
_cell_angle_alpha 30.164184
_cell_angle_beta 139.252575
_cell_angle_gamma 120.359288
_cell_volume 689.700243
_symmetry_space_group_name_H-M "P -1"
_symmetry_group_IT_number 2
_symmetry_cell_setting 'triclinic'
loop_
_space_group_symop_operation_xyz
x,y,z
-x,-y,-z
loop_
_atom_site_type_symbol
_atom_site_label
_atom_site_fract_x
_atom_site_fract_y
_atom_site_fract_z
Si Si1 0.458197 0.803926 0.142714
Si Si2 0.635498 0.945820 0.277501
Si Si3 0.816007 0.289258 0.093008
Si Si4 0.635576 0.570433 0.083019
Si Si5 0.384626 0.608534 0.647927
Si Si6 0.004720 0.124056 0.134852
Si Si7 0.987376 0.445537 0.219190
O O1 0.539011 0.800003 0.271266
O O2 0.601183 0.557443 0.317204
O O3 0.212659 0.883727 0.978985
O O4 0.500000 0.000000 0.000000
O O5 0.783428 0.746699 0.531492
O O6 0.734126 0.084146 0.186223
O O7 0.470752 0.141819 0.133910
O O8 0.999780 0.209130 0.169020
O O9 0.897367 0.313376 0.200100
O O10 0.625787 0.551250 0.813535
O O11 0.680923 0.447842 0.265338
O O12 0.859692 0.501192 0.201432
O O13 0.500000 0.500000 0.000000
O O14 0.214984 0.876362 0.376613
O O15 0.019828 0.313351 0.967436
#
# Coordination Sequence:
#
# PCOD8014931 Si02
#       7
#     2   2   2   2   2   2   2
#     4  11  22  46  66  91 120 168 226 251 302 374
#     4  11  23  42  70  89 127 169 210 266 300 369
#     4  10  21  42  63  96 125 166 213 251 314 376
#     4  11  22  39  63  98 125 160 208 254 315 372
#     4  10  22  41  69  92 124 165 212 260 303 374
#     4  11  25  40  64  95 127 170 208 256 317 371
#     4  12  25  39  62  99 133 163 203 259 326 373
#
# _framework density 20.298673000000001
#
# number of rings (size 3 to 8) (size 9 to 14) (size 15 to 20)
#    0.000    1.143    7.143    1.714    2.000    5.143 
#    0.000    1.429    0.000    0.000    0.000    0.000 
#    0.000    0.000    0.000    0.000    0.000    0.000 
#
# Total GULP energy -173437.832453 kJ/mol
# GULP energy per Si atom -12388.416604 kJ/mol
# Density = 2.025247 g / cm^3
# Si number density = 20.298673 Si / 1000 Ang^3
#
#
#
# Elastic Constant Matrix: (Units=GPa)
#
#
# Indices 1 2 3 4 5 6 
#
# 1 44.5048 30.5667 17.8977 -10.7983 7.1016 -5.1272
# 2 30.5667 120.8864 41.2890 9.6708 4.2913 -24.3702
# 3 17.8977 41.2890 147.8202 -5.7508 4.6356 -19.6541
# 4 -10.7983 9.6708 -5.7508 23.4802 -3.7287 -1.4519
# 5 7.1016 4.2913 4.6356 -3.7287 25.0077 -7.8095
# 6 -5.1272 -24.3702 -19.6541 -1.4519 -7.8095 55.5222
#
#
#
# Elastic Compliance Matrix: (Units=1/GPa)
#
#
# Indices 1 2 3 4 5 6 
#
# 1 0.035286 -0.010403 -0.000681 0.019308 -0.005811 -0.001861
# 2 -0.010403 0.013306 -0.002374 -0.010487 0.000756 0.003872
# 3 -0.000681 -0.002374 0.007847 0.002711 0.000099 0.001758
# 4 0.019308 -0.010487 0.002711 0.057169 0.004418 0.000256
# 5 -0.005811 0.000756 0.000099 0.004418 0.044067 0.006144
# 6 -0.001861 0.003872 0.001758 0.000256 0.006144 0.021031
#
#
# Mechanical properties :
#
#
# Convention : Reuss Voigt Hill
#
# Bulk Modulus (GPa) = 33.87202 54.74647 44.30924
# Shear Modulus (GPa) = 23.20585 35.69922 29.45254
#
# Velocity S-wave (km/s) = 3.38482 4.19823 3.81328
# Velocity P-wave (km/s) = 5.65677 7.10839 6.42372
#
# Compressibility (1/GPa) = 0.02952290
#
# Stress axis : x y z
#
# Youngs Moduli (GPa) = 28.33991 75.15319 127.44502
#
# Poissons Ratio (x) = 0.78184 0.08673
# Poissons Ratio (y) = 0.29483 0.30255
# Poissons Ratio (z) = 0.01929 0.17841
#
# Static dielectric constant tensor:
#      x y z
#    x 3.702430 -0.122780 0.209770 
#    y -0.122780 4.280110 0.374980 
#    z 0.209770 0.374980 3.800880 
# 
# 
# High freq. dielectric constant tensor:
#      x y z
#    x 1.791700 -0.020670 0.011380 
#    y -0.020670 1.792420 0.006350 
#    z 0.011380 0.006350 1.794440 
# 
# From -- ./inp_files/283409.got.cif
#   From: 2010.06.25/outbox.cif.g09.slc.cpg/sg2_142_cif.got.tgz:283409.got - 2010.06.27 13:26:56.
