data_PCOD8014089
_publ_section_title
;
Structure prediction by ZEFSAII (Michael W. Deem and Ramdas Pophale) SiO2 
 PCOD8014089
Probable space group: P -1
;
_chemical_formula_sum "Si O2"
_cell_formula_units_Z 16
_cell_length_a 15.473996
_cell_length_b 9.562677
_cell_length_c 11.357591
_cell_angle_alpha 112.452325
_cell_angle_beta 75.451733
_cell_angle_gamma 151.870431
_cell_volume 718.019336
_symmetry_space_group_name_H-M "P -1"
_symmetry_group_IT_number 2
_symmetry_cell_setting 'triclinic'
loop_
_space_group_symop_operation_xyz
x,y,z
-x,-y,-z
loop_
_atom_site_type_symbol
_atom_site_label
_atom_site_fract_x
_atom_site_fract_y
_atom_site_fract_z
Si Si1 0.949908 0.065268 0.396095
Si Si2 0.236002 0.728603 0.548409
Si Si3 0.262819 0.312799 0.431734
Si Si4 0.371863 0.268216 0.177477
Si Si5 0.620902 0.074431 0.900034
Si Si6 0.036580 0.701250 0.971812
Si Si7 0.225218 0.017093 0.763338
Si Si8 0.519722 0.950353 0.630857
O O1 0.055472 0.360122 0.520766
O O2 0.077162 0.103345 0.363975
O O3 0.771687 0.778219 0.449257
O O4 0.877226 0.990644 0.264089
O O5 0.407445 0.938665 0.644084
O O6 0.198719 0.849189 0.619130
O O7 0.276700 0.745131 0.402309
O O8 0.339558 0.281053 0.324965
O O9 0.421475 0.675112 0.496972
O O10 0.557072 0.618641 0.169753
O O11 0.384890 0.106385 0.112004
O O12 0.184388 0.033715 0.092147
O O13 0.828349 0.458114 0.947329
O O14 0.528235 0.933747 0.759269
O O15 0.500000 0.000000 0.000000
O O16 0.126351 0.805764 0.846163
O O17 0.000000 0.500000 0.000000
#
# Coordination Sequence:
#
# PCOD8014089 Si02
#       8
#     2   2   2   2   2   2   2   2
#     4  10  23  37  64 102 139 174 222 276 344 396
#     4  10  22  36  65  98 138 174 213 287 336 399
#     4  10  22  43  66 101 138 178 214 286 341 402
#     4  11  25  44  70  96 140 178 228 278 345 396
#     4  11  26  45  72  97 132 181 230 277 333 414
#     4  10  26  46  65  96 132 184 230 277 339 400
#     4  12  23  42  68 102 135 179 232 278 337 405
#     4  10  21  41  64  99 133 173 223 272 343 398
#
# _framework density 22.283524
#
# number of rings (size 3 to 8) (size 9 to 14) (size 15 to 20)
#    0.000    1.500    1.250    2.250    8.750    4.000 
#    0.000    1.250    0.000    0.000    0.000    0.000 
#    0.000    0.000    0.000    0.000    0.000    0.000 
#
# Total GULP energy -198317.202343 kJ/mol
# GULP energy per Si atom -12394.825146 kJ/mol
# Density = 2.223281 g / cm^3
# Si number density = 22.283524 Si / 1000 Ang^3
#
#
#
# Elastic Constant Matrix: (Units=GPa)
#
#
# Indices 1 2 3 4 5 6 
#
# 1 75.6301 36.8357 37.8866 -11.7087 -9.8664 3.5288
# 2 36.8357 125.4927 36.1574 -9.3237 1.7509 9.9835
# 3 37.8866 36.1574 97.0484 -11.3395 2.8364 8.8088
# 4 -11.7087 -9.3237 -11.3395 33.0599 -6.2694 2.0424
# 5 -9.8664 1.7509 2.8364 -6.2694 34.5271 -3.8173
# 6 3.5288 9.9835 8.8088 2.0424 -3.8173 31.1510
#
#
#
# Elastic Compliance Matrix: (Units=1/GPa)
#
#
# Indices 1 2 3 4 5 6 
#
# 1 0.019864 -0.003915 -0.006023 0.005200 0.007455 0.001280
# 2 -0.003915 0.009907 -0.001819 0.000626 -0.001630 -0.002458
# 3 -0.006023 -0.001819 0.013907 0.001788 -0.002792 -0.003127
# 4 0.005200 0.000626 0.001788 0.034422 0.007263 -0.002662
# 5 0.007455 -0.001630 -0.002792 0.007263 0.033172 0.004056
# 6 0.001280 -0.002458 -0.003127 -0.002662 0.004056 0.034300
#
#
# Mechanical properties :
#
#
# Convention : Reuss Voigt Hill
#
# Bulk Modulus (GPa) = 49.58985 57.77008 53.67997
# Shear Modulus (GPa) = 28.44047 32.23370 30.33709
#
# Velocity S-wave (km/s) = 3.57641 3.80745 3.69374
# Velocity P-wave (km/s) = 6.27349 6.73128 6.50641
#
# Compressibility (1/GPa) = 0.02016542
#
# Stress axis : x y z
#
# Youngs Moduli (GPa) = 50.34268 100.94356 71.90526
#
# Poissons Ratio (x) = 0.39518 0.43305
# Poissons Ratio (y) = 0.19709 0.13077
# Poissons Ratio (z) = 0.30319 0.18358
#
# Static dielectric constant tensor:
#      x y z
#    x 3.968660 0.187600 0.201130 
#    y 0.187600 4.263030 0.149370 
#    z 0.201130 0.149370 3.762480 
# 
# 
# High freq. dielectric constant tensor:
#      x y z
#    x 1.866500 0.007760 0.013720 
#    y 0.007760 1.898590 0.003410 
#    z 0.013720 0.003410 1.859270 
# 
# From -- ./inp_files/185271.got.cif
#   From: 2010.06.25/outbox.cif.g09.slc.cpg/sg2_93_cif.got.tgz:185271.got - 2010.06.27 13:26:56.
