data_PCOD8014724
_publ_section_title
;
Structure prediction by ZEFSAII (Michael W. Deem and Ramdas Pophale) SiO2 
 PCOD8014724
Probable space group: P -1
;
_chemical_formula_sum "Si O2"
_cell_formula_units_Z 16
_cell_length_a 11.652749
_cell_length_b 16.866985
_cell_length_c 9.582853
_cell_angle_alpha 51.190778
_cell_angle_beta 47.783764
_cell_angle_gamma 31.044902
_cell_volume 712.926253
_symmetry_space_group_name_H-M "P -1"
_symmetry_group_IT_number 2
_symmetry_cell_setting 'triclinic'
loop_
_space_group_symop_operation_xyz
x,y,z
-x,-y,-z
loop_
_atom_site_type_symbol
_atom_site_label
_atom_site_fract_x
_atom_site_fract_y
_atom_site_fract_z
Si Si1 0.813911 0.793757 0.860766
Si Si2 0.233910 0.154359 0.597826
Si Si3 0.347361 0.433944 0.158191
Si Si4 0.861951 0.243655 0.982740
Si Si5 0.067494 0.401728 0.257762
Si Si6 0.915075 0.150140 0.344093
Si Si7 0.420647 0.337078 0.512992
Si Si8 0.396912 0.133684 0.764835
O O1 0.890010 0.652078 0.878248
O O2 0.983029 0.808007 0.692608
O O3 0.557432 0.953772 0.834941
O O4 0.798077 0.773659 0.057450
O O5 0.104940 0.277379 0.445765
O O6 0.248293 0.217403 0.652770
O O7 0.062202 0.147255 0.801437
O O8 0.500000 0.000000 0.500000
O O9 0.220033 0.605308 0.059514
O O10 0.237043 0.408402 0.165288
O O11 0.307874 0.414456 0.369048
O O12 0.630662 0.301306 0.045642
O O13 0.973469 0.129589 0.152190
O O14 0.791815 0.562560 0.314769
O O15 0.630736 0.308524 0.414508
O O16 0.000000 0.000000 0.500000
O O17 0.547157 0.163156 0.613830
#
# Coordination Sequence:
#
# PCOD8014724 Si02
#       8
#     2   2   2   2   2   2   2   2
#     4  11  25  42  65  95 139 179 225 276 341 402
#     4  12  22  40  70 101 135 175 225 288 335 397
#     4  10  21  41  71 101 134 172 224 287 343 399
#     4  10  22  42  70 100 134 180 228 276 343 402
#     4  12  24  40  67 108 135 169 229 288 340 398
#     4  11  23  43  69  95 134 191 230 268 333 416
#     4  11  22  39  71  97 131 180 231 277 336 405
#     4  11  22  42  67  93 131 186 227 270 335 414
#
# _framework density 22.442713999999999
#
# number of rings (size 3 to 8) (size 9 to 14) (size 15 to 20)
#    0.000    1.000    6.250    1.125    0.000    1.000 
#    0.000    1.875    5.500    0.000    0.000    0.000 
#    0.000    0.000    0.000    0.000    0.000    0.000 
#
# Total GULP energy -198237.301391 kJ/mol
# GULP energy per Si atom -12389.831337 kJ/mol
# Density = 2.239163 g / cm^3
# Si number density = 22.442714 Si / 1000 Ang^3
#
#
#
# Elastic Constant Matrix: (Units=GPa)
#
#
# Indices 1 2 3 4 5 6 
#
# 1 132.0286 33.3350 23.6008 24.9258 -12.6020 1.6600
# 2 33.3350 77.4285 36.6512 17.9706 -4.5345 -3.3946
# 3 23.6008 36.6512 88.4769 11.1205 -13.5074 3.7361
# 4 24.9258 17.9706 11.1205 46.1192 -3.2167 -7.7501
# 5 -12.6020 -4.5345 -13.5074 -3.2167 31.0037 5.2768
# 6 1.6600 -3.3946 3.7361 -7.7501 5.2768 30.6906
#
#
#
# Elastic Compliance Matrix: (Units=1/GPa)
#
#
# Indices 1 2 3 4 5 6 
#
# 1 0.009474 -0.002954 -0.000177 -0.004102 0.003329 -0.002426
# 2 -0.002954 0.018193 -0.006747 -0.003609 -0.002275 0.002473
# 3 -0.000177 -0.006747 0.015415 -0.001230 0.006209 -0.003991
# 4 -0.004102 -0.003609 -0.001230 0.026684 -0.001138 0.006906
# 5 0.003329 -0.002275 0.006209 -0.001138 0.037201 -0.007871
# 6 -0.002426 0.002473 -0.003991 0.006906 -0.007871 0.036571
#
#
# Mechanical properties :
#
#
# Convention : Reuss Voigt Hill
#
# Bulk Modulus (GPa) = 42.86890 53.90087 48.38488
# Shear Modulus (GPa) = 29.22747 35.18585 32.20666
#
# Velocity S-wave (km/s) = 3.61267 3.96385 3.79233
# Velocity P-wave (km/s) = 6.04523 6.70960 6.38606
#
# Compressibility (1/GPa) = 0.02332693
#
# Stress axis : x y z
#
# Youngs Moduli (GPa) = 105.54717 54.96496 64.86993
#
# Poissons Ratio (x) = 0.16239 0.01149
# Poissons Ratio (y) = 0.31184 0.43765
# Poissons Ratio (z) = 0.01869 0.37083
#
# Static dielectric constant tensor:
#      x y z
#    x 3.988030 -0.148340 -0.197170 
#    y -0.148340 4.030790 0.028550 
#    z -0.197170 0.028550 4.378120 
# 
# 
# High freq. dielectric constant tensor:
#      x y z
#    x 1.871280 -0.026350 -0.010140 
#    y -0.026350 1.874940 -0.009550 
#    z -0.010140 -0.009550 1.899540 
# 
# From -- ./inp_files/261421.got.cif
#   From: 2010.06.25/outbox.cif.g09.slc.cpg/sg2_131_cif.got.tgz:261421.got - 2010.06.27 13:26:56.
