data_PCOD8014077
_publ_section_title
;
Structure prediction by ZEFSAII (Michael W. Deem and Ramdas Pophale) SiO2 
 PCOD8014077
Probable space group: P -1
;
_chemical_formula_sum "Si O2"
_cell_formula_units_Z 14
_cell_length_a 9.254259
_cell_length_b 8.439072
_cell_length_c 14.469873
_cell_angle_alpha 112.546252
_cell_angle_beta 48.856049
_cell_angle_gamma 80.780869
_cell_volume 632.809656
_symmetry_space_group_name_H-M "P -1"
_symmetry_group_IT_number 2
_symmetry_cell_setting 'triclinic'
loop_
_space_group_symop_operation_xyz
x,y,z
-x,-y,-z
loop_
_atom_site_type_symbol
_atom_site_label
_atom_site_fract_x
_atom_site_fract_y
_atom_site_fract_z
Si Si1 0.727623 0.238268 0.947170
Si Si2 0.226996 0.052880 0.652199
Si Si3 0.747623 0.228030 0.143669
Si Si4 0.233555 0.982584 0.424635
Si Si5 0.411416 0.311013 0.941508
Si Si6 0.373946 0.266579 0.448392
Si Si7 0.099143 0.511932 0.779675
O O1 0.590077 0.181410 0.923696
O O2 0.011942 0.056702 0.787922
O O3 0.640891 0.260373 0.093346
O O4 0.682416 0.446532 0.967316
O O5 0.161790 0.287870 0.735630
O O6 0.270855 0.946094 0.509911
O O7 0.463766 0.906383 0.579072
O O8 0.536986 0.273724 0.307785
O O9 0.779510 0.413259 0.188410
O O10 0.000000 0.000000 0.000000
O O11 0.462511 0.790494 0.231649
O O12 0.216699 0.195516 0.453736
O O13 0.000000 0.000000 0.500000
O O14 0.185712 0.305992 0.052334
O O15 0.192785 0.490277 0.629162
#
# Coordination Sequence:
#
# PCOD8014077 Si02
#       7
#     2   2   2   2   2   2   2
#     4  10  22  39  63  92 129 165 208 262 309 371
#     4  10  21  41  64  97 125 160 217 265 310 363
#     4  12  24  42  64  93 132 170 210 253 324 378
#     4  11  21  38  67  94 122 163 210 263 312 368
#     4  10  22  40  64  94 124 161 218 261 308 367
#     4  11  24  42  62  97 130 163 209 264 316 379
#     4  10  23  41  64  93 129 168 210 264 309 373
#
# _framework density 22.123555
#
# number of rings (size 3 to 8) (size 9 to 14) (size 15 to 20)
#    0.000    1.429    2.857    3.000    6.000    1.143 
#    0.000    5.000    0.000    0.000    0.000    0.000 
#    0.000    0.000    0.000    0.000    0.000    0.000 
#
# Total GULP energy -173524.695656 kJ/mol
# GULP energy per Si atom -12394.621118 kJ/mol
# Density = 2.207320 g / cm^3
# Si number density = 22.123555 Si / 1000 Ang^3
#
#
#
# Elastic Constant Matrix: (Units=GPa)
#
#
# Indices 1 2 3 4 5 6 
#
# 1 123.0315 49.5615 51.6933 -14.8922 9.1319 14.4541
# 2 49.5615 49.4938 30.9475 -20.2384 3.4005 6.6791
# 3 51.6933 30.9475 166.3184 -31.3470 -3.1638 11.5222
# 4 -14.8922 -20.2384 -31.3470 37.2491 2.9210 0.9182
# 5 9.1319 3.4005 -3.1638 2.9210 40.0918 -4.6300
# 6 14.4541 6.6791 11.5222 0.9182 -4.6300 23.4773
#
#
#
# Elastic Compliance Matrix: (Units=1/GPa)
#
#
# Indices 1 2 3 4 5 6 
#
# 1 0.015259 -0.014355 -0.002460 -0.003445 -0.002721 -0.004505
# 2 -0.014355 0.042481 0.000173 0.017764 -0.002128 -0.004447
# 3 -0.002460 0.000173 0.008051 0.005915 0.000447 -0.002629
# 4 -0.003445 0.017764 0.005915 0.040628 -0.004168 -0.008246
# 5 -0.002721 -0.002128 0.000447 -0.004168 0.026953 0.007540
# 6 -0.004505 -0.004447 -0.002629 -0.008246 0.007540 0.049733
#
#
# Mechanical properties :
#
#
# Convention : Reuss Voigt Hill
#
# Bulk Modulus (GPa) = 30.76450 67.02758 48.89604
# Shear Modulus (GPa) = 22.00465 33.93973 27.97219
#
# Velocity S-wave (km/s) = 3.15719 3.92101 3.55964
# Velocity P-wave (km/s) = 5.21789 7.13174 6.24853
#
# Compressibility (1/GPa) = 0.03250500
#
# Stress axis : x y z
#
# Youngs Moduli (GPa) = 65.53632 23.53976 124.21446
#
# Poissons Ratio (x) = 0.33791 0.30563
# Poissons Ratio (y) = 0.94077 -0.02145
# Poissons Ratio (z) = 0.16125 -0.00406
#
# Static dielectric constant tensor:
#      x y z
#    x 4.213150 0.238140 -0.111090 
#    y 0.238140 3.579020 -0.174110 
#    z -0.111090 -0.174110 4.500450 
# 
# 
# High freq. dielectric constant tensor:
#      x y z
#    x 1.874200 0.020790 0.000950 
#    y 0.020790 1.831260 -0.017520 
#    z 0.000950 -0.017520 1.897340 
# 
# From -- ./inp_files/155343.got.cif
#   From: 2010.06.25/outbox.cif.g09.slc.cpg/sg2_78_cif.got.tgz:155343.got - 2010.06.27 13:26:56.
