data_PCOD8014433
_publ_section_title
;
Structure prediction by ZEFSAII (Michael W. Deem and Ramdas Pophale) SiO2 
 PCOD8014433
Probable space group: P -1
;
_chemical_formula_sum "Si O2"
_cell_formula_units_Z 16
_cell_length_a 15.269972
_cell_length_b 21.688710
_cell_length_c 6.871465
_cell_angle_alpha 61.685716
_cell_angle_beta 106.477900
_cell_angle_gamma 156.738251
_cell_volume 711.495944
_symmetry_space_group_name_H-M "P -1"
_symmetry_group_IT_number 2
_symmetry_cell_setting 'triclinic'
loop_
_space_group_symop_operation_xyz
x,y,z
-x,-y,-z
loop_
_atom_site_type_symbol
_atom_site_label
_atom_site_fract_x
_atom_site_fract_y
_atom_site_fract_z
Si Si1 0.436297 0.549450 0.493965
Si Si2 0.125568 0.414971 0.209515
Si Si3 0.713433 0.075149 0.200947
Si Si4 0.472337 0.316670 0.254475
Si Si5 0.238273 0.615043 0.255650
Si Si6 0.248353 0.045577 0.750256
Si Si7 0.757472 0.736921 0.088369
Si Si8 0.793252 0.271226 0.749263
O O1 0.219761 0.422594 0.405493
O O2 0.454944 0.617064 0.576930
O O3 0.693497 0.731254 0.259371
O O4 0.382635 0.436517 0.725149
O O5 0.135287 0.500871 0.172975
O O6 0.845643 0.193204 0.308398
O O7 0.286358 0.532790 0.938467
O O8 0.834375 0.089478 0.177591
O O9 0.414705 0.854017 0.357023
O O10 0.759389 0.166219 0.930931
O O11 0.286454 0.118597 0.466418
O O12 0.341504 0.290023 0.117201
O O13 0.513349 0.785757 0.215011
O O14 0.235292 0.698461 0.121777
O O15 0.068024 0.474410 0.541162
O O16 0.045205 0.931427 0.941080
#
# Coordination Sequence:
#
# PCOD8014433 Si02
#       8
#     2   2   2   2   2   2   2   2
#     4  10  22  43  64  95 133 172 213 273 314 373
#     4  11  23  40  68  98 124 177 217 258 318 392
#     4  10  22  40  65  99 127 166 218 261 326 382
#     4  11  22  42  63  93 139 170 213 264 320 372
#     4  10  21  41  67  95 127 169 214 262 332 380
#     4  11  22  40  65  97 132 175 210 268 314 383
#     4  10  23  39  65  97 127 176 220 259 319 377
#     4   9  21  43  69  91 131 167 205 278 325 378
#
# _framework density 22.487828
#
# number of rings (size 3 to 8) (size 9 to 14) (size 15 to 20)
#    0.000    1.750    1.250    2.250    1.750    3.500 
#    4.500    0.000    0.000    0.000    0.000    0.000 
#    0.000    0.000    0.000    0.000    0.000    0.000 
#
# Total GULP energy -198299.875155 kJ/mol
# GULP energy per Si atom -12393.742197 kJ/mol
# Density = 2.243664 g / cm^3
# Si number density = 22.487828 Si / 1000 Ang^3
#
#
#
# Elastic Constant Matrix: (Units=GPa)
#
#
# Indices 1 2 3 4 5 6 
#
# 1 112.8815 55.2457 44.7572 7.5942 0.8836 -20.1166
# 2 55.2457 125.7491 27.4100 7.3399 -12.0949 -10.6399
# 3 44.7572 27.4100 86.5114 5.9091 6.3115 -0.0742
# 4 7.5942 7.3399 5.9091 29.2769 -2.9589 -6.0602
# 5 0.8836 -12.0949 6.3115 -2.9589 39.9352 -3.2038
# 6 -20.1166 -10.6399 -0.0742 -6.0602 -3.2038 37.9415
#
#
#
# Elastic Compliance Matrix: (Units=1/GPa)
#
#
# Indices 1 2 3 4 5 6 
#
# 1 0.014689 -0.004591 -0.006114 -0.000114 -0.000240 0.006450
# 2 -0.004591 0.010680 -0.001215 -0.000731 0.003533 0.000740
# 3 -0.006114 -0.001215 0.015504 -0.002434 -0.003201 -0.004211
# 4 -0.000114 -0.000731 -0.002434 0.036403 0.003330 0.005825
# 5 -0.000240 0.003533 -0.003201 0.003330 0.027164 0.003683
# 6 0.006450 0.000740 -0.004211 0.005825 0.003683 0.031217
#
#
# Mechanical properties :
#
#
# Convention : Reuss Voigt Hill
#
# Bulk Modulus (GPa) = 58.71799 64.44087 61.57943
# Shear Modulus (GPa) = 30.27092 34.61264 32.44178
#
# Velocity S-wave (km/s) = 3.67291 3.92748 3.80233
# Velocity P-wave (km/s) = 6.64490 7.02032 6.83519
#
# Compressibility (1/GPa) = 0.01703056
#
# Stress axis : x y z
#
# Youngs Moduli (GPa) = 68.07740 93.63680 64.50148
#
# Poissons Ratio (x) = 0.42993 0.39436
# Poissons Ratio (y) = 0.31257 0.07840
# Poissons Ratio (z) = 0.41622 0.11381
#
# Static dielectric constant tensor:
#      x y z
#    x 4.423100 -0.074990 0.040230 
#    y -0.074990 4.004660 -0.184390 
#    z 0.040230 -0.184390 3.893450 
# 
# 
# High freq. dielectric constant tensor:
#      x y z
#    x 1.911300 -0.000670 0.006850 
#    y -0.000670 1.875190 -0.012830 
#    z 0.006850 -0.012830 1.868060 
# 
# From -- ./inp_files/112810.got.cif
#   From: 2010.06.25/outbox.cif.g09.slc.cpg/sg2_57_cif.got.tgz:112810.got - 2010.06.27 13:26:56.
