data_PCOD8014180
_publ_section_title
;
Structure prediction by ZEFSAII (Michael W. Deem and Ramdas Pophale) SiO2 
 PCOD8014180
Probable space group: P -1
;
_chemical_formula_sum "Si O2"
_cell_formula_units_Z 12
_cell_length_a 6.508577
_cell_length_b 13.748110
_cell_length_c 6.966120
_cell_angle_alpha 81.407190
_cell_angle_beta 68.422215
_cell_angle_gamma 87.554141
_cell_volume 573.091590
_symmetry_space_group_name_H-M "P -1"
_symmetry_group_IT_number 2
_symmetry_cell_setting 'triclinic'
loop_
_space_group_symop_operation_xyz
x,y,z
-x,-y,-z
loop_
_atom_site_type_symbol
_atom_site_label
_atom_site_fract_x
_atom_site_fract_y
_atom_site_fract_z
Si Si1 0.323640 0.279686 0.693742
Si Si2 0.349663 0.864503 0.568287
Si Si3 0.866802 0.615068 0.627296
Si Si4 0.886966 0.787230 0.839471
Si Si5 0.602468 0.968135 0.774722
Si Si6 0.653369 0.438917 0.602703
O O1 0.441155 0.198874 0.546930
O O2 0.174510 0.345824 0.586506
O O3 0.507477 0.342300 0.735485
O O4 0.161683 0.225544 0.915009
O O5 0.406107 0.926518 0.720853
O O6 0.147768 0.792064 0.710209
O O7 0.284755 0.937615 0.395381
O O8 0.786479 0.692814 0.789330
O O9 0.728012 0.511673 0.731236
O O10 0.125755 0.595273 0.572207
O O11 0.786669 0.887369 0.767221
O O12 0.500000 0.000000 0.000000
O O13 0.500000 0.500000 0.500000
#
# Coordination Sequence:
#
# PCOD8014180 Si02
#       6
#     2   2   2   2   2   2
#     4  11  22  40  64  96 126 164 212 255 307 374
#     4  11  24  42  63  92 130 161 212 265 302 370
#     4  10  21  41  65  94 128 166 205 259 312 364
#     4  12  24  39  68  95 124 170 211 250 316 372
#     4  11  24  44  64  91 128 169 208 258 317 364
#     4   9  20  41  67  90 131 164 202 262 310 368
#
# _framework density 20.939062
#
# number of rings (size 3 to 8) (size 9 to 14) (size 15 to 20)
#    0.000    1.333    5.000    0.500    0.000    4.000 
#    0.000    7.500    0.000    0.000    0.000    0.000 
#    0.000    0.000    0.000    0.000    0.000    0.000 
#
# Total GULP energy -148777.155113 kJ/mol
# GULP energy per Si atom -12398.096259 kJ/mol
# Density = 2.089140 g / cm^3
# Si number density = 20.939062 Si / 1000 Ang^3
#
#
#
# Elastic Constant Matrix: (Units=GPa)
#
#
# Indices 1 2 3 4 5 6 
#
# 1 84.3861 30.3105 40.8747 6.4271 -4.4397 -7.0640
# 2 30.3105 109.6511 38.8767 17.0888 -6.5424 -1.8087
# 3 40.8747 38.8767 118.1091 11.9150 -8.0630 6.2714
# 4 6.4271 17.0888 11.9150 28.0281 -2.9603 1.7255
# 5 -4.4397 -6.5424 -8.0630 -2.9603 24.4154 -3.7403
# 6 -7.0640 -1.8087 6.2714 1.7255 -3.7403 41.2626
#
#
#
# Elastic Compliance Matrix: (Units=1/GPa)
#
#
# Indices 1 2 3 4 5 6 
#
# 1 0.015294 -0.002465 -0.004567 -0.000150 0.001101 0.003311
# 2 -0.002465 0.011572 -0.002363 -0.005393 0.001340 0.000791
# 3 -0.004567 -0.002363 0.011263 -0.001980 0.001654 -0.002365
# 4 -0.000150 -0.005393 -0.001980 0.040197 0.002531 -0.001413
# 5 0.001101 0.001340 0.001654 0.002531 0.042950 0.003783
# 6 0.003311 0.000791 -0.002365 -0.001413 0.003783 0.025598
#
#
# Mechanical properties :
#
#
# Convention : Reuss Voigt Hill
#
# Bulk Modulus (GPa) = 51.70396 59.14111 55.42254
# Shear Modulus (GPa) = 29.05108 32.21352 30.63230
#
# Velocity S-wave (km/s) = 3.72884 3.92655 3.82897
# Velocity P-wave (km/s) = 6.57915 6.99019 6.78778
#
# Compressibility (1/GPa) = 0.01934088
#
# Stress axis : x y z
#
# Youngs Moduli (GPa) = 65.38364 86.41284 88.78463
#
# Poissons Ratio (x) = 0.21299 0.40549
# Poissons Ratio (y) = 0.16115 0.20976
# Poissons Ratio (z) = 0.29862 0.20416
#
# Static dielectric constant tensor:
#      x y z
#    x 3.805170 0.159010 0.059750 
#    y 0.159010 4.262060 -0.025850 
#    z 0.059750 -0.025850 3.470240 
# 
# 
# High freq. dielectric constant tensor:
#      x y z
#    x 1.818600 -0.001710 0.001970 
#    y -0.001710 1.847230 0.004570 
#    z 0.001970 0.004570 1.792010 
# 
# From -- ./inp_files/3420.got.cif
#   From: 2010.06.25/outbox.cif.g09.slc.cpg/sg2_2_cif.got.tgz:3420.got - 2010.06.27 13:26:56.
