data_PCOD8014596
_publ_section_title
;
Structure prediction by ZEFSAII (Michael W. Deem and Ramdas Pophale) SiO2 
 PCOD8014596
Probable space group: P -1
;
_chemical_formula_sum "Si O2"
_cell_formula_units_Z 16
_cell_length_a 9.450239
_cell_length_b 9.068834
_cell_length_c 11.059279
_cell_angle_alpha 51.351882
_cell_angle_beta 96.544527
_cell_angle_gamma 100.044663
_cell_volume 728.873712
_symmetry_space_group_name_H-M "P -1"
_symmetry_group_IT_number 2
_symmetry_cell_setting 'triclinic'
loop_
_space_group_symop_operation_xyz
x,y,z
-x,-y,-z
loop_
_atom_site_type_symbol
_atom_site_label
_atom_site_fract_x
_atom_site_fract_y
_atom_site_fract_z
Si Si1 0.022782 0.293975 0.555474
Si Si2 0.476916 0.811992 0.516142
Si Si3 0.279230 0.079683 0.675801
Si Si4 0.114121 0.006900 0.113134
Si Si5 0.658127 0.101682 0.978230
Si Si6 0.429939 0.520560 0.163507
Si Si7 0.192145 0.756310 0.640921
Si Si8 0.277684 0.404219 0.961965
O O1 0.942011 0.122797 0.714200
O O2 0.962345 0.271866 0.424152
O O3 0.000000 0.500000 0.500000
O O4 0.190543 0.260969 0.584919
O O5 0.549599 0.853360 0.369395
O O6 0.567464 0.653956 0.657309
O O7 0.305783 0.748394 0.543384
O O8 0.500000 0.000000 0.500000
O O9 0.267273 0.967603 0.858156
O O10 0.214335 0.947575 0.625308
O O11 0.256465 0.934348 0.114756
O O12 0.155120 0.224250 0.048494
O O13 0.000000 0.000000 0.000000
O O14 0.661762 0.328167 0.866032
O O15 0.500000 0.000000 0.000000
O O16 0.592386 0.624363 0.102137
O O17 0.349919 0.434949 0.081939
O O18 0.202631 0.584241 0.822084
#
# Coordination Sequence:
#
# PCOD8014596 Si02
#       8
#     2   2   2   2   2   2   2   2
#     4  12  28  46  67  93 143 186 222 275 343 407
#     4   9  22  38  69 101 133 164 222 279 334 392
#     4  11  24  46  65 102 135 177 226 280 333 403
#     4  12  26  45  65  96 139 182 226 277 341 403
#     4  12  25  43  70  99 136 177 229 282 338 403
#     4  10  21  41  69 105 129 175 223 283 338 397
#     4  10  22  44  70  99 131 175 225 279 340 396
#     4  10  21  41  71  98 134 171 229 280 334 405
#
# _framework density 21.951675999999999
#
# number of rings (size 3 to 8) (size 9 to 14) (size 15 to 20)
#    0.000    1.250    3.750    1.125    8.750    0.000 
#    0.000    2.500    0.000    0.000    0.000    0.000 
#    0.000    0.000    0.000    0.000    0.000    0.000 
#
# Total GULP energy -198348.627364 kJ/mol
# GULP energy per Si atom -12396.789210 kJ/mol
# Density = 2.190171 g / cm^3
# Si number density = 21.951676 Si / 1000 Ang^3
#
#
#
# Elastic Constant Matrix: (Units=GPa)
#
#
# Indices 1 2 3 4 5 6 
#
# 1 73.5598 16.8792 1.0294 -9.2549 4.0731 -9.9376
# 2 16.8792 73.0058 10.7006 -20.5837 6.5351 -3.5534
# 3 1.0294 10.7006 59.8920 -16.3253 6.3789 -0.7929
# 4 -9.2549 -20.5837 -16.3253 41.3949 -0.3398 6.1087
# 5 4.0731 6.5351 6.3789 -0.3398 43.4904 -0.8328
# 6 -9.9376 -3.5534 -0.7929 6.1087 -0.8328 42.9207
#
#
#
# Elastic Compliance Matrix: (Units=1/GPa)
#
#
# Indices 1 2 3 4 5 6 
#
# 1 0.014918 -0.002826 0.000899 0.001840 -0.001034 0.002955
# 2 -0.002826 0.016722 -0.000690 0.007450 -0.002096 -0.000384
# 3 0.000899 -0.000690 0.019124 0.007468 -0.002739 -0.000612
# 4 0.001840 0.007450 0.007468 0.031699 -0.002204 -0.003373
# 5 -0.001034 -0.002096 -0.002739 -0.002204 0.023796 0.000312
# 6 0.002955 -0.000384 -0.000612 -0.003373 0.000312 0.024426
#
#
# Mechanical properties :
#
#
# Convention : Reuss Voigt Hill
#
# Bulk Modulus (GPa) = 21.96333 29.29733 25.63033
# Shear Modulus (GPa) = 33.09210 37.41774 35.25492
#
# Velocity S-wave (km/s) = 3.88686 4.13310 4.01187
# Velocity P-wave (km/s) = 5.49278 6.01265 5.75858
#
# Compressibility (1/GPa) = 0.04553043
#
# Stress axis : x y z
#
# Youngs Moduli (GPa) = 67.03244 59.80312 52.29119
#
# Poissons Ratio (x) = 0.16899 -0.04703
# Poissons Ratio (y) = 0.18942 0.03608
# Poissons Ratio (z) = -0.06028 0.04127
#
# Static dielectric constant tensor:
#      x y z
#    x 4.369880 -0.190380 -0.422490 
#    y -0.190380 3.797250 0.160920 
#    z -0.422490 0.160920 4.398270 
# 
# 
# High freq. dielectric constant tensor:
#      x y z
#    x 1.862790 -0.006830 0.007960 
#    y -0.006830 1.858250 -0.008870 
#    z 0.007960 -0.008870 1.870080 
# 
# From -- ./inp_files/184145.got.cif
#   From: 2010.06.25/outbox.cif.g09.slc.cpg/sg2_93_cif.got.tgz:184145.got - 2010.06.27 13:26:56.
