data_PCOD8014410
_publ_section_title
;
Structure prediction by ZEFSAII (Michael W. Deem and Ramdas Pophale) SiO2 
 PCOD8014410
Probable space group: P -1
;
_chemical_formula_sum "Si O2"
_cell_formula_units_Z 16
_cell_length_a 8.063225
_cell_length_b 9.403409
_cell_length_c 13.892669
_cell_angle_alpha 120.639976
_cell_angle_beta 116.557304
_cell_angle_gamma 95.315633
_cell_volume 737.035218
_symmetry_space_group_name_H-M "P -1"
_symmetry_group_IT_number 2
_symmetry_cell_setting 'triclinic'
loop_
_space_group_symop_operation_xyz
x,y,z
-x,-y,-z
loop_
_atom_site_type_symbol
_atom_site_label
_atom_site_fract_x
_atom_site_fract_y
_atom_site_fract_z
Si Si1 0.297165 0.909697 0.536556
Si Si2 0.069541 0.901929 0.063970
Si Si3 0.039602 0.494382 0.117579
Si Si4 0.457972 0.730695 0.371013
Si Si5 0.547590 0.077941 0.214354
Si Si6 0.858039 0.678034 0.259621
Si Si7 0.742548 0.834078 0.102537
Si Si8 0.534057 0.415390 0.218050
O O1 0.449199 0.826299 0.502656
O O2 0.301198 0.878052 0.640464
O O3 0.070162 0.820792 0.406405
O O4 0.374441 0.124032 0.605514
O O5 0.974380 0.927788 0.151069
O O6 0.314162 0.969953 0.153080
O O7 0.957768 0.697349 0.924572
O O8 0.000000 0.000000 0.000000
O O9 0.865933 0.513499 0.142883
O O10 0.239887 0.677971 0.247944
O O11 0.000000 0.500000 0.000000
O O12 0.467772 0.534590 0.317870
O O13 0.578372 0.264696 0.234900
O O14 0.622210 0.964443 0.119349
O O15 0.753747 0.773825 0.194542
O O16 0.731576 0.578373 0.284453
O O17 0.622185 0.669692 0.940440
#
# Coordination Sequence:
#
# PCOD8014410 Si02
#       8
#     2   2   2   2   2   2   2   2
#     4  10  25  45  66  99 132 184 228 273 335 401
#     4  12  24  42  70 102 138 179 216 276 357 403
#     4  11  19  38  65  97 128 167 226 278 331 397
#     4  10  21  41  67  92 133 169 229 279 320 399
#     4  12  27  45  67 103 145 178 220 279 338 415
#     4  11  25  42  69  97 133 183 226 282 332 398
#     4  12  25  45  70 104 137 177 224 285 345 396
#     4  12  24  44  67 102 134 175 225 284 343 395
#
# _framework density 21.708597000000001
#
# number of rings (size 3 to 8) (size 9 to 14) (size 15 to 20)
#    0.000    0.750    3.750    3.000    5.250    3.000 
#    0.000    0.000    0.000    0.000    0.000    0.000 
#    0.000    0.000    0.000    0.000    0.000    0.000 
#
# Total GULP energy -198265.338034 kJ/mol
# GULP energy per Si atom -12391.583627 kJ/mol
# Density = 2.165919 g / cm^3
# Si number density = 21.708597 Si / 1000 Ang^3
#
#
#
# Elastic Constant Matrix: (Units=GPa)
#
#
# Indices 1 2 3 4 5 6 
#
# 1 107.1627 37.5084 20.9471 18.8769 -4.7194 -10.7601
# 2 37.5084 130.1934 51.9237 17.8313 4.2991 -5.0096
# 3 20.9471 51.9237 87.3676 7.2477 -4.2183 -11.5023
# 4 18.8769 17.8313 7.2477 32.7533 -3.7943 -3.3897
# 5 -4.7194 4.2991 -4.2183 -3.7943 30.3045 5.1004
# 6 -10.7601 -5.0096 -11.5023 -3.3897 5.1004 35.5523
#
#
#
# Elastic Compliance Matrix: (Units=1/GPa)
#
#
# Indices 1 2 3 4 5 6 
#
# 1 0.011388 -0.002332 -0.000591 -0.004803 0.001030 0.002321
# 2 -0.002332 0.011434 -0.006194 -0.003984 -0.003174 -0.001023
# 3 -0.000591 -0.006194 0.015813 0.000891 0.002460 0.003797
# 4 -0.004803 -0.003984 0.000891 0.035876 0.004250 0.001084
# 5 0.001030 -0.003174 0.002460 0.004250 0.035153 -0.003977
# 6 0.002321 -0.001023 0.003797 0.001084 -0.003977 0.030588
#
#
# Mechanical properties :
#
#
# Convention : Reuss Voigt Hill
#
# Bulk Modulus (GPa) = 49.01394 60.60915 54.81155
# Shear Modulus (GPa) = 30.25068 34.01166 32.13117
#
# Velocity S-wave (km/s) = 3.73700 3.96250 3.85140
# Velocity P-wave (km/s) = 6.42241 6.99394 6.71426
#
# Compressibility (1/GPa) = 0.02040236
#
# Stress axis : x y z
#
# Youngs Moduli (GPa) = 87.81276 87.45865 63.23839
#
# Poissons Ratio (x) = 0.20397 0.03734
# Poissons Ratio (y) = 0.20479 0.39168
# Poissons Ratio (z) = 0.05186 0.54169
#
# Static dielectric constant tensor:
#      x y z
#    x 4.511060 -0.076430 -0.112110 
#    y -0.076430 3.759060 0.080310 
#    z -0.112110 0.080310 3.701960 
# 
# 
# High freq. dielectric constant tensor:
#      x y z
#    x 1.872590 -0.005630 -0.008110 
#    y -0.005630 1.845860 0.013180 
#    z -0.008110 0.013180 1.850510 
# 
# From -- ./inp_files/244237.got.cif
#   From: 2010.06.25/outbox.cif.g09.slc.cpg/sg2_123_cif.got.tgz:244237.got - 2010.06.27 13:26:56.
