data_PCOD8014976
_publ_section_title
;
Structure prediction by ZEFSAII (Michael W. Deem and Ramdas Pophale) SiO2 
 PCOD8014976
Probable space group: P -1
;
_chemical_formula_sum "Si O2"
_cell_formula_units_Z 16
_cell_length_a 11.770769
_cell_length_b 15.876296
_cell_length_c 10.058327
_cell_angle_alpha 62.330692
_cell_angle_beta 75.278836
_cell_angle_gamma 28.596332
_cell_volume 742.636586
_symmetry_space_group_name_H-M "P -1"
_symmetry_group_IT_number 2
_symmetry_cell_setting 'triclinic'
loop_
_space_group_symop_operation_xyz
x,y,z
-x,-y,-z
loop_
_atom_site_type_symbol
_atom_site_label
_atom_site_fract_x
_atom_site_fract_y
_atom_site_fract_z
Si Si1 0.797026 0.861836 0.915380
Si Si2 0.141725 0.334651 0.435935
Si Si3 0.780113 0.750336 0.238030
Si Si4 0.805471 0.062331 0.733290
Si Si5 0.509928 0.559691 0.329115
Si Si6 0.607238 0.364003 0.191355
Si Si7 0.046511 0.241825 0.348167
Si Si8 0.438069 0.802556 0.563529
O O1 0.965326 0.733897 0.825310
O O2 0.520718 0.020165 0.845609
O O3 0.783491 0.979971 0.881108
O O4 0.914576 0.718847 0.108269
O O5 0.132240 0.282532 0.615412
O O6 0.201644 0.218468 0.384741
O O7 0.335870 0.283569 0.428692
O O8 0.865390 0.580196 0.311279
O O9 0.735594 0.194524 0.763570
O O10 0.600431 0.211029 0.564185
O O11 0.088878 0.866375 0.732839
O O12 0.500000 0.500000 0.500000
O O13 0.503879 0.499436 0.245202
O O14 0.761765 0.444270 0.340004
O O15 0.508707 0.325087 0.260243
O O16 0.500000 0.500000 0.000000
O O17 0.180435 0.046657 0.492733
#
# Coordination Sequence:
#
# PCOD8014976 Si02
#       8
#     2   2   2   2   2   2   2   2
#     4  10  21  42  64  91 139 180 217 276 341 395
#     4  11  23  39  65 103 134 177 232 271 336 407
#     4  10  22  38  62  94 135 182 215 275 336 396
#     4  11  22  45  71  98 132 183 228 275 342 417
#     4  12  24  43  76 100 131 186 235 277 341 414
#     4  12  27  47  70 103 140 172 231 294 344 395
#     4  11  23  41  69 102 135 179 233 278 332 412
#     4  11  22  43  70  94 139 186 217 280 340 403
#
# _framework density 21.54486
#
# number of rings (size 3 to 8) (size 9 to 14) (size 15 to 20)
#    0.000    1.000    6.250    2.250    3.500    1.000 
#    2.250    0.000    0.000    0.000    0.000    0.000 
#    0.000    0.000    0.000    0.000    0.000    0.000 
#
# Total GULP energy -198293.446204 kJ/mol
# GULP energy per Si atom -12393.340388 kJ/mol
# Density = 2.149582 g / cm^3
# Si number density = 21.544860 Si / 1000 Ang^3
#
#
#
# Elastic Constant Matrix: (Units=GPa)
#
#
# Indices 1 2 3 4 5 6 
#
# 1 103.7693 38.5826 60.1197 13.0792 -10.7087 16.8063
# 2 38.5826 113.8730 47.0711 18.8946 -1.6776 22.5687
# 3 60.1197 47.0711 163.6809 13.3309 -32.0466 11.6297
# 4 13.0792 18.8946 13.3309 24.8236 -2.3429 0.6287
# 5 -10.7087 -1.6776 -32.0466 -2.3429 29.5551 -0.3260
# 6 16.8063 22.5687 11.6297 0.6287 -0.3260 40.6016
#
#
#
# Elastic Compliance Matrix: (Units=1/GPa)
#
#
# Indices 1 2 3 4 5 6 
#
# 1 0.013582 -0.001679 -0.003907 -0.003667 0.000260 -0.003511
# 2 -0.001679 0.012783 -0.002737 -0.007567 -0.003512 -0.005538
# 3 -0.003907 -0.002737 0.010198 -0.000450 0.009454 0.000301
# 4 -0.003667 -0.007567 -0.000450 0.048242 0.001635 0.005119
# 5 0.000260 -0.003512 0.009454 0.001635 0.044105 -0.000535
# 6 -0.003511 -0.005538 0.000301 0.005119 -0.000535 0.028991
#
#
# Mechanical properties :
#
#
# Convention : Reuss Voigt Hill
#
# Bulk Modulus (GPa) = 50.20769 74.76333 62.48551
# Shear Modulus (GPa) = 27.59575 34.69937 31.14756
#
# Velocity S-wave (km/s) = 3.58278 4.01754 3.80637
# Velocity P-wave (km/s) = 6.36156 7.50316 6.95582
#
# Compressibility (1/GPa) = 0.01991727
#
# Stress axis : x y z
#
# Youngs Moduli (GPa) = 73.62636 78.22626 98.05882
#
# Poissons Ratio (x) = 0.13133 0.38310
# Poissons Ratio (y) = 0.12361 0.26843
# Poissons Ratio (z) = 0.28764 0.21414
#
# Static dielectric constant tensor:
#      x y z
#    x 3.937990 0.230700 -0.268370 
#    y 0.230700 4.504490 0.078290 
#    z -0.268370 0.078290 4.070710 
# 
# 
# High freq. dielectric constant tensor:
#      x y z
#    x 1.841690 -0.000520 -0.015180 
#    y -0.000520 1.851950 -0.000540 
#    z -0.015180 -0.000540 1.836790 
# 
# From -- ./inp_files/272498.got.cif
#   From: 2010.06.25/outbox.cif.g09.slc.cpg/sg2_137_cif.got.tgz:272498.got - 2010.06.27 13:26:56.
