data_PCOD8014723
_publ_section_title
;
Structure prediction by ZEFSAII (Michael W. Deem and Ramdas Pophale) SiO2 
 PCOD8014723
Probable space group: P -1
;
_chemical_formula_sum "Si O2"
_cell_formula_units_Z 14
_cell_length_a 22.463119
_cell_length_b 8.285219
_cell_length_c 18.920170
_cell_angle_alpha 149.133553
_cell_angle_beta 19.553399
_cell_angle_gamma 148.598791
_cell_volume 583.799738
_symmetry_space_group_name_H-M "P -1"
_symmetry_group_IT_number 2
_symmetry_cell_setting 'triclinic'
loop_
_space_group_symop_operation_xyz
x,y,z
-x,-y,-z
loop_
_atom_site_type_symbol
_atom_site_label
_atom_site_fract_x
_atom_site_fract_y
_atom_site_fract_z
Si Si1 0.372691 0.022828 0.909243
Si Si2 0.156732 0.838299 0.448831
Si Si3 0.682033 0.720022 0.436695
Si Si4 0.951680 0.082082 0.163109
Si Si5 0.549063 0.725629 0.941652
Si Si6 0.131311 0.225199 0.491928
Si Si7 0.164613 0.822632 0.934682
O O1 0.320888 0.036718 0.055385
O O2 0.470011 0.730932 0.676895
O O3 0.202263 0.993177 0.034587
O O4 0.532712 0.353327 0.841877
O O5 0.346743 0.782659 0.184570
O O6 0.000000 0.500000 0.500000
O O7 0.189407 0.011776 0.553678
O O8 0.092436 0.087031 0.562251
O O9 0.668658 0.343066 0.332954
O O10 0.777764 0.808799 0.285991
O O11 0.905448 0.424612 0.341755
O O12 0.000000 0.000000 0.000000
O O13 0.130471 0.081441 0.012888
O O14 0.657677 0.773532 0.764165
O O15 0.000000 0.000000 0.500000
O O16 0.000000 0.500000 0.000000
#
# Coordination Sequence:
#
# PCOD8014723 Si02
#       7
#     2   2   2   2   2   2   2
#     4  10  21  41  71 100 140 180 234 286 353 416
#     4  11  25  43  74 104 139 181 236 293 359 423
#     4  10  21  43  67  99 131 183 235 282 354 417
#     4  11  24  44  62  98 141 182 232 290 344 418
#     4  10  24  43  71 104 144 184 229 294 353 419
#     4  12  26  43  69 105 144 186 235 296 350 413
#     4  10  23  39  69  96 133 181 230 279 340 419
#
# _framework density 23.980827999999999
#
# number of rings (size 3 to 8) (size 9 to 14) (size 15 to 20)
#    0.000    1.429    1.429    2.571   10.000    2.286 
#    0.000    1.429    0.000    0.000    0.000    0.000 
#    0.000    0.000    0.000    0.000    0.000    0.000 
#
# Total GULP energy -173500.375773 kJ/mol
# GULP energy per Si atom -12392.883984 kJ/mol
# Density = 2.392625 g / cm^3
# Si number density = 23.980828 Si / 1000 Ang^3
#
#
#
# Elastic Constant Matrix: (Units=GPa)
#
#
# Indices 1 2 3 4 5 6 
#
# 1 169.4843 49.8218 60.2577 -1.6869 -9.6621 -1.7768
# 2 49.8218 72.7359 45.0432 7.4621 -4.5842 -6.8275
# 3 60.2577 45.0432 100.2687 18.0387 2.1938 -8.4379
# 4 -1.6869 7.4621 18.0387 29.5682 -5.8630 -11.0483
# 5 -9.6621 -4.5842 2.1938 -5.8630 45.4948 0.3955
# 6 -1.7768 -6.8275 -8.4379 -11.0483 0.3955 47.1243
#
#
#
# Elastic Compliance Matrix: (Units=1/GPa)
#
#
# Indices 1 2 3 4 5 6 
#
# 1 0.008722 -0.003472 -0.004562 0.004647 0.002321 0.000079
# 2 -0.003472 0.020816 -0.007136 -0.000189 0.001666 0.001549
# 3 -0.004562 -0.007136 0.017814 -0.010237 -0.003863 -0.000384
# 4 0.004647 -0.000189 -0.010237 0.045104 0.007197 0.008829
# 5 0.002321 0.001666 -0.003863 0.007197 0.023745 0.001125
# 6 0.000079 0.001549 -0.000384 0.008829 0.001125 0.023440
#
#
# Mechanical properties :
#
#
# Convention : Reuss Voigt Hill
#
# Bulk Modulus (GPa) = 58.78527 72.52604 65.65565
# Shear Modulus (GPa) = 28.46501 36.92854 32.69677
#
# Velocity S-wave (km/s) = 3.44901 3.92844 3.69650
# Velocity P-wave (km/s) = 6.35827 7.13343 6.75697
#
# Compressibility (1/GPa) = 0.01701107
#
# Stress axis : x y z
#
# Youngs Moduli (GPa) = 114.64813 48.03974 56.13414
#
# Poissons Ratio (x) = 0.16682 0.25608
# Poissons Ratio (y) = 0.39812 0.40060
# Poissons Ratio (z) = 0.52302 0.34283
#
# Static dielectric constant tensor:
#      x y z
#    x 4.666530 -0.139020 -0.317120 
#    y -0.139020 4.051090 0.455240 
#    z -0.317120 0.455240 5.228160 
# 
# 
# High freq. dielectric constant tensor:
#      x y z
#    x 1.955420 0.013200 -0.010240 
#    y 0.013200 1.931710 0.022930 
#    z -0.010240 0.022930 1.973780 
# 
# From -- ./inp_files/601962.got.cif
#   From: 2010.06.25/outbox.cif.g09.slc.cpg/sg2_301_cif.got.tgz:601962.got - 2010.06.27 13:26:56.
