data_PCOD8014320
_publ_section_title
;
Structure prediction by ZEFSAII (Michael W. Deem and Ramdas Pophale) SiO2 
 PCOD8014320
Probable space group: P -1
;
_chemical_formula_sum "Si O2"
_cell_formula_units_Z 16
_cell_length_a 12.285376
_cell_length_b 8.653706
_cell_length_c 21.344029
_cell_angle_alpha 149.149244
_cell_angle_beta 140.831405
_cell_angle_gamma 51.880151
_cell_volume 726.746816
_symmetry_space_group_name_H-M "P -1"
_symmetry_group_IT_number 2
_symmetry_cell_setting 'triclinic'
loop_
_space_group_symop_operation_xyz
x,y,z
-x,-y,-z
loop_
_atom_site_type_symbol
_atom_site_label
_atom_site_fract_x
_atom_site_fract_y
_atom_site_fract_z
Si Si1 0.957065 0.707032 0.466236
Si Si2 0.409412 0.761349 0.082422
Si Si3 0.266510 0.306410 0.162247
Si Si4 0.621740 0.342333 0.543927
Si Si5 0.059948 0.084335 0.332531
Si Si6 0.113738 0.591797 0.987695
Si Si7 0.334550 0.851463 0.295010
Si Si8 0.750948 0.994777 0.381951
O O1 0.898782 0.873889 0.560464
O O2 0.827285 0.713761 0.351311
O O3 0.961737 0.354126 0.358548
O O4 0.146438 0.886155 0.593431
O O5 0.547244 0.917022 0.248843
O O6 0.358421 0.002733 0.092202
O O7 0.500000 0.500000 0.000000
O O8 0.229756 0.634216 0.992000
O O9 0.289130 0.423520 0.284121
O O10 0.364957 0.553173 0.243992
O O11 0.058881 0.245347 0.036884
O O12 0.500000 0.500000 0.500000
O O13 0.519986 0.035049 0.422903
O O14 0.774298 0.254180 0.536587
O O15 0.241441 0.080806 0.376257
O O16 0.937882 0.769329 0.152332
O O17 0.218425 0.741397 0.145304
#
# Coordination Sequence:
#
# PCOD8014320 Si02
#       8
#     2   2   2   2   2   2   2   2
#     4  10  23  40  65  93 134 170 214 270 332 401
#     4  12  26  43  64  96 136 177 221 271 332 401
#     4  11  24  42  69  97 131 177 225 273 333 384
#     4  12  22  41  67  99 128 168 225 278 319 382
#     4  10  21  41  66  96 126 173 217 267 332 391
#     4  11  23  46  66  96 134 176 223 268 332 404
#     4  11  23  42  69  97 133 168 228 273 328 390
#     4  11  22  42  62  94 130 173 218 267 330 391
#
# _framework density 22.015919
#
# number of rings (size 3 to 8) (size 9 to 14) (size 15 to 20)
#    0.000    1.000    2.500    5.250    0.000    3.000 
#    4.500    1.250    0.000    0.000    0.000    0.000 
#    0.000    0.000    0.000    0.000    0.000    0.000 
#
# Total GULP energy -198405.290017 kJ/mol
# GULP energy per Si atom -12400.330626 kJ/mol
# Density = 2.196581 g / cm^3
# Si number density = 22.015919 Si / 1000 Ang^3
#
#
#
# Elastic Constant Matrix: (Units=GPa)
#
#
# Indices 1 2 3 4 5 6 
#
# 1 106.4652 32.0953 12.6982 12.3371 -10.9766 -0.0879
# 2 32.0953 123.7294 22.4155 10.7223 -8.3645 -3.7297
# 3 12.6982 22.4155 59.2709 1.2013 -11.7102 -8.2842
# 4 12.3371 10.7223 1.2013 31.0489 -5.7201 -6.1751
# 5 -10.9766 -8.3645 -11.7102 -5.7201 34.3552 -0.0519
# 6 -0.0879 -3.7297 -8.2842 -6.1751 -0.0519 30.1607
#
#
#
# Elastic Compliance Matrix: (Units=1/GPa)
#
#
# Indices 1 2 3 4 5 6 
#
# 1 0.010788 -0.002194 -0.001206 -0.003376 0.001938 -0.001259
# 2 -0.002194 0.009402 -0.003023 -0.002251 0.000183 -0.000135
# 3 -0.001206 -0.003023 0.020272 0.003060 0.006307 0.005828
# 4 -0.003376 -0.002251 0.003060 0.036845 0.005563 0.008105
# 5 0.001938 0.000183 0.006307 0.005563 0.032852 0.002956
# 6 -0.001259 -0.000135 0.005828 0.008105 0.002956 0.036401
#
#
# Mechanical properties :
#
#
# Convention : Reuss Voigt Hill
#
# Bulk Modulus (GPa) = 36.21132 47.09817 41.65475
# Shear Modulus (GPa) = 29.65409 33.93005 31.79207
#
# Velocity S-wave (km/s) = 3.67405 3.93002 3.80419
# Velocity P-wave (km/s) = 5.87211 6.48326 6.18524
#
# Compressibility (1/GPa) = 0.02761567
#
# Stress axis : x y z
#
# Youngs Moduli (GPa) = 92.69579 106.35605 49.32951
#
# Poissons Ratio (x) = 0.23338 0.05950
# Poissons Ratio (y) = 0.20341 0.14911
# Poissons Ratio (z) = 0.11180 0.32150
#
# Static dielectric constant tensor:
#      x y z
#    x 4.356580 0.117720 -0.168540 
#    y 0.117720 4.314640 -0.065480 
#    z -0.168540 -0.065480 3.967950 
# 
# 
# High freq. dielectric constant tensor:
#      x y z
#    x 1.875380 0.005140 -0.006070 
#    y 0.005140 1.879870 -0.001540 
#    z -0.006070 -0.001540 1.854810 
# 
# From -- ./inp_files/405381.got.cif
#   From: 2010.06.25/outbox.cif.g09.slc.cpg/sg2_203_cif.got.tgz:405381.got - 2010.06.27 13:26:56.
