data_PCOD8014193
_publ_section_title
;
Structure prediction by ZEFSAII (Michael W. Deem and Ramdas Pophale) SiO2 
 PCOD8014193
Probable space group: P -1
;
_chemical_formula_sum "Si O2"
_cell_formula_units_Z 14
_cell_length_a 6.856755
_cell_length_b 20.068384
_cell_length_c 8.760534
_cell_angle_alpha 42.023152
_cell_angle_beta 91.473234
_cell_angle_gamma 115.541931
_cell_volume 635.643486
_symmetry_space_group_name_H-M "P -1"
_symmetry_group_IT_number 2
_symmetry_cell_setting 'triclinic'
loop_
_space_group_symop_operation_xyz
x,y,z
-x,-y,-z
loop_
_atom_site_type_symbol
_atom_site_label
_atom_site_fract_x
_atom_site_fract_y
_atom_site_fract_z
Si Si1 0.982797 0.822795 0.968522
Si Si2 0.985755 0.379817 0.242196
Si Si3 0.898228 0.990890 0.848804
Si Si4 0.678231 0.224975 0.777571
Si Si5 0.587627 0.397426 0.621091
Si Si6 0.551839 0.475922 0.791898
Si Si7 0.937542 0.764821 0.727757
O O1 0.062020 0.830255 0.781785
O O2 0.004729 0.945606 0.804968
O O3 0.705847 0.700978 0.196529
O O4 0.157999 0.814504 0.095393
O O5 0.244298 0.428263 0.244129
O O6 0.954912 0.305901 0.213215
O O7 0.753302 0.280419 0.513913
O O8 0.000000 0.500000 0.000000
O O9 0.994206 0.129145 0.571168
O O10 0.603177 0.897932 0.011626
O O11 0.000000 0.000000 0.000000
O O12 0.719317 0.334401 0.699539
O O13 0.697708 0.476278 0.646789
O O14 0.618813 0.483420 0.333147
O O15 0.361712 0.335033 0.096392
#
# Coordination Sequence:
#
# PCOD8014193 Si02
#       7
#     2   2   2   2   2   2   2
#     4  10  22  45  69  97 126 168 223 266 322 381
#     4  12  26  39  64 103 134 171 216 264 325 384
#     4  11  26  45  70  95 128 172 216 268 327 383
#     4  11  24  43  69  94 131 167 219 267 322 386
#     4   9  20  40  69  97 127 173 211 269 322 381
#     4  10  21  41  65  94 135 170 216 263 324 381
#     4  11  25  43  66  93 134 175 212 269 322 380
#
# _framework density 22.024926000000001
#
# number of rings (size 3 to 8) (size 9 to 14) (size 15 to 20)
#    0.000    1.429    1.429    2.571    6.000    3.429 
#    0.000    0.000    0.000    0.000    0.000    0.000 
#    0.000    0.000    0.000    0.000    0.000    0.000 
#
# Total GULP energy -173630.974908 kJ/mol
# GULP energy per Si atom -12402.212493 kJ/mol
# Density = 2.197480 g / cm^3
# Si number density = 22.024926 Si / 1000 Ang^3
#
#
#
# Elastic Constant Matrix: (Units=GPa)
#
#
# Indices 1 2 3 4 5 6 
#
# 1 93.9642 32.4318 36.9465 1.3601 6.0003 -20.0509
# 2 32.4318 113.2082 34.0010 8.0035 4.9217 -27.0968
# 3 36.9465 34.0010 142.5962 0.7895 9.1550 -10.9358
# 4 1.3601 8.0035 0.7895 33.3164 -3.8801 3.6676
# 5 6.0003 4.9217 9.1550 -3.8801 28.4216 -0.4807
# 6 -20.0509 -27.0968 -10.9358 3.6676 -0.4807 34.3084
#
#
#
# Elastic Compliance Matrix: (Units=1/GPa)
#
#
# Indices 1 2 3 4 5 6 
#
# 1 0.013594 -0.001539 -0.002574 -0.000994 -0.001809 0.005990
# 2 -0.001539 0.012198 -0.001725 -0.003961 -0.001627 0.008586
# 3 -0.002574 -0.001725 0.008181 0.000152 -0.001778 -0.000300
# 4 -0.000994 -0.003961 0.000152 0.032380 0.005148 -0.007051
# 5 -0.001809 -0.001627 -0.001778 0.005148 0.037074 -0.002940
# 6 0.005990 0.008586 -0.000300 -0.007051 -0.002940 0.040046
#
#
# Mechanical properties :
#
#
# Convention : Reuss Voigt Hill
#
# Bulk Modulus (GPa) = 44.84841 61.83633 53.34237
# Shear Modulus (GPa) = 30.75407 35.63523 33.19465
#
# Velocity S-wave (km/s) = 3.74080 4.02674 3.88640
# Velocity P-wave (km/s) = 6.25019 7.05380 6.66412
#
# Compressibility (1/GPa) = 0.02229733
#
# Stress axis : x y z
#
# Youngs Moduli (GPa) = 73.56398 81.98120 122.22883
#
# Poissons Ratio (x) = 0.12613 0.31465
# Poissons Ratio (y) = 0.11318 0.21085
# Poissons Ratio (z) = 0.18937 0.14142
#
# Static dielectric constant tensor:
#      x y z
#    x 4.012650 -0.092690 -0.146080 
#    y -0.092690 4.368420 -0.088900 
#    z -0.146080 -0.088900 4.173390 
# 
# 
# High freq. dielectric constant tensor:
#      x y z
#    x 1.853410 -0.015380 0.000390 
#    y -0.015380 1.873280 0.000980 
#    z 0.000390 0.000980 1.875950 
# 
# From -- ./inp_files/90305.got.cif
#   From: 2010.06.25/outbox.cif.g09.slc.cpg/sg2_46_cif.got.tgz:90305.got - 2010.06.27 13:26:56.
