data_PCOD8014150
_publ_section_title
;
Structure prediction by ZEFSAII (Michael W. Deem and Ramdas Pophale) SiO2 
 PCOD8014150
Probable space group: P -1
;
_chemical_formula_sum "Si O2"
_cell_formula_units_Z 16
_cell_length_a 10.979764
_cell_length_b 14.321555
_cell_length_c 5.883239
_cell_angle_alpha 62.121879
_cell_angle_beta 86.663551
_cell_angle_gamma 62.466748
_cell_volume 710.264963
_symmetry_space_group_name_H-M "P -1"
_symmetry_group_IT_number 2
_symmetry_cell_setting 'triclinic'
loop_
_space_group_symop_operation_xyz
x,y,z
-x,-y,-z
loop_
_atom_site_type_symbol
_atom_site_label
_atom_site_fract_x
_atom_site_fract_y
_atom_site_fract_z
Si Si1 0.981422 0.635047 0.121421
Si Si2 0.005440 0.844369 0.119205
Si Si3 0.744385 0.053533 0.727121
Si Si4 0.784463 0.544478 0.397468
Si Si5 0.130203 0.672807 0.679512
Si Si6 0.505621 0.247104 0.849577
Si Si7 0.744332 0.218253 0.155119
Si Si8 0.435464 0.054610 0.197119
O O1 0.956897 0.750453 0.140211
O O2 0.119789 0.511251 0.327756
O O3 0.845526 0.618178 0.165492
O O4 0.010574 0.654463 0.836247
O O5 0.050868 0.805904 0.418414
O O6 0.139697 0.834512 0.991722
O O7 0.881035 0.984215 0.953081
O O8 0.613804 0.164716 0.738669
O O9 0.776696 0.104466 0.439833
O O10 0.709937 0.947303 0.780361
O O11 0.785519 0.435731 0.379465
O O12 0.621601 0.631341 0.384153
O O13 0.243121 0.675352 0.836604
O O14 0.589712 0.278074 0.994350
O O15 0.427046 0.184118 0.055440
O O16 0.500000 0.000000 0.500000
O O17 0.500000 0.000000 0.000000
#
# Coordination Sequence:
#
# PCOD8014150 Si02
#       8
#     2   2   2   2   2   2   2   2
#     4   9  20  41  67  92 120 156 211 271 321 388
#     4  10  22  41  64  91 123 164 216 268 320 390
#     4  11  23  41  65  93 128 169 214 265 329 391
#     4  10  21  41  65  92 125 160 214 263 328 387
#     4  10  22  41  63  91 122 165 214 271 322 376
#     4  11  24  39  62  95 131 170 207 266 327 403
#     4  11  23  40  60  89 129 166 218 261 324 389
#     4  10  21  43  64  94 136 172 214 269 333 404
#
# _framework density 22.526803000000001
#
# number of rings (size 3 to 8) (size 9 to 14) (size 15 to 20)
#    0.000    1.750    1.250    2.250    0.000    5.500 
#    4.500    8.750    0.000    0.000    0.000    0.000 
#    0.000    0.000    0.000    0.000    0.000    0.000 
#
# Total GULP energy -198255.188907 kJ/mol
# GULP energy per Si atom -12390.949307 kJ/mol
# Density = 2.247553 g / cm^3
# Si number density = 22.526803 Si / 1000 Ang^3
#
#
#
# Elastic Constant Matrix: (Units=GPa)
#
#
# Indices 1 2 3 4 5 6 
#
# 1 121.6379 37.5513 48.0948 -10.1745 6.5599 -7.2721
# 2 37.5513 67.8588 32.6739 -5.1960 12.7618 -17.7939
# 3 48.0948 32.6739 134.3526 4.0423 -6.2157 -25.3000
# 4 -10.1745 -5.1960 4.0423 29.0244 -1.2764 9.9918
# 5 6.5599 12.7618 -6.2157 -1.2764 46.3651 -7.4762
# 6 -7.2721 -17.7939 -25.3000 9.9918 -7.4762 33.0041
#
#
#
# Elastic Compliance Matrix: (Units=1/GPa)
#
#
# Indices 1 2 3 4 5 6 
#
# 1 0.011699 -0.005172 -0.004196 0.005572 -0.001521 -0.005459
# 2 -0.005172 0.021421 -0.001993 -0.000689 -0.004136 0.008153
# 3 -0.004196 -0.001993 0.011691 -0.006690 0.004125 0.009922
# 4 0.005572 -0.000689 -0.006690 0.043310 -0.003224 -0.018115
# 5 -0.001521 -0.004136 0.004125 -0.003224 0.024536 0.007131
# 6 -0.005459 0.008153 0.009922 -0.018115 0.007131 0.048198
#
#
# Mechanical properties :
#
#
# Convention : Reuss Voigt Hill
#
# Bulk Modulus (GPa) = 45.27379 62.27662 53.77520
# Shear Modulus (GPa) = 26.18637 35.38067 30.78352
#
# Velocity S-wave (km/s) = 3.41318 3.96738 3.70067
# Velocity P-wave (km/s) = 5.97281 6.97800 6.49488
#
# Compressibility (1/GPa) = 0.02208783
#
# Stress axis : x y z
#
# Youngs Moduli (GPa) = 85.48063 46.68236 85.53938
#
# Poissons Ratio (x) = 0.24144 0.35891
# Poissons Ratio (y) = 0.44211 0.17051
# Poissons Ratio (z) = 0.35867 0.09305
#
# Static dielectric constant tensor:
#      x y z
#    x 4.358790 0.329540 -0.104310 
#    y 0.329540 3.792040 -0.017820 
#    z -0.104310 -0.017820 4.249970 
# 
# 
# High freq. dielectric constant tensor:
#      x y z
#    x 1.902200 0.023850 -0.009780 
#    y 0.023850 1.865500 -0.000820 
#    z -0.009780 -0.000820 1.892410 
# 
# From -- ./inp_files/69718.got.cif
#   From: 2010.06.25/outbox.cif.g09.slc.cpg/sg2_35_cif.got.tgz:69718.got - 2010.06.27 13:26:56.
