data_PCOD8014763
_publ_section_title
;
Structure prediction by ZEFSAII (Michael W. Deem and Ramdas Pophale) SiO2 
 PCOD8014763
Probable space group: P -1
;
_chemical_formula_sum "Si O2"
_cell_formula_units_Z 16
_cell_length_a 14.187476
_cell_length_b 12.266883
_cell_length_c 8.318705
_cell_angle_alpha 72.390473
_cell_angle_beta 49.838986
_cell_angle_gamma 110.957518
_cell_volume 686.770638
_symmetry_space_group_name_H-M "P -1"
_symmetry_group_IT_number 2
_symmetry_cell_setting 'triclinic'
loop_
_space_group_symop_operation_xyz
x,y,z
-x,-y,-z
loop_
_atom_site_type_symbol
_atom_site_label
_atom_site_fract_x
_atom_site_fract_y
_atom_site_fract_z
Si Si1 0.074526 0.892193 0.782690
Si Si2 0.894435 0.296768 0.689945
Si Si3 0.328892 0.673363 0.878686
Si Si4 0.320826 0.251048 0.172971
Si Si5 0.292212 0.471763 0.249348
Si Si6 0.682655 0.708680 0.198750
Si Si7 0.298349 0.034973 0.789321
Si Si8 0.002729 0.396393 0.163452
O O1 0.084631 0.771696 0.757642
O O2 0.215569 0.067113 0.442417
O O3 0.132045 0.931101 0.888627
O O4 0.857517 0.779272 0.073397
O O5 0.090828 0.394010 0.516969
O O6 0.896705 0.329239 0.483761
O O7 0.823112 0.357722 0.838412
O O8 0.753751 0.090784 0.957949
O O9 0.509904 0.877620 0.544946
O O10 0.402393 0.613343 0.919671
O O11 0.225017 0.545234 0.895288
O O12 0.264102 0.317761 0.318689
O O13 0.551930 0.400479 0.836950
O O14 0.242691 0.221848 0.095511
O O15 0.500000 0.500000 0.500000
O O16 0.638127 0.800812 0.278456
O O17 0.000000 0.500000 0.000000
#
# Coordination Sequence:
#
# PCOD8014763 Si02
#       8
#     2   2   2   2   2   2   2   2
#     4  12  25  44  70 101 142 184 230 287 351 417
#     4  11  24  44  76  99 140 185 237 284 352 414
#     4  11  23  48  68  99 144 187 235 286 347 410
#     4  11  23  42  71 100 143 180 231 287 354 411
#     4  10  21  41  72 101 135 186 231 283 349 416
#     4  12  26  42  68 105 142 181 229 289 352 421
#     4  12  25  45  67 104 142 183 236 290 343 414
#     4  11  24  46  72 103 135 182 231 290 350 416
#
# _framework density 23.297440999999999
#
# number of rings (size 3 to 8) (size 9 to 14) (size 15 to 20)
#    0.000    0.750    1.250    7.875    3.500    0.000 
#    4.500    1.250    0.000    0.000    0.000    0.000 
#    0.000    0.000    0.000    0.000    0.000    0.000 
#
# Total GULP energy -198269.418497 kJ/mol
# GULP energy per Si atom -12391.838656 kJ/mol
# Density = 2.324441 g / cm^3
# Si number density = 23.297441 Si / 1000 Ang^3
#
#
#
# Elastic Constant Matrix: (Units=GPa)
#
#
# Indices 1 2 3 4 5 6 
#
# 1 93.9390 38.2392 49.4605 -13.0919 14.9211 2.0460
# 2 38.2392 125.9154 41.7567 -35.1994 11.6747 -11.4637
# 3 49.4605 41.7567 127.9652 -17.8661 16.9756 -6.6961
# 4 -13.0919 -35.1994 -17.8661 32.6857 -7.1396 5.0937
# 5 14.9211 11.6747 16.9756 -7.1396 48.2837 -5.8121
# 6 2.0460 -11.4637 -6.6961 5.0937 -5.8121 39.9037
#
#
#
# Elastic Compliance Matrix: (Units=1/GPa)
#
#
# Indices 1 2 3 4 5 6 
#
# 1 0.014702 -0.002950 -0.004508 0.000117 -0.002558 -0.002745
# 2 -0.002950 0.012640 -0.001311 0.011439 0.000265 0.002141
# 3 -0.004508 -0.001311 0.010533 0.002023 -0.001557 0.001137
# 4 0.000117 0.011439 0.002023 0.044970 0.002932 -0.001694
# 5 -0.002558 0.000265 -0.001557 0.002932 0.022766 0.002888
# 6 -0.002745 0.002141 0.001137 -0.001694 0.002888 0.026644
#
#
# Mechanical properties :
#
#
# Convention : Reuss Voigt Hill
#
# Bulk Modulus (GPa) = 49.16749 67.41471 58.29110
# Shear Modulus (GPa) = 31.93420 38.73216 35.33318
#
# Velocity S-wave (km/s) = 3.70634 4.08181 3.89860
# Velocity P-wave (km/s) = 6.28219 7.15641 6.73351
#
# Compressibility (1/GPa) = 0.02033864
#
# Stress axis : x y z
#
# Youngs Moduli (GPa) = 68.01817 79.11156 94.93790
#
# Poissons Ratio (x) = 0.23338 0.42797
# Poissons Ratio (y) = 0.20065 0.12442
# Poissons Ratio (z) = 0.30662 0.10368
#
# Static dielectric constant tensor:
#      x y z
#    x 4.510460 0.127000 0.073830 
#    y 0.127000 4.220910 -0.304260 
#    z 0.073830 -0.304260 4.354930 
# 
# 
# High freq. dielectric constant tensor:
#      x y z
#    x 1.929630 -0.003070 0.007610 
#    y -0.003070 1.919750 -0.024390 
#    z 0.007610 -0.024390 1.935380 
# 
# From -- ./inp_files/306921.got.cif
#   From: 2010.06.25/outbox.cif.g09.slc.cpg/sg2_154_cif.got.tgz:306921.got - 2010.06.27 13:26:56.
