data_PCOD8014059
_publ_section_title
;
Structure prediction by ZEFSAII (Michael W. Deem and Ramdas Pophale) SiO2 
 PCOD8014059
Probable space group: P -1
;
_chemical_formula_sum "Si O2"
_cell_formula_units_Z 14
_cell_length_a 10.384902
_cell_length_b 8.959453
_cell_length_c 12.103637
_cell_angle_alpha 131.777375
_cell_angle_beta 57.864313
_cell_angle_gamma 137.335345
_cell_volume 567.181300
_symmetry_space_group_name_H-M "P -1"
_symmetry_group_IT_number 2
_symmetry_cell_setting 'triclinic'
loop_
_space_group_symop_operation_xyz
x,y,z
-x,-y,-z
loop_
_atom_site_type_symbol
_atom_site_label
_atom_site_fract_x
_atom_site_fract_y
_atom_site_fract_z
Si Si1 0.824550 0.429689 0.386147
Si Si2 0.290210 0.072722 0.736647
Si Si3 0.509203 0.710008 0.669367
Si Si4 0.622126 0.517861 0.695593
Si Si5 0.131126 0.718129 0.214801
Si Si6 0.196720 0.100313 0.018659
Si Si7 0.931119 0.704625 0.092367
O O1 0.671505 0.301424 0.291545
O O2 0.778032 0.576054 0.562280
O O3 0.034524 0.614435 0.328661
O O4 0.815261 0.224567 0.366645
O O5 0.475264 0.222202 0.646417
O O6 0.157304 0.145823 0.791054
O O7 0.343517 0.148073 0.879720
O O8 0.500000 0.500000 0.500000
O O9 0.510812 0.630108 0.756319
O O10 0.695173 0.993251 0.703185
O O11 0.719812 0.644609 0.829317
O O12 0.967243 0.675513 0.187975
O O13 0.195209 0.557847 0.049157
O O14 0.139920 0.879979 0.022688
O O15 0.000000 0.000000 0.000000
#
# Coordination Sequence:
#
# PCOD8014059 Si02
#       7
#     2   2   2   2   2   2   2
#     4  11  25  44  70 107 142 178 235 281 355 416
#     4  11  23  44  70  98 141 180 231 286 344 416
#     4  10  24  44  69 100 140 181 230 279 346 416
#     4  11  23  44  66  99 137 184 227 290 342 411
#     4  11  22  45  73 102 140 179 236 294 339 412
#     4  10  21  41  64  95 132 173 232 275 338 406
#     4  10  22  43  71 103 133 184 237 282 348 409
#
# _framework density 24.683464000000001
#
# number of rings (size 3 to 8) (size 9 to 14) (size 15 to 20)
#    0.000    1.429    2.857    1.714    0.000    5.714 
#   10.286    5.714    0.000    0.000    0.000    0.000 
#    0.000    0.000    0.000    0.000    0.000    0.000 
#
# Total GULP energy -173455.374687 kJ/mol
# GULP energy per Si atom -12389.669621 kJ/mol
# Density = 2.462728 g / cm^3
# Si number density = 24.683464 Si / 1000 Ang^3
#
#
#
# Elastic Constant Matrix: (Units=GPa)
#
#
# Indices 1 2 3 4 5 6 
#
# 1 55.1288 0.6446 -0.4392 11.2455 -6.6612 -15.0490
# 2 0.6446 156.0204 6.8970 8.3273 1.2576 -6.2046
# 3 -0.4392 6.8970 56.5090 2.5520 1.6436 6.2995
# 4 11.2455 8.3273 2.5520 46.9490 -6.0111 1.9190
# 5 -6.6612 1.2576 1.6436 -6.0111 27.6466 8.7304
# 6 -15.0490 -6.2046 6.2995 1.9190 8.7304 31.2083
#
#
#
# Elastic Compliance Matrix: (Units=1/GPa)
#
#
# Indices 1 2 3 4 5 6 
#
# 1 0.022492 0.000708 -0.000932 -0.005853 0.000578 0.011373
# 2 0.000708 0.006629 -0.000954 -0.001529 -0.001120 0.002259
# 3 -0.000932 -0.000954 0.018305 -0.000427 -0.000002 -0.004307
# 4 -0.005853 -0.001529 -0.000427 0.023996 0.005844 -0.006151
# 5 0.000578 -0.001120 -0.000002 0.005844 0.041383 -0.011880
# 6 0.011373 0.002259 -0.004307 -0.006151 -0.011880 0.042547
#
#
# Mechanical properties :
#
#
# Convention : Reuss Voigt Hill
#
# Bulk Modulus (GPa) = 22.18709 31.31810 26.75259
# Shear Modulus (GPa) = 28.94670 38.53116 33.73893
#
# Velocity S-wave (km/s) = 3.42821 3.95525 3.70112
# Velocity P-wave (km/s) = 4.96773 5.79432 5.39687
#
# Compressibility (1/GPa) = 0.04507125
#
# Stress axis : x y z
#
# Youngs Moduli (GPa) = 44.46004 150.84844 54.63003
#
# Poissons Ratio (x) = -0.10685 0.05091
# Poissons Ratio (y) = -0.03149 0.05211
# Poissons Ratio (z) = 0.04144 0.14388
#
# Static dielectric constant tensor:
#      x y z
#    x 4.558600 -0.477800 0.185310 
#    y -0.477800 5.107230 -0.363500 
#    z 0.185310 -0.363500 4.383730 
# 
# 
# High freq. dielectric constant tensor:
#      x y z
#    x 1.963210 -0.024990 0.006780 
#    y -0.024990 1.995360 -0.003980 
#    z 0.006780 -0.003980 1.972480 
# 
# From -- ./inp_files/419973.got.cif
#   From: 2010.06.25/outbox.cif.g09.slc.cpg/sg2_210_cif.got.tgz:419973.got - 2010.06.27 13:26:56.
