data_PCOD8014651
_publ_section_title
;
Structure prediction by ZEFSAII (Michael W. Deem and Ramdas Pophale) SiO2 
 PCOD8014651
Probable space group: P -1
;
_chemical_formula_sum "Si O2"
_cell_formula_units_Z 16
_cell_length_a 8.403942
_cell_length_b 9.942542
_cell_length_c 15.140489
_cell_angle_alpha 74.261818
_cell_angle_beta 128.492724
_cell_angle_gamma 71.690484
_cell_volume 731.417124
_symmetry_space_group_name_H-M "P -1"
_symmetry_group_IT_number 2
_symmetry_cell_setting 'triclinic'
loop_
_space_group_symop_operation_xyz
x,y,z
-x,-y,-z
loop_
_atom_site_type_symbol
_atom_site_label
_atom_site_fract_x
_atom_site_fract_y
_atom_site_fract_z
Si Si1 0.038129 0.045839 0.707412
Si Si2 0.002620 0.822322 0.133857
Si Si3 0.212115 0.157855 0.593979
Si Si4 0.406109 0.838129 0.174156
Si Si5 0.507428 0.374459 0.094235
Si Si6 0.016296 0.488143 0.182842
Si Si7 0.228102 0.527556 0.726053
Si Si8 0.437464 0.896273 0.558232
O O1 0.994168 0.116463 0.778498
O O2 0.136530 0.129395 0.667285
O O3 0.757117 0.116966 0.561404
O O4 0.265358 0.829709 0.823102
O O5 0.046497 0.638005 0.186538
O O6 0.226844 0.793177 0.156723
O O7 0.731725 0.978994 0.962452
O O8 0.458221 0.152549 0.695243
O O9 0.965083 0.357033 0.441774
O O10 0.289193 0.005727 0.577186
O O11 0.606284 0.681791 0.201993
O O12 0.589153 0.413414 0.207508
O O13 0.500000 0.500000 0.000000
O O14 0.214483 0.432364 0.985662
O O15 0.942086 0.433255 0.253615
O O16 0.299321 0.301716 0.283977
O O17 0.500000 0.000000 0.500000
#
# Coordination Sequence:
#
# PCOD8014651 Si02
#       8
#     2   2   2   2   2   2   2   2
#     4  12  25  44  72  95 142 183 227 282 336 408
#     4  11  26  46  67 101 136 179 230 285 339 404
#     4  12  25  44  69 101 137 181 230 275 343 409
#     4  11  26  45  70  98 139 180 226 285 345 397
#     4  10  21  41  69  98 131 181 227 277 334 402
#     4  11  24  42  72 103 134 180 230 279 342 402
#     4  11  23  43  68  99 137 179 229 277 339 410
#     4  12  24  45  68 103 140 177 221 284 343 397
#
# _framework density 21.875343999999998
#
# number of rings (size 3 to 8) (size 9 to 14) (size 15 to 20)
#    0.000    0.750    2.500    5.250    1.750    4.000 
#    0.000    1.875    0.000    0.000    0.000    0.000 
#    0.000    0.000    0.000    0.000    0.000    0.000 
#
# Total GULP energy -198433.124341 kJ/mol
# GULP energy per Si atom -12402.070271 kJ/mol
# Density = 2.182555 g / cm^3
# Si number density = 21.875344 Si / 1000 Ang^3
#
#
#
# Elastic Constant Matrix: (Units=GPa)
#
#
# Indices 1 2 3 4 5 6 
#
# 1 47.8897 11.1587 13.8723 -3.9653 7.5713 -3.8866
# 2 11.1587 95.4078 43.0586 -2.1146 11.4529 11.7062
# 3 13.8723 43.0586 110.4749 2.3162 31.2859 -5.4650
# 4 -3.9653 -2.1146 2.3162 48.0925 -1.0233 2.2161
# 5 7.5713 11.4529 31.2859 -1.0233 34.0677 6.4601
# 6 -3.8866 11.7062 -5.4650 2.2161 6.4601 28.9551
#
#
#
# Elastic Compliance Matrix: (Units=1/GPa)
#
#
# Indices 1 2 3 4 5 6 
#
# 1 0.022854 -0.002546 -0.000279 0.001451 -0.004876 0.005021
# 2 -0.002546 0.014451 -0.006748 0.001210 0.003521 -0.008336
# 3 -0.000279 -0.006748 0.016288 -0.001831 -0.014412 0.009120
# 4 0.001451 0.001210 -0.001831 0.021225 0.002109 -0.002735
# 5 -0.004876 0.003521 -0.014412 0.002109 0.045413 -0.015092
# 6 0.005021 -0.008336 0.009120 -0.002735 -0.015092 0.043878
#
#
# Mechanical properties :
#
#
# Convention : Reuss Voigt Hill
#
# Bulk Modulus (GPa) = 29.02909 43.32795 36.17852
# Shear Modulus (GPa) = 25.67571 34.60192 30.13881
#
# Velocity S-wave (km/s) = 3.42969 3.98147 3.71584
# Velocity P-wave (km/s) = 5.38356 6.40202 5.91475
#
# Compressibility (1/GPa) = 0.03444820
#
# Stress axis : x y z
#
# Youngs Moduli (GPa) = 43.75652 69.19782 61.39582
#
# Poissons Ratio (x) = 0.17616 0.01711
# Poissons Ratio (y) = 0.11139 0.41429
# Poissons Ratio (z) = 0.01220 0.46694
#
# Static dielectric constant tensor:
#      x y z
#    x 4.093760 0.133280 0.475700 
#    y 0.133280 3.772420 0.103010 
#    z 0.475700 0.103010 4.685870 
# 
# 
# High freq. dielectric constant tensor:
#      x y z
#    x 1.856360 0.008650 0.007480 
#    y 0.008650 1.868140 -0.001110 
#    z 0.007480 -0.001110 1.881010 
# 
# From -- ./inp_files/298436.got.cif
#   From: 2010.06.25/outbox.cif.g09.slc.cpg/sg2_150_cif.got.tgz:298436.got - 2010.06.27 13:26:56.
