data_PCOD8014629
_publ_section_title
;
Structure prediction by ZEFSAII (Michael W. Deem and Ramdas Pophale) SiO2 
 PCOD8014629
Probable space group: P -1
;
_chemical_formula_sum "Si O2"
_cell_formula_units_Z 14
_cell_length_a 17.476999
_cell_length_b 6.543244
_cell_length_c 12.686042
_cell_angle_alpha 46.947232
_cell_angle_beta 145.384220
_cell_angle_gamma 121.216417
_cell_volume 598.878533
_symmetry_space_group_name_H-M "P -1"
_symmetry_group_IT_number 2
_symmetry_cell_setting 'triclinic'
loop_
_space_group_symop_operation_xyz
x,y,z
-x,-y,-z
loop_
_atom_site_type_symbol
_atom_site_label
_atom_site_fract_x
_atom_site_fract_y
_atom_site_fract_z
Si Si1 0.891713 0.356086 0.220110
Si Si2 0.865879 0.237562 0.454621
Si Si3 0.224661 0.150744 0.809270
Si Si4 0.355216 0.099955 0.754160
Si Si5 0.921748 0.198920 0.757058
Si Si6 0.357014 0.697359 0.491169
Si Si7 0.648582 0.826422 0.845007
O O1 0.939565 0.181760 0.444070
O O2 0.017482 0.501854 0.265289
O O3 0.849822 0.133932 0.165140
O O4 0.762061 0.581457 0.020545
O O5 0.868741 0.569417 0.361671
O O6 0.941881 0.089292 0.696008
O O7 0.713763 0.142127 0.301901
O O8 0.270292 0.201301 0.725156
O O9 0.345521 0.114183 0.044615
O O10 0.359410 0.364671 0.586539
O O11 0.500000 0.000000 0.000000
O O12 0.762235 0.219411 0.589755
O O13 0.000000 0.000000 0.000000
O O14 0.499869 0.742529 0.687608
O O15 0.328886 0.881822 0.289961
#
# Coordination Sequence:
#
# PCOD8014629 Si02
#       7
#     2   2   2   2   2   2   2
#     4  10  22  44  67  97 131 171 220 268 328 399
#     4  10  23  42  66  95 134 173 215 273 329 383
#     4  10  21  41  69  96 126 174 217 269 334 385
#     4  11  23  41  68 103 130 165 225 273 325 397
#     4  12  24  43  67  96 136 176 222 267 322 390
#     4  11  23  44  65  97 136 172 219 275 327 385
#     4  10  23  44  67  94 134 174 216 273 334 389
#
# _framework density 23.377027999999999
#
# number of rings (size 3 to 8) (size 9 to 14) (size 15 to 20)
#    0.000    1.429    2.857    3.000    2.000    2.857 
#    5.143    3.571    0.000    0.000    0.000    0.000 
#    0.000    0.000    0.000    0.000    0.000    0.000 
#
# Total GULP energy -173485.311880 kJ/mol
# GULP energy per Si atom -12391.807991 kJ/mol
# Density = 2.332382 g / cm^3
# Si number density = 23.377028 Si / 1000 Ang^3
#
#
#
# Elastic Constant Matrix: (Units=GPa)
#
#
# Indices 1 2 3 4 5 6 
#
# 1 75.3595 29.5075 29.9152 4.2319 -4.4160 18.2273
# 2 29.5075 145.2999 41.2234 8.5515 -16.9883 14.6797
# 3 29.9152 41.2234 132.0245 9.9968 -25.0376 3.3131
# 4 4.2319 8.5515 9.9968 35.4918 3.5899 -4.1549
# 5 -4.4160 -16.9883 -25.0376 3.5899 44.2239 1.3672
# 6 18.2273 14.6797 3.3131 -4.1549 1.3672 41.1291
#
#
#
# Elastic Compliance Matrix: (Units=1/GPa)
#
#
# Indices 1 2 3 4 5 6 
#
# 1 0.016884 -0.001850 -0.003051 -0.001450 -0.000427 -0.006709
# 2 -0.001850 0.008309 -0.001529 -0.001858 0.002363 -0.002289
# 3 -0.003051 -0.001529 0.009831 -0.002446 0.004851 0.000698
# 4 -0.001450 -0.001858 -0.002446 0.030533 -0.004868 0.004749
# 5 -0.000427 0.002363 0.004851 -0.004868 0.026694 -0.002424
# 6 -0.006709 -0.002289 0.000698 0.004749 -0.002424 0.028608
#
#
# Mechanical properties :
#
#
# Convention : Reuss Voigt Hill
#
# Bulk Modulus (GPa) = 45.11836 61.55291 53.33564
# Shear Modulus (GPa) = 35.43433 40.97149 38.20291
#
# Velocity S-wave (km/s) = 3.89752 4.19099 4.04692
# Velocity P-wave (km/s) = 6.29257 7.05740 6.68593
#
# Compressibility (1/GPa) = 0.02216393
#
# Stress axis : x y z
#
# Youngs Moduli (GPa) = 59.22641 120.35718 101.72293
#
# Poissons Ratio (x) = 0.22266 0.31035
# Poissons Ratio (y) = 0.10957 0.15552
# Poissons Ratio (z) = 0.18069 0.18401
#
# Static dielectric constant tensor:
#      x y z
#    x 4.393760 0.194440 -0.224830 
#    y 0.194440 4.492180 0.074570 
#    z -0.224830 0.074570 4.544920 
# 
# 
# High freq. dielectric constant tensor:
#      x y z
#    x 1.914640 0.024050 -0.000160 
#    y 0.024050 1.934410 0.009790 
#    z -0.000160 0.009790 1.938860 
# 
# From -- ./inp_files/459410.got.cif
#   From: 2010.06.25/outbox.cif.g09.slc.cpg/sg2_230_cif.got.tgz:459410.got - 2010.06.27 13:26:56.
