data_PCOD8014992
_publ_section_title
;
Structure prediction by ZEFSAII (Michael W. Deem and Ramdas Pophale) SiO2 
 PCOD8014992
Probable space group: P -1
;
_chemical_formula_sum "Si O2"
_cell_formula_units_Z 16
_cell_length_a 12.282998
_cell_length_b 9.965890
_cell_length_c 13.552294
_cell_angle_alpha 119.904587
_cell_angle_beta 135.467500
_cell_angle_gamma 37.830563
_cell_volume 705.511858
_symmetry_space_group_name_H-M "P -1"
_symmetry_group_IT_number 2
_symmetry_cell_setting 'triclinic'
loop_
_space_group_symop_operation_xyz
x,y,z
-x,-y,-z
loop_
_atom_site_type_symbol
_atom_site_label
_atom_site_fract_x
_atom_site_fract_y
_atom_site_fract_z
Si Si1 0.544591 0.461739 0.628671
Si Si2 0.941640 0.561063 0.139837
Si Si3 0.696880 0.821102 0.253538
Si Si4 0.791714 0.083603 0.337087
Si Si5 0.985101 0.008830 0.231018
Si Si6 0.188162 0.146568 0.022759
Si Si7 0.672895 0.685381 0.564425
Si Si8 0.211492 0.168899 0.469804
O O1 0.500000 0.500000 0.500000
O O2 0.449345 0.682970 0.698666
O O3 0.804623 0.255197 0.731587
O O4 0.410668 0.414487 0.574454
O O5 0.779657 0.636209 0.157150
O O6 0.005660 0.353517 0.052717
O O7 0.172259 0.465375 0.297535
O O8 0.835510 0.758672 0.066556
O O9 0.833736 0.725979 0.411636
O O10 0.777342 0.913003 0.279339
O O11 0.435788 0.996352 0.168675
O O12 0.000000 0.000000 0.500000
O O13 0.824770 0.104908 0.254548
O O14 0.050624 0.143530 0.318332
O O15 0.846669 0.017724 0.059037
O O16 0.810959 0.681726 0.570758
O O17 0.460928 0.930642 0.554906
#
# Coordination Sequence:
#
# PCOD8014992 Si02
#       8
#     2   2   2   2   2   2   2   2
#     4  11  21  34  62  91 123 153 197 260 316 358
#     4  11  23  38  64  90 125 167 208 251 317 372
#     4  12  23  39  64  96 128 165 205 259 315 372
#     4  12  21  34  59  93 126 154 205 263 314 358
#     4  11  23  39  58  91 122 164 205 257 309 364
#     4  11  25  40  61  92 130 167 206 258 313 377
#     4  10  21  42  64  95 124 164 209 256 311 374
#     4  10  22  41  68  91 124 164 212 260 308 366
#
# _framework density 22.678570000000001
#
# number of rings (size 3 to 8) (size 9 to 14) (size 15 to 20)
#    0.000    1.000    5.000    2.625    3.500    0.500 
#    0.000    0.625    0.000    0.750    0.000    0.000 
#    0.000    0.000    0.000    0.000    0.000    0.000 
#
# Total GULP energy -198219.396522 kJ/mol
# GULP energy per Si atom -12388.712283 kJ/mol
# Density = 2.262695 g / cm^3
# Si number density = 22.678570 Si / 1000 Ang^3
#
#
#
# Elastic Constant Matrix: (Units=GPa)
#
#
# Indices 1 2 3 4 5 6 
#
# 1 99.7354 8.0718 30.8348 19.4834 6.3432 -1.8655
# 2 8.0718 40.0779 18.8614 13.3018 -3.1264 -24.7610
# 3 30.8348 18.8614 96.6685 18.7075 6.8952 1.4919
# 4 19.4834 13.3018 18.7075 38.6394 -8.6854 -5.5619
# 5 6.3432 -3.1264 6.8952 -8.6854 27.7626 2.9381
# 6 -1.8655 -24.7610 1.4919 -5.5619 2.9381 27.3791
#
#
#
# Elastic Compliance Matrix: (Units=1/GPa)
#
#
# Indices 1 2 3 4 5 6 
#
# 1 0.012215 0.001440 -0.002755 -0.006001 -0.003980 0.001493
# 2 0.001440 0.077746 -0.014886 -0.009967 0.001702 0.069013
# 3 -0.002755 -0.014886 0.015493 -0.004164 -0.004626 -0.014844
# 4 -0.006001 -0.009967 -0.004164 0.036859 0.013144 -0.003118
# 5 -0.003980 0.001702 -0.004626 0.013144 0.042420 -0.000362
# 6 0.001493 0.069013 -0.014844 -0.003118 -0.000362 0.099254
#
#
# Mechanical properties :
#
#
# Convention : Reuss Voigt Hill
#
# Bulk Modulus (GPa) = 13.68919 39.11311 26.40115
# Shear Modulus (GPa) = 14.67395 30.67047 22.67221
#
# Velocity S-wave (km/s) = 2.54646 3.68149 3.16526
# Velocity P-wave (km/s) = 3.83343 5.94603 5.00253
#
# Compressibility (1/GPa) = 0.07305034
#
# Stress axis : x y z
#
# Youngs Moduli (GPa) = 81.86602 12.86244 64.54598
#
# Poissons Ratio (x) = -0.01852 0.17783
# Poissons Ratio (y) = -0.11787 0.96085
# Poissons Ratio (z) = 0.22555 0.19147
#
# Static dielectric constant tensor:
#      x y z
#    x 4.451900 0.026380 0.319780 
#    y 0.026380 4.179550 0.406380 
#    z 0.319780 0.406380 4.383280 
# 
# 
# High freq. dielectric constant tensor:
#      x y z
#    x 1.875250 -0.024710 0.008890 
#    y -0.024710 1.898510 0.017240 
#    z 0.008890 0.017240 1.888930 
# 
# From -- ./inp_files/428780.got.cif
#   From: 2010.06.25/outbox.cif.g09.slc.cpg/sg2_215_cif.got.tgz:428780.got - 2010.06.27 13:26:56.
