data_PCOD8014179
_publ_section_title
;
Structure prediction by ZEFSAII (Michael W. Deem and Ramdas Pophale) SiO2 
 PCOD8014179
Probable space group: P -1
;
_chemical_formula_sum "Si O2"
_cell_formula_units_Z 16
_cell_length_a 15.788721
_cell_length_b 16.109864
_cell_length_c 15.657723
_cell_angle_alpha 38.804722
_cell_angle_beta 161.247567
_cell_angle_gamma 141.611358
_cell_volume 781.240554
_symmetry_space_group_name_H-M "P -1"
_symmetry_group_IT_number 2
_symmetry_cell_setting 'triclinic'
loop_
_space_group_symop_operation_xyz
x,y,z
-x,-y,-z
loop_
_atom_site_type_symbol
_atom_site_label
_atom_site_fract_x
_atom_site_fract_y
_atom_site_fract_z
Si Si1 0.159703 0.776285 0.100317
Si Si2 0.046730 0.673079 0.714767
Si Si3 0.621067 0.451614 0.568994
Si Si4 0.521445 0.580313 0.043138
Si Si5 0.746251 0.042452 0.262321
Si Si6 0.732881 0.951311 0.513969
Si Si7 0.935542 0.251263 0.511975
Si Si8 0.300237 0.435780 0.108780
O O1 0.979901 0.875520 0.812572
O O2 0.980744 0.679263 0.080732
O O3 0.218556 0.670183 0.167138
O O4 0.442922 0.861803 0.342909
O O5 0.204016 0.796343 0.821912
O O6 0.941701 0.727466 0.483365
O O7 0.799127 0.593822 0.595946
O O8 0.257382 0.583939 0.966993
O O9 0.500000 0.500000 0.500000
O O10 0.427363 0.389880 0.353824
O O11 0.484029 0.463378 0.176376
O O12 0.812614 0.686291 0.236740
O O13 0.500000 0.500000 0.000000
O O14 0.296499 0.668034 0.759615
O O15 0.674123 0.981674 0.335854
O O16 0.000000 0.000000 0.500000
O O17 0.500000 0.000000 0.000000
O O18 0.817191 0.088748 0.541580
#
# Coordination Sequence:
#
# PCOD8014179 Si02
#       8
#     2   2   2   2   2   2   2   2
#     4  11  23  41  60  90 120 172 214 253 304 375
#     4   9  22  38  59  84 120 163 203 260 310 358
#     4  11  23  37  62  86 124 168 211 260 305 357
#     4  11  22  40  72 102 123 151 203 263 320 378
#     4  11  25  37  56  83 117 160 210 269 306 350
#     4  11  23  40  63  85 125 169 214 248 309 386
#     4  10  21  41  65  94 127 160 200 253 321 368
#     4  10  22  41  63  89 126 160 204 259 315 364
#
# _framework density 20.480246999999999
#
# number of rings (size 3 to 8) (size 9 to 14) (size 15 to 20)
#    0.000    1.500    2.500    1.875    3.500    6.000 
#    0.000    0.000    0.000    4.500    0.000    0.000 
#    0.000    0.000    0.000    0.000    0.000    0.000 
#
# Total GULP energy -198245.502893 kJ/mol
# GULP energy per Si atom -12390.343931 kJ/mol
# Density = 2.043363 g / cm^3
# Si number density = 20.480247 Si / 1000 Ang^3
#
#
#
# Elastic Constant Matrix: (Units=GPa)
#
#
# Indices 1 2 3 4 5 6 
#
# 1 79.5275 50.3781 34.2880 6.0399 -1.4958 -9.6405
# 2 50.3781 174.5689 65.6450 16.3575 4.6121 -5.5228
# 3 34.2880 65.6450 124.7225 13.6073 8.7850 -7.3985
# 4 6.0399 16.3575 13.6073 42.8324 -2.3474 0.0427
# 5 -1.4958 4.6121 8.7850 -2.3474 19.0245 6.0721
# 6 -9.6405 -5.5228 -7.3985 0.0427 6.0721 24.7469
#
#
#
# Elastic Compliance Matrix: (Units=1/GPa)
#
#
# Indices 1 2 3 4 5 6 
#
# 1 0.016596 -0.003779 -0.002446 -0.000018 0.001939 0.004415
# 2 -0.003779 0.008120 -0.003002 -0.001668 -0.000985 -0.000313
# 3 -0.002446 -0.003002 0.011133 -0.002372 -0.005906 0.003159
# 4 -0.000018 -0.001668 -0.002372 0.025037 0.005369 -0.002449
# 5 0.001939 -0.000985 -0.005906 0.005369 0.061562 -0.016345
# 6 0.004415 -0.000313 0.003159 -0.002449 -0.016345 0.047018
#
#
# Mechanical properties :
#
#
# Convention : Reuss Voigt Hill
#
# Bulk Modulus (GPa) = 57.49199 75.49346 66.49272
# Shear Modulus (GPa) = 25.81065 32.55463 29.18264
#
# Velocity S-wave (km/s) = 3.55388 3.99126 3.77890
# Velocity P-wave (km/s) = 6.70619 7.62770 7.18174
#
# Compressibility (1/GPa) = 0.01739373
#
# Stress axis : x y z
#
# Youngs Moduli (GPa) = 60.25546 123.14549 89.82688
#
# Poissons Ratio (x) = 0.46542 0.21972
# Poissons Ratio (y) = 0.22773 0.26967
# Poissons Ratio (z) = 0.14739 0.36970
#
# Static dielectric constant tensor:
#      x y z
#    x 3.571200 0.191570 -0.031930 
#    y 0.191570 4.092750 -0.121550 
#    z -0.031930 -0.121550 3.737750 
# 
# 
# High freq. dielectric constant tensor:
#      x y z
#    x 1.762280 0.010650 0.016840 
#    y 0.010650 1.822320 0.001540 
#    z 0.016840 0.001540 1.807430 
# 
# From -- ./inp_files/484510.got.cif
#   From: 2010.06.25/outbox.cif.g09.slc.cpg/sg2_243_cif.got.tgz:484510.got - 2010.06.27 13:26:56.
