data_PCOD8014543
_publ_section_title
;
Structure prediction by ZEFSAII (Michael W. Deem and Ramdas Pophale) SiO2 
 PCOD8014543
Probable space group: P -1
;
_chemical_formula_sum "Si O2"
_cell_formula_units_Z 16
_cell_length_a 7.733681
_cell_length_b 8.503132
_cell_length_c 17.066175
_cell_angle_alpha 128.280816
_cell_angle_beta 67.946951
_cell_angle_gamma 82.905103
_cell_volume 712.016227
_symmetry_space_group_name_H-M "P -1"
_symmetry_group_IT_number 2
_symmetry_cell_setting 'triclinic'
loop_
_space_group_symop_operation_xyz
x,y,z
-x,-y,-z
loop_
_atom_site_type_symbol
_atom_site_label
_atom_site_fract_x
_atom_site_fract_y
_atom_site_fract_z
Si Si1 0.467653 0.662375 0.252368
Si Si2 0.768337 0.556949 0.951576
Si Si3 0.920600 0.385423 0.717967
Si Si4 0.150105 0.198730 0.243938
Si Si5 0.691589 0.272242 0.991315
Si Si6 0.678288 0.067380 0.491199
Si Si7 0.702212 0.253786 0.380561
Si Si8 0.445514 0.028841 0.781568
O O1 0.254312 0.691154 0.257670
O O2 0.658164 0.399276 0.121172
O O3 0.411654 0.709738 0.368507
O O4 0.520417 0.847773 0.261769
O O5 0.950058 0.476260 0.827162
O O6 0.539413 0.629327 0.976693
O O7 0.834461 0.343283 0.933836
O O8 0.739315 0.781115 0.072457
O O9 0.843410 0.588126 0.730897
O O10 0.121666 0.162091 0.579689
O O11 0.325651 0.110935 0.256269
O O12 0.911599 0.279363 0.339756
O O13 0.201708 0.002802 0.108310
O O14 0.741877 0.115071 0.410961
O O15 0.500000 0.000000 0.500000
O O16 0.500000 0.500000 0.500000
O O17 0.648861 0.132905 0.280615
#
# Coordination Sequence:
#
# PCOD8014543 Si02
#       8
#     2   2   2   2   2   2   2   2
#     4  10  21  41  68  95 122 171 221 261 317 381
#     4   8  16  36  65  95 122 163 217 263 313 380
#     4  11  23  40  67  98 127 170 217 261 320 388
#     4  11  24  42  67  98 136 169 208 268 327 384
#     4   8  16  36  65  94 126 160 211 266 318 378
#     4  12  24  44  63  91 132 167 218 270 313 383
#     4  12  27  46  65  94 134 170 216 270 321 385
#     4  10  22  44  69  96 128 171 217 264 327 378
#
# _framework density 22.471397
#
# number of rings (size 3 to 8) (size 9 to 14) (size 15 to 20)
#    0.000    1.750    1.250    4.875    1.750    5.000 
#    2.250    2.500    0.000    0.000    0.000    0.000 
#    0.000    0.000    0.000    0.000    0.000    0.000 
#
# Total GULP energy -198250.676963 kJ/mol
# GULP energy per Si atom -12390.667310 kJ/mol
# Density = 2.242025 g / cm^3
# Si number density = 22.471397 Si / 1000 Ang^3
#
#
#
# Elastic Constant Matrix: (Units=GPa)
#
#
# Indices 1 2 3 4 5 6 
#
# 1 40.3839 6.6803 10.7708 -3.5734 12.0673 -0.2564
# 2 6.6803 61.2705 20.9974 6.1311 5.0878 -0.8175
# 3 10.7708 20.9974 124.3930 -8.2498 22.2481 -8.4133
# 4 -3.5734 6.1311 -8.2498 35.1110 2.5740 -4.5556
# 5 12.0673 5.0878 22.2481 2.5740 35.7207 1.4801
# 6 -0.2564 -0.8175 -8.4133 -4.5556 1.4801 21.3507
#
#
#
# Elastic Compliance Matrix: (Units=1/GPa)
#
#
# Indices 1 2 3 4 5 6 
#
# 1 0.028482 -0.002765 0.000159 0.004379 -0.009721 0.001907
# 2 -0.002765 0.018145 -0.003393 -0.004531 0.000860 -0.001702
# 3 0.000159 -0.003393 0.010417 0.004231 -0.006585 0.005336
# 4 0.004379 -0.004531 0.004231 0.032315 -0.006165 0.008869
# 5 -0.009721 0.000860 -0.006585 -0.006165 0.035971 -0.006488
# 6 0.001907 -0.001702 0.005336 0.008869 -0.006488 0.051239
#
#
# Mechanical properties :
#
#
# Convention : Reuss Voigt Hill
#
# Bulk Modulus (GPa) = 22.19994 33.66046 27.93020
# Shear Modulus (GPa) = 24.56010 30.94307 27.75159
#
# Velocity S-wave (km/s) = 3.30957 3.71482 3.51803
# Velocity P-wave (km/s) = 4.95025 5.78028 5.38129
#
# Compressibility (1/GPa) = 0.04504516
#
# Stress axis : x y z
#
# Youngs Moduli (GPa) = 35.10998 55.11307 95.99521
#
# Poissons Ratio (x) = 0.15240 -0.01524
# Poissons Ratio (y) = 0.09709 0.32568
# Poissons Ratio (z) = -0.00557 0.18698
#
# Static dielectric constant tensor:
#      x y z
#    x 3.772320 0.161870 -0.014150 
#    y 0.161870 3.774840 0.177460 
#    z -0.014150 0.177460 3.862150 
# 
# 
# High freq. dielectric constant tensor:
#      x y z
#    x 1.868310 0.013190 0.003490 
#    y 0.013190 1.864320 0.004930 
#    z 0.003490 0.004930 1.909940 
# 
# From -- ./inp_files/557559.got.cif
#   From: 2010.06.25/outbox.cif.g09.slc.cpg/sg2_279_cif.got.tgz:557559.got - 2010.06.27 13:26:56.
