data_PCOD8014770
_publ_section_title
;
Structure prediction by ZEFSAII (Michael W. Deem and Ramdas Pophale) SiO2 
 PCOD8014770
Probable space group: P -1
;
_chemical_formula_sum "Si O2"
_cell_formula_units_Z 16
_cell_length_a 9.035252
_cell_length_b 22.004671
_cell_length_c 4.910226
_cell_angle_alpha 105.175650
_cell_angle_beta 122.347947
_cell_angle_gamma 59.034244
_cell_volume 707.072089
_symmetry_space_group_name_H-M "P -1"
_symmetry_group_IT_number 2
_symmetry_cell_setting 'triclinic'
loop_
_space_group_symop_operation_xyz
x,y,z
-x,-y,-z
loop_
_atom_site_type_symbol
_atom_site_label
_atom_site_fract_x
_atom_site_fract_y
_atom_site_fract_z
Si Si1 0.445396 0.850601 0.850363
Si Si2 0.383064 0.642132 0.944145
Si Si3 0.129067 0.376185 0.354414
Si Si4 0.385104 0.437336 0.425896
Si Si5 0.581222 0.935927 0.801197
Si Si6 0.513067 0.239686 0.698365
Si Si7 0.217624 0.984378 0.098247
Si Si8 0.117300 0.596159 0.357328
O O1 0.629080 0.863457 0.928922
O O2 0.376083 0.814103 0.502536
O O3 0.518500 0.800514 0.124132
O O4 0.263760 0.928661 0.828133
O O5 0.562653 0.598674 0.861355
O O6 0.179899 0.650903 0.628087
O O7 0.429788 0.600373 0.229860
O O8 0.357391 0.721128 0.048351
O O9 0.202475 0.428718 0.356459
O O10 0.299887 0.296575 0.451642
O O11 0.043549 0.407893 0.604184
O O12 0.965973 0.375032 0.988498
O O13 0.315126 0.521332 0.434321
O O14 0.405496 0.943589 0.433660
O O15 0.772767 0.940997 0.868960
O O16 0.500000 0.000000 0.000000
O O17 0.000000 0.000000 0.000000
#
# Coordination Sequence:
#
# PCOD8014770 Si02
#       8
#     2   2   2   2   2   2   2   2
#     4  11  21  41  69  91 123 176 217 254 303 389
#     4  11  23  39  62  87 124 167 207 263 325 384
#     4  11  23  38  61  88 119 167 206 266 321 374
#     4  11  21  39  61  92 116 164 209 258 340 400
#     4   9  20  39  69 101 136 170 204 259 331 361
#     4  11  23  42  64  84 124 179 222 239 311 391
#     4  10  21  41  72 107 136 164 210 270 325 371
#     4  12  22  38  62  92 125 149 211 285 325 372
#
# _framework density 22.628527999999999
#
# number of rings (size 3 to 8) (size 9 to 14) (size 15 to 20)
#    0.000    1.250    1.250    6.750    0.000    2.000 
#    0.000    1.250   16.500    0.000    0.000    0.000 
#    0.000    0.000    0.000    0.000    0.000    0.000 
#
# Total GULP energy -198271.615851 kJ/mol
# GULP energy per Si atom -12391.975991 kJ/mol
# Density = 2.257702 g / cm^3
# Si number density = 22.628528 Si / 1000 Ang^3
#
#
#
# Elastic Constant Matrix: (Units=GPa)
#
#
# Indices 1 2 3 4 5 6 
#
# 1 75.7998 17.6551 21.6268 1.1798 2.8729 3.7377
# 2 17.6551 87.3204 33.5264 16.0379 -4.8330 20.7475
# 3 21.6268 33.5264 92.8521 12.1090 0.2058 10.0371
# 4 1.1798 16.0379 12.1090 37.5858 -1.6903 -14.8940
# 5 2.8729 -4.8330 0.2058 -1.6903 45.7733 1.9893
# 6 3.7377 20.7475 10.0371 -14.8940 1.9893 37.7894
#
#
#
# Elastic Compliance Matrix: (Units=1/GPa)
#
#
# Indices 1 2 3 4 5 6 
#
# 1 0.014581 -0.002761 -0.002896 0.002321 -0.001187 0.001820
# 2 -0.002761 0.019106 -0.003022 -0.012758 0.002366 -0.014567
# 3 -0.002896 -0.003022 0.013449 -0.004269 -0.000212 -0.003298
# 4 0.002321 -0.012758 -0.004269 0.043212 -0.000964 0.024991
# 5 -0.001187 0.002366 -0.000212 -0.000964 0.022253 -0.002677
# 6 0.001820 -0.014567 -0.003298 0.024991 -0.002677 0.045146
#
#
# Mechanical properties :
#
#
# Convention : Reuss Voigt Hill
#
# Bulk Modulus (GPa) = 33.58192 44.62097 39.10145
# Shear Modulus (GPa) = 27.02234 36.44064 31.73149
#
# Velocity S-wave (km/s) = 3.45943 4.01731 3.74876
# Velocity P-wave (km/s) = 5.55244 6.42496 6.00457
#
# Compressibility (1/GPa) = 0.02977793
#
# Stress axis : x y z
#
# Youngs Moduli (GPa) = 68.58203 52.33941 74.35313
#
# Poissons Ratio (x) = 0.14449 0.21534
# Poissons Ratio (y) = 0.18933 0.22473
# Poissons Ratio (z) = 0.19863 0.15819
#
# Static dielectric constant tensor:
#      x y z
#    x 4.279570 0.539120 0.039810 
#    y 0.539120 4.054270 0.257980 
#    z 0.039810 0.257980 3.954700 
# 
# 
# High freq. dielectric constant tensor:
#      x y z
#    x 1.902540 0.025930 -0.022140 
#    y 0.025930 1.870410 0.025170 
#    z -0.022140 0.025170 1.896870 
# 
# From -- ./inp_files/53589.got.cif
#   From: 2010.06.25/outbox.cif.g09.slc.cpg/sg2_27_cif.got.tgz:53589.got - 2010.06.27 13:26:56.
