data_PCOD8014256
_publ_section_title
;
Structure prediction by ZEFSAII (Michael W. Deem and Ramdas Pophale) SiO2 
 PCOD8014256
Probable space group: P -1
;
_chemical_formula_sum "Si O2"
_cell_formula_units_Z 16
_cell_length_a 13.389674
_cell_length_b 13.350445
_cell_length_c 9.169364
_cell_angle_alpha 114.187030
_cell_angle_beta 86.544535
_cell_angle_gamma 146.756935
_cell_volume 676.455237
_symmetry_space_group_name_H-M "P -1"
_symmetry_group_IT_number 2
_symmetry_cell_setting 'triclinic'
loop_
_space_group_symop_operation_xyz
x,y,z
-x,-y,-z
loop_
_atom_site_type_symbol
_atom_site_label
_atom_site_fract_x
_atom_site_fract_y
_atom_site_fract_z
Si Si1 0.317731 0.632827 0.511108
Si Si2 0.640313 0.807539 0.215780
Si Si3 0.193254 0.061060 0.030602
Si Si4 0.339616 0.688905 0.021279
Si Si5 0.308769 0.406324 0.225756
Si Si6 0.122615 0.579035 0.238236
Si Si7 0.988383 0.295350 0.597268
Si Si8 0.357291 0.985303 0.058595
O O1 0.387629 0.575495 0.435201
O O2 0.258980 0.635990 0.368817
O O3 0.520725 0.895705 0.725149
O O4 0.102552 0.422680 0.506353
O O5 0.482545 0.568865 0.173135
O O6 0.821755 0.030530 0.446970
O O7 0.767177 0.878736 0.110308
O O8 0.491605 0.763071 0.150580
O O9 0.290931 0.268112 0.219474
O O10 0.318149 0.076259 0.083201
O O11 0.934390 0.795410 0.930887
O O12 0.483303 0.901980 0.020099
O O13 0.166224 0.445569 0.798594
O O14 0.208378 0.646325 0.106953
O O15 0.154458 0.735744 0.374717
O O16 0.862336 0.299830 0.096042
#
# Coordination Sequence:
#
# PCOD8014256 Si02
#       8
#     2   2   2   2   2   2   2   2
#     4  11  22  41  64  93 123 162 208 250 303 367
#     4  11  21  42  63  89 126 160 199 252 306 358
#     4  10  21  41  66  90 123 159 197 259 304 361
#     4  10  23  40  60  90 123 162 208 246 299 362
#     4  11  21  39  67  92 117 161 206 244 312 367
#     4  12  23  43  61  91 126 164 206 251 300 359
#     4  11  25  40  63  91 128 161 206 254 298 359
#     4  10  23  41  64  88 129 160 199 255 308 352
#
# _framework density 23.652709999999999
#
# number of rings (size 3 to 8) (size 9 to 14) (size 15 to 20)
#    0.000    1.250    3.750    1.875    1.750    4.000 
#    2.250    0.000    0.000    3.000    0.000    0.000 
#    0.000    0.000    0.000    0.000    0.000    0.000 
#
# Total GULP energy -198452.008515 kJ/mol
# GULP energy per Si atom -12403.250532 kJ/mol
# Density = 2.359888 g / cm^3
# Si number density = 23.652710 Si / 1000 Ang^3
#
#
#
# Elastic Constant Matrix: (Units=GPa)
#
#
# Indices 1 2 3 4 5 6 
#
# 1 28.6548 14.8326 10.0796 -1.0317 -9.4162 17.6536
# 2 14.8326 104.4510 41.8891 6.7017 5.4141 13.0405
# 3 10.0796 41.8891 111.1081 9.8692 -1.8714 2.7604
# 4 -1.0317 6.7017 9.8692 32.4595 1.5972 -5.8643
# 5 -9.4162 5.4141 -1.8714 1.5972 28.9275 -0.4240
# 6 17.6536 13.0405 2.7604 -5.8643 -0.4240 29.0897
#
#
#
# Elastic Compliance Matrix: (Units=1/GPa)
#
#
# Indices 1 2 3 4 5 6 
#
# 1 0.071637 -0.004758 -0.002867 -0.004557 0.023665 -0.041643
# 2 -0.004758 0.012592 -0.004157 -0.001787 -0.004117 -0.002783
# 3 -0.002867 -0.004157 0.010984 -0.002224 0.000709 0.002123
# 4 -0.004557 -0.001787 -0.002224 0.033760 -0.003002 0.010540
# 5 0.023665 -0.004117 0.000709 -0.003002 0.043070 -0.012561
# 6 -0.041643 -0.002783 0.002123 0.010540 -0.012561 0.062636
#
#
# Mechanical properties :
#
#
# Convention : Reuss Voigt Hill
#
# Bulk Modulus (GPa) = 13.95693 41.97959 27.96826
# Shear Modulus (GPa) = 17.72242 29.92283 23.82262
#
# Velocity S-wave (km/s) = 2.74026 3.56067 3.17706
# Velocity P-wave (km/s) = 3.99069 5.88994 5.03075
#
# Compressibility (1/GPa) = 0.07164901
#
# Stress axis : x y z
#
# Youngs Moduli (GPa) = 13.95919 79.41345 91.03820
#
# Poissons Ratio (x) = 0.37787 0.26101
# Poissons Ratio (y) = 0.06642 0.37847
# Poissons Ratio (z) = 0.04002 0.33014
#
# Static dielectric constant tensor:
#      x y z
#    x 4.135200 0.253380 -0.149950 
#    y 0.253380 4.439990 -0.026310 
#    z -0.149950 -0.026310 4.225180 
# 
# 
# High freq. dielectric constant tensor:
#      x y z
#    x 1.932900 0.015890 -0.013150 
#    y 0.015890 1.947910 0.006250 
#    z -0.013150 0.006250 1.932670 
# 
# From -- ./inp_files/315647.got.cif
#   From: 2010.06.25/outbox.cif.g09.slc.cpg/sg2_158_cif.got.tgz:315647.got - 2010.06.27 13:26:56.
