data_PCOD8014833
_publ_section_title
;
Structure prediction by ZEFSAII (Michael W. Deem and Ramdas Pophale) SiO2 
 PCOD8014833
Probable space group: P -1
;
_chemical_formula_sum "Si O2"
_cell_formula_units_Z 16
_cell_length_a 10.883172
_cell_length_b 6.474304
_cell_length_c 12.214180
_cell_angle_alpha 85.541711
_cell_angle_beta 83.942732
_cell_angle_gamma 58.823948
_cell_volume 731.951233
_symmetry_space_group_name_H-M "P -1"
_symmetry_group_IT_number 2
_symmetry_cell_setting 'triclinic'
loop_
_space_group_symop_operation_xyz
x,y,z
-x,-y,-z
loop_
_atom_site_type_symbol
_atom_site_label
_atom_site_fract_x
_atom_site_fract_y
_atom_site_fract_z
Si Si1 0.703978 0.735498 0.436217
Si Si2 0.165913 0.849779 0.860626
Si Si3 0.590118 0.077394 0.632694
Si Si4 0.797584 0.248567 0.570752
Si Si5 0.345298 0.110405 0.140571
Si Si6 0.093470 0.089254 0.631086
Si Si7 0.417385 0.387360 0.958711
Si Si8 0.917597 0.781997 0.969271
O O1 0.585175 0.771662 0.354468
O O2 0.743137 0.498209 0.506717
O O3 0.846682 0.724258 0.371782
O O4 0.635416 0.963210 0.513851
O O5 0.298547 0.583035 0.881024
O O6 0.021783 0.863398 0.909603
O O7 0.165719 0.897158 0.729961
O O8 0.169256 0.061712 0.921327
O O9 0.662556 0.243157 0.640359
O O10 0.647962 0.870001 0.729551
O O11 0.918840 0.219545 0.648904
O O12 0.864964 0.034837 0.485415
O O13 0.194828 0.139624 0.121601
O O14 0.480717 0.849430 0.109897
O O15 0.347785 0.326809 0.069801
O O16 0.500000 0.500000 0.000000
O O17 0.000000 0.500000 0.000000
#
# Coordination Sequence:
#
# PCOD8014833 Si02
#       8
#     2   2   2   2   2   2   2   2
#     4  10  22  40  60  91 123 155 201 255 298 366
#     4  11  24  41  64  92 125 165 205 254 311 362
#     4  10  23  39  61  91 121 156 205 248 305 366
#     4  10  21  42  61  89 123 157 202 252 300 368
#     4  11  24  41  64  91 124 166 207 253 311 361
#     4  10  23  38  64  91 120 157 206 246 304 368
#     4  11  24  41  61  91 129 158 209 259 298 371
#     4  11  23  42  61  89 126 161 210 253 298 369
#
# _framework density 21.859378
#
# number of rings (size 3 to 8) (size 9 to 14) (size 15 to 20)
#    0.000    1.500    2.500    1.500    3.500    3.000 
#    0.000    0.000    0.000    0.000    0.000    0.000 
#    0.000    0.000    0.000    0.000    0.000    0.000 
#
# Total GULP energy -198338.962028 kJ/mol
# GULP energy per Si atom -12396.185127 kJ/mol
# Density = 2.180963 g / cm^3
# Si number density = 21.859378 Si / 1000 Ang^3
#
#
#
# Elastic Constant Matrix: (Units=GPa)
#
#
# Indices 1 2 3 4 5 6 
#
# 1 170.5357 28.4951 41.3989 -20.2832 27.8444 2.5373
# 2 28.4951 75.5371 9.4009 -26.9556 10.8384 -1.7862
# 3 41.3989 9.4009 99.4369 -32.5464 21.7471 -4.3484
# 4 -20.2832 -26.9556 -32.5464 36.8763 -9.3775 3.0122
# 5 27.8444 10.8384 21.7471 -9.3775 30.6508 -10.4939
# 6 2.5373 -1.7862 -4.3484 3.0122 -10.4939 29.6532
#
#
#
# Elastic Compliance Matrix: (Units=1/GPa)
#
#
# Indices 1 2 3 4 5 6 
#
# 1 0.007661 -0.001892 -0.001845 -0.000088 -0.006101 -0.003190
# 2 -0.001892 0.020114 0.005521 0.017525 -0.004337 -0.001132
# 3 -0.001845 0.005521 0.017385 0.016428 -0.008097 -0.001494
# 4 -0.000088 0.017525 0.016428 0.054049 -0.002193 -0.002794
# 5 -0.006101 -0.004337 -0.008097 -0.002193 0.050674 0.017229
# 6 -0.003190 -0.001132 -0.001494 -0.002794 0.017229 0.040090
#
#
# Mechanical properties :
#
#
# Convention : Reuss Voigt Hill
#
# Bulk Modulus (GPa) = 20.52151 56.01105 38.26628
# Shear Modulus (GPa) = 24.67343 37.18372 30.92857
#
# Velocity S-wave (km/s) = 3.36331 4.12884 3.76558
# Velocity P-wave (km/s) = 4.94882 6.95764 6.03737
#
# Compressibility (1/GPa) = 0.04872936
#
# Stress axis : x y z
#
# Youngs Moduli (GPa) = 130.53301 49.71566 57.52036
#
# Poissons Ratio (x) = 0.09406 0.10611
# Poissons Ratio (y) = 0.24695 -0.31757
# Poissons Ratio (z) = 0.24080 -0.27448
#
# Static dielectric constant tensor:
#      x y z
#    x 4.569340 0.159160 0.113950 
#    y 0.159160 3.527400 -0.037040 
#    z 0.113950 -0.037040 3.870960 
# 
# 
# High freq. dielectric constant tensor:
#      x y z
#    x 1.885130 0.005650 0.009720 
#    y 0.005650 1.844050 -0.019000 
#    z 0.009720 -0.019000 1.850480 
# 
# From -- ./inp_files/84464.got.cif
#   From: 2010.06.25/outbox.cif.g09.slc.cpg/sg2_43_cif.got.tgz:84464.got - 2010.06.27 13:26:56.
