data_PCOD8014363
_publ_section_title
;
Structure prediction by ZEFSAII (Michael W. Deem and Ramdas Pophale) SiO2 
 PCOD8014363
Probable space group: P -1
;
_chemical_formula_sum "Si O2"
_cell_formula_units_Z 14
_cell_length_a 21.364401
_cell_length_b 11.880870
_cell_length_c 20.546505
_cell_angle_alpha 158.898675
_cell_angle_beta 159.542882
_cell_angle_gamma 31.759881
_cell_volume 644.338138
_symmetry_space_group_name_H-M "P -1"
_symmetry_group_IT_number 2
_symmetry_cell_setting 'triclinic'
loop_
_space_group_symop_operation_xyz
x,y,z
-x,-y,-z
loop_
_atom_site_type_symbol
_atom_site_label
_atom_site_fract_x
_atom_site_fract_y
_atom_site_fract_z
Si Si1 0.357048 0.138063 0.294905
Si Si2 0.767227 0.216686 0.747423
Si Si3 0.032076 0.868502 0.746092
Si Si4 0.676521 0.141966 0.331602
Si Si5 0.295303 0.760433 0.735189
Si Si6 0.786387 0.960712 0.761344
Si Si7 0.024857 0.093125 0.719097
O O1 0.565552 0.142524 0.480246
O O2 0.315406 0.489491 0.447717
O O3 0.308937 0.964022 0.223784
O O4 0.233123 0.952851 0.017886
O O5 0.748321 0.209827 0.803900
O O6 0.868750 0.564251 0.014206
O O7 0.880478 0.948332 0.691505
O O8 0.000000 0.500000 0.500000
O O9 0.017619 0.081493 0.783534
O O10 0.722956 0.091829 0.274371
O O11 0.821346 0.019156 0.452498
O O12 0.478350 0.938859 0.045485
O O13 0.300735 0.390478 0.537912
O O14 0.124309 0.815501 0.640674
O O15 0.000000 0.000000 0.000000
#
# Coordination Sequence:
#
# PCOD8014363 Si02
#       7
#     2   2   2   2   2   2   2
#     4  11  24  44  69  98 135 177 218 278 334 390
#     4  12  24  44  70 100 131 177 224 271 340 392
#     4  12  28  47  66  95 135 179 229 273 325 400
#     4  10  21  41  67 100 136 165 220 275 329 391
#     4  10  22  41  65 103 133 168 217 275 328 395
#     4  11  22  44  72  98 141 172 213 281 336 392
#     4  12  24  42  72  96 132 183 221 269 329 393
#
# _framework density 21.727723000000001
#
# number of rings (size 3 to 8) (size 9 to 14) (size 15 to 20)
#    0.000    0.857    4.286    3.000    0.000    3.429 
#    0.000    0.000    0.000    0.000    0.000    0.000 
#    0.000    0.000    0.000    0.000    0.000    0.000 
#
# Total GULP energy -173701.072125 kJ/mol
# GULP energy per Si atom -12407.219437 kJ/mol
# Density = 2.167827 g / cm^3
# Si number density = 21.727723 Si / 1000 Ang^3
#
#
#
# Elastic Constant Matrix: (Units=GPa)
#
#
# Indices 1 2 3 4 5 6 
#
# 1 77.9184 34.3007 31.8035 -7.9933 -7.3801 28.2782
# 2 34.3007 83.8373 48.5667 -25.8530 -2.4104 11.8324
# 3 31.8035 48.5667 135.0468 -19.2769 -17.2685 17.2634
# 4 -7.9933 -25.8530 -19.2769 48.1431 5.1124 1.8214
# 5 -7.3801 -2.4104 -17.2685 5.1124 27.9931 0.1890
# 6 28.2782 11.8324 17.2634 1.8214 0.1890 40.1288
#
#
#
# Elastic Compliance Matrix: (Units=1/GPa)
#
#
# Indices 1 2 3 4 5 6 
#
# 1 0.020854 -0.006442 -0.000388 -0.000186 0.004823 -0.012644
# 2 -0.006442 0.019772 -0.005119 0.007967 -0.004613 0.000572
# 3 -0.000388 -0.005119 0.010575 0.000909 0.005834 -0.002835
# 4 -0.000186 0.007967 0.000909 0.025897 -0.003507 -0.003768
# 5 0.004823 -0.004613 0.005834 -0.003507 0.040868 -0.004582
# 6 -0.012644 0.000572 -0.002835 -0.003768 -0.004582 0.035073
#
#
# Mechanical properties :
#
#
# Convention : Reuss Voigt Hill
#
# Bulk Modulus (GPa) = 36.62466 58.46049 47.54258
# Shear Modulus (GPa) = 26.87585 35.39512 31.13549
#
# Velocity S-wave (km/s) = 3.52083 4.04050 3.78958
# Velocity P-wave (km/s) = 5.78110 6.98082 6.40910
#
# Compressibility (1/GPa) = 0.02730401
#
# Stress axis : x y z
#
# Youngs Moduli (GPa) = 47.95133 50.57555 94.55838
#
# Poissons Ratio (x) = 0.32579 0.03670
# Poissons Ratio (y) = 0.30888 0.48409
# Poissons Ratio (z) = 0.01861 0.25892
#
# Static dielectric constant tensor:
#      x y z
#    x 4.146830 0.067870 0.095830 
#    y 0.067870 3.854690 -0.124460 
#    z 0.095830 -0.124460 4.024930 
# 
# 
# High freq. dielectric constant tensor:
#      x y z
#    x 1.850300 0.003310 0.002920 
#    y 0.003310 1.851560 -0.008720 
#    z 0.002920 -0.008720 1.865700 
# 
# From -- ./inp_files/183829.got.cif
#   From: 2010.06.25/outbox.cif.g09.slc.cpg/sg2_92_cif.got.tgz:183829.got - 2010.06.27 13:26:56.
