data_PCOD8014610
_publ_section_title
;
Structure prediction by ZEFSAII (Michael W. Deem and Ramdas Pophale) SiO2 
 PCOD8014610
Probable space group: P -1
;
_chemical_formula_sum "Si O2"
_cell_formula_units_Z 16
_cell_length_a 8.132010
_cell_length_b 13.031688
_cell_length_c 12.101618
_cell_angle_alpha 143.947676
_cell_angle_beta 81.174528
_cell_angle_gamma 105.435671
_cell_volume 723.207217
_symmetry_space_group_name_H-M "P -1"
_symmetry_group_IT_number 2
_symmetry_cell_setting 'triclinic'
loop_
_space_group_symop_operation_xyz
x,y,z
-x,-y,-z
loop_
_atom_site_type_symbol
_atom_site_label
_atom_site_fract_x
_atom_site_fract_y
_atom_site_fract_z
Si Si1 0.660248 0.983586 0.268552
Si Si2 0.631916 0.292146 0.828835
Si Si3 0.465904 0.669640 0.372476
Si Si4 0.204292 0.449506 0.778570
Si Si5 0.797746 0.961887 0.992466
Si Si6 0.898878 0.123198 0.556315
Si Si7 0.166629 0.661950 0.756300
Si Si8 0.226868 0.424311 0.351474
O O1 0.534315 0.798908 0.161336
O O2 0.728405 0.959441 0.120630
O O3 0.561389 0.141629 0.418999
O O4 0.829179 0.030270 0.367812
O O5 0.576503 0.365279 0.783037
O O6 0.738581 0.142769 0.664397
O O7 0.747205 0.459072 0.028353
O O8 0.663043 0.668086 0.371644
O O9 0.346327 0.507259 0.310097
O O10 0.201471 0.603718 0.824419
O O11 0.015855 0.320108 0.690808
O O12 0.745007 0.123188 0.071485
O O13 0.724635 0.761085 0.775935
O O14 0.000000 0.000000 0.000000
O O15 0.000000 0.000000 0.500000
O O16 0.258110 0.558087 0.568483
O O17 0.966391 0.617705 0.710262
#
# Coordination Sequence:
#
# PCOD8014610 Si02
#       8
#     2   2   2   2   2   2   2   2
#     4  11  22  44  67  95 134 181 225 272 338 411
#     4  11  24  43  67  95 138 176 223 272 339 410
#     4  11  22  42  66  94 134 184 216 273 345 404
#     4  12  25  40  66 101 134 173 225 281 335 389
#     4  10  22  39  67  98 124 179 228 269 329 406
#     4  11  24  41  67 100 134 172 222 280 338 395
#     4  10  22  42  64  97 134 172 230 283 325 396
#     4  10  21  41  69  92 132 181 223 269 344 404
#
# _framework density 22.123674999999999
#
# number of rings (size 3 to 8) (size 9 to 14) (size 15 to 20)
#    0.000    1.250    1.250    6.000    3.500    3.500 
#    2.250    1.250    0.000    0.000    0.000    0.000 
#    0.000    0.000    0.000    0.000    0.000    0.000 
#
# Total GULP energy -198446.771535 kJ/mol
# GULP energy per Si atom -12402.923221 kJ/mol
# Density = 2.207332 g / cm^3
# Si number density = 22.123675 Si / 1000 Ang^3
#
#
#
# Elastic Constant Matrix: (Units=GPa)
#
#
# Indices 1 2 3 4 5 6 
#
# 1 64.0245 35.6006 20.3887 0.3328 -0.7058 5.1675
# 2 35.6006 137.5879 37.2403 10.6051 -9.6081 12.1223
# 3 20.3887 37.2403 76.6312 7.4608 -11.8594 -7.8454
# 4 0.3328 10.6051 7.4608 36.0243 3.1697 -11.0279
# 5 -0.7058 -9.6081 -11.8594 3.1697 29.1599 4.7753
# 6 5.1675 12.1223 -7.8454 -11.0279 4.7753 36.9448
#
#
#
# Elastic Compliance Matrix: (Units=1/GPa)
#
#
# Indices 1 2 3 4 5 6 
#
# 1 0.019181 -0.004116 -0.003766 0.001612 -0.002379 -0.001343
# 2 -0.004116 0.010288 -0.003548 -0.004121 0.003145 -0.005190
# 3 -0.003766 -0.003548 0.017172 -0.001661 0.005222 0.004167
# 4 0.001612 -0.004121 -0.001661 0.033572 -0.007572 0.011774
# 5 -0.002379 0.003145 0.005222 -0.007572 0.039355 -0.006938
# 6 -0.001343 -0.005190 0.004167 0.011774 -0.006938 0.034254
#
#
# Mechanical properties :
#
#
# Convention : Reuss Voigt Hill
#
# Bulk Modulus (GPa) = 42.04902 51.63365 46.84134
# Shear Modulus (GPa) = 27.08438 32.76005 29.92222
#
# Velocity S-wave (km/s) = 3.50269 3.85225 3.68162
# Velocity P-wave (km/s) = 5.95030 6.57083 6.26825
#
# Compressibility (1/GPa) = 0.02378177
#
# Stress axis : x y z
#
# Youngs Moduli (GPa) = 52.13608 97.20161 58.23417
#
# Poissons Ratio (x) = 0.40005 0.21930
# Poissons Ratio (y) = 0.21458 0.20661
# Poissons Ratio (z) = 0.19633 0.34486
#
# Static dielectric constant tensor:
#      x y z
#    x 3.975650 0.094050 -0.216200 
#    y 0.094050 4.127810 0.206140 
#    z -0.216200 0.206140 4.162970 
# 
# 
# High freq. dielectric constant tensor:
#      x y z
#    x 1.866610 0.010850 -0.014470 
#    y 0.010850 1.882000 0.008750 
#    z -0.014470 0.008750 1.875600 
# 
# From -- ./inp_files/391606.got.cif
#   From: 2010.06.25/outbox.cif.g09.slc.cpg/sg2_196_cif.got.tgz:391606.got - 2010.06.27 13:26:56.
