data_PCOD8014994
_publ_section_title
;
Structure prediction by ZEFSAII (Michael W. Deem and Ramdas Pophale) SiO2 
 PCOD8014994
Probable space group: P -1
;
_chemical_formula_sum "Si O2"
_cell_formula_units_Z 14
_cell_length_a 17.124637
_cell_length_b 8.432561
_cell_length_c 19.985630
_cell_angle_alpha 41.417871
_cell_angle_beta 159.498231
_cell_angle_gamma 128.936357
_cell_volume 633.709221
_symmetry_space_group_name_H-M "P -1"
_symmetry_group_IT_number 2
_symmetry_cell_setting 'triclinic'
loop_
_space_group_symop_operation_xyz
x,y,z
-x,-y,-z
loop_
_atom_site_type_symbol
_atom_site_label
_atom_site_fract_x
_atom_site_fract_y
_atom_site_fract_z
Si Si1 0.729722 0.935981 0.660111
Si Si2 0.380571 0.224539 0.520228
Si Si3 0.374072 0.794332 0.977774
Si Si4 0.202560 0.596530 0.500613
Si Si5 0.137194 0.873232 0.497054
Si Si6 0.143619 0.709966 0.695538
Si Si7 0.132957 0.777160 0.127419
O O1 0.793242 0.190350 0.615945
O O2 0.500000 0.000000 0.500000
O O3 0.697035 0.800348 0.609645
O O4 0.945571 0.744327 0.933895
O O5 0.246504 0.515001 0.342348
O O6 0.661400 0.157228 0.769039
O O7 0.316877 0.030789 0.579901
O O8 0.531596 0.595493 0.220085
O O9 0.352611 0.643468 0.939449
O O10 0.500000 0.000000 0.000000
O O11 0.120229 0.925601 0.764091
O O12 0.121810 0.700864 0.476818
O O13 0.021540 0.462125 0.370195
O O14 0.230560 0.692089 0.693830
O O15 0.000000 0.000000 0.500000
O O16 0.000000 0.000000 0.000000
#
# Coordination Sequence:
#
# PCOD8014994 Si02
#       7
#     2   2   2   2   2   2   2
#     4  11  24  44  67  98 133 177 222 272 334 390
#     4  10  24  44  65 100 132 174 221 277 326 396
#     4  11  23  43  65  93 133 174 213 268 333 389
#     4  11  24  43  65  95 133 171 220 269 331 391
#     4  10  23  42  65  97 133 165 222 270 325 396
#     4  10  21  42  64  95 129 166 217 263 325 399
#     4  11  23  44  68  93 135 172 226 274 330 389
#
# _framework density 22.09215
#
# number of rings (size 3 to 8) (size 9 to 14) (size 15 to 20)
#    0.000    1.429    4.286    0.857    2.000    5.143 
#    5.143    0.000    0.000    0.000    0.000    0.000 
#    0.000    0.000    0.000    0.000    0.000    0.000 
#
# Total GULP energy -173615.669418 kJ/mol
# GULP energy per Si atom -12401.119244 kJ/mol
# Density = 2.204187 g / cm^3
# Si number density = 22.092150 Si / 1000 Ang^3
#
#
#
# Elastic Constant Matrix: (Units=GPa)
#
#
# Indices 1 2 3 4 5 6 
#
# 1 70.8918 25.5193 11.9627 10.9522 13.3283 3.3596
# 2 25.5193 122.0325 18.2870 17.2635 10.5031 6.4672
# 3 11.9627 18.2870 93.2898 20.0050 10.6440 -0.2433
# 4 10.9522 17.2635 20.0050 41.9939 -3.9003 2.9072
# 5 13.3283 10.5031 10.6440 -3.9003 32.0729 1.7683
# 6 3.3596 6.4672 -0.2433 2.9072 1.7683 35.3395
#
#
#
# Elastic Compliance Matrix: (Units=1/GPa)
#
#
# Indices 1 2 3 4 5 6 
#
# 1 0.016857 -0.002349 -0.000091 -0.003970 -0.006660 -0.000513
# 2 -0.002349 0.009473 -0.000639 -0.003105 -0.002228 -0.001148
# 3 -0.000091 -0.000639 0.012760 -0.006306 -0.004808 0.000973
# 4 -0.003970 -0.003105 -0.006306 0.030059 0.008525 -0.001997
# 5 -0.006660 -0.002228 -0.004808 0.008525 0.037395 -0.001565
# 6 -0.000513 -0.001148 0.000973 -0.001997 -0.001565 0.028805
#
#
# Mechanical properties :
#
#
# Convention : Reuss Voigt Hill
#
# Bulk Modulus (GPa) = 30.36607 44.19465 37.28036
# Shear Modulus (GPa) = 32.79027 37.24428 35.01727
#
# Velocity S-wave (km/s) = 3.85678 4.11038 3.98559
# Velocity P-wave (km/s) = 5.79724 6.52496 6.17183
#
# Compressibility (1/GPa) = 0.03293149
#
# Stress axis : x y z
#
# Youngs Moduli (GPa) = 59.32280 105.55857 78.37286
#
# Poissons Ratio (x) = 0.24800 0.00714
# Poissons Ratio (y) = 0.13937 0.05005
# Poissons Ratio (z) = 0.00541 0.06742
#
# Static dielectric constant tensor:
#      x y z
#    x 3.863220 -0.163920 -0.513410 
#    y -0.163920 4.388500 0.642180 
#    z -0.513410 0.642180 4.730910 
# 
# 
# High freq. dielectric constant tensor:
#      x y z
#    x 1.863920 -0.002420 0.004360 
#    y -0.002420 1.882650 0.006160 
#    z 0.004360 0.006160 1.871370 
# 
# From -- ./inp_files/504647.got.cif
#   From: 2010.06.25/outbox.cif.g09.slc.cpg/sg2_253_cif.got.tgz:504647.got - 2010.06.27 13:26:56.
