data_PCOD8014794
_publ_section_title
;
Structure prediction by ZEFSAII (Michael W. Deem and Ramdas Pophale) SiO2 
 PCOD8014794
Probable space group: P -1
;
_chemical_formula_sum "Si O2"
_cell_formula_units_Z 16
_cell_length_a 10.517551
_cell_length_b 8.720315
_cell_length_c 19.536881
_cell_angle_alpha 149.593706
_cell_angle_beta 52.720368
_cell_angle_gamma 132.003422
_cell_volume 671.979897
_symmetry_space_group_name_H-M "P -1"
_symmetry_group_IT_number 2
_symmetry_cell_setting 'triclinic'
loop_
_space_group_symop_operation_xyz
x,y,z
-x,-y,-z
loop_
_atom_site_type_symbol
_atom_site_label
_atom_site_fract_x
_atom_site_fract_y
_atom_site_fract_z
Si Si1 0.341764 0.075001 0.979676
Si Si2 0.593193 0.113111 0.443811
Si Si3 0.094208 0.236699 0.621992
Si Si4 0.487455 0.170815 0.775682
Si Si5 0.950736 0.125397 0.360065
Si Si6 0.518886 0.325679 0.313383
Si Si7 0.872757 0.082318 0.140695
Si Si8 0.083152 0.868433 0.093441
O O1 0.466457 0.449304 0.080583
O O2 0.275859 0.968234 0.038088
O O3 0.437714 0.831798 0.831184
O O4 0.190653 0.060006 0.969032
O O5 0.759852 0.015312 0.349576
O O6 0.620452 0.498918 0.579865
O O7 0.500000 0.000000 0.500000
O O8 0.469415 0.903806 0.343864
O O9 0.303116 0.397746 0.610423
O O10 0.023672 0.530613 0.752285
O O11 0.040419 0.060796 0.645064
O O12 0.000000 0.000000 0.500000
O O13 0.574571 0.984462 0.726141
O O14 0.286817 0.981071 0.781156
O O15 0.000000 0.500000 0.500000
O O16 0.077111 0.080365 0.243079
O O17 0.989234 0.916952 0.074822
O O18 0.000000 0.500000 0.000000
#
# Coordination Sequence:
#
# PCOD8014794 Si02
#       8
#     2   2   2   2   2   2   2   2
#     4  10  23  43  73 103 135 180 232 275 337 418
#     4  12  25  44  70  96 146 179 226 294 345 405
#     4  10  21  41  73  97 133 185 230 281 341 416
#     4  10  22  44  71 101 136 179 233 282 337 413
#     4  12  27  47  66 103 141 179 233 286 354 405
#     4  10  22  45  72 102 140 180 233 285 345 402
#     4  10  21  44  70  95 139 177 229 287 332 409
#     4  12  25  45  69  99 141 179 223 282 349 406
#
# _framework density 23.810234999999999
#
# number of rings (size 3 to 8) (size 9 to 14) (size 15 to 20)
#    0.000    1.500    2.500    4.500    3.500    1.000 
#    6.750    1.250    0.000    0.000    0.000    0.000 
#    0.000    0.000    0.000    0.000    0.000    0.000 
#
# Total GULP energy -198232.986178 kJ/mol
# GULP energy per Si atom -12389.561636 kJ/mol
# Density = 2.375604 g / cm^3
# Si number density = 23.810235 Si / 1000 Ang^3
#
#
#
# Elastic Constant Matrix: (Units=GPa)
#
#
# Indices 1 2 3 4 5 6 
#
# 1 50.1120 26.2162 37.9670 -4.7969 -11.4112 -23.9905
# 2 26.2162 137.0271 72.9925 -3.2984 5.3478 -22.5227
# 3 37.9670 72.9925 186.0629 -3.8582 4.5337 -13.8639
# 4 -4.7969 -3.2984 -3.8582 54.0171 -11.3716 2.0591
# 5 -11.4112 5.3478 4.5337 -11.3716 23.2843 10.2695
# 6 -23.9905 -22.5227 -13.8639 2.0591 10.2695 20.3680
#
#
#
# Elastic Compliance Matrix: (Units=1/GPa)
#
#
# Indices 1 2 3 4 5 6 
#
# 1 0.053945 0.004166 -0.007986 0.002266 0.000752 0.062102
# 2 0.004166 0.012534 -0.003932 -0.002238 -0.010752 0.021737
# 3 -0.007986 -0.003932 0.008012 -0.000393 -0.001439 -0.007535
# 4 0.002266 -0.002238 -0.000393 0.022731 0.017808 -0.011350
# 5 0.000752 -0.010752 -0.001439 0.017808 0.078240 -0.053231
# 6 0.062102 0.021737 -0.007535 -0.011350 -0.053231 0.169138
#
#
# Mechanical properties :
#
#
# Convention : Reuss Voigt Hill
#
# Bulk Modulus (GPa) = 16.95288 71.95038 44.45163
# Shear Modulus (GPa) = 13.16602 35.26897 24.21749
#
# Velocity S-wave (km/s) = 2.35405 3.85288 3.19267
# Velocity P-wave (km/s) = 3.81106 7.07649 5.68335
#
# Compressibility (1/GPa) = 0.05898704
#
# Stress axis : x y z
#
# Youngs Moduli (GPa) = 18.53734 79.78370 124.81224
#
# Poissons Ratio (x) = -0.33237 0.99676
# Poissons Ratio (y) = -0.07722 0.49074
# Poissons Ratio (z) = 0.14804 0.31370
#
# Static dielectric constant tensor:
#      x y z
#    x 4.159010 -0.559710 -0.017920 
#    y -0.559710 4.276510 0.245710 
#    z -0.017920 0.245710 4.189520 
# 
# 
# High freq. dielectric constant tensor:
#      x y z
#    x 1.922160 -0.020400 -0.008980 
#    y -0.020400 1.956340 -0.005770 
#    z -0.008980 -0.005770 1.955500 
# 
# From -- ./inp_files/567120.got.cif
#   From: 2010.06.25/outbox.cif.g09.slc.cpg/sg2_284_cif.got.tgz:567120.got - 2010.06.27 13:26:56.
