data_PCOD8014312
_publ_section_title
;
Structure prediction by ZEFSAII (Michael W. Deem and Ramdas Pophale) SiO2 
 PCOD8014312
Probable space group: P -1
;
_chemical_formula_sum "Si O2"
_cell_formula_units_Z 16
_cell_length_a 11.285437
_cell_length_b 11.512632
_cell_length_c 7.152611
_cell_angle_alpha 127.331935
_cell_angle_beta 87.014254
_cell_angle_gamma 91.770512
_cell_volume 737.919007
_symmetry_space_group_name_H-M "P -1"
_symmetry_group_IT_number 2
_symmetry_cell_setting 'triclinic'
loop_
_space_group_symop_operation_xyz
x,y,z
-x,-y,-z
loop_
_atom_site_type_symbol
_atom_site_label
_atom_site_fract_x
_atom_site_fract_y
_atom_site_fract_z
Si Si1 0.609133 0.398511 0.457166
Si Si2 0.663514 0.896274 0.886714
Si Si3 0.801568 0.620670 0.570467
Si Si4 0.694688 0.274572 0.698397
Si Si5 0.437803 0.848805 0.063192
Si Si6 0.888014 0.439375 0.057148
Si Si7 0.991938 0.788406 0.934205
Si Si8 0.141475 0.931035 0.751739
O O1 0.500000 0.500000 0.500000
O O2 0.731581 0.484224 0.525442
O O3 0.604584 0.338062 0.610732
O O4 0.622412 0.260728 0.186244
O O5 0.713710 0.750898 0.644980
O O6 0.594720 0.983025 0.814677
O O7 0.580393 0.844833 0.017962
O O8 0.766823 0.001265 0.045446
O O9 0.866439 0.570170 0.329974
O O10 0.889558 0.672692 0.777721
O O11 0.604338 0.195666 0.771282
O O12 0.790090 0.155332 0.500637
O O13 0.770086 0.407308 0.912906
O O14 0.917619 0.285131 0.001754
O O15 0.000000 0.500000 0.000000
O O16 0.057118 0.822407 0.766919
O O17 0.938838 0.932968 0.182448
#
# Coordination Sequence:
#
# PCOD8014312 Si02
#       8
#     2   2   2   2   2   2   2   2
#     4  12  24  46  68  96 137 178 217 276 335 395
#     4  10  22  43  68  94 134 178 220 271 332 389
#     4  11  22  42  69  96 133 182 215 271 334 392
#     4  12  25  41  70  99 133 177 223 271 333 398
#     4  11  23  44  68  97 133 175 224 273 329 393
#     4  12  24  39  61 100 136 169 222 276 324 395
#     4  10  22  41  68  94 133 177 219 272 331 384
#     4  10  21  41  66  95 130 175 220 269 331 390
#
# _framework density 21.682597999999999
#
# number of rings (size 3 to 8) (size 9 to 14) (size 15 to 20)
#    0.000    1.000    3.750    3.375    0.000    2.500 
#    0.000    0.000    0.000    0.000    0.000    0.000 
#    0.000    0.000    0.000    0.000    0.000    0.000 
#
# Total GULP energy -198379.658423 kJ/mol
# GULP energy per Si atom -12398.728651 kJ/mol
# Density = 2.163325 g / cm^3
# Si number density = 21.682598 Si / 1000 Ang^3
#
#
#
# Elastic Constant Matrix: (Units=GPa)
#
#
# Indices 1 2 3 4 5 6 
#
# 1 94.0606 49.5021 21.2562 -9.4375 -15.5793 0.7499
# 2 49.5021 110.9709 53.3129 -6.0580 -15.2669 -5.1866
# 3 21.2562 53.3129 71.8418 -10.6890 -16.2360 -15.9091
# 4 -9.4375 -6.0580 -10.6890 33.9762 4.4200 -3.3662
# 5 -15.5793 -15.2669 -16.2360 4.4200 37.1741 0.3419
# 6 0.7499 -5.1866 -15.9091 -3.3662 0.3419 44.5922
#
#
#
# Elastic Compliance Matrix: (Units=1/GPa)
#
#
# Indices 1 2 3 4 5 6 
#
# 1 0.014722 -0.006845 0.002018 0.002985 0.003886 -0.000128
# 2 -0.006845 0.017499 -0.012014 -0.002716 -0.000585 -0.002336
# 3 0.002018 -0.012014 0.026642 0.006779 0.006663 0.008534
# 4 0.002985 -0.002716 0.006779 0.032461 -0.000805 0.004509
# 5 0.003886 -0.000585 0.006663 -0.000805 0.031277 0.001943
# 6 -0.000128 -0.002336 0.008534 0.004509 0.001943 0.025526
#
#
# Mechanical properties :
#
#
# Convention : Reuss Voigt Hill
#
# Bulk Modulus (GPa) = 39.71326 58.33508 49.02417
# Shear Modulus (GPa) = 26.28766 33.33531 29.81149
#
# Velocity S-wave (km/s) = 3.48571 3.92525 3.71199
# Velocity P-wave (km/s) = 5.87841 6.89246 6.40553
#
# Compressibility (1/GPa) = 0.02518051
#
# Stress axis : x y z
#
# Youngs Moduli (GPa) = 67.92528 57.14743 37.53433
#
# Poissons Ratio (x) = 0.39117 -0.07573
# Poissons Ratio (y) = 0.46495 0.45094
# Poissons Ratio (z) = -0.13705 0.68657
#
# Static dielectric constant tensor:
#      x y z
#    x 4.084240 -0.002660 -0.128170 
#    y -0.002660 4.137980 0.313570 
#    z -0.128170 0.313570 3.845770 
# 
# 
# High freq. dielectric constant tensor:
#      x y z
#    x 1.866730 0.008980 -0.006000 
#    y 0.008980 1.859800 0.020080 
#    z -0.006000 0.020080 1.836190 
# 
# From -- ./inp_files/72300.got.cif
#   From: 2010.06.25/outbox.cif.g09.slc.cpg/sg2_37_cif.got.tgz:72300.got - 2010.06.27 13:26:56.
