data_PCOD8014050
_publ_section_title
;
Structure prediction by ZEFSAII (Michael W. Deem and Ramdas Pophale) SiO2 
 PCOD8014050
Probable space group: P -1
;
_chemical_formula_sum "Si O2"
_cell_formula_units_Z 16
_cell_length_a 24.390924
_cell_length_b 18.987665
_cell_length_c 10.405598
_cell_angle_alpha 45.638622
_cell_angle_beta 132.932686
_cell_angle_gamma 167.613502
_cell_volume 739.005829
_symmetry_space_group_name_H-M "P -1"
_symmetry_group_IT_number 2
_symmetry_cell_setting 'triclinic'
loop_
_space_group_symop_operation_xyz
x,y,z
-x,-y,-z
loop_
_atom_site_type_symbol
_atom_site_label
_atom_site_fract_x
_atom_site_fract_y
_atom_site_fract_z
Si Si1 0.268958 0.968118 0.344870
Si Si2 0.896279 0.792443 0.702032
Si Si3 0.751477 0.255741 0.538946
Si Si4 0.962289 0.282451 0.215932
Si Si5 0.609358 0.321323 0.630741
Si Si6 0.878142 0.344798 0.180716
Si Si7 0.517867 0.435286 0.714101
Si Si8 0.622619 0.708773 0.051418
O O1 0.322451 0.921783 0.452506
O O2 0.979743 0.613726 0.392108
O O3 0.496541 0.270259 0.429386
O O4 0.309745 0.094753 0.132601
O O5 0.716228 0.491363 0.721560
O O6 0.748618 0.657216 0.756078
O O7 0.000000 0.000000 0.500000
O O8 0.118581 0.016656 0.843717
O O9 0.854791 0.325947 0.737646
O O10 0.500000 0.000000 0.500000
O O11 0.170113 0.463385 0.365137
O O12 0.833399 0.179862 0.257048
O O13 0.115172 0.555573 0.030361
O O14 0.749002 0.958667 0.206128
O O15 0.365165 0.943347 0.749073
O O16 0.500000 0.500000 0.500000
O O17 0.563411 0.526629 0.818845
O O18 0.500000 0.500000 0.000000
#
# Coordination Sequence:
#
# PCOD8014050 Si02
#       8
#     2   2   2   2   2   2   2   2
#     4  10  24  41  65 100 140 179 228 282 346 409
#     4  12  24  45  71  99 131 184 230 286 346 409
#     4  10  21  41  64  94 141 187 222 276 347 411
#     4  11  21  38  62 101 128 173 224 288 330 399
#     4  11  21  41  66  94 133 179 225 274 341 402
#     4  10  22  36  62  96 135 170 231 277 330 406
#     4  12  25  44  72 100 133 180 233 282 345 416
#     4  12  27  46  71 104 142 176 227 295 348 415
#
# _framework density 21.65071
#
# number of rings (size 3 to 8) (size 9 to 14) (size 15 to 20)
#    0.000    1.000    3.750    2.625    0.000    2.500 
#    2.250    1.250    0.000    0.000    0.000    0.000 
#    0.000    0.000    0.000    0.000    0.000    0.000 
#
# Total GULP energy -198321.687240 kJ/mol
# GULP energy per Si atom -12395.105453 kJ/mol
# Density = 2.160143 g / cm^3
# Si number density = 21.650710 Si / 1000 Ang^3
#
#
#
# Elastic Constant Matrix: (Units=GPa)
#
#
# Indices 1 2 3 4 5 6 
#
# 1 114.1376 52.7400 44.5949 5.9459 -8.5261 11.3627
# 2 52.7400 114.7602 47.1275 22.1589 0.8009 14.8833
# 3 44.5949 47.1275 126.7083 9.4126 -11.0942 8.4520
# 4 5.9459 22.1589 9.4126 35.6589 -1.7824 -1.7655
# 5 -8.5261 0.8009 -11.0942 -1.7824 31.3498 4.9551
# 6 11.3627 14.8833 8.4520 -1.7655 4.9551 45.5028
#
#
#
# Elastic Compliance Matrix: (Units=1/GPa)
#
#
# Indices 1 2 3 4 5 6 
#
# 1 0.012131 -0.004820 -0.002258 0.001651 0.002921 -0.001287
# 2 -0.004820 0.013963 -0.003001 -0.007355 -0.002706 -0.002797
# 3 -0.002258 -0.003001 0.010148 -0.000315 0.003146 -0.000694
# 4 0.001651 -0.007355 -0.000315 0.032670 0.001891 0.003114
# 5 0.002921 -0.002706 0.003146 0.001891 0.034635 -0.004127
# 6 -0.001287 -0.002797 -0.000694 0.003114 -0.004127 0.023912
#
#
# Mechanical properties :
#
#
# Convention : Reuss Voigt Hill
#
# Bulk Modulus (GPa) = 62.17125 71.61457 66.89291
# Shear Modulus (GPa) = 32.68443 36.57855 34.63149
#
# Velocity S-wave (km/s) = 3.88960 4.11479 4.00378
# Velocity P-wave (km/s) = 6.99642 7.46488 7.23444
#
# Compressibility (1/GPa) = 0.01608460
#
# Stress axis : x y z
#
# Youngs Moduli (GPa) = 82.43319 71.61789 98.54105
#
# Poissons Ratio (x) = 0.34520 0.22249
# Poissons Ratio (y) = 0.39733 0.29572
# Poissons Ratio (z) = 0.18612 0.21492
#
# Static dielectric constant tensor:
#      x y z
#    x 4.340690 -0.023270 -0.166800 
#    y -0.023270 3.914790 0.129750 
#    z -0.166800 0.129750 3.933740 
# 
# 
# High freq. dielectric constant tensor:
#      x y z
#    x 1.857070 0.002570 -0.004810 
#    y 0.002570 1.854300 0.008560 
#    z -0.004810 0.008560 1.845800 
# 
# From -- ./inp_files/477101.got.cif
#   From: 2010.06.25/outbox.cif.g09.slc.cpg/sg2_239_cif.got.tgz:477101.got - 2010.06.27 13:26:56.
