data_PCOD8014162
_publ_section_title
;
Structure prediction by ZEFSAII (Michael W. Deem and Ramdas Pophale) SiO2 
 PCOD8014162
Probable space group: P -1
;
_chemical_formula_sum "Si O2"
_cell_formula_units_Z 16
_cell_length_a 11.441536
_cell_length_b 12.927900
_cell_length_c 9.774551
_cell_angle_alpha 126.626604
_cell_angle_beta 130.252840
_cell_angle_gamma 47.541869
_cell_volume 780.351522
_symmetry_space_group_name_H-M "P -1"
_symmetry_group_IT_number 2
_symmetry_cell_setting 'triclinic'
loop_
_space_group_symop_operation_xyz
x,y,z
-x,-y,-z
loop_
_atom_site_type_symbol
_atom_site_label
_atom_site_fract_x
_atom_site_fract_y
_atom_site_fract_z
Si Si1 0.385040 0.618347 0.395290
Si Si2 0.723733 0.882068 0.429730
Si Si3 0.385255 0.903023 0.710256
Si Si4 0.129917 0.435091 0.671601
Si Si5 0.268628 0.094005 0.029664
Si Si6 0.335257 0.937450 0.219192
Si Si7 0.497788 0.374687 0.811015
Si Si8 0.948641 0.398821 0.972939
O O1 0.500000 0.500000 0.500000
O O2 0.337233 0.773914 0.548642
O O3 0.488717 0.599769 0.318733
O O4 0.217676 0.599293 0.220824
O O5 0.867700 0.712910 0.389158
O O6 0.529283 0.907343 0.314256
O O7 0.742555 0.961592 0.372913
O O8 0.764270 0.952852 0.647040
O O9 0.587822 0.851948 0.787562
O O10 0.347360 0.957271 0.878928
O O11 0.315192 0.380508 0.699757
O O12 0.000000 0.500000 0.500000
O O13 0.089781 0.545365 0.854925
O O14 0.222499 0.022806 0.069213
O O15 0.099087 0.232654 0.955469
O O16 0.346031 0.780969 0.140735
O O17 0.500000 0.500000 0.000000
O O18 0.000000 0.500000 0.000000
#
# Coordination Sequence:
#
# PCOD8014162 Si02
#       8
#     2   2   2   2   2   2   2   2
#     4  12  27  43  68  94 132 181 222 272 332 393
#     4   9  17  34  58  90 122 160 207 256 315 388
#     4  10  21  41  65  93 123 174 219 265 331 389
#     4  11  24  39  69  98 132 172 216 270 337 389
#     4  10  22  39  67  94 129 166 220 272 325 399
#     4   9  18  34  63  89 120 161 207 264 319 381
#     4  11  23  44  65  96 133 169 221 273 328 397
#     4  12  26  45  63  98 137 175 223 277 327 395
#
# _framework density 20.503578999999998
#
# number of rings (size 3 to 8) (size 9 to 14) (size 15 to 20)
#    0.000    1.500    2.500    2.250    7.000    2.500 
#    0.000    1.875    0.000    0.000    0.000    0.000 
#    0.000    0.000    0.000    0.000    0.000    0.000 
#
# Total GULP energy -198362.266540 kJ/mol
# GULP energy per Si atom -12397.641659 kJ/mol
# Density = 2.045691 g / cm^3
# Si number density = 20.503579 Si / 1000 Ang^3
#
#
#
# Elastic Constant Matrix: (Units=GPa)
#
#
# Indices 1 2 3 4 5 6 
#
# 1 68.1529 29.4409 35.9632 -7.2593 -4.4950 11.8728
# 2 29.4409 151.4151 65.3549 -6.9254 4.5266 15.6867
# 3 35.9632 65.3549 131.5626 0.8204 -3.7308 12.0395
# 4 -7.2593 -6.9254 0.8204 46.8097 2.6621 -4.8159
# 5 -4.4950 4.5266 -3.7308 2.6621 29.1151 -4.5050
# 6 11.8728 15.6867 12.0395 -4.8159 -4.5050 32.8144
#
#
#
# Elastic Compliance Matrix: (Units=1/GPa)
#
#
# Indices 1 2 3 4 5 6 
#
# 1 0.018400 -0.001424 -0.003923 0.002204 0.001743 -0.003975
# 2 -0.001424 0.008957 -0.003909 0.001060 -0.002602 -0.002534
# 3 -0.003923 -0.003909 0.010727 -0.001525 0.001411 -0.000678
# 4 0.002204 0.001060 -0.001525 0.022220 -0.001698 0.002283
# 5 0.001743 -0.002602 0.001411 -0.001698 0.036099 0.004802
# 6 -0.003975 -0.002534 -0.000678 0.002283 0.004802 0.034367
#
#
# Mechanical properties :
#
#
# Convention : Reuss Voigt Hill
#
# Bulk Modulus (GPa) = 51.09221 68.07208 59.58214
# Shear Modulus (GPa) = 32.09120 36.43929 34.26524
#
# Velocity S-wave (km/s) = 3.96049 4.22028 4.09245
# Velocity P-wave (km/s) = 6.77398 7.55115 7.17310
#
# Compressibility (1/GPa) = 0.01957245
#
# Stress axis : x y z
#
# Youngs Moduli (GPa) = 54.34717 111.64167 93.22630
#
# Poissons Ratio (x) = 0.15898 0.36573
# Poissons Ratio (y) = 0.07739 0.36441
# Poissons Ratio (z) = 0.21320 0.43639
#
# Static dielectric constant tensor:
#      x y z
#    x 3.604180 0.229570 -0.093960 
#    y 0.229570 4.063350 0.057260 
#    z -0.093960 0.057260 3.845060 
# 
# 
# High freq. dielectric constant tensor:
#      x y z
#    x 1.783570 0.011770 -0.023180 
#    y 0.011770 1.818660 0.002500 
#    z -0.023180 0.002500 1.804140 
# 
# From -- ./inp_files/263160.got.cif
#   From: 2010.06.25/outbox.cif.g09.slc.cpg/sg2_132_cif.got.tgz:263160.got - 2010.06.27 13:26:56.
