data_PCOD8014630
_publ_section_title
;
Structure prediction by ZEFSAII (Michael W. Deem and Ramdas Pophale) SiO2 
 PCOD8014630
Probable space group: P -1
;
_chemical_formula_sum "Si O2"
_cell_formula_units_Z 14
_cell_length_a 8.136799
_cell_length_b 9.202073
_cell_length_c 12.828707
_cell_angle_alpha 119.138624
_cell_angle_beta 52.284221
_cell_angle_gamma 112.627085
_cell_volume 658.423103
_symmetry_space_group_name_H-M "P -1"
_symmetry_group_IT_number 2
_symmetry_cell_setting 'triclinic'
loop_
_space_group_symop_operation_xyz
x,y,z
-x,-y,-z
loop_
_atom_site_type_symbol
_atom_site_label
_atom_site_fract_x
_atom_site_fract_y
_atom_site_fract_z
Si Si1 0.943623 0.351117 0.390987
Si Si2 0.225723 0.061821 0.203930
Si Si3 0.500142 0.196465 0.573771
Si Si4 0.319526 0.905690 0.895443
Si Si5 0.288835 0.196267 0.854588
Si Si6 0.059753 0.242796 0.761855
Si Si7 0.014811 0.396861 0.142071
O O1 0.695961 0.293275 0.473319
O O2 0.998043 0.419918 0.279448
O O3 0.000000 0.500000 0.500000
O O4 0.069249 0.199859 0.319593
O O5 0.124402 0.899687 0.254985
O O6 0.442544 0.134455 0.200201
O O7 0.264260 0.014222 0.053150
O O8 0.492636 0.247872 0.719161
O O9 0.285682 0.241453 0.616384
O O10 0.500000 0.000000 0.500000
O O11 0.176029 0.730361 0.874031
O O12 0.294751 0.015621 0.840416
O O13 0.087384 0.185599 0.851754
O O14 0.241457 0.334611 0.007037
O O15 0.984090 0.423725 0.849541
#
# Coordination Sequence:
#
# PCOD8014630 Si02
#       7
#     2   2   2   2   2   2   2
#     4  12  27  47  65  97 138 176 219 279 326 395
#     4  11  23  42  65 102 136 166 224 272 330 383
#     4  10  21  42  69  92 135 174 217 260 337 392
#     4  11  22  40  72 100 128 174 218 281 322 389
#     4  10  21  41  69  96 127 176 222 263 324 394
#     4  10  23  41  69 100 132 173 221 272 323 399
#     4  12  23  44  73  97 129 177 229 265 332 391
#
# _framework density 21.262926
#
# number of rings (size 3 to 8) (size 9 to 14) (size 15 to 20)
#    0.857    0.286    4.286    2.571    2.000    1.714 
#    5.143    2.857    0.000    0.000    0.000    0.000 
#    0.000    0.000    0.000    0.000    0.000    0.000 
#
# Total GULP energy -173488.363325 kJ/mol
# GULP energy per Si atom -12392.025952 kJ/mol
# Density = 2.121453 g / cm^3
# Si number density = 21.262926 Si / 1000 Ang^3
#
#
#
# Elastic Constant Matrix: (Units=GPa)
#
#
# Indices 1 2 3 4 5 6 
#
# 1 60.8082 30.9047 33.8718 1.0658 1.7122 -6.0532
# 2 30.9047 86.4228 30.5033 10.1240 -3.1004 -12.6592
# 3 33.8718 30.5033 119.2298 -8.3220 -5.8010 8.4876
# 4 1.0658 10.1240 -8.3220 35.3279 1.0398 0.3473
# 5 1.7122 -3.1004 -5.8010 1.0398 33.7587 1.9370
# 6 -6.0532 -12.6592 8.4876 0.3473 1.9370 25.9606
#
#
#
# Elastic Compliance Matrix: (Units=1/GPa)
#
#
# Indices 1 2 3 4 5 6 
#
# 1 0.022963 -0.005620 -0.005583 -0.000358 -0.002897 0.004660
# 2 -0.005620 0.016709 -0.003593 -0.005571 0.000914 0.008019
# 3 -0.005583 -0.003593 0.011788 0.003978 0.002265 -0.007130
# 4 -0.000358 -0.005571 0.003978 0.030910 -0.000505 -0.004477
# 5 -0.002897 0.000914 0.002265 -0.000505 0.030443 -0.003235
# 6 0.004660 0.008019 -0.007130 -0.004477 -0.003235 0.046149
#
#
# Mechanical properties :
#
#
# Convention : Reuss Voigt Hill
#
# Bulk Modulus (GPa) = 45.73212 50.78005 48.25609
# Shear Modulus (GPa) = 25.53033 30.42151 27.97592
#
# Velocity S-wave (km/s) = 3.46887 3.78660 3.63121
# Velocity P-wave (km/s) = 6.13177 6.56137 6.35021
#
# Compressibility (1/GPa) = 0.02186647
#
# Stress axis : x y z
#
# Youngs Moduli (GPa) = 43.54751 59.84768 84.83110
#
# Poissons Ratio (x) = 0.33637 0.47365
# Poissons Ratio (y) = 0.24475 0.30482
# Poissons Ratio (z) = 0.24314 0.21505
#
# Static dielectric constant tensor:
#      x y z
#    x 3.698330 -0.030110 -0.129820 
#    y -0.030110 3.578880 -0.040410 
#    z -0.129820 -0.040410 4.039290 
# 
# 
# High freq. dielectric constant tensor:
#      x y z
#    x 1.812970 -0.004230 -0.015950 
#    y -0.004230 1.830150 -0.005090 
#    z -0.015950 -0.005090 1.846680 
# 
# From -- ./inp_files/493778.got.cif
#   From: 2010.06.25/outbox.cif.g09.slc.cpg/sg2_247_cif.got.tgz:493778.got - 2010.06.27 13:26:56.
