data_PCOD8014058
_publ_section_title
;
Structure prediction by ZEFSAII (Michael W. Deem and Ramdas Pophale) SiO2 
 PCOD8014058
Probable space group: P -1
;
_chemical_formula_sum "Si O2"
_cell_formula_units_Z 16
_cell_length_a 12.350673
_cell_length_b 12.214120
_cell_length_c 11.298193
_cell_angle_alpha 114.630575
_cell_angle_beta 78.493225
_cell_angle_gamma 45.284578
_cell_volume 711.945139
_symmetry_space_group_name_H-M "P -1"
_symmetry_group_IT_number 2
_symmetry_cell_setting 'triclinic'
loop_
_space_group_symop_operation_xyz
x,y,z
-x,-y,-z
loop_
_atom_site_type_symbol
_atom_site_label
_atom_site_fract_x
_atom_site_fract_y
_atom_site_fract_z
Si Si1 0.077705 0.459820 0.783829
Si Si2 0.640147 0.605325 0.396336
Si Si3 0.078797 0.626587 0.549265
Si Si4 0.251865 0.232764 0.221907
Si Si5 0.731174 0.353640 0.639118
Si Si6 0.765298 0.248017 0.085994
Si Si7 0.916417 0.167976 0.768273
Si Si8 0.849654 0.827882 0.200152
O O1 0.304538 0.322293 0.647078
O O2 0.171662 0.247862 0.725108
O O3 0.948898 0.548163 0.731644
O O4 0.897326 0.710792 0.016207
O O5 0.825927 0.396316 0.366019
O O6 0.662209 0.479019 0.239017
O O7 0.382034 0.867429 0.626238
O O8 0.240638 0.352136 0.371808
O O9 0.107122 0.690145 0.461303
O O10 0.810556 0.835111 0.728334
O O11 0.500000 0.000000 0.000000
O O12 0.455154 0.630502 0.783746
O O13 0.736798 0.343702 0.776214
O O14 0.838213 0.126974 0.461683
O O15 0.818698 0.183077 0.905703
O O16 0.000000 0.000000 0.000000
O O17 0.945188 0.276105 0.858387
#
# Coordination Sequence:
#
# PCOD8014058 Si02
#       8
#     2   2   2   2   2   2   2   2
#     4  10  22  38  63  97 126 170 218 267 331 399
#     4  11  22  40  63  94 132 168 220 275 330 391
#     4  10  23  39  65  96 128 171 219 266 333 399
#     4  10  21  41  64  95 132 167 211 274 330 399
#     4  11  25  45  66  96 135 178 224 279 336 400
#     4  12  26  42  68  99 133 180 231 276 336 398
#     4  11  24  44  67  95 134 177 225 279 338 398
#     4  11  21  39  65  92 128 171 217 272 333 397
#
# _framework density 22.47364
#
# number of rings (size 3 to 8) (size 9 to 14) (size 15 to 20)
#    0.000    1.250    2.500    3.000    1.750    4.000 
#    0.000    5.000    0.000    0.000    0.000    0.000 
#    0.000    0.000    0.000    0.000    0.000    0.000 
#
# Total GULP energy -198348.010072 kJ/mol
# GULP energy per Si atom -12396.750629 kJ/mol
# Density = 2.242249 g / cm^3
# Si number density = 22.473640 Si / 1000 Ang^3
#
#
#
# Elastic Constant Matrix: (Units=GPa)
#
#
# Indices 1 2 3 4 5 6 
#
# 1 95.0550 30.2218 32.2096 -4.4228 -17.5229 5.1513
# 2 30.2218 89.2396 28.1287 -16.8179 -14.5996 5.6301
# 3 32.2096 28.1287 96.1937 -5.5595 -18.7937 -6.0228
# 4 -4.4228 -16.8179 -5.5595 37.6097 -0.0304 -5.2295
# 5 -17.5229 -14.5996 -18.7937 -0.0304 37.3334 1.5572
# 6 5.1513 5.6301 -6.0228 -5.2295 1.5572 24.1650
#
#
#
# Elastic Compliance Matrix: (Units=1/GPa)
#
#
# Indices 1 2 3 4 5 6 
#
# 1 0.013320 -0.002816 -0.003159 -0.000622 0.003699 -0.003344
# 2 -0.002816 0.014692 -0.002555 0.005520 0.003245 -0.002474
# 3 -0.003159 -0.002555 0.013340 0.001097 0.004044 0.004570
# 4 -0.000622 0.005520 0.001097 0.029906 0.002216 0.005449
# 5 0.003699 0.003245 0.004044 0.002216 0.031917 -0.002114
# 6 -0.003344 -0.002474 0.004570 0.005449 -0.002114 0.045126
#
#
# Mechanical properties :
#
#
# Convention : Reuss Voigt Hill
#
# Bulk Modulus (GPa) = 41.16664 51.28984 46.22824
# Shear Modulus (GPa) = 28.82518 32.48348 30.65433
#
# Velocity S-wave (km/s) = 3.58526 3.80597 3.69726
# Velocity P-wave (km/s) = 5.95787 6.49505 6.23225
#
# Compressibility (1/GPa) = 0.02429151
#
# Stress axis : x y z
#
# Youngs Moduli (GPa) = 75.07296 68.06350 74.96106
#
# Poissons Ratio (x) = 0.19169 0.23682
# Poissons Ratio (y) = 0.21143 0.19154
# Poissons Ratio (z) = 0.23717 0.17391
#
# Static dielectric constant tensor:
#      x y z
#    x 4.164660 -0.001130 -0.049290 
#    y -0.001130 3.763320 -0.269600 
#    z -0.049290 -0.269600 4.049620 
# 
# 
# High freq. dielectric constant tensor:
#      x y z
#    x 1.895850 0.001340 0.003260 
#    y 0.001340 1.863410 -0.021920 
#    z 0.003260 -0.021920 1.891850 
# 
# From -- ./inp_files/428229.got.cif
#   From: 2010.06.25/outbox.cif.g09.slc.cpg/sg2_215_cif.got.tgz:428229.got - 2010.06.27 13:26:56.
