data_PCOD8014457
_publ_section_title
;
Structure prediction by ZEFSAII (Michael W. Deem and Ramdas Pophale) SiO2 
 PCOD8014457
Probable space group: P -1
;
_chemical_formula_sum "Si O2"
_cell_formula_units_Z 16
_cell_length_a 9.284962
_cell_length_b 14.496677
_cell_length_c 9.132958
_cell_angle_alpha 99.896667
_cell_angle_beta 138.056716
_cell_angle_gamma 94.172640
_cell_volume 770.955809
_symmetry_space_group_name_H-M "P -1"
_symmetry_group_IT_number 2
_symmetry_cell_setting 'triclinic'
loop_
_space_group_symop_operation_xyz
x,y,z
-x,-y,-z
loop_
_atom_site_type_symbol
_atom_site_label
_atom_site_fract_x
_atom_site_fract_y
_atom_site_fract_z
Si Si1 0.009841 0.345187 0.964645
Si Si2 0.740093 0.244239 0.462935
Si Si3 0.459440 0.492648 0.295994
Si Si4 0.216745 0.592800 0.665667
Si Si5 0.364189 0.658599 0.112607
Si Si6 0.764192 0.820120 0.868252
Si Si7 0.443812 0.131272 0.560994
Si Si8 0.192481 0.921853 0.374640
O O1 0.810993 0.301255 0.685641
O O2 0.890114 0.373960 0.023594
O O3 0.192815 0.437923 0.054485
O O4 0.140277 0.271098 0.097686
O O5 0.854345 0.315939 0.434373
O O6 0.470795 0.213418 0.230971
O O7 0.818341 0.145174 0.505160
O O8 0.500000 0.500000 0.500000
O O9 0.612891 0.433302 0.325077
O O10 0.513989 0.599749 0.292435
O O11 0.000000 0.500000 0.500000
O O12 0.350701 0.629425 0.925560
O O13 0.486644 0.774882 0.254586
O O14 0.730232 0.858708 0.692765
O O15 0.941194 0.906776 0.117825
O O16 0.666968 0.115786 0.653883
O O17 0.313459 0.036088 0.533993
#
# Coordination Sequence:
#
# PCOD8014457 Si02
#       8
#     2   2   2   2   2   2   2   2
#     4  11  20  39  64  92 122 162 214 254 301 369
#     4  10  20  39  63  88 121 169 211 251 299 379
#     4  12  24  41  67  90 121 170 213 255 312 377
#     4  12  26  43  60  93 131 166 204 258 321 369
#     4  12  23  39  60  95 132 159 206 265 311 371
#     4  10  16  34  63  90 123 159 211 253 308 356
#     4  10  19  35  57  98 124 158 205 267 311 356
#     4   9  19  34  64  89 126 158 212 260 304 363
#
# _framework density 20.753458999999999
#
# number of rings (size 3 to 8) (size 9 to 14) (size 15 to 20)
#    0.000    1.250    5.000    4.125    0.000    0.000 
#    0.000    0.625    0.000    0.750    0.000    0.000 
#    0.000    0.000    0.000    0.000    0.000    0.000 
#
# Total GULP energy -198388.100397 kJ/mol
# GULP energy per Si atom -12399.256275 kJ/mol
# Density = 2.070622 g / cm^3
# Si number density = 20.753459 Si / 1000 Ang^3
#
#
#
# Elastic Constant Matrix: (Units=GPa)
#
#
# Indices 1 2 3 4 5 6 
#
# 1 72.0819 34.6454 45.4052 4.4842 -7.8296 11.7783
# 2 34.6454 154.9964 60.8388 9.8461 -11.6636 28.8948
# 3 45.4052 60.8388 125.6199 1.9078 5.2614 9.4663
# 4 4.4842 9.8461 1.9078 37.9527 6.5815 -0.4337
# 5 -7.8296 -11.6636 5.2614 6.5815 35.3364 -0.3974
# 6 11.7783 28.8948 9.4663 -0.4337 -0.3974 31.0752
#
#
#
# Elastic Compliance Matrix: (Units=1/GPa)
#
#
# Indices 1 2 3 4 5 6 
#
# 1 0.020040 -0.000090 -0.007000 -0.003089 0.005968 -0.005347
# 2 -0.000090 0.010314 -0.004488 -0.003327 0.004580 -0.008177
# 3 -0.007000 -0.004488 0.012630 0.002311 -0.005310 0.002943
# 4 -0.003089 -0.003327 0.002311 0.028796 -0.007446 0.003867
# 5 0.005968 0.004580 -0.005310 -0.007446 0.033260 -0.004582
# 6 -0.005347 -0.008177 0.002943 0.003867 -0.004582 0.040908
#
#
# Mechanical properties :
#
#
# Convention : Reuss Voigt Hill
#
# Bulk Modulus (GPa) = 50.43349 70.49746 60.46547
# Shear Modulus (GPa) = 28.45577 34.99346 31.72461
#
# Velocity S-wave (km/s) = 3.70690 4.11073 3.91403
# Velocity P-wave (km/s) = 6.53265 7.52154 7.04447
#
# Compressibility (1/GPa) = 0.01982809
#
# Stress axis : x y z
#
# Youngs Moduli (GPa) = 49.90111 96.95835 79.17873
#
# Poissons Ratio (x) = 0.00870 0.55425
# Poissons Ratio (y) = 0.00448 0.35533
# Poissons Ratio (z) = 0.34931 0.43512
#
# Static dielectric constant tensor:
#      x y z
#    x 3.427220 0.284300 0.226840 
#    y 0.284300 4.376590 0.067060 
#    z 0.226840 0.067060 3.798100 
# 
# 
# High freq. dielectric constant tensor:
#      x y z
#    x 1.769720 0.016450 0.018780 
#    y 0.016450 1.831970 -0.003430 
#    z 0.018780 -0.003430 1.815390 
# 
# From -- ./inp_files/39027.got.cif
#   From: 2010.06.25/outbox.cif.g09.slc.cpg/sg2_20_cif.got.tgz:39027.got - 2010.06.27 13:26:56.
