data_PCOD8014284
_publ_section_title
;
Structure prediction by ZEFSAII (Michael W. Deem and Ramdas Pophale) SiO2 
 PCOD8014284
Probable space group: P -1
;
_chemical_formula_sum "Si O2"
_cell_formula_units_Z 14
_cell_length_a 19.868525
_cell_length_b 10.956589
_cell_length_c 7.779745
_cell_angle_alpha 133.387933
_cell_angle_beta 141.783644
_cell_angle_gamma 40.565960
_cell_volume 664.045627
_symmetry_space_group_name_H-M "P -1"
_symmetry_group_IT_number 2
_symmetry_cell_setting 'triclinic'
loop_
_space_group_symop_operation_xyz
x,y,z
-x,-y,-z
loop_
_atom_site_type_symbol
_atom_site_label
_atom_site_fract_x
_atom_site_fract_y
_atom_site_fract_z
Si Si1 0.427646 0.162919 0.234156
Si Si2 0.392137 0.252563 0.876521
Si Si3 0.523951 0.291781 0.868626
Si Si4 0.024249 0.271546 0.933263
Si Si5 0.882240 0.468894 0.530499
Si Si6 0.982813 0.956720 0.733322
Si Si7 0.763705 0.954751 0.121899
O O1 0.442266 0.255643 0.528325
O O2 0.561035 0.974622 0.276450
O O3 0.394561 0.298720 0.129447
O O4 0.312629 0.123236 0.995168
O O5 0.488090 0.286904 0.989884
O O6 0.258530 0.387448 0.659467
O O7 0.500000 0.500000 0.000000
O O8 0.669215 0.135327 0.990077
O O9 0.138342 0.206519 0.964627
O O10 0.897565 0.403690 0.699214
O O11 0.042612 0.411267 0.240994
O O12 0.025686 0.082032 0.824319
O O13 0.932308 0.273279 0.334216
O O14 0.839316 0.019808 0.466129
O O15 0.000000 0.000000 0.000000
#
# Coordination Sequence:
#
# PCOD8014284 Si02
#       7
#     2   2   2   2   2   2   2
#     4  10  22  43  66  93 128 169 217 262 321 386
#     4  10  22  41  66  94 128 167 217 262 321 383
#     4  11  24  38  65  97 130 166 213 262 321 391
#     4  10  22  41  68  89 129 170 218 265 319 383
#     4  10  21  41  66  93 121 176 211 261 325 383
#     4  11  26  42  62  99 133 165 215 268 325 383
#     4  10  21  44  63  88 126 170 209 263 324 371
#
# _framework density 21.082889000000002
#
# number of rings (size 3 to 8) (size 9 to 14) (size 15 to 20)
#    0.000    1.714    0.000    5.143    6.000    2.286 
#    7.714    0.000    0.000    0.000    0.000    0.000 
#    0.000    0.000    0.000    0.000    0.000    0.000 
#
# Total GULP energy -173457.381704 kJ/mol
# GULP energy per Si atom -12389.812979 kJ/mol
# Density = 2.103490 g / cm^3
# Si number density = 21.082889 Si / 1000 Ang^3
#
#
#
# Elastic Constant Matrix: (Units=GPa)
#
#
# Indices 1 2 3 4 5 6 
#
# 1 99.4054 49.0413 53.8523 -3.1326 -7.6713 11.5683
# 2 49.0413 131.8057 64.5410 -9.0321 2.6081 8.0747
# 3 53.8523 64.5410 126.2142 7.8555 -1.3636 -0.4624
# 4 -3.1326 -9.0321 7.8555 45.1395 -1.7927 4.4165
# 5 -7.6713 2.6081 -1.3636 -1.7927 24.1845 -5.5712
# 6 11.5683 8.0747 -0.4624 4.4165 -5.5712 21.3205
#
#
#
# Elastic Compliance Matrix: (Units=1/GPa)
#
#
# Indices 1 2 3 4 5 6 
#
# 1 0.015411 -0.002563 -0.005399 0.002326 0.003397 -0.007103
# 2 -0.002563 0.011621 -0.005110 0.003365 -0.003176 -0.004648
# 3 -0.005399 -0.005110 0.013135 -0.004263 0.000695 0.006214
# 4 0.002326 0.003365 -0.004263 0.024486 0.000187 -0.007653
# 5 0.003397 -0.003176 0.000695 0.000187 0.045402 0.011200
# 6 -0.007103 -0.004648 0.006214 -0.007653 0.011200 0.057164
#
#
# Mechanical properties :
#
#
# Convention : Reuss Voigt Hill
#
# Bulk Modulus (GPa) = 71.30760 76.92161 74.11461
# Shear Modulus (GPa) = 25.24776 30.79494 28.02135
#
# Velocity S-wave (km/s) = 3.46431 3.82600 3.64964
# Velocity P-wave (km/s) = 7.06384 7.48881 7.27943
#
# Compressibility (1/GPa) = 0.01402375
#
# Stress axis : x y z
#
# Youngs Moduli (GPa) = 64.88802 86.05264 76.13170
#
# Poissons Ratio (x) = 0.22056 0.41103
# Poissons Ratio (y) = 0.16631 0.38900
# Poissons Ratio (z) = 0.35033 0.43970
#
# Static dielectric constant tensor:
#      x y z
#    x 3.619960 -0.036100 0.221700 
#    y -0.036100 4.091880 0.081430 
#    z 0.221700 0.081430 3.853350 
# 
# 
# High freq. dielectric constant tensor:
#      x y z
#    x 1.806230 0.002330 -0.004060 
#    y 0.002330 1.842860 -0.007870 
#    z -0.004060 -0.007870 1.827100 
# 
# From -- ./inp_files/353296.got.cif
#   From: 2010.06.25/outbox.cif.g09.slc.cpg/sg2_177_cif.got.tgz:353296.got - 2010.06.27 13:26:56.
