data_PCOD8014940
_publ_section_title
;
Structure prediction by ZEFSAII (Michael W. Deem and Ramdas Pophale) SiO2 
 PCOD8014940
Probable space group: P -1
;
_chemical_formula_sum "Si O2"
_cell_formula_units_Z 16
_cell_length_a 13.343796
_cell_length_b 9.088269
_cell_length_c 13.756363
_cell_angle_alpha 91.666114
_cell_angle_beta 137.259841
_cell_angle_gamma 120.896131
_cell_volume 696.205114
_symmetry_space_group_name_H-M "P -1"
_symmetry_group_IT_number 2
_symmetry_cell_setting 'triclinic'
loop_
_space_group_symop_operation_xyz
x,y,z
-x,-y,-z
loop_
_atom_site_type_symbol
_atom_site_label
_atom_site_fract_x
_atom_site_fract_y
_atom_site_fract_z
Si Si1 0.791914 0.090457 0.194532
Si Si2 0.700582 0.677272 0.876633
Si Si3 0.963091 0.467548 0.087201
Si Si4 0.006280 0.252521 0.757751
Si Si5 0.945294 0.788207 0.861044
Si Si6 0.800389 0.795151 0.567365
Si Si7 0.504688 0.972757 0.163705
Si Si8 0.942582 0.425951 0.568374
O O1 0.938549 0.054816 0.283248
O O2 0.990173 0.374293 0.322836
O O3 0.668691 0.997262 0.211373
O O4 0.589840 0.962503 0.966467
O O5 0.824068 0.682018 0.877859
O O6 0.413426 0.440254 0.655019
O O7 0.777020 0.663599 0.032966
O O8 0.799948 0.923069 0.946191
O O9 0.111011 0.714458 0.252051
O O10 0.017788 0.345055 0.158417
O O11 0.690070 0.282267 0.925812
O O12 0.000000 0.500000 0.000000
O O13 0.092567 0.409496 0.725633
O O14 0.804903 0.976943 0.573562
O O15 0.768370 0.727165 0.656718
O O16 0.661042 0.165153 0.366764
O O17 0.000000 0.500000 0.500000
#
# Coordination Sequence:
#
# PCOD8014940 Si02
#       8
#     2   2   2   2   2   2   2   2
#     4  10  21  42  69  98 129 177 230 274 337 405
#     4  10  23  41  65  91 148 181 220 283 333 396
#     4  12  23  43  70  97 136 177 226 282 339 394
#     4  11  24  41  63 103 141 169 230 281 329 415
#     4  10  21  42  63  98 132 183 234 273 330 407
#     4  11  23  40  67 100 138 183 226 271 342 407
#     4  10  22  41  70  93 133 172 226 288 329 389
#     4  10  22  41  69  98 129 172 227 279 335 401
#
# _framework density 22.981732999999998
#
# number of rings (size 3 to 8) (size 9 to 14) (size 15 to 20)
#    0.000    1.500    3.750    0.375    3.500    0.000 
#    0.000    4.375    0.000    0.000    0.000    0.000 
#    0.000    0.000    0.000    0.000    0.000    0.000 
#
# Total GULP energy -198230.601941 kJ/mol
# GULP energy per Si atom -12389.412621 kJ/mol
# Density = 2.292943 g / cm^3
# Si number density = 22.981733 Si / 1000 Ang^3
#
#
#
# Elastic Constant Matrix: (Units=GPa)
#
#
# Indices 1 2 3 4 5 6 
#
# 1 99.3809 48.7369 32.6924 1.4746 6.4787 1.5380
# 2 48.7369 118.2189 32.6732 -3.4907 -10.5512 -5.4969
# 3 32.6924 32.6732 106.0180 -3.8075 -12.0043 4.4425
# 4 1.4746 -3.4907 -3.8075 28.4095 4.7297 -10.1245
# 5 6.4787 -10.5512 -12.0043 4.7297 22.2084 -1.0730
# 6 1.5380 -5.4969 4.4425 -10.1245 -1.0730 47.7353
#
#
#
# Elastic Compliance Matrix: (Units=1/GPa)
#
#
# Indices 1 2 3 4 5 6 
#
# 1 0.014850 -0.005980 -0.003744 -0.000934 -0.009057 -0.001220
# 2 -0.005980 0.011965 -0.001133 0.001268 0.006648 0.002094
# 3 -0.003744 -0.001133 0.011754 0.000168 0.006827 -0.000915
# 4 -0.000934 0.001268 0.000168 0.039595 -0.007061 0.008400
# 5 -0.009057 0.006648 0.006827 -0.007061 0.056031 0.000184
# 6 -0.001220 0.002094 -0.000915 0.008400 0.000184 0.023100
#
#
# Mechanical properties :
#
#
# Convention : Reuss Voigt Hill
#
# Bulk Modulus (GPa) = 59.33123 61.31366 60.32244
# Shear Modulus (GPa) = 27.08154 33.63833 30.35993
#
# Velocity S-wave (km/s) = 3.43650 3.82998 3.63856
# Velocity P-wave (km/s) = 6.45126 6.80408 6.63002
#
# Compressibility (1/GPa) = 0.01685453
#
# Stress axis : x y z
#
# Youngs Moduli (GPa) = 67.34160 83.57404 85.08097
#
# Poissons Ratio (x) = 0.49975 0.31856
# Poissons Ratio (y) = 0.40269 0.09641
# Poissons Ratio (z) = 0.25214 0.09470
#
# Static dielectric constant tensor:
#      x y z
#    x 4.038290 -0.107170 -0.425310 
#    y -0.107170 4.287360 0.281160 
#    z -0.425310 0.281160 4.664740 
# 
# 
# High freq. dielectric constant tensor:
#      x y z
#    x 1.888080 -0.002050 -0.033580 
#    y -0.002050 1.910650 0.000570 
#    z -0.033580 0.000570 1.901570 
# 
# From -- ./inp_files/528658.got.cif
#   From: 2010.06.25/outbox.cif.g09.slc.cpg/sg2_265_cif.got.tgz:528658.got - 2010.06.27 13:26:56.
