data_PCOD8014872
_publ_section_title
;
Structure prediction by ZEFSAII (Michael W. Deem and Ramdas Pophale) SiO2 
 PCOD8014872
Probable space group: P -1
;
_chemical_formula_sum "Si O2"
_cell_formula_units_Z 16
_cell_length_a 14.206679
_cell_length_b 14.630876
_cell_length_c 9.641127
_cell_angle_alpha 69.255719
_cell_angle_beta 86.377140
_cell_angle_gamma 146.805089
_cell_volume 730.383274
_symmetry_space_group_name_H-M "P -1"
_symmetry_group_IT_number 2
_symmetry_cell_setting 'triclinic'
loop_
_space_group_symop_operation_xyz
x,y,z
-x,-y,-z
loop_
_atom_site_type_symbol
_atom_site_label
_atom_site_fract_x
_atom_site_fract_y
_atom_site_fract_z
Si Si1 0.051783 0.857418 0.100599
Si Si2 0.929308 0.670508 0.916774
Si Si3 0.935952 0.202773 0.566481
Si Si4 0.871749 0.977140 0.486231
Si Si5 0.583100 0.495353 0.391710
Si Si6 0.616918 0.016135 0.311670
Si Si7 0.472474 0.853456 0.711826
Si Si8 0.543764 0.290158 0.714049
O O1 0.048242 0.788151 0.274896
O O2 0.868737 0.777677 0.169106
O O3 0.967636 0.715751 0.052651
O O4 0.337220 0.152354 0.893457
O O5 0.664991 0.370239 0.085504
O O6 0.972234 0.815016 0.756439
O O7 0.122670 0.778432 0.780638
O O8 0.212371 0.486798 0.335745
O O9 0.845800 0.015639 0.607135
O O10 0.754531 0.115790 0.587568
O O11 0.601846 0.690062 0.618502
O O12 0.000000 0.000000 0.500000
O O13 0.500000 0.500000 0.500000
O O14 0.584853 0.392329 0.518350
O O15 0.443706 0.827667 0.560945
O O16 0.527050 0.883648 0.245892
O O17 0.633928 0.148233 0.214383
#
# Coordination Sequence:
#
# PCOD8014872 Si02
#       8
#     2   2   2   2   2   2   2   2
#     4  10  22  40  69  89 126 183 211 267 330 399
#     4  11  22  44  67  94 137 174 228 268 325 413
#     4  11  23  40  64  97 140 162 221 283 325 385
#     4  12  24  44  67  98 134 173 212 287 331 377
#     4  11  22  44  67  92 130 169 223 267 328 399
#     4  10  21  42  68  94 135 179 223 270 332 406
#     4  11  22  38  69 102 129 180 219 276 341 379
#     4  10  21  42  62  92 130 177 212 269 330 391
#
# _framework density 21.906307000000002
#
# number of rings (size 3 to 8) (size 9 to 14) (size 15 to 20)
#    0.000    1.250    3.750    4.125    1.750    1.000 
#    2.250    3.750    0.000    0.000    0.000    0.000 
#    0.000    0.000    0.000    0.000    0.000    0.000 
#
# Total GULP energy -198251.734725 kJ/mol
# GULP energy per Si atom -12390.733420 kJ/mol
# Density = 2.185645 g / cm^3
# Si number density = 21.906307 Si / 1000 Ang^3
#
#
#
# Elastic Constant Matrix: (Units=GPa)
#
#
# Indices 1 2 3 4 5 6 
#
# 1 128.8776 45.2654 47.9711 -9.5380 -18.3884 4.2808
# 2 45.2654 90.1023 50.4774 -17.6476 -12.2512 5.1325
# 3 47.9711 50.4774 95.1133 -6.3644 -14.3499 2.3484
# 4 -9.5380 -17.6476 -6.3644 42.5789 7.0454 -13.2770
# 5 -18.3884 -12.2512 -14.3499 7.0454 41.8296 1.3799
# 6 4.2808 5.1325 2.3484 -13.2770 1.3799 31.6358
#
#
#
# Elastic Compliance Matrix: (Units=1/GPa)
#
#
# Indices 1 2 3 4 5 6 
#
# 1 0.010427 -0.003041 -0.003234 -0.000104 0.002628 -0.000836
# 2 -0.003041 0.018037 -0.007612 0.005736 0.000354 0.000442
# 3 -0.003234 -0.007612 0.016416 -0.001957 0.002325 -0.000469
# 4 -0.000104 0.005736 -0.001957 0.030043 -0.004494 0.012033
# 5 0.002628 0.000354 0.002325 -0.004494 0.026840 -0.003642
# 6 -0.000836 0.000442 -0.000469 0.012033 -0.003642 0.036895
#
#
# Mechanical properties :
#
#
# Convention : Reuss Voigt Hill
#
# Bulk Modulus (GPa) = 58.46564 66.83567 62.65066
# Shear Modulus (GPa) = 29.04662 34.56746 31.80704
#
# Velocity S-wave (km/s) = 3.64531 3.97667 3.81459
# Velocity P-wave (km/s) = 6.66818 7.18758 6.93274
#
# Compressibility (1/GPa) = 0.01710406
#
# Stress axis : x y z
#
# Youngs Moduli (GPa) = 95.90929 55.44006 60.91440
#
# Poissons Ratio (x) = 0.16862 0.19702
# Poissons Ratio (y) = 0.29171 0.46370
# Poissons Ratio (z) = 0.31020 0.42203
#
# Static dielectric constant tensor:
#      x y z
#    x 3.819940 0.200050 -0.389820 
#    y 0.200050 4.090000 -0.331840 
#    z -0.389820 -0.331840 4.409650 
# 
# 
# High freq. dielectric constant tensor:
#      x y z
#    x 1.847590 0.009800 -0.026040 
#    y 0.009800 1.861670 -0.001620 
#    z -0.026040 -0.001620 1.861220 
# 
# From -- ./inp_files/314977.got.cif
#   From: 2010.06.25/outbox.cif.g09.slc.cpg/sg2_158_cif.got.tgz:314977.got - 2010.06.27 13:26:56.
