data_PCOD8014343
_publ_section_title
;
Structure prediction by ZEFSAII (Michael W. Deem and Ramdas Pophale) SiO2 
 PCOD8014343
Probable space group: P -1
;
_chemical_formula_sum "Si O2"
_cell_formula_units_Z 16
_cell_length_a 7.732727
_cell_length_b 12.269281
_cell_length_c 12.002757
_cell_angle_alpha 121.842715
_cell_angle_beta 51.685728
_cell_angle_gamma 122.682790
_cell_volume 719.266317
_symmetry_space_group_name_H-M "P -1"
_symmetry_group_IT_number 2
_symmetry_cell_setting 'triclinic'
loop_
_space_group_symop_operation_xyz
x,y,z
-x,-y,-z
loop_
_atom_site_type_symbol
_atom_site_label
_atom_site_fract_x
_atom_site_fract_y
_atom_site_fract_z
Si Si1 0.756295 0.925449 0.115919
Si Si2 0.553892 0.143650 0.405163
Si Si3 0.674201 0.658171 0.890515
Si Si4 0.978137 0.680400 0.188523
Si Si5 0.647968 0.646984 0.485864
Si Si6 0.965050 0.767911 0.620622
Si Si7 0.108254 0.069126 0.694941
Si Si8 0.191618 0.475040 0.039523
O O1 0.789874 0.867471 0.192613
O O2 0.613480 0.031168 0.244626
O O3 0.620727 0.794453 0.025453
O O4 0.000000 0.000000 0.000000
O O5 0.507941 0.252539 0.396746
O O6 0.321810 0.071125 0.529618
O O7 0.769499 0.217116 0.442492
O O8 0.787298 0.681135 0.736619
O O9 0.846073 0.618542 0.886642
O O10 0.448286 0.525543 0.910576
O O11 0.723391 0.638002 0.323357
O O12 0.053118 0.844710 0.241947
O O13 0.133835 0.613903 0.165333
O O14 0.980685 0.619735 0.032219
O O15 0.500000 0.500000 0.500000
O O16 0.878907 0.696675 0.498520
O O17 0.942135 0.917191 0.698692
#
# Coordination Sequence:
#
# PCOD8014343 Si02
#       8
#     2   2   2   2   2   2   2   2
#     4  11  19  37  65  94 125 166 211 263 326 373
#     4  10  24  42  68  96 133 173 211 274 328 384
#     4  11  22  39  63  95 127 167 220 260 323 390
#     4  10  22  42  63  89 129 170 207 270 324 374
#     4  11  26  44  63  96 131 172 221 263 321 398
#     4  11  23  43  67  97 130 169 217 273 319 388
#     4  10  21  41  66  98 130 168 217 268 328 391
#     4  10  23  40  62  92 129 170 214 263 318 391
#
# _framework density 22.244890000000002
#
# number of rings (size 3 to 8) (size 9 to 14) (size 15 to 20)
#    0.000    1.500    3.750    2.250    1.750    5.500 
#    4.500    1.250    0.000    0.000    0.000    0.000 
#    0.000    0.000    0.000    0.000    0.000    0.000 
#
# Total GULP energy -198258.527952 kJ/mol
# GULP energy per Si atom -12391.157997 kJ/mol
# Density = 2.219426 g / cm^3
# Si number density = 22.244890 Si / 1000 Ang^3
#
#
#
# Elastic Constant Matrix: (Units=GPa)
#
#
# Indices 1 2 3 4 5 6 
#
# 1 77.3062 30.3222 16.6097 17.6815 -3.0070 -19.4690
# 2 30.3222 111.9790 20.9596 -11.7585 -5.8830 -32.1739
# 3 16.6097 20.9596 85.6932 -2.2559 -7.0572 -24.6944
# 4 17.6815 -11.7585 -2.2559 27.9493 -2.5958 -2.1151
# 5 -3.0070 -5.8830 -7.0572 -2.5958 27.8043 9.6716
# 6 -19.4690 -32.1739 -24.6944 -2.1151 9.6716 42.5246
#
#
#
# Elastic Compliance Matrix: (Units=1/GPa)
#
#
# Indices 1 2 3 4 5 6 
#
# 1 0.019815 -0.005733 -0.002069 -0.015066 -0.002139 0.003270
# 2 -0.005733 0.013972 0.000489 0.010237 0.000408 0.008646
# 3 -0.002069 0.000489 0.014341 0.003360 0.001172 0.007651
# 4 -0.015066 0.010237 0.003360 0.050641 0.004634 0.004263
# 5 -0.002139 0.000408 0.001172 0.004634 0.039600 -0.008766
# 6 0.003270 0.008646 0.007651 0.004263 -0.008766 0.038203
#
#
# Mechanical properties :
#
#
# Convention : Reuss Voigt Hill
#
# Bulk Modulus (GPa) = 29.85018 45.64015 37.74516
# Shear Modulus (GPa) = 24.70773 33.46141 29.08457
#
# Velocity S-wave (km/s) = 3.33635 3.88265 3.61982
# Velocity P-wave (km/s) = 5.31881 6.37665 5.87160
#
# Compressibility (1/GPa) = 0.03350063
#
# Stress axis : x y z
#
# Youngs Moduli (GPa) = 50.46683 71.57232 69.73124
#
# Poissons Ratio (x) = 0.41034 0.14427
# Poissons Ratio (y) = 0.28934 -0.03407
# Poissons Ratio (z) = 0.10441 -0.03497
#
# Static dielectric constant tensor:
#      x y z
#    x 4.049210 -0.337660 0.097860 
#    y -0.337660 4.112500 0.062470 
#    z 0.097860 0.062470 3.981410 
# 
# 
# High freq. dielectric constant tensor:
#      x y z
#    x 1.855910 -0.021810 0.004100 
#    y -0.021810 1.891110 0.000750 
#    z 0.004100 0.000750 1.869460 
# 
# From -- ./inp_files/390916.got.cif
#   From: 2010.06.25/outbox.cif.g09.slc.cpg/sg2_196_cif.got.tgz:390916.got - 2010.06.27 13:26:56.
