data_PCOD8014212
_publ_section_title
;
Structure prediction by ZEFSAII (Michael W. Deem and Ramdas Pophale) SiO2 
 PCOD8014212
Probable space group: P -1
;
_chemical_formula_sum "Si O2"
_cell_formula_units_Z 16
_cell_length_a 12.943360
_cell_length_b 8.703383
_cell_length_c 15.350584
_cell_angle_alpha 108.859780
_cell_angle_beta 152.585472
_cell_angle_gamma 77.051995
_cell_volume 745.559480
_symmetry_space_group_name_H-M "P -1"
_symmetry_group_IT_number 2
_symmetry_cell_setting 'triclinic'
loop_
_space_group_symop_operation_xyz
x,y,z
-x,-y,-z
loop_
_atom_site_type_symbol
_atom_site_label
_atom_site_fract_x
_atom_site_fract_y
_atom_site_fract_z
Si Si1 0.310357 0.570999 0.423829
Si Si2 0.949466 0.671651 0.528542
Si Si3 0.606634 0.150515 0.168161
Si Si4 0.494879 0.505001 0.099336
Si Si5 0.052569 0.687375 0.103401
Si Si6 0.421016 0.176598 0.217120
Si Si7 0.934931 0.336374 0.184828
Si Si8 0.801155 0.091693 0.897906
O O1 0.500000 0.500000 0.500000
O O2 0.188355 0.694297 0.296445
O O3 0.405048 0.664790 0.598325
O O4 0.153059 0.410925 0.308663
O O5 0.679952 0.656490 0.303584
O O6 0.000000 0.500000 0.500000
O O7 0.116480 0.817119 0.630030
O O8 0.008566 0.692449 0.678055
O O9 0.518642 0.323186 0.115541
O O10 0.522151 0.101379 0.193011
O O11 0.500000 0.000000 0.000000
O O12 0.500000 0.500000 0.000000
O O13 0.249113 0.542846 0.948533
O O14 0.222243 0.777200 0.171867
O O15 0.000000 0.500000 0.000000
O O16 0.829465 0.771218 0.970288
O O17 0.417686 0.044106 0.269959
O O18 0.853621 0.163878 0.047153
O O19 0.000000 0.000000 0.000000
#
# Coordination Sequence:
#
# PCOD8014212 Si02
#       8
#     2   2   2   2   2   2   2   2
#     4  12  23  38  69 101 130 169 218 276 330 398
#     4  10  21  41  65  96 131 172 221 271 323 390
#     4  11  23  43  67  94 139 175 214 275 337 389
#     4  11  23  41  69  96 125 174 230 270 318 389
#     4  11  21  43  65  96 128 168 220 268 324 394
#     4  11  24  41  63  97 132 172 216 268 337 388
#     4  12  22  41  70  94 131 173 220 270 329 384
#     4  10  23  43  66  91 135 174 212 272 329 392
#
# _framework density 21.460393
#
# number of rings (size 3 to 8) (size 9 to 14) (size 15 to 20)
#    0.000    1.000    5.000    3.750    0.000    1.500 
#    0.000    5.625    0.000    0.000    0.000    0.000 
#    0.000    0.000    0.000    0.000    0.000    0.000 
#
# Total GULP energy -198256.668864 kJ/mol
# GULP energy per Si atom -12391.041804 kJ/mol
# Density = 2.141155 g / cm^3
# Si number density = 21.460393 Si / 1000 Ang^3
#
#
#
# Elastic Constant Matrix: (Units=GPa)
#
#
# Indices 1 2 3 4 5 6 
#
# 1 121.0579 23.0580 23.6894 0.5915 5.7309 3.1640
# 2 23.0580 63.1957 12.9470 8.5267 9.1411 4.7740
# 3 23.6894 12.9470 93.9375 2.3126 6.5242 -5.9570
# 4 0.5915 8.5267 2.3126 32.3392 4.5412 -4.5022
# 5 5.7309 9.1411 6.5242 4.5412 43.4504 12.0129
# 6 3.1640 4.7740 -5.9570 -4.5022 12.0129 41.5954
#
#
#
# Elastic Compliance Matrix: (Units=1/GPa)
#
#
# Indices 1 2 3 4 5 6 
#
# 1 0.009233 -0.002996 -0.001948 0.000725 -0.000235 -0.000491
# 2 -0.002996 0.018343 -0.001632 -0.004634 -0.002187 -0.001981
# 3 -0.001948 -0.001632 0.011650 0.000257 -0.001888 0.002577
# 4 0.000725 -0.004634 0.000257 0.033433 -0.004125 0.005324
# 5 -0.000235 -0.002187 -0.001888 -0.004125 0.026457 -0.008089
# 6 -0.000491 -0.001981 0.002577 0.005324 -0.008089 0.027587
#
#
# Mechanical properties :
#
#
# Convention : Reuss Voigt Hill
#
# Bulk Modulus (GPa) = 38.35515 44.17557 41.26536
# Shear Modulus (GPa) = 33.65957 38.04345 35.85151
#
# Velocity S-wave (km/s) = 3.96466 4.21495 4.09172
# Velocity P-wave (km/s) = 6.23453 6.65711 6.44928
#
# Compressibility (1/GPa) = 0.02607212
#
# Stress axis : x y z
#
# Youngs Moduli (GPa) = 108.30879 54.51772 85.83805
#
# Poissons Ratio (x) = 0.16336 0.16722
# Poissons Ratio (y) = 0.32454 0.14010
# Poissons Ratio (z) = 0.21099 0.08898
#
# Static dielectric constant tensor:
#      x y z
#    x 4.286970 0.163410 0.133210 
#    y 0.163410 4.131010 1.013410 
#    z 0.133210 1.013410 6.397890 
# 
# 
# High freq. dielectric constant tensor:
#      x y z
#    x 1.864790 0.003090 0.003910 
#    y 0.003090 1.829860 0.017900 
#    z 0.003910 0.017900 1.839690 
# 
# From -- ./inp_files/272511.got.cif
#   From: 2010.06.25/outbox.cif.g09.slc.cpg/sg2_137_cif.got.tgz:272511.got - 2010.06.27 13:26:56.
