data_PCOD8014349
_publ_section_title
;
Structure prediction by ZEFSAII (Michael W. Deem and Ramdas Pophale) SiO2 
 PCOD8014349
Probable space group: P -1
;
_chemical_formula_sum "Si O2"
_cell_formula_units_Z 10
_cell_length_a 13.335255
_cell_length_b 4.822210
_cell_length_c 20.526680
_cell_angle_alpha 106.203364
_cell_angle_beta 22.425971
_cell_angle_gamma 96.600367
_cell_volume 445.191548
_symmetry_space_group_name_H-M "P -1"
_symmetry_group_IT_number 2
_symmetry_cell_setting 'triclinic'
loop_
_space_group_symop_operation_xyz
x,y,z
-x,-y,-z
loop_
_atom_site_type_symbol
_atom_site_label
_atom_site_fract_x
_atom_site_fract_y
_atom_site_fract_z
Si Si1 0.751465 0.692981 0.041988
Si Si2 0.031365 0.232614 0.324279
Si Si3 0.568496 0.340884 0.019140
Si Si4 0.932155 0.920025 0.108334
Si Si5 0.356499 0.071993 0.409681
O O1 0.636575 0.567380 0.041917
O O2 0.882815 0.432041 0.002356
O O3 0.493819 0.984008 0.249472
O O4 0.981530 0.830423 0.885327
O O5 0.295223 0.278532 0.205497
O O6 0.807005 0.560997 0.455302
O O7 0.866217 0.093676 0.463134
O O8 0.160138 0.990492 0.170936
O O9 0.500000 0.500000 0.000000
O O10 0.599896 0.969207 0.313530
O O11 0.000000 0.000000 0.000000
#
# Coordination Sequence:
#
# PCOD8014349 Si02
#       5
#     2   2   2   2   2
#     4  11  24  40  72  95 126 172 213 253 324 383
#     4  11  24  42  67  88 135 165 211 268 319 362
#     4  11  26  47  63  89 136 177 209 258 323 381
#     4  10  21  41  66  99 132 160 203 270 326 373
#     4  11  21  42  67  99 123 159 216 273 309 372
#
# _framework density 22.462242
#
# number of rings (size 3 to 8) (size 9 to 14) (size 15 to 20)
#    0.000    1.200    2.000    6.000    5.600    1.600 
#    0.000    6.000    0.000    0.000    0.000    0.000 
#    0.000    0.000    0.000    0.000    0.000    0.000 
#
# Total GULP energy -123933.286579 kJ/mol
# GULP energy per Si atom -12393.328658 kJ/mol
# Density = 2.241112 g / cm^3
# Si number density = 22.462242 Si / 1000 Ang^3
#
#
#
# Elastic Constant Matrix: (Units=GPa)
#
#
# Indices 1 2 3 4 5 6 
#
# 1 66.3744 26.0014 52.1290 10.9066 -0.7054 15.4126
# 2 26.0014 148.2214 68.4136 -4.4473 -10.6190 19.1463
# 3 52.1290 68.4136 128.4581 10.1039 -22.2317 17.3344
# 4 10.9066 -4.4473 10.1039 65.1487 10.1697 -11.4522
# 5 -0.7054 -10.6190 -22.2317 10.1697 24.1790 5.2853
# 6 15.4126 19.1463 17.3344 -11.4522 5.2853 57.3135
#
#
#
# Elastic Compliance Matrix: (Units=1/GPa)
#
#
# Indices 1 2 3 4 5 6 
#
# 1 0.024382 0.000594 -0.011024 -0.001645 -0.007810 -0.003029
# 2 0.000594 0.009193 -0.005236 0.001269 -0.001009 -0.001300
# 3 -0.011024 -0.005236 0.018971 -0.004846 0.017652 -0.003620
# 4 -0.001645 0.001269 -0.004846 0.019785 -0.013734 0.006704
# 5 -0.007810 -0.001009 0.017652 -0.013734 0.065243 -0.011662
# 6 -0.003029 -0.001300 -0.003620 0.006704 -0.011662 0.022207
#
#
# Mechanical properties :
#
#
# Convention : Reuss Voigt Hill
#
# Bulk Modulus (GPa) = 47.13845 70.68242 58.91044
# Shear Modulus (GPa) = 25.22878 42.42890 33.82884
#
# Velocity S-wave (km/s) = 3.35500 4.35086 3.88497
# Velocity P-wave (km/s) = 6.00327 7.53495 6.81230
#
# Compressibility (1/GPa) = 0.02121411
#
# Stress axis : x y z
#
# Youngs Moduli (GPa) = 41.01333 108.77887 52.71101
#
# Poissons Ratio (x) = -0.06456 0.58109
# Poissons Ratio (y) = -0.02434 0.27598
# Poissons Ratio (z) = 0.45213 0.56954
#
# Static dielectric constant tensor:
#      x y z
#    x 4.033610 0.026200 -0.451050 
#    y 0.026200 5.095560 -0.231130 
#    z -0.451050 -0.231130 4.300180 
# 
# 
# High freq. dielectric constant tensor:
#      x y z
#    x 1.847390 0.006200 -0.026320 
#    y 0.006200 1.925890 -0.003800 
#    z -0.026320 -0.003800 1.879630 
# 
# From -- ./inp_files/22185.got.cif
#   From: 2010.06.25/outbox.cif.g09.slc.cpg/sg2_12_cif.got.tgz:22185.got - 2010.06.27 13:26:56.
