data_PCOD8014509
_publ_section_title
;
Structure prediction by ZEFSAII (Michael W. Deem and Ramdas Pophale) SiO2 
 PCOD8014509
Probable space group: P -1
;
_chemical_formula_sum "Si O2"
_cell_formula_units_Z 14
_cell_length_a 10.192051
_cell_length_b 7.364285
_cell_length_c 14.891308
_cell_angle_alpha 47.719507
_cell_angle_beta 37.263512
_cell_angle_gamma 62.982692
_cell_volume 492.411320
_symmetry_space_group_name_H-M "P -1"
_symmetry_group_IT_number 2
_symmetry_cell_setting 'triclinic'
loop_
_space_group_symop_operation_xyz
x,y,z
-x,-y,-z
loop_
_atom_site_type_symbol
_atom_site_label
_atom_site_fract_x
_atom_site_fract_y
_atom_site_fract_z
Si Si1 0.993266 0.939892 0.858095
Si Si2 0.177762 0.843297 0.285155
Si Si3 0.541357 0.732675 0.239008
Si Si4 0.654864 0.256195 0.369581
Si Si5 0.447356 0.889019 0.746095
Si Si6 0.169971 0.371734 0.326784
Si Si7 0.980308 0.392394 0.835206
O O1 0.201494 0.803889 0.775108
O O2 0.877660 0.943239 0.821402
O O3 0.072403 0.201132 0.780546
O O4 0.806534 0.775453 0.074346
O O5 0.430441 0.867634 0.173927
O O6 0.126384 0.600694 0.333216
O O7 0.025924 0.844752 0.457041
O O8 0.477176 0.429428 0.375392
O O9 0.482447 0.855354 0.322155
O O10 0.525008 0.991071 0.569037
O O11 0.812439 0.422963 0.299538
O O12 0.588662 0.687131 0.768435
O O13 0.188517 0.764006 0.946813
O O14 0.152385 0.434780 0.210276
#
# Coordination Sequence:
#
# PCOD8014509 Si02
#       7
#     2   2   2   2   2   2   2
#     4  10  23  45  70 101 137 184 233 283 347 403
#     4  10  21  41  69 100 136 177 234 290 336 411
#     4  11  25  42  67 103 141 178 232 284 343 418
#     4  12  25  47  71 101 144 187 225 282 352 412
#     4  11  24  43  68 104 136 180 235 281 348 409
#     4  10  21  41  68 102 136 177 233 289 346 399
#     4  10  25  44  71 104 140 177 235 290 335 417
#
# _framework density 28.431516999999999
#
# number of rings (size 3 to 8) (size 9 to 14) (size 15 to 20)
#    0.000    1.429    1.429    2.571    4.000    3.429 
#    2.571    3.571    0.000    0.000    0.000    0.000 
#    0.000    0.000    0.000    0.000    0.000    0.000 
#
# Total GULP energy -173545.916934 kJ/mol
# GULP energy per Si atom -12396.136924 kJ/mol
# Density = 2.836681 g / cm^3
# Si number density = 28.431517 Si / 1000 Ang^3
#
#
#
# Elastic Constant Matrix: (Units=GPa)
#
#
# Indices 1 2 3 4 5 6 
#
# 1 99.8929 7.5051 33.6561 6.9055 6.7330 2.4961
# 2 7.5051 65.7007 14.1643 5.7631 13.3507 0.4657
# 3 33.6561 14.1643 107.4934 4.2667 10.7893 16.9354
# 4 6.9055 5.7631 4.2667 39.4313 -1.0563 7.9029
# 5 6.7330 13.3507 10.7893 -1.0563 58.1880 5.9286
# 6 2.4961 0.4657 16.9354 7.9029 5.9286 29.7007
#
#
#
# Elastic Compliance Matrix: (Units=1/GPa)
#
#
# Indices 1 2 3 4 5 6 
#
# 1 0.011408 -0.000186 -0.003675 -0.001961 -0.000817 0.001824
# 2 -0.000186 0.016660 -0.002031 -0.002761 -0.003718 0.002389
# 3 -0.003675 -0.002031 0.011769 0.000954 -0.000611 -0.006502
# 4 -0.001961 -0.002761 0.000954 0.027682 0.002012 -0.008103
# 5 -0.000817 -0.003718 -0.000611 0.002012 0.018669 -0.003786
# 6 0.001824 0.002389 -0.006502 -0.008103 -0.003786 0.040098
#
#
# Mechanical properties :
#
#
# Convention : Reuss Voigt Hill
#
# Bulk Modulus (GPa) = 35.64509 42.63757 39.14133
# Shear Modulus (GPa) = 33.91666 39.98146 36.94906
#
# Velocity S-wave (km/s) = 3.45762 3.75405 3.60888
# Velocity P-wave (km/s) = 5.33897 5.81547 5.58231
#
# Compressibility (1/GPa) = 0.02805435
#
# Stress axis : x y z
#
# Youngs Moduli (GPa) = 87.65882 60.02268 84.96950
#
# Poissons Ratio (x) = 0.01115 0.31225
# Poissons Ratio (y) = 0.01628 0.17256
# Poissons Ratio (z) = 0.32214 0.12189
#
# Static dielectric constant tensor:
#      x y z
#    x 5.484180 -0.148020 0.303710 
#    y -0.148020 5.368430 -0.100550 
#    z 0.303710 -0.100550 5.112210 
# 
# 
# High freq. dielectric constant tensor:
#      x y z
#    x 2.186500 -0.002840 0.010940 
#    y -0.002840 2.155300 0.008300 
#    z 0.010940 0.008300 2.148010 
# 
# From -- ./inp_files/159285.got.cif
#   From: 2010.06.25/outbox.cif.g09.slc.cpg/sg2_80_cif.got.tgz:159285.got - 2010.06.27 13:26:56.
