data_PCOD8014633
_publ_section_title
;
Structure prediction by ZEFSAII (Michael W. Deem and Ramdas Pophale) SiO2 
 PCOD8014633
Probable space group: P -1
;
_chemical_formula_sum "Si O2"
_cell_formula_units_Z 16
_cell_length_a 8.371560
_cell_length_b 13.566827
_cell_length_c 12.231371
_cell_angle_alpha 42.739273
_cell_angle_beta 101.097793
_cell_angle_gamma 123.320409
_cell_volume 731.264519
_symmetry_space_group_name_H-M "P -1"
_symmetry_group_IT_number 2
_symmetry_cell_setting 'triclinic'
loop_
_space_group_symop_operation_xyz
x,y,z
-x,-y,-z
loop_
_atom_site_type_symbol
_atom_site_label
_atom_site_fract_x
_atom_site_fract_y
_atom_site_fract_z
Si Si1 0.317616 0.500677 0.522307
Si Si2 0.862950 0.122144 0.099236
Si Si3 0.923183 0.975606 0.630112
Si Si4 0.469696 0.154477 0.859795
Si Si5 0.083998 0.772686 0.427890
Si Si6 0.529184 0.346934 0.145984
Si Si7 0.813934 0.490777 0.272230
Si Si8 0.484274 0.854075 0.891273
O O1 0.500000 0.500000 0.500000
O O2 0.348561 0.674280 0.327297
O O3 0.328535 0.523769 0.636452
O O4 0.091047 0.315826 0.616340
O O5 0.689862 0.118239 0.144412
O O6 0.005991 0.118289 0.207385
O O7 0.749389 0.941751 0.152361
O O8 0.996072 0.298910 0.895777
O O9 0.680072 0.843957 0.692693
O O10 0.995368 0.169067 0.530860
O O11 0.000000 0.000000 0.500000
O O12 0.476557 0.217458 0.933640
O O13 0.500000 0.000000 0.000000
O O14 0.098571 0.617184 0.597106
O O15 0.300561 0.951333 0.267707
O O16 0.688453 0.402752 0.216765
O O17 0.600482 0.308426 0.074759
O O18 0.500000 0.500000 0.000000
#
# Coordination Sequence:
#
# PCOD8014633 Si02
#       8
#     2   2   2   2   2   2   2   2
#     4  12  27  44  72 105 135 178 225 289 342 400
#     4  11  23  45  70 103 133 184 224 284 341 398
#     4  11  27  43  69  96 142 178 230 280 335 407
#     4  10  21  41  69  96 130 171 219 275 330 398
#     4  11  25  45  69 104 134 181 226 281 341 402
#     4  11  26  46  65 100 139 184 226 281 338 405
#     4  12  26  45  71 100 142 178 231 279 340 412
#     4  10  24  43  72  98 139 179 231 274 343 407
#
# _framework density 21.879909000000001
#
# number of rings (size 3 to 8) (size 9 to 14) (size 15 to 20)
#    0.000    1.000    1.250    4.875    8.750    2.500 
#    0.000    3.125    0.000    0.000    0.000    0.000 
#    0.000    0.000    0.000    0.000    0.000    0.000 
#
# Total GULP energy -198385.415725 kJ/mol
# GULP energy per Si atom -12399.088483 kJ/mol
# Density = 2.183011 g / cm^3
# Si number density = 21.879909 Si / 1000 Ang^3
#
#
#
# Elastic Constant Matrix: (Units=GPa)
#
#
# Indices 1 2 3 4 5 6 
#
# 1 108.8672 43.9661 32.8068 6.0969 -6.1941 -13.9867
# 2 43.9661 149.8376 37.4541 15.2483 -18.0053 -11.4162
# 3 32.8068 37.4541 107.1998 3.5705 -14.8007 -12.9126
# 4 6.0969 15.2483 3.5705 38.5013 -4.6519 -6.7746
# 5 -6.1941 -18.0053 -14.8007 -4.6519 33.5859 1.9004
# 6 -13.9867 -11.4162 -12.9126 -6.7746 1.9004 41.6286
#
#
#
# Elastic Compliance Matrix: (Units=1/GPa)
#
#
# Indices 1 2 3 4 5 6 
#
# 1 0.011203 -0.002571 -0.002310 -0.000190 -0.000489 0.002334
# 2 -0.002571 0.008468 -0.001627 -0.002357 0.002997 0.000433
# 3 -0.002310 -0.001627 0.011359 0.000801 0.003690 0.002263
# 4 -0.000190 -0.002357 0.000801 0.027883 0.002693 0.003953
# 5 -0.000489 0.002997 0.003690 0.002693 0.033250 0.000723
# 6 0.002334 0.000433 0.002263 0.003953 0.000723 0.026237
#
#
# Mechanical properties :
#
#
# Convention : Reuss Voigt Hill
#
# Bulk Modulus (GPa) = 55.51557 66.03983 60.77770
# Shear Modulus (GPa) = 36.38432 39.52167 37.95299
#
# Velocity S-wave (km/s) = 4.08230 4.25467 4.16938
# Velocity P-wave (km/s) = 6.90277 7.37460 7.14258
#
# Compressibility (1/GPa) = 0.01801296
#
# Stress axis : x y z
#
# Youngs Moduli (GPa) = 89.26405 118.08860 88.03369
#
# Poissons Ratio (x) = 0.30364 0.20337
# Poissons Ratio (y) = 0.22953 0.14325
# Poissons Ratio (z) = 0.20621 0.19216
#
# Static dielectric constant tensor:
#      x y z
#    x 4.150150 -0.236810 -0.067520 
#    y -0.236810 4.223910 -0.240560 
#    z -0.067520 -0.240560 3.851490 
# 
# 
# High freq. dielectric constant tensor:
#      x y z
#    x 1.857850 -0.000530 -0.001640 
#    y -0.000530 1.882340 -0.001010 
#    z -0.001640 -0.001010 1.865000 
# 
# From -- ./inp_files/398439.got.cif
#   From: 2010.06.25/outbox.cif.g09.slc.cpg/sg2_200_cif.got.tgz:398439.got - 2010.06.27 13:26:56.
