data_PCOD8014401
_publ_section_title
;
Structure prediction by ZEFSAII (Michael W. Deem and Ramdas Pophale) SiO2 
 PCOD8014401
Probable space group: P -1
;
_chemical_formula_sum "Si O2"
_cell_formula_units_Z 16
_cell_length_a 8.629259
_cell_length_b 14.621623
_cell_length_c 8.828640
_cell_angle_alpha 76.164113
_cell_angle_beta 88.784511
_cell_angle_gamma 136.321557
_cell_volume 714.979756
_symmetry_space_group_name_H-M "P -1"
_symmetry_group_IT_number 2
_symmetry_cell_setting 'triclinic'
loop_
_space_group_symop_operation_xyz
x,y,z
-x,-y,-z
loop_
_atom_site_type_symbol
_atom_site_label
_atom_site_fract_x
_atom_site_fract_y
_atom_site_fract_z
Si Si1 0.982274 0.836343 0.595118
Si Si2 0.997683 0.617777 0.087240
Si Si3 0.440417 0.808994 0.199581
Si Si4 0.702809 0.306377 0.227592
Si Si5 0.267507 0.336355 0.034973
Si Si6 0.328547 0.859289 0.463343
Si Si7 0.796721 0.892929 0.358650
Si Si8 0.280217 0.127683 0.098611
O O1 0.858174 0.727538 0.776597
O O2 0.790905 0.807219 0.514560
O O3 0.086076 0.806383 0.490121
O O4 0.180381 0.997084 0.596285
O O5 0.777862 0.449064 0.183685
O O6 0.183279 0.673418 0.191991
O O7 0.897930 0.679091 0.071315
O O8 0.117532 0.661906 0.903411
O O9 0.418566 0.891195 0.274982
O O10 0.549765 0.777439 0.319058
O O11 0.629120 0.902693 0.022074
O O12 0.709905 0.259775 0.409448
O O13 0.436056 0.180828 0.223354
O O14 0.311078 0.251781 0.998211
O O15 0.500000 0.500000 0.000000
O O16 0.500000 0.000000 0.500000
O O17 0.012995 0.981174 0.200860
#
# Coordination Sequence:
#
# PCOD8014401 Si02
#       8
#     2   2   2   2   2   2   2   2
#     4  10  22  39  65  95 120 172 224 268 314 385
#     4  10  22  42  64  98 127 174 215 270 324 385
#     4  11  25  39  65  98 139 171 210 272 335 384
#     4  10  21  41  67  91 133 170 223 260 324 393
#     4  11  21  40  70  96 125 167 230 266 314 393
#     4  12  23  41  65  96 132 177 220 266 322 396
#     4  10  21  42  63  94 133 167 218 267 333 382
#     4  10  22  40  66  98 128 177 210 274 325 384
#
# _framework density 22.378256
#
# number of rings (size 3 to 8) (size 9 to 14) (size 15 to 20)
#    0.000    1.500    3.750    1.125    3.500    1.500 
#    0.000   13.125    0.000    3.000    0.000    0.000 
#    0.000    0.000    0.000    0.000    0.000    0.000 
#
# Total GULP energy -198283.951471 kJ/mol
# GULP energy per Si atom -12392.746967 kJ/mol
# Density = 2.232732 g / cm^3
# Si number density = 22.378256 Si / 1000 Ang^3
#
#
#
# Elastic Constant Matrix: (Units=GPa)
#
#
# Indices 1 2 3 4 5 6 
#
# 1 134.5022 34.3243 61.5745 10.5708 6.6953 0.0643
# 2 34.3243 56.4260 46.9083 5.8614 0.1521 6.0514
# 3 61.5745 46.9083 96.1966 12.4511 -4.6929 -9.4405
# 4 10.5708 5.8614 12.4511 35.4997 -7.1031 3.5777
# 5 6.6953 0.1521 -4.6929 -7.1031 52.0632 16.5067
# 6 0.0643 6.0514 -9.4405 3.5777 16.5067 39.9344
#
#
#
# Elastic Compliance Matrix: (Units=1/GPa)
#
#
# Indices 1 2 3 4 5 6 
#
# 1 0.010829 -0.001113 -0.006378 -0.001157 -0.001985 -0.000432
# 2 -0.001113 0.032959 -0.016502 0.002071 0.001980 -0.009898
# 3 -0.006378 -0.016502 0.023981 -0.004751 -0.000399 0.008771
# 4 -0.001157 0.002071 -0.004751 0.031774 0.006222 -0.006854
# 5 -0.001985 0.001980 -0.000399 0.006222 0.023673 -0.010734
# 6 -0.000432 -0.009898 0.008771 -0.006854 -0.010734 0.033666
#
#
# Mechanical properties :
#
#
# Convention : Reuss Voigt Hill
#
# Bulk Modulus (GPa) = 50.55038 63.63768 57.09403
# Shear Modulus (GPa) = 23.64489 35.12065 29.38277
#
# Velocity S-wave (km/s) = 3.25407 3.96588 3.62747
# Velocity P-wave (km/s) = 6.06273 7.03348 6.56607
#
# Compressibility (1/GPa) = 0.01978225
#
# Stress axis : x y z
#
# Youngs Moduli (GPa) = 92.34734 30.34072 41.69950
#
# Poissons Ratio (x) = 0.03377 0.26596
# Poissons Ratio (y) = 0.10278 0.68813
# Poissons Ratio (z) = 0.58900 0.50069
#
# Static dielectric constant tensor:
#      x y z
#    x 4.579710 -0.026200 -0.091780 
#    y -0.026200 3.749550 0.180540 
#    z -0.091780 0.180540 4.212930 
# 
# 
# High freq. dielectric constant tensor:
#      x y z
#    x 1.910370 0.008000 -0.002830 
#    y 0.008000 1.837100 0.005170 
#    z -0.002830 0.005170 1.877070 
# 
# From -- ./inp_files/200868.got.cif
#   From: 2010.06.25/outbox.cif.g09.slc.cpg/sg2_101_cif.got.tgz:200868.got - 2010.06.27 13:26:56.
