data_PCOD8014703
_publ_section_title
;
Structure prediction by ZEFSAII (Michael W. Deem and Ramdas Pophale) SiO2 
 PCOD8014703
Probable space group: P -1
;
_chemical_formula_sum "Si O2"
_cell_formula_units_Z 16
_cell_length_a 14.474648
_cell_length_b 14.723528
_cell_length_c 9.096271
_cell_angle_alpha 41.924978
_cell_angle_beta 40.801436
_cell_angle_gamma 39.506105
_cell_volume 743.793574
_symmetry_space_group_name_H-M "P -1"
_symmetry_group_IT_number 2
_symmetry_cell_setting 'triclinic'
loop_
_space_group_symop_operation_xyz
x,y,z
-x,-y,-z
loop_
_atom_site_type_symbol
_atom_site_label
_atom_site_fract_x
_atom_site_fract_y
_atom_site_fract_z
Si Si1 0.211750 0.367913 0.640235
Si Si2 0.969485 0.706680 0.517807
Si Si3 0.251653 0.364286 0.940172
Si Si4 0.527456 0.632861 0.871548
Si Si5 0.414682 0.685144 0.388699
Si Si6 0.244226 0.590917 0.904307
Si Si7 0.084395 0.180293 0.860592
Si Si8 0.787659 0.170907 0.826968
O O1 0.071499 0.529484 0.551646
O O2 0.206587 0.395668 0.786583
O O3 0.383303 0.320864 0.415864
O O4 0.181375 0.225571 0.806714
O O5 0.092431 0.760708 0.368369
O O6 0.867843 0.810803 0.376377
O O7 0.835368 0.727527 0.775335
O O8 0.447313 0.262338 0.835301
O O9 0.187938 0.529476 0.902412
O O10 0.500000 0.500000 0.000000
O O11 0.630220 0.568185 0.975152
O O12 0.354860 0.777142 0.943832
O O13 0.500000 0.500000 0.500000
O O14 0.314900 0.707508 0.632726
O O15 0.288809 0.772607 0.307701
O O16 0.102536 0.694637 0.058812
O O17 0.110001 0.012921 0.072277
#
# Coordination Sequence:
#
# PCOD8014703 Si02
#       8
#     2   2   2   2   2   2   2   2
#     4  12  24  41  71 102 131 183 235 273 329 409
#     4  12  23  44  70  97 139 182 226 275 332 414
#     4  11  23  41  71 100 133 175 239 275 323 399
#     4  12  22  41  73 100 129 179 240 277 322 407
#     4  10  21  41  70  97 132 178 226 274 326 401
#     4  11  21  42  71  98 135 182 227 277 331 406
#     4  12  27  43  67 105 143 173 222 288 348 393
#     4  12  26  44  72 104 136 176 226 287 347 391
#
# _framework density 21.511346
#
# number of rings (size 3 to 8) (size 9 to 14) (size 15 to 20)
#    0.000    0.500    6.250    4.125    1.750    1.000 
#    0.000    0.625    0.000    0.000    0.000    0.000 
#    0.000    0.000    0.000    0.000    0.000    0.000 
#
# Total GULP energy -198355.693790 kJ/mol
# GULP energy per Si atom -12397.230862 kJ/mol
# Density = 2.146239 g / cm^3
# Si number density = 21.511346 Si / 1000 Ang^3
#
#
#
# Elastic Constant Matrix: (Units=GPa)
#
#
# Indices 1 2 3 4 5 6 
#
# 1 98.3218 35.8116 46.3185 0.2282 2.3901 -7.5274
# 2 35.8116 59.1676 44.6038 -4.0348 -6.8290 -1.2556
# 3 46.3185 44.6038 157.1987 19.8268 -5.7946 -2.9669
# 4 0.2282 -4.0348 19.8268 31.5339 -3.9999 1.9322
# 5 2.3901 -6.8290 -5.7946 -3.9999 44.3660 -0.3636
# 6 -7.5274 -1.2556 -2.9669 1.9322 -0.3636 17.8816
#
#
#
# Elastic Compliance Matrix: (Units=1/GPa)
#
#
# Indices 1 2 3 4 5 6 
#
# 1 0.014219 -0.007182 -0.002098 -0.000287 -0.002129 0.005121
# 2 -0.007182 0.027216 -0.006560 0.008408 0.004453 -0.003018
# 3 -0.002098 -0.006560 0.009739 -0.007042 -0.000251 0.001028
# 4 -0.000287 0.008408 -0.007042 0.037986 0.003776 -0.004727
# 5 -0.002129 0.004453 -0.000251 0.003776 0.023643 -0.000553
# 6 0.005121 -0.003018 0.001028 -0.004727 -0.000553 0.058537
#
#
# Mechanical properties :
#
#
# Convention : Reuss Voigt Hill
#
# Bulk Modulus (GPa) = 51.29094 63.12842 57.20968
# Shear Modulus (GPa) = 23.86441 31.28659 27.57550
#
# Velocity S-wave (km/s) = 3.33436 3.81783 3.58425
# Velocity P-wave (km/s) = 6.22249 6.98890 6.61680
#
# Compressibility (1/GPa) = 0.01949662
#
# Stress axis : x y z
#
# Youngs Moduli (GPa) = 70.32818 36.74298 102.67947
#
# Poissons Ratio (x) = 0.26387 0.21538
# Poissons Ratio (y) = 0.50506 0.67354
# Poissons Ratio (z) = 0.14752 0.24102
#
# Static dielectric constant tensor:
#      x y z
#    x 3.569790 0.167920 -0.731390 
#    y 0.167920 3.448240 0.690200 
#    z -0.731390 0.690200 3.821580 
# 
# 
# High freq. dielectric constant tensor:
#      x y z
#    x 1.853640 -0.003340 -0.001990 
#    y -0.003340 1.804350 0.025020 
#    z -0.001990 0.025020 1.864280 
# 
# From -- ./inp_files/314469.got.cif
#   From: 2010.06.25/outbox.cif.g09.slc.cpg/sg2_158_cif.got.tgz:314469.got - 2010.06.27 13:26:56.
