data_PCOD8014643
_publ_section_title
;
Structure prediction by ZEFSAII (Michael W. Deem and Ramdas Pophale) SiO2 
 PCOD8014643
Probable space group: P -1
;
_chemical_formula_sum "Si O2"
_cell_formula_units_Z 14
_cell_length_a 13.550373
_cell_length_b 9.251898
_cell_length_c 8.830470
_cell_angle_alpha 98.411064
_cell_angle_beta 45.805650
_cell_angle_gamma 122.848398
_cell_volume 615.445482
_symmetry_space_group_name_H-M "P -1"
_symmetry_group_IT_number 2
_symmetry_cell_setting 'triclinic'
loop_
_space_group_symop_operation_xyz
x,y,z
-x,-y,-z
loop_
_atom_site_type_symbol
_atom_site_label
_atom_site_fract_x
_atom_site_fract_y
_atom_site_fract_z
Si Si1 0.818944 0.319394 0.742878
Si Si2 0.982599 0.790505 0.345495
Si Si3 0.298091 0.596575 0.564656
Si Si4 0.434715 0.701347 0.763280
Si Si5 0.263821 0.869441 0.490786
Si Si6 0.930582 0.833954 0.748127
Si Si7 0.538828 0.552328 0.141469
O O1 0.694585 0.184018 0.719626
O O2 0.000000 0.500000 0.500000
O O3 0.849769 0.201767 0.802156
O O4 0.713303 0.367529 0.960058
O O5 0.856282 0.613862 0.348262
O O6 0.902640 0.778553 0.592507
O O7 0.030553 0.969859 0.235147
O O8 0.335917 0.597158 0.699572
O O9 0.247264 0.733034 0.615092
O O10 0.462808 0.657982 0.292963
O O11 0.546546 0.637171 0.698353
O O12 0.571087 0.920252 0.617112
O O13 0.080400 0.836793 0.669802
O O14 0.741210 0.679872 0.997291
O O15 0.500000 0.500000 0.000000
#
# Coordination Sequence:
#
# PCOD8014643 Si02
#       7
#     2   2   2   2   2   2   2
#     4  11  22  43  70 102 131 178 241 287 336 404
#     4  10  21  41  69  97 135 176 227 286 342 397
#     4  12  25  45  69 101 145 183 228 281 353 412
#     4  12  27  44  68 102 145 185 224 286 355 407
#     4  11  24  45  71  99 141 182 235 282 338 416
#     4  10  23  43  71 101 132 177 239 286 331 402
#     4  12  25  44  71 102 135 185 234 282 339 411
#
# _framework density 22.747751000000001
#
# number of rings (size 3 to 8) (size 9 to 14) (size 15 to 20)
#    0.000    0.857    2.857    4.714    6.000    0.571 
#    0.000    1.429    0.000    0.000    0.000    0.000 
#    0.000    0.000    0.000    0.000    0.000    0.000 
#
# Total GULP energy -173563.901194 kJ/mol
# GULP energy per Si atom -12397.421514 kJ/mol
# Density = 2.269598 g / cm^3
# Si number density = 22.747751 Si / 1000 Ang^3
#
#
#
# Elastic Constant Matrix: (Units=GPa)
#
#
# Indices 1 2 3 4 5 6 
#
# 1 141.1912 50.3966 17.8864 5.4660 14.5906 -15.4826
# 2 50.3966 131.2832 7.1907 -9.4881 9.2472 -10.1977
# 3 17.8864 7.1907 55.4620 -0.7992 -8.2780 1.2196
# 4 5.4660 -9.4881 -0.7992 20.6301 3.8906 -3.2448
# 5 14.5906 9.2472 -8.2780 3.8906 28.8239 8.1237
# 6 -15.4826 -10.1977 1.2196 -3.2448 8.1237 51.5600
#
#
#
# Elastic Compliance Matrix: (Units=1/GPa)
#
#
# Indices 1 2 3 4 5 6 
#
# 1 0.009637 -0.003066 -0.003629 -0.002593 -0.005452 0.003069
# 2 -0.003066 0.009633 -0.000674 0.006092 -0.003081 0.001870
# 3 -0.003629 -0.000674 0.020689 -0.000742 0.008990 -0.003175
# 4 -0.002593 0.006092 -0.000742 0.054625 -0.009755 0.005418
# 5 -0.005452 -0.003081 0.008990 -0.009755 0.045214 -0.010197
# 6 0.003069 0.001870 -0.003175 0.005418 -0.010197 0.022709
#
#
# Mechanical properties :
#
#
# Convention : Reuss Voigt Hill
#
# Bulk Modulus (GPa) = 39.64653 53.20932 46.42792
# Shear Modulus (GPa) = 26.93220 37.03364 31.98292
#
# Velocity S-wave (km/s) = 3.44459 4.03924 3.75371
# Velocity P-wave (km/s) = 5.76948 6.72278 6.26429
#
# Compressibility (1/GPa) = 0.02522289
#
# Stress axis : x y z
#
# Youngs Moduli (GPa) = 103.76796 103.80593 48.33497
#
# Poissons Ratio (x) = 0.31823 0.17541
# Poissons Ratio (y) = 0.31811 0.03256
# Poissons Ratio (z) = 0.37657 0.06992
#
# Static dielectric constant tensor:
#      x y z
#    x 4.182090 -0.213390 -0.241810 
#    y -0.213390 4.339460 0.180570 
#    z -0.241810 0.180570 3.798510 
# 
# 
# High freq. dielectric constant tensor:
#      x y z
#    x 1.911270 -0.009500 -0.014480 
#    y -0.009500 1.913600 0.005500 
#    z -0.014480 0.005500 1.866710 
# 
# From -- ./inp_files/242530.got.cif
#   From: 2010.06.25/outbox.cif.g09.slc.cpg/sg2_122_cif.got.tgz:242530.got - 2010.06.27 13:26:56.
