data_PCOD8014156
_publ_section_title
;
Structure prediction by ZEFSAII (Michael W. Deem and Ramdas Pophale) SiO2 
 PCOD8014156
Probable space group: P -1
;
_chemical_formula_sum "Si O2"
_cell_formula_units_Z 16
_cell_length_a 8.616329
_cell_length_b 9.006761
_cell_length_c 14.980632
_cell_angle_alpha 107.315813
_cell_angle_beta 77.593246
_cell_angle_gamma 50.396653
_cell_volume 714.160536
_symmetry_space_group_name_H-M "P -1"
_symmetry_group_IT_number 2
_symmetry_cell_setting 'triclinic'
loop_
_space_group_symop_operation_xyz
x,y,z
-x,-y,-z
loop_
_atom_site_type_symbol
_atom_site_label
_atom_site_fract_x
_atom_site_fract_y
_atom_site_fract_z
Si Si1 0.194491 0.061819 0.846201
Si Si2 0.521492 0.334409 0.757925
Si Si3 0.965089 0.547124 0.723503
Si Si4 0.044461 0.193755 0.087691
Si Si5 0.625264 0.548358 0.678771
Si Si6 0.401249 0.093051 0.674536
Si Si7 0.787303 0.564410 0.493400
Si Si8 0.738514 0.235990 0.896036
O O1 0.336848 0.095995 0.785357
O O2 0.939624 0.221483 0.856514
O O3 0.341667 0.792787 0.766179
O O4 0.165654 0.128134 0.964944
O O5 0.672215 0.349342 0.684063
O O6 0.531054 0.165071 0.673793
O O7 0.671659 0.197837 0.805916
O O8 0.245448 0.595347 0.852418
O O9 0.873685 0.720056 0.847127
O O10 0.747497 0.609608 0.720350
O O11 0.156160 0.277886 0.682312
O O12 0.106993 0.560219 0.638956
O O13 0.154506 0.956700 0.075226
O O14 0.710561 0.476342 0.550986
O O15 0.563012 0.846696 0.561081
O O16 0.000000 0.500000 0.500000
O O17 0.500000 0.500000 0.000000
#
# Coordination Sequence:
#
# PCOD8014156 Si02
#       8
#     2   2   2   2   2   2   2   2
#     4  11  22  42  62  92 132 170 211 258 319 381
#     4  11  23  41  62  98 130 163 215 266 312 375
#     4  10  22  41  66  92 126 170 213 262 322 375
#     4  11  24  41  62  96 131 164 216 264 311 381
#     4  10  21  41  65  92 129 169 210 264 321 373
#     4  10  23  40  66  94 127 165 219 264 307 388
#     4   9  20  40  67  88 126 170 208 263 324 372
#     4  12  23  39  67  90 130 176 206 255 327 375
#
# _framework density 22.403926999999999
#
# number of rings (size 3 to 8) (size 9 to 14) (size 15 to 20)
#    0.000    1.500    2.500    2.250    5.250    2.500 
#    2.250    5.000    2.750    0.000    0.000    0.000 
#    0.000    0.000    0.000    0.000    0.000    0.000 
#
# Total GULP energy -198313.420327 kJ/mol
# GULP energy per Si atom -12394.588770 kJ/mol
# Density = 2.235293 g / cm^3
# Si number density = 22.403927 Si / 1000 Ang^3
#
#
#
# Elastic Constant Matrix: (Units=GPa)
#
#
# Indices 1 2 3 4 5 6 
#
# 1 85.6843 19.5947 22.2200 -2.3390 -4.1355 3.9953
# 2 19.5947 74.8532 3.0029 -10.2255 -6.6718 -15.1270
# 3 22.2200 3.0029 54.1382 -15.3243 -13.2789 -2.7661
# 4 -2.3390 -10.2255 -15.3243 31.0638 0.3288 -7.5192
# 5 -4.1355 -6.6718 -13.2789 0.3288 23.5916 -5.0380
# 6 3.9953 -15.1270 -2.7661 -7.5192 -5.0380 32.4918
#
#
#
# Elastic Compliance Matrix: (Units=1/GPa)
#
#
# Indices 1 2 3 4 5 6 
#
# 1 0.016157 -0.007678 -0.011137 -0.009094 -0.007571 -0.009788
# 2 -0.007678 0.022236 0.011217 0.016572 0.014956 0.018405
# 3 -0.011137 0.011217 0.037032 0.025614 0.025912 0.019690
# 4 -0.009094 0.016572 0.025614 0.056011 0.022598 0.027480
# 5 -0.007571 0.014956 0.025912 0.022598 0.064986 0.025406
# 6 -0.009788 0.018405 0.019690 0.027480 0.025406 0.052524
#
#
# Mechanical properties :
#
#
# Convention : Reuss Voigt Hill
#
# Bulk Modulus (GPa) = 16.60287 33.81231 25.20759
# Shear Modulus (GPa) = 17.59217 28.75330 23.17274
#
# Velocity S-wave (km/s) = 2.80523 3.58635 3.21957
# Velocity P-wave (km/s) = 4.23311 5.68103 5.00966
#
# Compressibility (1/GPa) = 0.06023056
#
# Stress axis : x y z
#
# Youngs Moduli (GPa) = 61.89139 44.97266 27.00371
#
# Poissons Ratio (x) = 0.34530 0.30073
# Poissons Ratio (y) = 0.47520 -0.30291
# Poissons Ratio (z) = 0.68927 -0.50448
#
# Static dielectric constant tensor:
#      x y z
#    x 3.864450 -0.208670 -0.317780 
#    y -0.208670 4.475340 -0.288090 
#    z -0.317780 -0.288090 4.701720 
# 
# 
# High freq. dielectric constant tensor:
#      x y z
#    x 1.869990 -0.013000 -0.014410 
#    y -0.013000 1.895950 -0.010270 
#    z -0.014410 -0.010270 1.876180 
# 
# From -- ./inp_files/313845.got.cif
#   From: 2010.06.25/outbox.cif.g09.slc.cpg/sg2_157_cif.got.tgz:313845.got - 2010.06.27 13:26:56.
