data_PCOD8014626
_publ_section_title
;
Structure prediction by ZEFSAII (Michael W. Deem and Ramdas Pophale) SiO2 
 PCOD8014626
Probable space group: P -1
;
_chemical_formula_sum "Si O2"
_cell_formula_units_Z 16
_cell_length_a 11.407621
_cell_length_b 9.632782
_cell_length_c 8.696274
_cell_angle_alpha 125.476524
_cell_angle_beta 88.096883
_cell_angle_gamma 93.228344
_cell_volume 776.967914
_symmetry_space_group_name_H-M "P -1"
_symmetry_group_IT_number 2
_symmetry_cell_setting 'triclinic'
loop_
_space_group_symop_operation_xyz
x,y,z
-x,-y,-z
loop_
_atom_site_type_symbol
_atom_site_label
_atom_site_fract_x
_atom_site_fract_y
_atom_site_fract_z
Si Si1 0.884119 0.098175 0.531457
Si Si2 0.754131 0.555547 0.225278
Si Si3 0.256685 0.167320 0.836668
Si Si4 0.260859 0.829230 0.116391
Si Si5 0.206912 0.162132 0.170632
Si Si6 0.035388 0.344300 0.500600
Si Si7 0.419738 0.337413 0.446395
Si Si8 0.504106 0.986362 0.174990
O O1 0.823398 0.165094 0.729735
O O2 0.917336 0.259783 0.525903
O O3 0.793518 0.970790 0.369136
O O4 0.000000 0.000000 0.500000
O O5 0.745608 0.646102 0.118919
O O6 0.876787 0.603436 0.332528
O O7 0.644149 0.618585 0.365465
O O8 0.747593 0.354126 0.078214
O O9 0.384854 0.113035 0.841760
O O10 0.179706 0.179434 0.002416
O O11 0.395504 0.876453 0.183607
O O12 0.225687 0.964555 0.076436
O O13 0.092981 0.209485 0.299995
O O14 0.320823 0.283770 0.289012
O O15 0.000000 0.500000 0.500000
O O16 0.500000 0.500000 0.500000
O O17 0.503275 0.178659 0.367034
O O18 0.500000 0.000000 0.000000
#
# Coordination Sequence:
#
# PCOD8014626 Si02
#       8
#     2   2   2   2   2   2   2   2
#     4  12  25  47  68  95 136 179 227 288 336 394
#     4  11  26  43  65 102 137 172 227 285 338 395
#     4  12  25  43  71 101 137 178 225 280 342 395
#     4  11  24  45  70  97 140 178 227 274 342 409
#     4  10  23  43  68 100 134 177 225 272 340 416
#     4  11  26  46  68  97 135 175 234 281 339 402
#     4  10  21  41  69  95 140 176 220 275 332 404
#     4  11  22  43  70 102 137 177 222 271 337 416
#
# _framework density 20.592872
#
# number of rings (size 3 to 8) (size 9 to 14) (size 15 to 20)
#    0.000    1.000    5.000    2.250    3.500    5.500 
#    0.000    0.000    0.000    0.000    0.000    0.000 
#    0.000    0.000    0.000    0.000    0.000    0.000 
#
# Total GULP energy -198439.776226 kJ/mol
# GULP energy per Si atom -12402.486014 kJ/mol
# Density = 2.054600 g / cm^3
# Si number density = 20.592872 Si / 1000 Ang^3
#
#
#
# Elastic Constant Matrix: (Units=GPa)
#
#
# Indices 1 2 3 4 5 6 
#
# 1 84.3464 41.4361 21.8237 -0.7679 -13.6819 -0.4638
# 2 41.4361 144.7238 52.5161 2.7965 -3.1656 3.1738
# 3 21.8237 52.5161 121.0906 10.6621 -17.3534 -0.2322
# 4 -0.7679 2.7965 10.6621 39.6654 1.9996 2.9748
# 5 -13.6819 -3.1656 -17.3534 1.9996 18.9722 -4.9917
# 6 -0.4638 3.1738 -0.2322 2.9748 -4.9917 40.8291
#
#
#
# Elastic Compliance Matrix: (Units=1/GPa)
#
#
# Indices 1 2 3 4 5 6 
#
# 1 0.015873 -0.004655 0.000930 -0.000378 0.012101 0.002054
# 2 -0.004655 0.009700 -0.004337 0.000830 -0.006227 -0.001653
# 3 0.000930 -0.004337 0.011999 -0.003660 0.011869 0.002134
# 4 -0.000378 0.000830 -0.003660 0.026702 -0.007059 -0.002898
# 5 0.012101 -0.006227 0.011869 -0.007059 0.074716 0.010338
# 6 0.002054 -0.001653 0.002134 -0.002898 0.010338 0.026131
#
#
# Mechanical properties :
#
#
# Convention : Reuss Voigt Hill
#
# Bulk Modulus (GPa) = 46.62490 64.63472 55.62981
# Shear Modulus (GPa) = 26.53998 35.51901 31.02949
#
# Velocity S-wave (km/s) = 3.59387 4.15760 3.88597
# Velocity P-wave (km/s) = 6.31757 7.38259 6.87075
#
# Compressibility (1/GPa) = 0.02144777
#
# Stress axis : x y z
#
# Youngs Moduli (GPa) = 63.00037 103.09145 83.34185
#
# Poissons Ratio (x) = 0.47989 -0.07747
# Poissons Ratio (y) = 0.29326 0.36142
# Poissons Ratio (z) = -0.05856 0.44707
#
# Static dielectric constant tensor:
#      x y z
#    x -29.948950 10.252990 -18.336290 
#    y 10.252990 0.876410 5.427010 
#    z -18.336290 5.427010 -5.867700 
# 
# 
# High freq. dielectric constant tensor:
#      x y z
#    x 1.808360 0.009240 -0.014170 
#    y 0.009240 1.813150 0.003030 
#    z -0.014170 0.003030 1.812150 
# 
# From -- ./inp_files/245981.got.cif
#   From: 2010.06.25/outbox.cif.g09.slc.cpg/sg2_123_cif.got.tgz:245981.got - 2010.06.27 13:26:56.
