data_PCOD8014115
_publ_section_title
;
Structure prediction by ZEFSAII (Michael W. Deem and Ramdas Pophale) SiO2 
 PCOD8014115
Probable space group: P -1
;
_chemical_formula_sum "Si O2"
_cell_formula_units_Z 16
_cell_length_a 12.974430
_cell_length_b 9.056443
_cell_length_c 14.041424
_cell_angle_alpha 69.630830
_cell_angle_beta 137.842595
_cell_angle_gamma 136.000967
_cell_volume 705.938014
_symmetry_space_group_name_H-M "P -1"
_symmetry_group_IT_number 2
_symmetry_cell_setting 'triclinic'
loop_
_space_group_symop_operation_xyz
x,y,z
-x,-y,-z
loop_
_atom_site_type_symbol
_atom_site_label
_atom_site_fract_x
_atom_site_fract_y
_atom_site_fract_z
Si Si1 0.193860 0.322495 0.926751
Si Si2 0.486052 0.909190 0.615191
Si Si3 0.221802 0.445257 0.130467
Si Si4 0.992804 0.939985 0.616641
Si Si5 0.384333 0.186327 0.967032
Si Si6 0.456530 0.577464 0.571802
Si Si7 0.260633 0.830572 0.087801
Si Si8 0.791226 0.030123 0.588206
O O1 0.275455 0.215072 0.967926
O O2 0.935402 0.159870 0.754935
O O3 0.186112 0.325938 0.034183
O O4 0.363922 0.578475 0.942542
O O5 0.452549 0.695910 0.632350
O O6 0.273242 0.846498 0.526437
O O7 0.500000 0.000000 0.500000
O O8 0.691442 0.101650 0.783131
O O9 0.400899 0.473810 0.302852
O O10 0.312453 0.690478 0.123644
O O11 0.996297 0.300367 0.071763
O O12 0.802289 0.665753 0.569814
O O13 0.947329 0.069384 0.608637
O O14 0.000000 0.000000 0.500000
O O15 0.231690 0.059516 0.795019
O O16 0.413257 0.040588 0.070732
O O17 0.569508 0.754141 0.520327
#
# Coordination Sequence:
#
# PCOD8014115 Si02
#       8
#     2   2   2   2   2   2   2   2
#     4  10  21  41  65  89 123 163 207 251 309 371
#     4  10  22  39  62  92 124 159 205 259 308 362
#     4  11  22  38  63  93 124 163 208 257 308 366
#     4  11  23  40  63  93 129 166 205 250 308 374
#     4  10  23  41  63  92 127 165 205 253 307 371
#     4  11  22  39  66  90 120 164 209 254 309 368
#     4  11  24  39  60  94 129 159 205 258 308 366
#     4  10  22  40  63  91 123 161 207 261 308 363
#
# _framework density 22.664881000000001
#
# number of rings (size 3 to 8) (size 9 to 14) (size 15 to 20)
#    0.000    1.500    0.000    5.625    0.000   10.000 
#    0.000    3.750    0.000    0.000    0.000    0.000 
#    0.000    0.000    0.000    0.000    0.000    0.000 
#
# Total GULP energy -198296.410616 kJ/mol
# GULP energy per Si atom -12393.525664 kJ/mol
# Density = 2.261329 g / cm^3
# Si number density = 22.664881 Si / 1000 Ang^3
#
#
#
# Elastic Constant Matrix: (Units=GPa)
#
#
# Indices 1 2 3 4 5 6 
#
# 1 52.5436 17.4823 15.4487 -5.6693 -7.2186 -12.3779
# 2 17.4823 110.7118 41.1444 -1.1551 10.6987 -8.5659
# 3 15.4487 41.1444 74.5091 2.7038 -10.8292 -6.2519
# 4 -5.6693 -1.1551 2.7038 36.6414 -5.4625 0.4798
# 5 -7.2186 10.6987 -10.8292 -5.4625 41.5621 -1.6122
# 6 -12.3779 -8.5659 -6.2519 0.4798 -1.6122 31.7627
#
#
#
# Elastic Compliance Matrix: (Units=1/GPa)
#
#
# Indices 1 2 3 4 5 6 
#
# 1 0.023709 -0.002782 -0.002091 0.004400 0.005188 0.008274
# 2 -0.002782 0.012749 -0.007220 -0.000349 -0.005667 0.000651
# 3 -0.002091 -0.007220 0.018908 -0.001018 0.006338 0.001297
# 4 0.004400 -0.000349 -0.001018 0.028677 0.004405 0.001211
# 5 0.005188 -0.005667 0.006338 0.004405 0.028772 0.003135
# 6 0.008274 0.000651 0.001297 0.001211 0.003135 0.035280
#
#
# Mechanical properties :
#
#
# Convention : Reuss Voigt Hill
#
# Bulk Modulus (GPa) = 32.07037 42.87951 37.47494
# Shear Modulus (GPa) = 27.37103 32.90585 30.13844
#
# Velocity S-wave (km/s) = 3.47888 3.81444 3.65052
# Velocity P-wave (km/s) = 5.50612 6.19354 5.85992
#
# Compressibility (1/GPa) = 0.03118143
#
# Stress axis : x y z
#
# Youngs Moduli (GPa) = 42.17802 78.43639 52.88637
#
# Poissons Ratio (x) = 0.21822 0.11058
# Poissons Ratio (y) = 0.11734 0.38182
# Poissons Ratio (z) = 0.08819 0.56629
#
# Static dielectric constant tensor:
#      x y z
#    x 4.366470 -0.452460 0.209780 
#    y -0.452460 4.155560 0.073620 
#    z 0.209780 0.073620 4.220020 
# 
# 
# High freq. dielectric constant tensor:
#      x y z
#    x 1.895770 -0.020750 -0.000110 
#    y -0.020750 1.885520 0.008170 
#    z -0.000110 0.008170 1.897050 
# 
# From -- ./inp_files/528305.got.cif
#   From: 2010.06.25/outbox.cif.g09.slc.cpg/sg2_265_cif.got.tgz:528305.got - 2010.06.27 13:26:56.
