data_PCOD8014835
_publ_section_title
;
Structure prediction by ZEFSAII (Michael W. Deem and Ramdas Pophale) SiO2 
 PCOD8014835
Probable space group: P -1
;
_chemical_formula_sum "Si O2"
_cell_formula_units_Z 14
_cell_length_a 14.591907
_cell_length_b 11.465408
_cell_length_c 8.765836
_cell_angle_alpha 72.567398
_cell_angle_beta 114.080028
_cell_angle_gamma 53.419478
_cell_volume 722.822836
_symmetry_space_group_name_H-M "P -1"
_symmetry_group_IT_number 2
_symmetry_cell_setting 'triclinic'
loop_
_space_group_symop_operation_xyz
x,y,z
-x,-y,-z
loop_
_atom_site_type_symbol
_atom_site_label
_atom_site_fract_x
_atom_site_fract_y
_atom_site_fract_z
Si Si1 0.438897 0.800655 0.365281
Si Si2 0.915582 0.960043 0.900649
Si Si3 0.178689 0.939686 0.553114
Si Si4 0.544040 0.921097 0.232050
Si Si5 0.498651 0.780401 0.767800
Si Si6 0.828300 0.332166 0.320203
Si Si7 0.218403 0.531556 0.425188
O O1 0.487965 0.776769 0.582295
O O2 0.611265 0.566536 0.492684
O O3 0.400617 0.969108 0.187369
O O4 0.271762 0.878344 0.206454
O O5 0.048767 0.716639 0.128654
O O6 0.893050 0.987592 0.695238
O O7 0.000000 0.000000 0.000000
O O8 0.359328 0.832946 0.738477
O O9 0.220011 0.760808 0.705673
O O10 0.029385 0.153583 0.472101
O O11 0.552255 0.030317 0.301266
O O12 0.735649 0.659420 0.462293
O O13 0.500000 0.000000 0.000000
O O14 0.694952 0.551237 0.048936
O O15 0.819974 0.372178 0.475641
#
# Coordination Sequence:
#
# PCOD8014835 Si02
#       7
#     2   2   2   2   2   2   2
#     4   9  23  39  62  90 118 160 202 245 301 352
#     4  11  21  42  62  87 126 157 201 248 297 363
#     4  10  24  39  59  93 119 163 202 246 301 356
#     4  10  21  42  61  90 123 154 208 244 299 361
#     4  11  20  42  63  86 123 162 198 250 298 358
#     4  11  21  40  60  89 127 155 204 250 297 359
#     4  10  22  39  61  93 118 158 201 248 302 354
#
# _framework density 19.368507999999999
#
# number of rings (size 3 to 8) (size 9 to 14) (size 15 to 20)
#    0.857    0.857    2.857    1.714    0.000    2.857 
#    5.143    2.857    0.000    0.000    0.000    0.000 
#    0.000    0.000    0.000    0.000    0.000    0.000 
#
# Total GULP energy -173549.875118 kJ/mol
# GULP energy per Si atom -12396.419651 kJ/mol
# Density = 1.932442 g / cm^3
# Si number density = 19.368508 Si / 1000 Ang^3
#
#
#
# Elastic Constant Matrix: (Units=GPa)
#
#
# Indices 1 2 3 4 5 6 
#
# 1 70.3999 25.8362 10.5110 4.2860 -2.1593 -17.7443
# 2 25.8362 106.0908 21.0122 -11.6785 7.0216 -12.5020
# 3 10.5110 21.0122 73.6548 -10.0302 -11.1229 -4.2019
# 4 4.2860 -11.6785 -10.0302 27.7700 4.5276 -1.1117
# 5 -2.1593 7.0216 -11.1229 4.5276 28.8910 -5.4777
# 6 -17.7443 -12.5020 -4.2019 -1.1117 -5.4777 37.8634
#
#
#
# Elastic Compliance Matrix: (Units=1/GPa)
#
#
# Indices 1 2 3 4 5 6 
#
# 1 0.018262 -0.004225 -0.001063 -0.005371 0.004247 0.007502
# 2 -0.004225 0.012083 -0.002769 0.005591 -0.004977 0.001146
# 3 -0.001063 -0.002769 0.016095 0.003816 0.006461 0.001421
# 4 -0.005371 0.005591 0.003816 0.041681 -0.006825 -0.000011
# 5 0.004247 -0.004977 0.006461 -0.006825 0.040985 0.006793
# 6 0.007502 0.001146 0.001421 -0.000011 0.006793 0.031445
#
#
# Mechanical properties :
#
#
# Convention : Reuss Voigt Hill
#
# Bulk Modulus (GPa) = 32.97495 40.54045 36.75770
# Shear Modulus (GPa) = 26.77033 31.75729 29.26381
#
# Velocity S-wave (km/s) = 3.72177 4.05363 3.89124
# Velocity P-wave (km/s) = 5.96077 6.54873 6.26165
#
# Compressibility (1/GPa) = 0.03032605
#
# Stress axis : x y z
#
# Youngs Moduli (GPa) = 54.75859 82.75942 62.13121
#
# Poissons Ratio (x) = 0.34967 0.06604
# Poissons Ratio (y) = 0.23136 0.17204
# Poissons Ratio (z) = 0.05821 0.22916
#
# Static dielectric constant tensor:
#      x y z
#    x 3.646940 -0.105250 -0.118170 
#    y -0.105250 3.587750 -0.162150 
#    z -0.118170 -0.162150 3.600130 
# 
# 
# High freq. dielectric constant tensor:
#      x y z
#    x 1.753040 -0.012410 -0.015830 
#    y -0.012410 1.759210 -0.004880 
#    z -0.015830 -0.004880 1.751610 
# 
# From -- ./inp_files/305150.got.cif
#   From: 2010.06.25/outbox.cif.g09.slc.cpg/sg2_153_cif.got.tgz:305150.got - 2010.06.27 13:26:56.
