data_PCOD8014207
_publ_section_title
;
Structure prediction by ZEFSAII (Michael W. Deem and Ramdas Pophale) SiO2 
 PCOD8014207
Probable space group: P -1
;
_chemical_formula_sum "Si O2"
_cell_formula_units_Z 16
_cell_length_a 14.299475
_cell_length_b 12.546403
_cell_length_c 8.882378
_cell_angle_alpha 128.392852
_cell_angle_beta 48.103342
_cell_angle_gamma 97.525055
_cell_volume 812.294087
_symmetry_space_group_name_H-M "P -1"
_symmetry_group_IT_number 2
_symmetry_cell_setting 'triclinic'
loop_
_space_group_symop_operation_xyz
x,y,z
-x,-y,-z
loop_
_atom_site_type_symbol
_atom_site_label
_atom_site_fract_x
_atom_site_fract_y
_atom_site_fract_z
Si Si1 0.309102 0.746747 0.031229
Si Si2 0.854728 0.052743 0.110805
Si Si3 0.992274 0.119714 0.484692
Si Si4 0.471106 0.406310 0.080947
Si Si5 0.219719 0.657437 0.733731
Si Si6 0.952822 0.679451 0.190714
Si Si7 0.584539 0.066125 0.561625
Si Si8 0.353656 0.032957 0.262987
O O1 0.168843 0.806080 0.340726
O O2 0.322154 0.900028 0.113304
O O3 0.429185 0.623913 0.904946
O O4 0.290955 0.672869 0.828718
O O5 0.780151 0.231345 0.300299
O O6 0.740849 0.019512 0.288500
O O7 0.889026 0.960410 0.837774
O O8 0.000000 0.000000 0.000000
O O9 0.011653 0.262837 0.643647
O O10 0.000000 0.000000 0.500000
O O11 0.315213 0.492534 0.404400
O O12 0.500000 0.500000 0.000000
O O13 0.487930 0.250983 0.849922
O O14 0.055847 0.691752 0.962449
O O15 0.781707 0.791866 0.451002
O O16 0.000000 0.500000 0.000000
O O17 0.500000 0.000000 0.500000
O O18 0.614338 0.979213 0.608420
O O19 0.500000 0.000000 0.000000
#
# Coordination Sequence:
#
# PCOD8014207 Si02
#       8
#     2   2   2   2   2   2   2   2
#     4  10  21  41  65  96 121 166 230 258 321 394
#     4  12  22  40  71  92 128 177 222 269 324 399
#     4  11  20  40  70  92 123 167 221 267 311 395
#     4  11  23  41  63  96 130 169 215 275 331 390
#     4  11  22  41  67  94 129 167 215 280 321 387
#     4  11  24  41  64 103 129 160 219 276 330 370
#     4  11  27  43  61  97 134 173 220 267 336 395
#     4  11  24  42  68  89 133 174 216 265 324 403
#
# _framework density 19.697299000000001
#
# number of rings (size 3 to 8) (size 9 to 14) (size 15 to 20)
#    0.000    1.000    5.000    2.625    7.000    0.000 
#    4.500    0.000    0.000    3.000    0.000    0.000 
#    0.000    0.000    0.000    0.000    0.000    0.000 
#
# Total GULP energy -198211.754311 kJ/mol
# GULP energy per Si atom -12388.234644 kJ/mol
# Density = 1.965247 g / cm^3
# Si number density = 19.697299 Si / 1000 Ang^3
#
#
#
# Elastic Constant Matrix: (Units=GPa)
#
#
# Indices 1 2 3 4 5 6 
#
# 1 106.2799 62.1584 60.9788 -5.3429 -8.9979 8.2318
# 2 62.1584 112.2418 62.9523 1.3281 -2.1225 2.3624
# 3 60.9788 62.9523 181.1591 -6.8784 -14.6237 9.2527
# 4 -5.3429 1.3281 -6.8784 40.9172 1.6553 0.9393
# 5 -8.9979 -2.1225 -14.6237 1.6553 35.7168 2.1751
# 6 8.2318 2.3624 9.2527 0.9393 2.1751 35.7925
#
#
#
# Elastic Compliance Matrix: (Units=1/GPa)
#
#
# Indices 1 2 3 4 5 6 
#
# 1 0.015444 -0.007188 -0.002284 0.001822 0.002608 -0.002694
# 2 -0.007188 0.014487 -0.002944 -0.001854 -0.002169 0.001638
# 3 -0.002284 -0.002944 0.007617 0.001013 0.002408 -0.001423
# 4 0.001822 -0.001854 0.001013 0.024948 -0.000320 -0.001194
# 5 0.002608 -0.002169 0.002408 -0.000320 0.029702 -0.002876
# 6 -0.002694 0.001638 -0.001423 -0.001194 -0.002876 0.029024
#
#
# Mechanical properties :
#
#
# Convention : Reuss Voigt Hill
#
# Bulk Modulus (GPa) = 78.62722 85.76221 82.19471
# Shear Modulus (GPa) = 33.26832 36.72472 34.99652
#
# Velocity S-wave (km/s) = 4.11418 4.32262 4.21968
# Velocity P-wave (km/s) = 7.91031 8.27937 8.09694
#
# Compressibility (1/GPa) = 0.01271824
#
# Stress axis : x y z
#
# Youngs Moduli (GPa) = 64.74987 69.02546 131.28065
#
# Poissons Ratio (x) = 0.49612 0.29979
# Poissons Ratio (y) = 0.46539 0.38651
# Poissons Ratio (z) = 0.14786 0.20322
#
# Static dielectric constant tensor:
#      x y z
#    x -6.297790 7.926740 0.954630 
#    y 7.926740 -2.490280 -0.557500 
#    z 0.954630 -0.557500 4.150140 
# 
# 
# High freq. dielectric constant tensor:
#      x y z
#    x 1.766380 -0.004050 -0.006790 
#    y -0.004050 1.756320 -0.001330 
#    z -0.006790 -0.001330 1.794280 
# 
# From -- ./inp_files/308432.got.cif
#   From: 2010.06.25/outbox.cif.g09.slc.cpg/sg2_155_cif.got.tgz:308432.got - 2010.06.27 13:26:56.
