data_PCOD8014622
_publ_section_title
;
Structure prediction by ZEFSAII (Michael W. Deem and Ramdas Pophale) SiO2 
 PCOD8014622
Probable space group: P -1
;
_chemical_formula_sum "Si O2"
_cell_formula_units_Z 12
_cell_length_a 11.984074
_cell_length_b 8.738748
_cell_length_c 9.671243
_cell_angle_alpha 63.483876
_cell_angle_beta 86.969107
_cell_angle_gamma 128.653404
_cell_volume 622.921329
_symmetry_space_group_name_H-M "P -1"
_symmetry_group_IT_number 2
_symmetry_cell_setting 'triclinic'
loop_
_space_group_symop_operation_xyz
x,y,z
-x,-y,-z
loop_
_atom_site_type_symbol
_atom_site_label
_atom_site_fract_x
_atom_site_fract_y
_atom_site_fract_z
Si Si1 0.624522 0.913151 0.111366
Si Si2 0.431097 0.414826 0.190217
Si Si3 0.650363 0.055269 0.521329
Si Si4 0.885509 0.735955 0.679377
Si Si5 0.307061 0.760265 0.261007
Si Si6 0.113434 0.759669 0.814319
O O1 0.552185 0.647482 0.190793
O O2 0.489032 0.889269 0.190966
O O3 0.756130 0.022930 0.175266
O O4 0.705602 0.090083 0.899845
O O5 0.265531 0.334647 0.217943
O O6 0.410794 0.203748 0.337815
O O7 0.500000 0.500000 0.000000
O O8 0.727739 0.221203 0.587771
O O9 0.794497 0.214642 0.335670
O O10 0.500000 0.000000 0.500000
O O11 0.827246 0.528167 0.657246
O O12 0.990489 0.773192 0.779649
O O13 0.000000 0.000000 0.500000
O O14 0.000000 0.500000 0.000000
#
# Coordination Sequence:
#
# PCOD8014622 Si02
#       6
#     2   2   2   2   2   2
#     4  10  21  41  69  95 130 180 214 260 332 397
#     4  11  24  43  70  94 132 175 224 263 321 400
#     4  12  25  42  70 102 129 169 229 273 319 394
#     4  11  24  44  66  96 135 175 214 270 333 384
#     4  10  21  41  69  94 131 178 217 258 333 399
#     4  12  25  43  66  98 136 170 218 277 329 379
#
# _framework density 19.264068999999999
#
# number of rings (size 3 to 8) (size 9 to 14) (size 15 to 20)
#    0.000    1.000    6.667    0.000    2.333    2.667 
#    3.000    0.833    0.000    0.000    0.000    0.000 
#    0.000    0.000    0.000    0.000    0.000    0.000 
#
# Total GULP energy -148814.805828 kJ/mol
# GULP energy per Si atom -12401.233819 kJ/mol
# Density = 1.922022 g / cm^3
# Si number density = 19.264069 Si / 1000 Ang^3
#
#
#
# Elastic Constant Matrix: (Units=GPa)
#
#
# Indices 1 2 3 4 5 6 
#
# 1 134.3371 79.7043 65.6777 3.9228 14.8701 9.1763
# 2 79.7043 142.8582 74.6618 2.2713 4.7935 13.0874
# 3 65.6777 74.6618 160.2357 -2.5957 -1.0418 -5.5782
# 4 3.9228 2.2713 -2.5957 40.6751 -4.2708 4.9973
# 5 14.8701 4.7935 -1.0418 -4.2708 39.1108 1.9065
# 6 9.1763 13.0874 -5.5782 4.9973 1.9065 36.0084
#
#
#
# Elastic Compliance Matrix: (Units=1/GPa)
#
#
# Indices 1 2 3 4 5 6 
#
# 1 0.012520 -0.005247 -0.002782 -0.001382 -0.004279 -0.001296
# 2 -0.005247 0.012139 -0.003628 0.000113 0.000602 -0.003684
# 3 -0.002782 -0.003628 0.009209 0.000836 0.001681 0.003249
# 4 -0.001382 0.000113 0.000836 0.025535 0.003483 -0.003287
# 5 -0.004279 0.000602 0.001681 0.003483 0.027586 -0.000812
# 6 -0.001296 -0.003684 0.003249 -0.003287 -0.000812 0.030443
#
#
# Mechanical properties :
#
#
# Convention : Reuss Voigt Hill
#
# Bulk Modulus (GPa) = 94.75258 97.50208 96.12733
# Shear Modulus (GPa) = 34.65860 37.65131 36.15496
#
# Velocity S-wave (km/s) = 4.24622 4.42575 4.33691
# Velocity P-wave (km/s) = 8.56350 8.76582 8.66525
#
# Compressibility (1/GPa) = 0.01055380
#
# Stress axis : x y z
#
# Youngs Moduli (GPa) = 79.87425 82.37964 108.58585
#
# Poissons Ratio (x) = 0.43222 0.30211
# Poissons Ratio (y) = 0.41908 0.39396
# Poissons Ratio (z) = 0.22223 0.29888
#
# Static dielectric constant tensor:
#      x y z
#    x 3.604490 0.029200 0.044570 
#    y 0.029200 3.674680 0.027160 
#    z 0.044570 0.027160 3.567010 
# 
# 
# High freq. dielectric constant tensor:
#      x y z
#    x 1.752570 0.005110 0.004730 
#    y 0.005110 1.759020 -0.003400 
#    z 0.004730 -0.003400 1.759630 
# 
# From -- ./inp_files/144383.got.cif
#   From: 2010.06.25/outbox.cif.g09.slc.cpg/sg2_73_cif.got.tgz:144383.got - 2010.06.27 13:26:56.
