data_PCOD8014715
_publ_section_title
;
Structure prediction by ZEFSAII (Michael W. Deem and Ramdas Pophale) SiO2 
 PCOD8014715
Probable space group: P -1
;
_chemical_formula_sum "Si O2"
_cell_formula_units_Z 16
_cell_length_a 10.539729
_cell_length_b 11.422889
_cell_length_c 8.415561
_cell_angle_alpha 124.660379
_cell_angle_beta 86.050629
_cell_angle_gamma 63.898455
_cell_volume 674.958550
_symmetry_space_group_name_H-M "P -1"
_symmetry_group_IT_number 2
_symmetry_cell_setting 'triclinic'
loop_
_space_group_symop_operation_xyz
x,y,z
-x,-y,-z
loop_
_atom_site_type_symbol
_atom_site_label
_atom_site_fract_x
_atom_site_fract_y
_atom_site_fract_z
Si Si1 0.088354 0.254914 0.430381
Si Si2 0.532194 0.635993 0.168891
Si Si3 0.171838 0.922253 0.992168
Si Si4 0.462212 0.785118 0.636347
Si Si5 0.199978 0.471386 0.488663
Si Si6 0.102946 0.293493 0.817895
Si Si7 0.560785 0.908428 0.258462
Si Si8 0.841456 0.350187 0.056718
O O1 0.163759 0.328311 0.371613
O O2 0.149446 0.229217 0.584182
O O3 0.895909 0.387250 0.537242
O O4 0.165070 0.062610 0.211305
O O5 0.446370 0.727215 0.415446
O O6 0.500257 0.782332 0.151427
O O7 0.716714 0.523088 0.101236
O O8 0.500000 0.500000 0.000000
O O9 0.300777 0.853238 0.789683
O O10 0.227167 0.758574 0.975811
O O11 0.000000 0.000000 0.000000
O O12 0.611962 0.622184 0.594957
O O13 0.493443 0.937434 0.746554
O O14 0.116942 0.587695 0.742311
O O15 0.252116 0.211246 0.853210
O O16 0.000000 0.500000 0.000000
O O17 0.999888 0.230121 0.847747
O O18 0.500000 0.000000 0.500000
#
# Coordination Sequence:
#
# PCOD8014715 Si02
#       8
#     2   2   2   2   2   2   2   2
#     4  11  24  42  71 101 136 177 232 283 332 421
#     4  10  22  41  67 105 136 173 224 281 339 408
#     4  12  26  45  63 100 144 178 222 286 344 404
#     4  10  24  45  70  96 139 190 219 287 345 395
#     4  10  22  45  70 100 131 179 236 277 336 411
#     4  12  22  43  75 100 127 183 232 282 343 392
#     4  10  21  41  70  99 139 173 225 282 337 395
#     4  11  23  44  68  96 141 174 224 289 337 396
#
# _framework density 23.705158000000001
#
# number of rings (size 3 to 8) (size 9 to 14) (size 15 to 20)
#    0.000    1.250    3.750    2.250    0.000    7.000 
#    2.250    1.250    0.000    0.000    0.000    0.000 
#    0.000    0.000    0.000    0.000    0.000    0.000 
#
# Total GULP energy -198266.803759 kJ/mol
# GULP energy per Si atom -12391.675235 kJ/mol
# Density = 2.365120 g / cm^3
# Si number density = 23.705158 Si / 1000 Ang^3
#
#
#
# Elastic Constant Matrix: (Units=GPa)
#
#
# Indices 1 2 3 4 5 6 
#
# 1 92.7725 18.3336 44.6372 5.0485 -11.8314 15.6267
# 2 18.3336 68.4939 17.5476 16.3349 -2.0226 11.0177
# 3 44.6372 17.5476 113.8237 14.9866 6.7891 14.9028
# 4 5.0485 16.3349 14.9866 27.7175 4.2136 3.9775
# 5 -11.8314 -2.0226 6.7891 4.2136 52.5662 7.0293
# 6 15.6267 11.0177 14.9028 3.9775 7.0293 48.0668
#
#
#
# Elastic Compliance Matrix: (Units=1/GPa)
#
#
# Indices 1 2 3 4 5 6 
#
# 1 0.014914 -0.002248 -0.005504 0.001412 0.004319 -0.003375
# 2 -0.002248 0.018129 -0.000337 -0.009916 0.001391 -0.002703
# 3 -0.005504 -0.000337 0.011898 -0.004730 -0.002262 -0.001100
# 4 0.001412 -0.009916 -0.004730 0.044680 -0.003038 0.000027
# 5 0.004319 0.001391 -0.002262 -0.003038 0.021101 -0.003856
# 6 -0.003375 -0.002703 -0.001100 0.000027 -0.003856 0.023424
#
#
# Mechanical properties :
#
#
# Convention : Reuss Voigt Hill
#
# Bulk Modulus (GPa) = 34.76699 48.45856 41.61277
# Shear Modulus (GPa) = 31.26761 38.64155 34.95458
#
# Velocity S-wave (km/s) = 3.63577 4.04182 3.84416
# Velocity P-wave (km/s) = 5.68537 6.50141 6.10703
#
# Compressibility (1/GPa) = 0.02876292
#
# Stress axis : x y z
#
# Youngs Moduli (GPa) = 67.05112 55.16164 84.05111
#
# Poissons Ratio (x) = 0.12402 0.46259
# Poissons Ratio (y) = 0.15075 0.02829
# Poissons Ratio (z) = 0.36903 0.01857
#
# Static dielectric constant tensor:
#      x y z
#    x 4.488940 -0.024210 -0.142900 
#    y -0.024210 5.305050 0.566110 
#    z -0.142900 0.566110 4.525960 
# 
# 
# High freq. dielectric constant tensor:
#      x y z
#    x 1.936390 -0.001820 -0.004530 
#    y -0.001820 1.939080 0.023290 
#    z -0.004530 0.023290 1.932640 
# 
# From -- ./inp_files/263473.got.cif
#   From: 2010.06.25/outbox.cif.g09.slc.cpg/sg2_132_cif.got.tgz:263473.got - 2010.06.27 13:26:56.
