data_PCOD8014291
_publ_section_title
;
Structure prediction by ZEFSAII (Michael W. Deem and Ramdas Pophale) SiO2 
 PCOD8014291
Probable space group: P -1
;
_chemical_formula_sum "Si O2"
_cell_formula_units_Z 12
_cell_length_a 11.613063
_cell_length_b 9.076210
_cell_length_c 8.948450
_cell_angle_alpha 118.085368
_cell_angle_beta 140.032753
_cell_angle_gamma 63.337460
_cell_volume 528.044670
_symmetry_space_group_name_H-M "P -1"
_symmetry_group_IT_number 2
_symmetry_cell_setting 'triclinic'
loop_
_space_group_symop_operation_xyz
x,y,z
-x,-y,-z
loop_
_atom_site_type_symbol
_atom_site_label
_atom_site_fract_x
_atom_site_fract_y
_atom_site_fract_z
Si Si1 0.445525 0.816774 0.827768
Si Si2 0.929836 0.228921 0.107570
Si Si3 0.929734 0.157172 0.398433
Si Si4 0.674936 0.771351 0.484557
Si Si5 0.626923 0.149574 0.563041
Si Si6 0.225912 0.391250 0.800683
O O1 0.282479 0.781437 0.755283
O O2 0.375109 0.787944 0.577940
O O3 0.619334 0.675797 0.958885
O O4 0.500000 0.000000 0.000000
O O5 0.950495 0.109806 0.220082
O O6 0.827058 0.410358 0.141242
O O7 0.129808 0.236659 0.245258
O O8 0.822151 0.151106 0.833429
O O9 0.048750 0.305142 0.616784
O O10 0.000000 0.000000 0.500000
O O11 0.530299 0.729085 0.443311
O O12 0.694834 0.644021 0.304135
O O13 0.592055 0.956707 0.428882
#
# Coordination Sequence:
#
# PCOD8014291 Si02
#       6
#     2   2   2   2   2   2
#     4  12  23  42  66  95 134 168 225 269 322 394
#     4  11  25  43  67 100 135 169 221 271 329 387
#     4  11  22  40  71  94 126 175 220 263 320 389
#     4  10  21  41  66  93 133 170 224 265 322 390
#     4  11  24  39  66  99 131 175 216 276 323 381
#     4  11  24  44  68  97 132 177 217 268 328 392
#
# _framework density 22.725351
#
# number of rings (size 3 to 8) (size 9 to 14) (size 15 to 20)
#    0.000    1.000    3.333    4.500    2.333    6.000 
#    0.000    1.667    0.000    0.000    0.000    0.000 
#    0.000    0.000    0.000    0.000    0.000    0.000 
#
# Total GULP energy -148813.945947 kJ/mol
# GULP energy per Si atom -12401.162162 kJ/mol
# Density = 2.267363 g / cm^3
# Si number density = 22.725351 Si / 1000 Ang^3
#
#
#
# Elastic Constant Matrix: (Units=GPa)
#
#
# Indices 1 2 3 4 5 6 
#
# 1 54.4329 -3.2053 20.4880 -6.6457 5.4314 -3.1476
# 2 -3.2053 78.8176 2.9841 -3.4539 -11.2408 -8.7806
# 3 20.4880 2.9841 130.4869 -27.2576 -10.8586 10.1206
# 4 -6.6457 -3.4539 -27.2576 37.6057 -7.4340 0.1458
# 5 5.4314 -11.2408 -10.8586 -7.4340 33.9974 -8.6138
# 6 -3.1476 -8.7806 10.1206 0.1458 -8.6138 27.3039
#
#
#
# Elastic Compliance Matrix: (Units=1/GPa)
#
#
# Indices 1 2 3 4 5 6 
#
# 1 0.020333 0.000832 -0.003637 0.000367 -0.003317 0.002911
# 2 0.000832 0.014656 0.000234 0.003064 0.007228 0.006986
# 3 -0.003637 0.000234 0.010541 0.008039 0.005103 -0.002684
# 4 0.000367 0.003064 0.008039 0.035045 0.011568 0.001510
# 5 -0.003317 0.007228 0.005103 0.011568 0.039660 0.012501
# 6 0.002911 0.006986 -0.002684 0.001510 0.012501 0.044138
#
#
# Mechanical properties :
#
#
# Convention : Reuss Voigt Hill
#
# Bulk Modulus (GPa) = 24.75963 33.80789 29.28376
# Shear Modulus (GPa) = 27.32559 36.01278 31.66919
#
# Velocity S-wave (km/s) = 3.47137 3.98514 3.73709
# Velocity P-wave (km/s) = 5.19480 6.00701 5.61561
#
# Compressibility (1/GPa) = 0.04038832
#
# Stress axis : x y z
#
# Youngs Moduli (GPa) = 49.18074 68.23207 94.86501
#
# Poissons Ratio (x) = -0.05676 0.34501
# Poissons Ratio (y) = -0.04091 -0.02219
# Poissons Ratio (z) = 0.17886 -0.01596
#
# Static dielectric constant tensor:
#      x y z
#    x 4.313900 -0.149950 0.087130 
#    y -0.149950 3.960670 -0.223300 
#    z 0.087130 -0.223300 4.253730 
# 
# 
# High freq. dielectric constant tensor:
#      x y z
#    x 1.897320 -0.016120 0.010400 
#    y -0.016120 1.884240 -0.014220 
#    z 0.010400 -0.014220 1.905490 
# 
# From -- ./inp_files/146960.got.cif
#   From: 2010.06.25/outbox.cif.g09.slc.cpg/sg2_74_cif.got.tgz:146960.got - 2010.06.27 13:26:56.
