data_PCOD8014916
_publ_section_title
;
Structure prediction by ZEFSAII (Michael W. Deem and Ramdas Pophale) SiO2 
 PCOD8014916
Probable space group: P -1
;
_chemical_formula_sum "Si O2"
_cell_formula_units_Z 16
_cell_length_a 21.050883
_cell_length_b 10.848981
_cell_length_c 13.245724
_cell_angle_alpha 32.763251
_cell_angle_beta 31.084304
_cell_angle_gamma 54.431217
_cell_volume 734.092842
_symmetry_space_group_name_H-M "P -1"
_symmetry_group_IT_number 2
_symmetry_cell_setting 'triclinic'
loop_
_space_group_symop_operation_xyz
x,y,z
-x,-y,-z
loop_
_atom_site_type_symbol
_atom_site_label
_atom_site_fract_x
_atom_site_fract_y
_atom_site_fract_z
Si Si1 0.393540 0.099639 0.555348
Si Si2 0.622179 0.103617 0.487527
Si Si3 0.990671 0.166519 0.105559
Si Si4 0.076726 0.466799 0.170826
Si Si5 0.199837 0.440441 0.815251
Si Si6 0.919942 0.225765 0.742619
Si Si7 0.319756 0.022002 0.292678
Si Si8 0.535133 0.589431 0.571432
O O1 0.391110 0.114698 0.426359
O O2 0.500000 0.000000 0.500000
O O3 0.445600 0.370473 0.359736
O O4 0.245552 0.880694 0.954842
O O5 0.512130 0.212167 0.548030
O O6 0.600343 0.971947 0.716671
O O7 0.780149 0.346990 0.091475
O O8 0.827209 0.981736 0.486455
O O9 0.002980 0.374808 0.862279
O O10 0.045705 0.983568 0.105956
O O11 0.085202 0.317108 0.969123
O O12 0.970640 0.240258 0.546782
O O13 0.116779 0.358178 0.091687
O O14 0.313333 0.339555 0.730925
O O15 0.285532 0.756274 0.463433
O O16 0.000000 0.500000 0.500000
O O17 0.421528 0.286004 0.910838
#
# Coordination Sequence:
#
# PCOD8014916 Si02
#       8
#     2   2   2   2   2   2   2   2
#     4  10  22  41  61  87 131 154 201 267 296 359
#     4   9  20  41  60  92 125 158 212 256 294 367
#     4  10  22  43  62  94 125 160 201 263 302 357
#     4  10  22  40  66  92 125 161 206 255 307 365
#     4  10  21  42  63  93 130 156 207 264 297 363
#     4  12  23  41  68  91 117 165 211 248 313 371
#     4  10  22  38  66  87 123 170 204 239 318 367
#     4  11  21  40  62  89 126 169 199 255 307 356
#
# _framework density 21.795608000000001
#
# number of rings (size 3 to 8) (size 9 to 14) (size 15 to 20)
#    0.000    2.000    2.500    2.625    1.750    3.500 
#    4.500    5.000    2.750    0.750    0.000    0.000 
#    0.000    0.000    0.000    0.000    0.000    0.000 
#
# Total GULP energy -198300.099358 kJ/mol
# GULP energy per Si atom -12393.756210 kJ/mol
# Density = 2.174600 g / cm^3
# Si number density = 21.795608 Si / 1000 Ang^3
#
#
#
# Elastic Constant Matrix: (Units=GPa)
#
#
# Indices 1 2 3 4 5 6 
#
# 1 84.4298 49.4495 21.2930 0.7302 -18.9048 -8.2550
# 2 49.4495 143.4337 35.4245 8.6138 -8.7568 -7.2345
# 3 21.2930 35.4245 59.4897 8.4962 -6.8621 -15.7793
# 4 0.7302 8.6138 8.4962 32.9782 3.1433 -16.5087
# 5 -18.9048 -8.7568 -6.8621 3.1433 30.6400 1.3492
# 6 -8.2550 -7.2345 -15.7793 -16.5087 1.3492 27.7888
#
#
#
# Elastic Compliance Matrix: (Units=1/GPa)
#
#
# Indices 1 2 3 4 5 6 
#
# 1 0.017503 -0.005082 -0.001525 0.002585 0.008558 0.004131
# 2 -0.005082 0.009801 -0.004565 -0.002755 -0.000936 -0.003141
# 3 -0.001525 -0.004565 0.023423 0.001062 0.002355 0.012176
# 4 0.002585 -0.002755 0.001062 0.044992 -0.004786 0.027615
# 5 0.008558 -0.000936 0.002355 -0.004786 0.038716 -0.001087
# 6 0.004131 -0.003141 0.012176 0.027615 -0.001087 0.059767
#
#
# Mechanical properties :
#
#
# Convention : Reuss Voigt Hill
#
# Bulk Modulus (GPa) = 35.23188 55.52080 45.37634
# Shear Modulus (GPa) = 22.12312 30.36049 26.24181
#
# Velocity S-wave (km/s) = 3.18940 3.73629 3.47363
# Velocity P-wave (km/s) = 5.45553 6.64393 6.07884
#
# Compressibility (1/GPa) = 0.02838338
#
# Stress axis : x y z
#
# Youngs Moduli (GPa) = 57.13291 102.02789 42.69244
#
# Poissons Ratio (x) = 0.51851 0.06510
# Poissons Ratio (y) = 0.29035 0.19490
# Poissons Ratio (z) = 0.08713 0.46577
#
# Static dielectric constant tensor:
#      x y z
#    x 4.377730 0.401050 -0.368590 
#    y 0.401050 4.466450 -0.022660 
#    z -0.368590 -0.022660 3.785280 
# 
# 
# High freq. dielectric constant tensor:
#      x y z
#    x 1.850470 0.000560 -0.026930 
#    y 0.000560 1.869860 0.007060 
#    z -0.026930 0.007060 1.841000 
# 
# From -- ./inp_files/540923.got.cif
#   From: 2010.06.25/outbox.cif.g09.slc.cpg/sg2_271_cif.got.tgz:540923.got - 2010.06.27 13:26:56.
