data_PCOD8014780
_publ_section_title
;
Structure prediction by ZEFSAII (Michael W. Deem and Ramdas Pophale) SiO2 
 PCOD8014780
Probable space group: P -1
;
_chemical_formula_sum "Si O2"
_cell_formula_units_Z 16
_cell_length_a 8.907323
_cell_length_b 12.256269
_cell_length_c 8.827620
_cell_angle_alpha 61.624186
_cell_angle_beta 103.539158
_cell_angle_gamma 124.476329
_cell_volume 698.185159
_symmetry_space_group_name_H-M "P -1"
_symmetry_group_IT_number 2
_symmetry_cell_setting 'triclinic'
loop_
_space_group_symop_operation_xyz
x,y,z
-x,-y,-z
loop_
_atom_site_type_symbol
_atom_site_label
_atom_site_fract_x
_atom_site_fract_y
_atom_site_fract_z
Si Si1 0.952164 0.246277 0.278355
Si Si2 0.401170 0.213371 0.007687
Si Si3 0.396649 0.440680 0.669088
Si Si4 0.586001 0.951387 0.425438
Si Si5 0.658038 0.078044 0.867839
Si Si6 0.667381 0.718977 0.729434
Si Si7 0.080963 0.438480 0.444369
Si Si8 0.197462 0.668288 0.064225
O O1 0.134501 0.244740 0.296690
O O2 0.940202 0.285418 0.427099
O O3 0.771720 0.088079 0.309380
O O4 0.951157 0.362616 0.081668
O O5 0.343314 0.269299 0.101179
O O6 0.280493 0.034931 0.092419
O O7 0.364842 0.282962 0.806475
O O8 0.612764 0.263240 0.027585
O O9 0.500000 0.500000 0.500000
O O10 0.509109 0.555499 0.753288
O O11 0.202477 0.416121 0.606220
O O12 0.424465 0.872828 0.317322
O O13 0.630145 0.833354 0.567096
O O14 0.500000 0.000000 0.500000
O O15 0.817970 0.223856 0.890032
O O16 0.500000 0.000000 0.000000
O O17 0.173002 0.535389 0.249245
O O18 0.000000 0.500000 0.500000
#
# Coordination Sequence:
#
# PCOD8014780 Si02
#       8
#     2   2   2   2   2   2   2   2
#     4  12  26  45  65 105 140 175 224 286 342 396
#     4  11  23  44  71  99 130 182 230 270 338 411
#     4  12  25  46  68  99 137 181 226 281 338 405
#     4  12  24  45  72  99 135 178 229 278 339 411
#     4  10  21  41  72  99 125 178 229 272 330 402
#     4  12  26  44  70 100 138 181 225 282 340 401
#     4  12  29  43  69 103 137 179 227 285 339 399
#     4  11  23  46  70  96 139 179 228 276 338 409
#
# _framework density 22.916554000000001
#
# number of rings (size 3 to 8) (size 9 to 14) (size 15 to 20)
#    0.000    0.500    6.250    1.875    8.750    0.000 
#    2.250    0.625    0.000    0.000    0.000    0.000 
#    0.000    0.000    0.000    0.000    0.000    0.000 
#
# Total GULP energy -198303.106205 kJ/mol
# GULP energy per Si atom -12393.944138 kJ/mol
# Density = 2.286440 g / cm^3
# Si number density = 22.916554 Si / 1000 Ang^3
#
#
#
# Elastic Constant Matrix: (Units=GPa)
#
#
# Indices 1 2 3 4 5 6 
#
# 1 96.7903 27.7789 45.5742 13.1355 25.0758 -19.5478
# 2 27.7789 63.1059 15.5482 13.0479 8.8004 -13.9838
# 3 45.5742 15.5482 124.3727 0.8132 27.7476 -8.6069
# 4 13.1355 13.0479 0.8132 49.1405 -9.5439 -2.5102
# 5 25.0758 8.8004 27.7476 -9.5439 45.0992 1.3602
# 6 -19.5478 -13.9838 -8.6069 -2.5102 1.3602 31.9591
#
#
#
# Elastic Compliance Matrix: (Units=1/GPa)
#
#
# Indices 1 2 3 4 5 6 
#
# 1 0.017277 -0.002690 -0.003549 -0.005011 -0.008211 0.008390
# 2 -0.002690 0.020128 -0.000232 -0.004960 -0.003545 0.006860
# 3 -0.003549 -0.000232 0.010400 0.000021 -0.004397 0.000717
# 4 -0.005011 -0.004960 0.000021 0.024576 0.009053 -0.003685
# 5 -0.008211 -0.003545 -0.004397 0.009053 0.032306 -0.008422
# 6 0.008390 0.006860 0.000717 -0.003685 -0.008422 0.039686
#
#
# Mechanical properties :
#
#
# Convention : Reuss Voigt Hill
#
# Bulk Modulus (GPa) = 28.68483 51.34128 40.01306
# Shear Modulus (GPa) = 29.59686 38.26426 33.93056
#
# Velocity S-wave (km/s) = 3.59765 4.09066 3.85205
# Velocity P-wave (km/s) = 5.45909 6.69055 6.10595
#
# Compressibility (1/GPa) = 0.03486163
#
# Stress axis : x y z
#
# Youngs Moduli (GPa) = 57.88145 49.68229 96.14928
#
# Poissons Ratio (x) = 0.13366 0.34125
# Poissons Ratio (y) = 0.15572 0.02234
# Poissons Ratio (z) = 0.20543 0.01154
#
# Static dielectric constant tensor:
#      x y z
#    x 4.507770 -0.844340 0.101510 
#    y -0.844340 5.619820 -0.381320 
#    z 0.101510 -0.381320 4.199310 
# 
# 
# High freq. dielectric constant tensor:
#      x y z
#    x 1.889860 -0.017800 0.008030 
#    y -0.017800 1.910730 0.004630 
#    z 0.008030 0.004630 1.925400 
# 
# From -- ./inp_files/185274.got.cif
#   From: 2010.06.25/outbox.cif.g09.slc.cpg/sg2_93_cif.got.tgz:185274.got - 2010.06.27 13:26:56.
