data_PCOD8014529
_publ_section_title
;
Structure prediction by ZEFSAII (Michael W. Deem and Ramdas Pophale) SiO2 
 PCOD8014529
Probable space group: P -1
;
_chemical_formula_sum "Si O2"
_cell_formula_units_Z 16
_cell_length_a 8.693558
_cell_length_b 14.576703
_cell_length_c 12.416901
_cell_angle_alpha 113.152924
_cell_angle_beta 38.724284
_cell_angle_gamma 132.169618
_cell_volume 700.037416
_symmetry_space_group_name_H-M "P -1"
_symmetry_group_IT_number 2
_symmetry_cell_setting 'triclinic'
loop_
_space_group_symop_operation_xyz
x,y,z
-x,-y,-z
loop_
_atom_site_type_symbol
_atom_site_label
_atom_site_fract_x
_atom_site_fract_y
_atom_site_fract_z
Si Si1 0.324057 0.058116 0.619761
Si Si2 0.255078 0.627541 0.213621
Si Si3 0.570409 0.702020 0.289131
Si Si4 0.402279 0.586271 0.559760
Si Si5 0.330940 0.207748 0.134867
Si Si6 0.313019 0.032009 0.384216
Si Si7 0.074517 0.251455 0.492340
Si Si8 0.689160 0.135103 0.020088
O O1 0.476118 0.190351 0.661210
O O2 0.500000 0.000000 0.500000
O O3 0.384090 0.111519 0.489871
O O4 0.956251 0.944577 0.799900
O O5 0.419574 0.616031 0.222615
O O6 0.975668 0.489619 0.244999
O O7 0.045313 0.667871 0.387043
O O8 0.536635 0.719391 0.017391
O O9 0.414170 0.612771 0.437686
O O10 0.939359 0.782501 0.147056
O O11 0.500000 0.500000 0.500000
O O12 0.646646 0.713043 0.558777
O O13 0.211848 0.268286 0.303958
O O14 0.612440 0.220848 0.046474
O O15 0.237977 0.896805 0.388961
O O16 0.602038 0.113920 0.183113
O O17 0.000000 0.000000 0.500000
O O18 0.500000 0.000000 0.000000
#
# Coordination Sequence:
#
# PCOD8014529 Si02
#       8
#     2   2   2   2   2   2   2   2
#     4  11  24  39  62  95 135 170 207 259 331 402
#     4  11  25  43  63  94 133 173 220 272 322 389
#     4  12  24  40  68  95 130 175 211 272 334 382
#     4  10  22  44  71  91 124 173 228 276 325 373
#     4  11  23  41  64  99 134 169 221 262 327 400
#     4  11  19  36  58  93 128 162 211 264 315 389
#     4  10  21  41  68  91 128 174 215 275 322 379
#     4  12  21  36  59  95 130 167 218 260 317 398
#
# _framework density 22.855919
#
# number of rings (size 3 to 8) (size 9 to 14) (size 15 to 20)
#    0.000    1.000    3.750    5.625    1.750    1.000 
#    0.000    0.000    0.000    5.250    0.000    0.000 
#    0.000    0.000    0.000    0.000    0.000    0.000 
#
# Total GULP energy -198210.488410 kJ/mol
# GULP energy per Si atom -12388.155526 kJ/mol
# Density = 2.280390 g / cm^3
# Si number density = 22.855919 Si / 1000 Ang^3
#
#
#
# Elastic Constant Matrix: (Units=GPa)
#
#
# Indices 1 2 3 4 5 6 
#
# 1 97.6206 6.2625 28.0437 -14.4142 14.2332 6.6833
# 2 6.2625 29.6103 14.6259 -11.4253 3.7027 6.2418
# 3 28.0437 14.6259 107.6510 -14.8035 25.1498 -5.2849
# 4 -14.4142 -11.4253 -14.8035 32.2611 -6.6556 -5.2266
# 5 14.2332 3.7027 25.1498 -6.6556 46.1398 0.7150
# 6 6.6833 6.2418 -5.2849 -5.2266 0.7150 43.0413
#
#
#
# Elastic Compliance Matrix: (Units=1/GPa)
#
#
# Indices 1 2 3 4 5 6 
#
# 1 0.011811 0.000703 -0.002296 0.003807 -0.001873 -0.001724
# 2 0.000703 0.041630 -0.004596 0.012265 0.000798 -0.005234
# 3 -0.002296 -0.004596 0.012209 0.002327 -0.005287 0.002892
# 4 0.003807 0.012265 0.002327 0.038977 0.002155 0.002613
# 5 -0.001873 0.000798 -0.005287 0.002155 0.025389 -0.000634
# 6 -0.001724 -0.005234 0.002892 0.002613 -0.000634 0.024943
#
#
# Mechanical properties :
#
#
# Convention : Reuss Voigt Hill
#
# Bulk Modulus (GPa) = 18.77180 36.97180 27.87180
# Shear Modulus (GPa) = 27.01308 36.68511 31.84910
#
# Velocity S-wave (km/s) = 3.44159 4.01067 3.73697
# Velocity P-wave (km/s) = 4.90139 6.13664 5.55347
#
# Compressibility (1/GPa) = 0.05327139
#
# Stress axis : x y z
#
# Youngs Moduli (GPa) = 84.66362 24.02139 81.90728
#
# Poissons Ratio (x) = -0.01688 0.18807
# Poissons Ratio (y) = -0.05949 0.37643
# Poissons Ratio (z) = 0.19440 0.11040
#
# Static dielectric constant tensor:
#      x y z
#    x 4.558570 0.457190 -0.020690 
#    y 0.457190 3.129000 0.258050 
#    z -0.020690 0.258050 3.891530 
# 
# 
# High freq. dielectric constant tensor:
#      x y z
#    x 1.920550 0.010370 0.000740 
#    y 0.010370 1.888230 -0.011060 
#    z 0.000740 -0.011060 1.893780 
# 
# From -- ./inp_files/239042.got.cif
#   From: 2010.06.25/outbox.cif.g09.slc.cpg/sg2_120_cif.got.tgz:239042.got - 2010.06.27 13:26:56.
