data_PCOD8014873
_publ_section_title
;
Structure prediction by ZEFSAII (Michael W. Deem and Ramdas Pophale) SiO2 
 PCOD8014873
Probable space group: P -1
;
_chemical_formula_sum "Si O2"
_cell_formula_units_Z 16
_cell_length_a 12.799840
_cell_length_b 9.645905
_cell_length_c 12.655834
_cell_angle_alpha 47.439132
_cell_angle_beta 44.358935
_cell_angle_gamma 64.646071
_cell_volume 800.001840
_symmetry_space_group_name_H-M "P -1"
_symmetry_group_IT_number 2
_symmetry_cell_setting 'triclinic'
loop_
_space_group_symop_operation_xyz
x,y,z
-x,-y,-z
loop_
_atom_site_type_symbol
_atom_site_label
_atom_site_fract_x
_atom_site_fract_y
_atom_site_fract_z
Si Si1 0.098296 0.330650 0.994044
Si Si2 0.667628 0.073055 0.161115
Si Si3 0.023449 0.960789 0.124675
Si Si4 0.350414 0.229707 0.003392
Si Si5 0.724070 0.747668 0.447928
Si Si6 0.664345 0.483957 0.435231
Si Si7 0.522792 0.415739 0.141410
Si Si8 0.430510 0.914861 0.252044
O O1 0.218789 0.397020 0.784444
O O2 0.183870 0.270697 0.067869
O O3 0.000000 0.500000 0.000000
O O4 0.997917 0.144803 0.118540
O O5 0.657015 0.281485 0.108538
O O6 0.683235 0.933150 0.319588
O O7 0.512976 0.010107 0.244951
O O8 0.803920 0.087612 0.968784
O O9 0.899645 0.787271 0.337007
O O10 0.000000 0.000000 0.000000
O O11 0.335485 0.064710 0.186693
O O12 0.435138 0.419989 0.890425
O O13 0.445511 0.165424 0.870164
O O14 0.691054 0.565950 0.490829
O O15 0.627528 0.709274 0.643832
O O16 0.500000 0.500000 0.500000
O O17 0.688137 0.261658 0.535437
O O18 0.500000 0.500000 0.000000
#
# Coordination Sequence:
#
# PCOD8014873 Si02
#       8
#     2   2   2   2   2   2   2   2
#     4  12  25  41  68  99 130 166 216 272 319 386
#     4  11  21  40  67  95 128 167 214 272 316 384
#     4  10  21  42  62  92 133 170 208 254 332 386
#     4  11  23  41  64  93 129 173 209 263 334 371
#     4  11  22  39  66  93 129 170 214 265 322 386
#     4  12  19  40  67 100 122 162 227 265 310 383
#     4  12  25  40  62  99 131 160 220 273 324 371
#     4  11  21  39  70  91 127 167 219 266 319 383
#
# _framework density 19.999953000000001
#
# number of rings (size 3 to 8) (size 9 to 14) (size 15 to 20)
#    0.000    0.750    8.750    0.375    3.500    1.000 
#    0.000    1.250    0.000    0.000    0.000    0.000 
#    0.000    0.000    0.000    0.000    0.000    0.000 
#
# Total GULP energy -198382.848948 kJ/mol
# GULP energy per Si atom -12398.928059 kJ/mol
# Density = 1.995443 g / cm^3
# Si number density = 19.999953 Si / 1000 Ang^3
#
#
#
# Elastic Constant Matrix: (Units=GPa)
#
#
# Indices 1 2 3 4 5 6 
#
# 1 95.5833 31.6673 49.3421 -8.2018 -3.3764 -2.1478
# 2 31.6673 103.1236 38.0578 -9.4782 -9.0281 -6.1962
# 3 49.3421 38.0578 98.7134 -10.5564 0.3495 1.5045
# 4 -8.2018 -9.4782 -10.5564 32.4456 0.9172 1.9954
# 5 -3.3764 -9.0281 0.3495 0.9172 30.6436 -9.3831
# 6 -2.1478 -6.1962 1.5045 1.9954 -9.3831 32.0792
#
#
#
# Elastic Compliance Matrix: (Units=1/GPa)
#
#
# Indices 1 2 3 4 5 6 
#
# 1 0.014585 -0.001767 -0.006537 0.000918 0.001543 0.001336
# 2 -0.001767 0.012415 -0.003807 0.001584 0.004593 0.003703
# 3 -0.006537 -0.003807 0.015181 0.002438 -0.002978 -0.002908
# 4 0.000918 0.001584 0.002438 0.032467 -0.001068 -0.002079
# 5 0.001543 0.004593 -0.002978 -0.001068 0.037991 0.012309
# 6 0.001336 0.003703 -0.002908 -0.002079 0.012309 0.035844
#
#
# Mechanical properties :
#
#
# Convention : Reuss Voigt Hill
#
# Bulk Modulus (GPa) = 55.67786 59.50609 57.59197
# Shear Modulus (GPa) = 27.98151 30.92389 29.45270
#
# Velocity S-wave (km/s) = 3.74448 3.93644 3.84166
# Velocity P-wave (km/s) = 6.82600 7.10482 6.96680
#
# Compressibility (1/GPa) = 0.01796046
#
# Stress axis : x y z
#
# Youngs Moduli (GPa) = 68.56257 80.55053 65.87190
#
# Poissons Ratio (x) = 0.14230 0.43060
# Poissons Ratio (y) = 0.12112 0.25074
# Poissons Ratio (z) = 0.44819 0.30662
#
# Static dielectric constant tensor:
#      x y z
#    x 3.618840 0.080780 -0.011960 
#    y 0.080780 3.690960 -0.297080 
#    z -0.011960 -0.297080 3.689050 
# 
# 
# High freq. dielectric constant tensor:
#      x y z
#    x 1.772160 0.015030 -0.002010 
#    y 0.015030 1.786680 -0.014330 
#    z -0.002010 -0.014330 1.771610 
# 
# From -- ./inp_files/189457.got.cif
#   From: 2010.06.25/outbox.cif.g09.slc.cpg/sg2_95_cif.got.tgz:189457.got - 2010.06.27 13:26:56.
