data_PCOD8014472
_publ_section_title
;
Structure prediction by ZEFSAII (Michael W. Deem and Ramdas Pophale) SiO2 
 PCOD8014472
Probable space group: P -1
;
_chemical_formula_sum "Si O2"
_cell_formula_units_Z 16
_cell_length_a 12.265916
_cell_length_b 20.950003
_cell_length_c 17.794372
_cell_angle_alpha 18.970295
_cell_angle_beta 39.277263
_cell_angle_gamma 29.460012
_cell_volume 695.415515
_symmetry_space_group_name_H-M "P -1"
_symmetry_group_IT_number 2
_symmetry_cell_setting 'triclinic'
loop_
_space_group_symop_operation_xyz
x,y,z
-x,-y,-z
loop_
_atom_site_type_symbol
_atom_site_label
_atom_site_fract_x
_atom_site_fract_y
_atom_site_fract_z
Si Si1 0.495992 0.307660 0.009170
Si Si2 0.814035 0.598210 0.292619
Si Si3 0.909547 0.173024 0.549279
Si Si4 0.230980 0.751509 0.195719
Si Si5 0.216594 0.345520 0.002607
Si Si6 0.643819 0.127845 0.855967
Si Si7 0.016281 0.821116 0.751925
Si Si8 0.259160 0.095363 0.549556
O O1 0.581421 0.414489 0.788141
O O2 0.436351 0.170257 0.137410
O O3 0.274819 0.532663 0.928333
O O4 0.704209 0.080765 0.204533
O O5 0.796041 0.439374 0.540164
O O6 0.624077 0.714044 0.198540
O O7 0.066859 0.404298 0.332792
O O8 0.793122 0.819031 0.101449
O O9 0.157723 0.050624 0.584511
O O10 0.778975 0.446884 0.271115
O O11 0.733544 0.243673 0.630356
O O12 0.969311 0.940589 0.725711
O O13 0.320281 0.844777 0.106028
O O14 0.000000 0.000000 0.000000
O O15 0.192483 0.178918 0.145558
O O16 0.000000 0.500000 0.000000
O O17 0.000000 0.000000 0.500000
O O18 0.500000 0.000000 0.500000
#
# Coordination Sequence:
#
# PCOD8014472 Si02
#       8
#     2   2   2   2   2   2   2   2
#     4  11  24  45  68 102 142 193 229 290 369 425
#     4  11  26  49  73 107 144 188 252 297 355 433
#     4  12  24  45  73 106 143 187 240 298 358 432
#     4  12  24  50  71 103 151 183 238 302 365 430
#     4  10  21  41  67  97 138 179 234 290 352 415
#     4  11  27  45  79 111 133 197 248 300 359 421
#     4  11  24  41  69 107 137 181 241 293 353 427
#     4  12  27  47  69 104 152 194 229 296 372 429
#
# _framework density 23.007826999999999
#
# number of rings (size 3 to 8) (size 9 to 14) (size 15 to 20)
#    0.000    0.750    5.000    2.625    5.250    2.000 
#    2.250    0.000    0.000    0.000    0.000    0.000 
#    0.000    0.000    0.000    0.000    0.000    0.000 
#
# Total GULP energy -198335.135942 kJ/mol
# GULP energy per Si atom -12395.945996 kJ/mol
# Density = 2.295546 g / cm^3
# Si number density = 23.007827 Si / 1000 Ang^3
#
#
#
# Elastic Constant Matrix: (Units=GPa)
#
#
# Indices 1 2 3 4 5 6 
#
# 1 111.6674 2.6688 33.3338 -12.3948 10.1682 5.7813
# 2 2.6688 95.1356 7.3915 1.2207 6.0345 7.1611
# 3 33.3338 7.3915 97.1937 -6.2076 -0.9993 4.4803
# 4 -12.3948 1.2207 -6.2076 33.0949 -2.1369 4.7182
# 5 10.1682 6.0345 -0.9993 -2.1369 39.2798 -3.4297
# 6 5.7813 7.1611 4.4803 4.7182 -3.4297 38.5748
#
#
#
# Elastic Compliance Matrix: (Units=1/GPa)
#
#
# Indices 1 2 3 4 5 6 
#
# 1 0.010714 0.000249 -0.003413 0.003453 -0.002879 -0.001934
# 2 0.000249 0.010856 -0.000853 -0.000295 -0.001952 -0.002091
# 3 -0.003413 -0.000853 0.011642 0.001122 0.001310 -0.000703
# 4 0.003453 -0.000295 0.001122 0.032409 0.000550 -0.004508
# 5 -0.002879 -0.001952 0.001310 0.000550 0.026825 0.002960
# 6 -0.001934 -0.002091 -0.000703 -0.004508 0.002960 0.027498
#
#
# Mechanical properties :
#
#
# Convention : Reuss Voigt Hill
#
# Bulk Modulus (GPa) = 39.72197 43.42054 41.57125
# Shear Modulus (GPa) = 36.66474 39.56341 38.11408
#
# Velocity S-wave (km/s) = 3.99629 4.15126 4.07451
# Velocity P-wave (km/s) = 6.21256 6.47227 6.34374
#
# Compressibility (1/GPa) = 0.02517499
#
# Stress axis : x y z
#
# Youngs Moduli (GPa) = 93.33853 92.11784 85.89773
#
# Poissons Ratio (x) = -0.02290 0.29319
# Poissons Ratio (y) = -0.02320 0.07330
# Poissons Ratio (z) = 0.31859 0.07861
#
# Static dielectric constant tensor:
#      x y z
#    x 4.766930 0.007920 -0.074360 
#    y 0.007920 4.418250 -0.045540 
#    z -0.074360 -0.045540 4.234120 
# 
# 
# High freq. dielectric constant tensor:
#      x y z
#    x 1.917420 0.002790 0.009120 
#    y 0.002790 1.928530 0.013890 
#    z 0.009120 0.013890 1.899720 
# 
# From -- ./inp_files/570677.got.cif
#   From: 2010.06.25/outbox.cif.g09.slc.cpg/sg2_286_cif.got.tgz:570677.got - 2010.06.27 13:26:56.
