data_PCOD8014138
_publ_section_title
;
Structure prediction by ZEFSAII (Michael W. Deem and Ramdas Pophale) SiO2 
 PCOD8014138
Probable space group: P -1
;
_chemical_formula_sum "Si O2"
_cell_formula_units_Z 16
_cell_length_a 16.773930
_cell_length_b 16.391593
_cell_length_c 16.293121
_cell_angle_alpha 17.616813
_cell_angle_beta 38.632846
_cell_angle_gamma 36.007455
_cell_volume 795.770060
_symmetry_space_group_name_H-M "P -1"
_symmetry_group_IT_number 2
_symmetry_cell_setting 'triclinic'
loop_
_space_group_symop_operation_xyz
x,y,z
-x,-y,-z
loop_
_atom_site_type_symbol
_atom_site_label
_atom_site_fract_x
_atom_site_fract_y
_atom_site_fract_z
Si Si1 0.327651 0.285313 0.515333
Si Si2 0.868429 0.616086 0.938631
Si Si3 0.181894 0.894270 0.615512
Si Si4 0.436416 0.155214 0.986017
Si Si5 0.365550 0.710334 0.949282
Si Si6 0.883046 0.120325 0.130607
Si Si7 0.971761 0.497608 0.430448
Si Si8 0.481405 0.681490 0.528842
O O1 0.183195 0.307430 0.649085
O O2 0.406440 0.389220 0.423303
O O3 0.398616 0.960626 0.734521
O O4 0.305560 0.517170 0.238854
O O5 0.887602 0.823810 0.653283
O O6 0.868186 0.339743 0.158415
O O7 0.728281 0.758847 0.966298
O O8 0.000000 0.500000 0.000000
O O9 0.138995 0.919144 0.719164
O O10 0.342790 0.799451 0.576738
O O11 0.484562 0.423162 0.712300
O O12 0.500000 0.000000 0.000000
O O13 0.501752 0.930997 0.219512
O O14 0.253445 0.861206 0.826248
O O15 0.500000 0.500000 0.000000
O O16 0.005894 0.832801 0.287325
O O17 0.929513 0.389831 0.813096
O O18 0.000000 0.500000 0.500000
#
# Coordination Sequence:
#
# PCOD8014138 Si02
#       8
#     2   2   2   2   2   2   2   2
#     4  12  24  41  61  89 126 163 213 249 315 367
#     4  10  21  41  65  91 125 158 197 251 316 374
#     4  10  22  40  64  90 122 158 200 255 308 355
#     4  10  21  41  66  92 123 162 199 248 316 380
#     4  12  24  38  63  91 119 163 212 263 300 363
#     4  12  23  41  62  89 123 162 216 250 308 369
#     4  12  23  42  62  83 128 175 201 256 312 365
#     4  10  22  41  64  90 125 159 199 258 307 362
#
# _framework density 20.106310000000001
#
# number of rings (size 3 to 8) (size 9 to 14) (size 15 to 20)
#    0.000    1.000    2.500    4.500    0.000    3.000 
#    6.750    0.000    0.000    0.000    0.000    0.000 
#    0.000    0.000    0.000    0.000    0.000    0.000 
#
# Total GULP energy -198360.359088 kJ/mol
# GULP energy per Si atom -12397.522443 kJ/mol
# Density = 2.006055 g / cm^3
# Si number density = 20.106310 Si / 1000 Ang^3
#
#
#
# Elastic Constant Matrix: (Units=GPa)
#
#
# Indices 1 2 3 4 5 6 
#
# 1 141.9011 62.1524 32.2014 -2.0322 -11.0670 -6.5369
# 2 62.1524 117.2166 34.2519 -5.8998 8.2708 8.7053
# 3 32.2014 34.2519 118.1278 -0.3801 14.0599 0.1957
# 4 -2.0322 -5.8998 -0.3801 48.0031 20.4846 -0.1164
# 5 -11.0670 8.2708 14.0599 20.4846 57.6445 0.6643
# 6 -6.5369 8.7053 0.1957 -0.1164 0.6643 27.1509
#
#
#
# Elastic Compliance Matrix: (Units=1/GPa)
#
#
# Indices 1 2 3 4 5 6 
#
# 1 0.010390 -0.005710 -0.001647 -0.001905 0.003844 0.004242
# 2 -0.005710 0.012851 -0.001742 0.002779 -0.003441 -0.005386
# 3 -0.001647 -0.001742 0.009756 0.000988 -0.002799 0.000164
# 4 -0.001905 0.002779 0.000988 0.025370 -0.010009 -0.001003
# 5 0.003844 -0.003441 -0.002799 -0.010009 0.022802 0.001448
# 6 0.004242 -0.005386 0.000164 -0.001003 0.001448 0.039538
#
#
# Mechanical properties :
#
#
# Convention : Reuss Voigt Hill
#
# Bulk Modulus (GPa) = 67.57998 70.49519 69.03759
# Shear Modulus (GPa) = 34.76153 43.13570 38.94861
#
# Velocity S-wave (km/s) = 4.16250 4.63685 4.40606
# Velocity P-wave (km/s) = 7.53566 7.98777 7.76501
#
# Compressibility (1/GPa) = 0.01479728
#
# Stress axis : x y z
#
# Youngs Moduli (GPa) = 96.24861 77.81793 102.50462
#
# Poissons Ratio (x) = 0.44432 0.16886
# Poissons Ratio (y) = 0.54956 0.17859
# Poissons Ratio (z) = 0.15855 0.13558
#
# Static dielectric constant tensor:
#      x y z
#    x 3.582690 -0.025140 -0.051670 
#    y -0.025140 3.546750 -0.089740 
#    z -0.051670 -0.089740 3.996030 
# 
# 
# High freq. dielectric constant tensor:
#      x y z
#    x 1.782450 0.002310 0.000640 
#    y 0.002310 1.786550 -0.005710 
#    z 0.000640 -0.005710 1.805770 
# 
# From -- ./inp_files/111545.got.cif
#   From: 2010.06.25/outbox.cif.g09.slc.cpg/sg2_56_cif.got.tgz:111545.got - 2010.06.27 13:26:56.
