data_PCOD8014598
_publ_section_title
;
Structure prediction by ZEFSAII (Michael W. Deem and Ramdas Pophale) SiO2 
 PCOD8014598
Probable space group: P -1
;
_chemical_formula_sum "Si O2"
_cell_formula_units_Z 14
_cell_length_a 11.164109
_cell_length_b 7.094233
_cell_length_c 12.194749
_cell_angle_alpha 81.786830
_cell_angle_beta 103.900623
_cell_angle_gamma 52.340705
_cell_volume 687.483246
_symmetry_space_group_name_H-M "P -1"
_symmetry_group_IT_number 2
_symmetry_cell_setting 'triclinic'
loop_
_space_group_symop_operation_xyz
x,y,z
-x,-y,-z
loop_
_atom_site_type_symbol
_atom_site_label
_atom_site_fract_x
_atom_site_fract_y
_atom_site_fract_z
Si Si1 0.785175 0.885020 0.415393
Si Si2 0.142649 0.294253 0.965584
Si Si3 0.401454 0.705183 0.124667
Si Si4 0.431736 0.582491 0.599847
Si Si5 0.721012 0.436124 0.072269
Si Si6 0.142908 0.608109 0.500142
Si Si7 0.073547 0.118697 0.762052
O O1 0.758734 0.691282 0.447757
O O2 0.783188 0.937857 0.280552
O O3 0.966060 0.769828 0.513263
O O4 0.625878 0.142031 0.416921
O O5 0.230928 0.394439 0.937525
O O6 0.054110 0.276617 0.847939
O O7 0.000000 0.500000 0.000000
O O8 0.277084 0.013221 0.072167
O O9 0.429856 0.622870 0.264882
O O10 0.571299 0.585858 0.112732
O O11 0.327588 0.597521 0.054793
O O12 0.500000 0.500000 0.500000
O O13 0.262508 0.638053 0.578320
O O14 0.874985 0.149239 0.173189
O O15 0.102884 0.704026 0.356168
#
# Coordination Sequence:
#
# PCOD8014598 Si02
#       7
#     2   2   2   2   2   2   2
#     4   9  20  40  61  88 118 159 212 240 291 364
#     4  11  25  39  63  95 119 155 202 260 313 349
#     4  10  23  42  59  93 120 163 207 241 304 366
#     4  12  25  38  61  94 128 162 196 250 312 357
#     4  10  21  41  69  85 121 163 205 254 291 363
#     4   9  21  38  63  89 119 162 203 246 292 360
#     4   9  20  38  65  90 114 159 208 247 296 356
#
# _framework density 20.364132000000001
#
# number of rings (size 3 to 8) (size 9 to 14) (size 15 to 20)
#    0.857    1.143    1.429    0.857    2.000    8.571 
#    0.000    0.000    0.000    0.000    0.000    0.000 
#    0.000    0.000    0.000    0.000    0.000    0.000 
#
# Total GULP energy -173530.990672 kJ/mol
# GULP energy per Si atom -12395.070762 kJ/mol
# Density = 2.031778 g / cm^3
# Si number density = 20.364132 Si / 1000 Ang^3
#
#
#
# Elastic Constant Matrix: (Units=GPa)
#
#
# Indices 1 2 3 4 5 6 
#
# 1 21.4129 11.5907 2.3629 -7.2662 -1.5166 4.0784
# 2 11.5907 140.4588 50.5909 -12.7986 -7.1486 -8.8454
# 3 2.3629 50.5909 127.2353 -9.1728 0.6710 -3.1261
# 4 -7.2662 -12.7986 -9.1728 31.6582 -4.4321 -11.1780
# 5 -1.5166 -7.1486 0.6710 -4.4321 20.4163 8.5056
# 6 4.0784 -8.8454 -3.1261 -11.1780 8.5056 23.9678
#
#
#
# Elastic Compliance Matrix: (Units=1/GPa)
#
#
# Indices 1 2 3 4 5 6 
#
# 1 0.054285 -0.004212 0.001029 0.008877 0.008410 -0.009501
# 2 -0.004212 0.009403 -0.003270 0.003882 0.001888 0.004901
# 3 0.001029 -0.003270 0.009310 0.001832 -0.001482 0.001213
# 4 0.008877 0.003882 0.001832 0.042895 0.003367 0.018972
# 5 0.008410 0.001888 -0.001482 0.003367 0.059588 -0.020503
# 6 -0.009501 0.004901 0.001213 0.018972 -0.020503 0.061430
#
#
# Mechanical properties :
#
#
# Convention : Reuss Voigt Hill
#
# Bulk Modulus (GPa) = 16.64115 46.46623 31.55369
# Shear Modulus (GPa) = 18.52887 30.17931 24.35409
#
# Velocity S-wave (km/s) = 3.01969 3.85383 3.46197
# Velocity P-wave (km/s) = 4.51083 6.53222 5.61326
#
# Compressibility (1/GPa) = 0.06009200
#
# Stress axis : x y z
#
# Youngs Moduli (GPa) = 18.42139 106.34346 107.40620
#
# Poissons Ratio (x) = 0.44787 -0.11048
# Poissons Ratio (y) = 0.07758 0.35127
# Poissons Ratio (z) = -0.01895 0.34779
#
# Static dielectric constant tensor:
#      x y z
#    x 3.403670 0.117280 0.085000 
#    y 0.117280 3.873370 -0.125040 
#    z 0.085000 -0.125040 3.714490 
# 
# 
# High freq. dielectric constant tensor:
#      x y z
#    x 1.767270 0.005280 0.004630 
#    y 0.005280 1.809950 -0.010940 
#    z 0.004630 -0.010940 1.796010 
# 
# From -- ./inp_files/409201.got.cif
#   From: 2010.06.25/outbox.cif.g09.slc.cpg/sg2_205_cif.got.tgz:409201.got - 2010.06.27 13:26:56.
