data_PCOD8014073
_publ_section_title
;
Structure prediction by ZEFSAII (Michael W. Deem and Ramdas Pophale) SiO2 
 PCOD8014073
Probable space group: P -1
;
_chemical_formula_sum "Si O2"
_cell_formula_units_Z 16
_cell_length_a 11.865797
_cell_length_b 14.950068
_cell_length_c 9.146485
_cell_angle_alpha 83.043274
_cell_angle_beta 75.642780
_cell_angle_gamma 29.794643
_cell_volume 765.988433
_symmetry_space_group_name_H-M "P -1"
_symmetry_group_IT_number 2
_symmetry_cell_setting 'triclinic'
loop_
_space_group_symop_operation_xyz
x,y,z
-x,-y,-z
loop_
_atom_site_type_symbol
_atom_site_label
_atom_site_fract_x
_atom_site_fract_y
_atom_site_fract_z
Si Si1 0.584605 0.092986 0.899264
Si Si2 0.771439 0.522725 0.193951
Si Si3 0.985637 0.375234 0.858415
Si Si4 0.506835 0.972618 0.790358
Si Si5 0.030053 0.884948 0.929865
Si Si6 0.069739 0.412558 0.343017
Si Si7 0.555050 0.474842 0.317618
Si Si8 0.270324 0.618206 0.133565
O O1 0.390114 0.288460 0.851882
O O2 0.636903 0.979163 0.787367
O O3 0.806175 0.007254 0.881476
O O4 0.489543 0.102834 0.066172
O O5 0.878035 0.470890 0.329918
O O6 0.630947 0.524768 0.249527
O O7 0.983065 0.369008 0.037397
O O8 0.920232 0.518583 0.799140
O O9 0.772183 0.460173 0.840578
O O10 0.248024 0.165948 0.766498
O O11 0.683626 0.804155 0.654506
O O12 0.255244 0.724351 0.776517
O O13 0.045681 0.808357 0.079992
O O14 0.000000 0.000000 0.000000
O O15 0.000000 0.500000 0.500000
O O16 0.500000 0.500000 0.500000
O O17 0.301001 0.629167 0.289056
O O18 0.500000 0.500000 0.000000
#
# Coordination Sequence:
#
# PCOD8014073 Si02
#       8
#     2   2   2   2   2   2   2   2
#     4  11  21  39  70 100 124 169 229 286 320 399
#     4  12  22  45  69  96 130 179 227 273 338 408
#     4  12  22  44  71 100 128 174 234 275 326 406
#     4  11  22  40  69  98 132 173 223 275 337 391
#     4  11  22  39  67 100 127 165 231 282 329 398
#     4  12  28  43  65 101 139 178 218 281 346 400
#     4  11  25  44  66  94 137 183 220 278 353 404
#     4  10  21  41  64  96 126 170 220 273 326 396
#
# _framework density 20.888043
#
# number of rings (size 3 to 8) (size 9 to 14) (size 15 to 20)
#    0.000    0.750    6.250    3.375    3.500    0.500 
#    0.000    2.500    0.000    0.000    0.000    0.000 
#    0.000    0.000    0.000    0.000    0.000    0.000 
#
# Total GULP energy -198227.147687 kJ/mol
# GULP energy per Si atom -12389.196730 kJ/mol
# Density = 2.084050 g / cm^3
# Si number density = 20.888043 Si / 1000 Ang^3
#
#
#
# Elastic Constant Matrix: (Units=GPa)
#
#
# Indices 1 2 3 4 5 6 
#
# 1 127.8654 33.3732 34.5861 13.8571 21.3046 -5.5799
# 2 33.3732 107.5345 27.7012 18.0991 7.7645 -1.6889
# 3 34.5861 27.7012 105.3294 7.5946 26.7148 -0.3388
# 4 13.8571 18.0991 7.5946 29.0912 3.7059 7.5682
# 5 21.3046 7.7645 26.7148 3.7059 29.2374 -7.3464
# 6 -5.5799 -1.6889 -0.3388 7.5682 -7.3464 39.7765
#
#
#
# Elastic Compliance Matrix: (Units=1/GPa)
#
#
# Indices 1 2 3 4 5 6 
#
# 1 0.009816 -0.001879 -0.001283 -0.002785 -0.004900 0.000911
# 2 -0.001879 0.011453 -0.002374 -0.006276 0.001724 0.001715
# 3 -0.001283 -0.002374 0.013355 0.000664 -0.011321 -0.002384
# 4 -0.002785 -0.006276 0.000664 0.042535 -0.004718 -0.009616
# 5 -0.004900 0.001724 -0.011321 -0.004718 0.050656 0.009543
# 6 0.000911 0.001715 -0.002384 -0.009616 0.009543 0.028913
#
#
# Mechanical properties :
#
#
# Convention : Reuss Voigt Hill
#
# Bulk Modulus (GPa) = 42.45784 59.11672 50.78728
# Shear Modulus (GPa) = 28.46549 35.95893 32.21221
#
# Velocity S-wave (km/s) = 3.69557 4.15361 3.93126
# Velocity P-wave (km/s) = 6.21129 7.16704 6.70621
#
# Compressibility (1/GPa) = 0.02355278
#
# Stress axis : x y z
#
# Youngs Moduli (GPa) = 101.87391 87.31358 74.87591
#
# Poissons Ratio (x) = 0.16408 0.09603
# Poissons Ratio (y) = 0.19145 0.17776
# Poissons Ratio (z) = 0.13065 0.20729
#
# Static dielectric constant tensor:
#      x y z
#    x 4.208970 0.041270 0.198970 
#    y 0.041270 4.139370 -0.194830 
#    z 0.198970 -0.194830 3.659170 
# 
# 
# High freq. dielectric constant tensor:
#      x y z
#    x 1.839940 0.002980 0.015430 
#    y 0.002980 1.825750 -0.004680 
#    z 0.015430 -0.004680 1.780460 
# 
# From -- ./inp_files/273117.got.cif
#   From: 2010.06.25/outbox.cif.g09.slc.cpg/sg2_137_cif.got.tgz:273117.got - 2010.06.27 13:26:56.
