data_PCOD8014685
_publ_section_title
;
Structure prediction by ZEFSAII (Michael W. Deem and Ramdas Pophale) SiO2 
 PCOD8014685
Probable space group: P -1
;
_chemical_formula_sum "Si O2"
_cell_formula_units_Z 12
_cell_length_a 11.291702
_cell_length_b 8.490986
_cell_length_c 9.329971
_cell_angle_alpha 49.981758
_cell_angle_beta 59.193198
_cell_angle_gamma 54.347361
_cell_volume 542.938777
_symmetry_space_group_name_H-M "P -1"
_symmetry_group_IT_number 2
_symmetry_cell_setting 'triclinic'
loop_
_space_group_symop_operation_xyz
x,y,z
-x,-y,-z
loop_
_atom_site_type_symbol
_atom_site_label
_atom_site_fract_x
_atom_site_fract_y
_atom_site_fract_z
Si Si1 0.234590 0.592144 0.258918
Si Si2 0.933442 0.993094 0.700135
Si Si3 0.524975 0.649367 0.136434
Si Si4 0.674070 0.916914 0.470875
Si Si5 0.800888 0.246016 0.126411
Si Si6 0.646503 0.996856 0.757889
O O1 0.120018 0.760547 0.342328
O O2 0.398930 0.596394 0.160824
O O3 0.242998 0.348013 0.438003
O O4 0.174709 0.653464 0.098289
O O5 0.791708 0.921479 0.815137
O O6 0.000000 0.000000 0.500000
O O7 0.048758 0.816789 0.838115
O O8 0.669314 0.424779 0.197007
O O9 0.469164 0.758680 0.263026
O O10 0.566101 0.823138 0.912973
O O11 0.697167 0.008008 0.558605
O O12 0.500000 0.000000 0.500000
O O13 0.757155 0.031742 0.247975
#
# Coordination Sequence:
#
# PCOD8014685 Si02
#       6
#     2   2   2   2   2   2
#     4  11  24  45  68  97 136 168 219 279 322 385
#     4  11  25  45  65  96 136 178 218 264 329 399
#     4  10  21  41  70  93 130 170 217 272 324 378
#     4  12  23  39  70  99 129 170 223 268 328 385
#     4  12  23  41  70  99 131 174 220 267 331 387
#     4  10  22  42  64  97 131 172 216 267 325 388
#
# _framework density 22.101939000000002
#
# number of rings (size 3 to 8) (size 9 to 14) (size 15 to 20)
#    0.000    1.000    5.000    2.000    0.000    3.333 
#    0.000    0.000    0.000    0.000    0.000    0.000 
#    0.000    0.000    0.000    0.000    0.000    0.000 
#
# Total GULP energy -148837.304767 kJ/mol
# GULP energy per Si atom -12403.108731 kJ/mol
# Density = 2.205163 g / cm^3
# Si number density = 22.101939 Si / 1000 Ang^3
#
#
#
# Elastic Constant Matrix: (Units=GPa)
#
#
# Indices 1 2 3 4 5 6 
#
# 1 100.6279 48.1549 11.4808 -9.9281 13.8029 -9.3362
# 2 48.1549 162.0126 50.5199 -3.1792 16.3406 -9.9342
# 3 11.4808 50.5199 53.0717 -15.4295 1.8137 2.2208
# 4 -9.9281 -3.1792 -15.4295 36.2700 1.7957 -1.7064
# 5 13.8029 16.3406 1.8137 1.7957 33.9037 -5.1239
# 6 -9.3362 -9.9342 2.2208 -1.7064 -5.1239 31.6463
#
#
#
# Elastic Compliance Matrix: (Units=1/GPa)
#
#
# Indices 1 2 3 4 5 6 
#
# 1 0.012624 -0.003927 0.002299 0.004348 -0.003293 0.002031
# 2 -0.003927 0.011109 -0.011068 -0.004568 -0.002552 0.002446
# 3 0.002299 -0.011068 0.032906 0.013397 0.001298 -0.004173
# 4 0.004348 -0.004568 0.013397 0.034180 -0.002031 0.000423
# 5 -0.003293 -0.002552 0.001298 -0.002031 0.032603 0.003306
# 6 0.002031 0.002446 -0.004173 0.000423 0.003306 0.033817
#
#
# Mechanical properties :
#
#
# Convention : Reuss Voigt Hill
#
# Bulk Modulus (GPa) = 32.00421 59.55815 45.78118
# Shear Modulus (GPa) = 25.90032 34.06777 29.98404
#
# Velocity S-wave (km/s) = 3.42695 3.93032 3.68723
# Velocity P-wave (km/s) = 5.49276 6.89942 6.23588
#
# Compressibility (1/GPa) = 0.03124589
#
# Stress axis : x y z
#
# Youngs Moduli (GPa) = 79.21636 90.01999 30.38925
#
# Poissons Ratio (x) = 0.35351 -0.06986
# Poissons Ratio (y) = 0.31108 0.33636
# Poissons Ratio (z) = -0.18211 0.99637
#
# Static dielectric constant tensor:
#      x y z
#    x 4.077020 0.008130 -0.016040 
#    y 0.008130 4.218170 0.011890 
#    z -0.016040 0.011890 3.714080 
# 
# 
# High freq. dielectric constant tensor:
#      x y z
#    x 1.875350 -0.000010 -0.002780 
#    y -0.000010 1.881890 0.001450 
#    z -0.002780 0.001450 1.854280 
# 
# From -- ./inp_files/149839.got.cif
#   From: 2010.06.25/outbox.cif.g09.slc.cpg/sg2_75_cif.got.tgz:149839.got - 2010.06.27 13:26:56.
