data_PCOD8014866
_publ_section_title
;
Structure prediction by ZEFSAII (Michael W. Deem and Ramdas Pophale) SiO2 
 PCOD8014866
Probable space group: P -1
;
_chemical_formula_sum "Si O2"
_cell_formula_units_Z 16
_cell_length_a 11.226120
_cell_length_b 8.804334
_cell_length_c 14.406358
_cell_angle_alpha 53.632432
_cell_angle_beta 67.364113
_cell_angle_gamma 39.649967
_cell_volume 724.465725
_symmetry_space_group_name_H-M "P -1"
_symmetry_group_IT_number 2
_symmetry_cell_setting 'triclinic'
loop_
_space_group_symop_operation_xyz
x,y,z
-x,-y,-z
loop_
_atom_site_type_symbol
_atom_site_label
_atom_site_fract_x
_atom_site_fract_y
_atom_site_fract_z
Si Si1 0.966076 0.972365 0.915735
Si Si2 0.725245 0.461107 0.446962
Si Si3 0.621205 0.153736 0.872366
Si Si4 0.952215 0.443365 0.250826
Si Si5 0.339492 0.863823 0.336893
Si Si6 0.279879 0.247942 0.500694
Si Si7 0.957219 0.719574 0.304149
Si Si8 0.237759 0.405036 0.944703
O O1 0.088659 0.657731 0.967716
O O2 0.748205 0.143449 0.907290
O O3 0.017707 0.083805 0.787830
O O4 0.000000 0.000000 0.000000
O O5 0.884832 0.334140 0.369518
O O6 0.527167 0.756959 0.361386
O O7 0.720266 0.243537 0.539786
O O8 0.768091 0.515532 0.511390
O O9 0.618371 0.258060 0.735226
O O10 0.411624 0.365482 0.899832
O O11 0.697224 0.861716 0.935527
O O12 0.898755 0.691343 0.232527
O O13 0.852249 0.546457 0.144787
O O14 0.176498 0.192958 0.263127
O O15 0.207755 0.142588 0.619891
O O16 0.152791 0.408031 0.388739
O O17 0.500000 0.000000 0.500000
#
# Coordination Sequence:
#
# PCOD8014866 Si02
#       8
#     2   2   2   2   2   2   2   2
#     4  12  26  44  67  97 130 172 213 269 328 391
#     4  10  22  37  58  98 126 161 212 259 310 382
#     4  11  24  44  67  95 126 170 218 268 328 378
#     4  11  21  41  65  93 126 167 207 266 314 377
#     4  11  21  36  64  93 124 162 209 261 318 372
#     4  10  21  42  62  91 135 175 205 259 322 386
#     4  10  24  40  64  97 131 168 219 256 319 394
#     4  11  25  44  68  94 128 166 220 275 319 385
#
# _framework density 22.085241
#
# number of rings (size 3 to 8) (size 9 to 14) (size 15 to 20)
#    0.000    1.250    2.500    3.000    1.750    2.500 
#    2.250    0.000    0.000    0.000    0.000    0.000 
#    0.000    0.000    0.000    0.000    0.000    0.000 
#
# Total GULP energy -198432.191499 kJ/mol
# GULP energy per Si atom -12402.011969 kJ/mol
# Density = 2.203497 g / cm^3
# Si number density = 22.085241 Si / 1000 Ang^3
#
#
#
# Elastic Constant Matrix: (Units=GPa)
#
#
# Indices 1 2 3 4 5 6 
#
# 1 111.8383 23.2456 19.4561 4.4670 15.1445 -18.8927
# 2 23.2456 66.5798 14.0858 8.9514 10.2869 -16.3520
# 3 19.4561 14.0858 59.0411 6.6119 8.1871 -7.2193
# 4 4.4670 8.9514 6.6119 26.6149 3.1647 3.8014
# 5 15.1445 10.2869 8.1871 3.1647 37.0579 6.0946
# 6 -18.8927 -16.3520 -7.2193 3.8014 6.0946 40.0243
#
#
#
# Elastic Compliance Matrix: (Units=1/GPa)
#
#
# Indices 1 2 3 4 5 6 
#
# 1 0.011076 -0.001360 -0.001958 -0.001114 -0.004460 0.005104
# 2 -0.001360 0.019658 -0.001725 -0.006533 -0.005362 0.008515
# 3 -0.001958 -0.001725 0.019179 -0.003872 -0.003066 0.002665
# 4 -0.001114 -0.006533 -0.003872 0.041961 0.000858 -0.008009
# 5 -0.004460 -0.005362 -0.003066 0.000858 0.032526 -0.009883
# 6 0.005104 0.008515 0.002665 -0.008009 -0.009883 0.033619
#
#
# Mechanical properties :
#
#
# Convention : Reuss Voigt Hill
#
# Bulk Modulus (GPa) = 25.10985 39.00381 32.05683
# Shear Modulus (GPa) = 27.56654 32.78419 30.17537
#
# Velocity S-wave (km/s) = 3.53680 3.85702 3.70038
# Velocity P-wave (km/s) = 5.29838 6.12653 5.72744
#
# Compressibility (1/GPa) = 0.03982500
#
# Stress axis : x y z
#
# Youngs Moduli (GPa) = 90.28902 50.87105 52.14122
#
# Poissons Ratio (x) = 0.06920 0.10209
# Poissons Ratio (y) = 0.12281 0.08996
# Poissons Ratio (z) = 0.17678 0.08776
#
# Static dielectric constant tensor:
#      x y z
#    x 4.176490 -0.306010 0.016250 
#    y -0.306010 3.772920 0.119890 
#    z 0.016250 0.119890 4.025010 
# 
# 
# High freq. dielectric constant tensor:
#      x y z
#    x 1.883310 -0.017130 0.003950 
#    y -0.017130 1.849080 0.015550 
#    z 0.003950 0.015550 1.874350 
# 
# From -- ./inp_files/258804.got.cif
#   From: 2010.06.25/outbox.cif.g09.slc.cpg/sg2_130_cif.got.tgz:258804.got - 2010.06.27 13:26:56.
