data_PCOD8014955
_publ_section_title
;
Structure prediction by ZEFSAII (Michael W. Deem and Ramdas Pophale) SiO2 
 PCOD8014955
Probable space group: P -1
;
_chemical_formula_sum "Si O2"
_cell_formula_units_Z 16
_cell_length_a 13.819725
_cell_length_b 18.026100
_cell_length_c 16.944996
_cell_angle_alpha 151.691838
_cell_angle_beta 154.302787
_cell_angle_gamma 45.062896
_cell_volume 786.472888
_symmetry_space_group_name_H-M "P -1"
_symmetry_group_IT_number 2
_symmetry_cell_setting 'triclinic'
loop_
_space_group_symop_operation_xyz
x,y,z
-x,-y,-z
loop_
_atom_site_type_symbol
_atom_site_label
_atom_site_fract_x
_atom_site_fract_y
_atom_site_fract_z
Si Si1 0.589719 0.908933 0.294236
Si Si2 0.328986 0.867035 0.811061
Si Si3 0.959234 0.157647 0.151035
Si Si4 0.731743 0.261564 0.648881
Si Si5 0.751644 0.697087 0.642511
Si Si6 0.447603 0.319066 0.090322
Si Si7 0.009776 0.040926 0.240939
Si Si8 0.960247 0.357604 0.747732
O O1 0.745550 0.090235 0.533157
O O2 0.737830 0.895529 0.466784
O O3 0.551950 0.749377 0.061155
O O4 0.325135 0.883987 0.106551
O O5 0.507000 0.801963 0.926642
O O6 0.113432 0.715211 0.462458
O O7 0.213860 0.960657 0.872353
O O8 0.500000 0.000000 0.000000
O O9 0.130803 0.314940 0.367965
O O10 0.042656 0.178371 0.323375
O O11 0.000000 0.000000 0.000000
O O12 0.482615 0.259411 0.499242
O O13 0.737302 0.263243 0.558241
O O14 0.964490 0.436946 0.011011
O O15 0.668745 0.508807 0.442636
O O16 0.944628 0.847287 0.980321
O O17 0.186955 0.324564 0.918493
#
# Coordination Sequence:
#
# PCOD8014955 Si02
#       8
#     2   2   2   2   2   2   2   2
#     4  12  22  39  65  91 124 165 207 258 312 371
#     4  12  24  40  64  92 130 167 207 253 313 372
#     4  10  21  43  63  89 127 164 209 261 310 361
#     4  10  21  42  64  88 132 163 207 258 312 369
#     4  10  22  44  65  88 127 167 208 265 306 365
#     4  11  24  41  64  94 128 163 209 255 317 365
#     4  11  23  40  63  93 123 164 212 251 310 380
#     4  10  23  41  61  95 127 166 204 259 311 370
#
# _framework density 20.343993999999999
#
# number of rings (size 3 to 8) (size 9 to 14) (size 15 to 20)
#    0.000    1.250    5.000    1.500    3.500    3.500 
#    0.000    3.125    0.000    0.000    0.000    0.000 
#    0.000    0.000    0.000    0.000    0.000    0.000 
#
# Total GULP energy -198371.804589 kJ/mol
# GULP energy per Si atom -12398.237787 kJ/mol
# Density = 2.029769 g / cm^3
# Si number density = 20.343994 Si / 1000 Ang^3
#
#
#
# Elastic Constant Matrix: (Units=GPa)
#
#
# Indices 1 2 3 4 5 6 
#
# 1 134.0403 33.1433 41.1949 -5.9979 2.7977 0.1950
# 2 33.1433 85.3731 39.4920 -12.6907 -2.6093 2.6242
# 3 41.1949 39.4920 81.0921 -7.0697 -11.1230 7.7589
# 4 -5.9979 -12.6907 -7.0697 32.2563 -1.2917 -7.5963
# 5 2.7977 -2.6093 -11.1230 -1.2917 35.7336 -4.1449
# 6 0.1950 2.6242 7.7589 -7.5963 -4.1449 28.0444
#
#
#
# Elastic Compliance Matrix: (Units=1/GPa)
#
#
# Indices 1 2 3 4 5 6 
#
# 1 0.009227 -0.001680 -0.004222 0.000294 -0.002028 0.001041
# 2 -0.001680 0.016189 -0.006819 0.004935 -0.000439 0.001655
# 3 -0.004222 -0.006819 0.018881 -0.000009 0.005271 -0.003780
# 4 0.000294 0.004935 -0.000009 0.035345 0.002716 0.009514
# 5 -0.002028 -0.000439 0.005271 0.002716 0.030292 0.003810
# 6 0.001041 0.001655 -0.003780 0.009514 0.003810 0.039681
#
#
# Mechanical properties :
#
#
# Convention : Reuss Voigt Hill
#
# Bulk Modulus (GPa) = 53.03208 58.68509 55.85858
# Shear Modulus (GPa) = 27.57219 31.65189 29.61204
#
# Velocity S-wave (km/s) = 3.68543 3.94869 3.81933
# Velocity P-wave (km/s) = 6.65088 7.04972 6.85320
#
# Compressibility (1/GPa) = 0.01885651
#
# Stress axis : x y z
#
# Youngs Moduli (GPa) = 108.37615 61.77026 52.96323
#
# Poissons Ratio (x) = 0.10375 0.22359
# Poissons Ratio (y) = 0.18203 0.36116
# Poissons Ratio (z) = 0.45751 0.42122
#
# Static dielectric constant tensor:
#      x y z
#    x 6.078830 0.203840 0.135000 
#    y 0.203840 3.826460 0.036330 
#    z 0.135000 0.036330 4.065990 
# 
# 
# High freq. dielectric constant tensor:
#      x y z
#    x 1.807210 -0.007990 -0.000100 
#    y -0.007990 1.785210 0.005460 
#    z -0.000100 0.005460 1.790380 
# 
# From -- ./inp_files/274909.got.cif
#   From: 2010.06.25/outbox.cif.g09.slc.cpg/sg2_138_cif.got.tgz:274909.got - 2010.06.27 13:26:56.
