data_PCOD8014362
_publ_section_title
;
Structure prediction by ZEFSAII (Michael W. Deem and Ramdas Pophale) SiO2 
 PCOD8014362
Probable space group: P -1
;
_chemical_formula_sum "Si O2"
_cell_formula_units_Z 14
_cell_length_a 11.173224
_cell_length_b 9.136170
_cell_length_c 9.470640
_cell_angle_alpha 45.645206
_cell_angle_beta 99.163469
_cell_angle_gamma 113.088307
_cell_volume 626.116036
_symmetry_space_group_name_H-M "P -1"
_symmetry_group_IT_number 2
_symmetry_cell_setting 'triclinic'
loop_
_space_group_symop_operation_xyz
x,y,z
-x,-y,-z
loop_
_atom_site_type_symbol
_atom_site_label
_atom_site_fract_x
_atom_site_fract_y
_atom_site_fract_z
Si Si1 0.952568 0.268247 0.292568
Si Si2 0.379145 0.505706 0.387565
Si Si3 0.824811 0.938795 0.237894
Si Si4 0.180934 0.449951 0.014603
Si Si5 0.694672 0.074429 0.863686
Si Si6 0.460348 0.637128 0.014116
Si Si7 0.097191 0.966297 0.258821
O O1 0.106471 0.383701 0.197840
O O2 0.870217 0.123383 0.243473
O O3 0.933654 0.126102 0.525217
O O4 0.900143 0.464722 0.169488
O O5 0.500000 0.500000 0.500000
O O6 0.248203 0.299338 0.544152
O O7 0.352699 0.727879 0.256106
O O8 0.419987 0.487385 0.247600
O O9 0.954991 0.932622 0.188156
O O10 0.729832 0.990793 0.074765
O O11 0.324519 0.649957 0.925127
O O12 0.191997 0.229369 0.100507
O O13 0.825256 0.153881 0.734606
O O14 0.572079 0.880360 0.896603
O O15 0.500000 0.500000 0.000000
#
# Coordination Sequence:
#
# PCOD8014362 Si02
#       7
#     2   2   2   2   2   2   2
#     4  10  22  40  72 100 133 175 229 279 331 398
#     4  12  27  46  68  97 138 180 226 271 341 404
#     4  11  24  44  70  98 137 182 221 280 338 401
#     4  10  21  41  67 100 133 174 226 277 336 386
#     4  12  27  45  67 103 141 178 218 282 343 397
#     4  12  24  45  72  96 136 179 224 279 333 402
#     4  11  23  43  69 104 134 173 231 278 333 403
#
# _framework density 22.360073
#
# number of rings (size 3 to 8) (size 9 to 14) (size 15 to 20)
#    0.000    0.857    2.857    5.143    2.000    5.143 
#    0.000    1.429    0.000    0.000    0.000    0.000 
#    0.000    0.000    0.000    0.000    0.000    0.000 
#
# Total GULP energy -173578.570402 kJ/mol
# GULP energy per Si atom -12398.469314 kJ/mol
# Density = 2.230918 g / cm^3
# Si number density = 22.360073 Si / 1000 Ang^3
#
#
#
# Elastic Constant Matrix: (Units=GPa)
#
#
# Indices 1 2 3 4 5 6 
#
# 1 144.4895 57.7967 55.1037 -3.1323 3.2659 -5.9344
# 2 57.7967 89.8569 43.1734 -7.2387 -5.1660 -8.4244
# 3 55.1037 43.1734 81.9333 -19.2282 6.8659 -11.9641
# 4 -3.1323 -7.2387 -19.2282 26.7743 1.4326 -8.5516
# 5 3.2659 -5.1660 6.8659 1.4326 39.1812 -4.5489
# 6 -5.9344 -8.4244 -11.9641 -8.5516 -4.5489 35.2483
#
#
#
# Elastic Compliance Matrix: (Units=1/GPa)
#
#
# Indices 1 2 3 4 5 6 
#
# 1 0.011141 -0.004687 -0.006772 -0.005760 -0.000498 -0.003005
# 2 -0.004687 0.017480 -0.006064 0.000215 0.003970 0.001895
# 3 -0.006772 -0.006064 0.026714 0.020462 -0.004402 0.010874
# 4 -0.005760 0.000215 0.020462 0.057873 -0.002907 0.019692
# 5 -0.000498 0.003970 -0.004402 -0.002907 0.027218 0.002178
# 6 -0.003005 0.001895 0.010874 0.019692 0.002178 0.037067
#
#
# Mechanical properties :
#
#
# Convention : Reuss Voigt Hill
#
# Bulk Modulus (GPa) = 49.28870 69.82526 59.55698
# Shear Modulus (GPa) = 22.79944 30.92114 26.86029
#
# Velocity S-wave (km/s) = 3.19666 3.72273 3.46968
# Velocity P-wave (km/s) = 5.97628 7.05505 6.53795
#
# Compressibility (1/GPa) = 0.02028862
#
# Stress axis : x y z
#
# Youngs Moduli (GPa) = 89.75564 57.20698 37.43363
#
# Poissons Ratio (x) = 0.26811 0.25351
# Poissons Ratio (y) = 0.42066 0.22702
# Poissons Ratio (z) = 0.60786 0.34693
#
# Static dielectric constant tensor:
#      x y z
#    x 4.472990 0.166150 -0.083420 
#    y 0.166150 4.047600 -0.106350 
#    z -0.083420 -0.106350 3.931950 
# 
# 
# High freq. dielectric constant tensor:
#      x y z
#    x 1.903210 0.010040 0.001150 
#    y 0.010040 1.875480 -0.005940 
#    z 0.001150 -0.005940 1.877260 
# 
# From -- ./inp_files/242194.got.cif
#   From: 2010.06.25/outbox.cif.g09.slc.cpg/sg2_122_cif.got.tgz:242194.got - 2010.06.27 13:26:56.
