data_PCOD8014488
_publ_section_title
;
Structure prediction by ZEFSAII (Michael W. Deem and Ramdas Pophale) SiO2 
 PCOD8014488
Probable space group: P -1
;
_chemical_formula_sum "Si O2"
_cell_formula_units_Z 16
_cell_length_a 14.341666
_cell_length_b 9.066130
_cell_length_c 9.605775
_cell_angle_alpha 110.529355
_cell_angle_beta 88.458347
_cell_angle_gamma 42.299670
_cell_volume 701.295285
_symmetry_space_group_name_H-M "P -1"
_symmetry_group_IT_number 2
_symmetry_cell_setting 'triclinic'
loop_
_space_group_symop_operation_xyz
x,y,z
-x,-y,-z
loop_
_atom_site_type_symbol
_atom_site_label
_atom_site_fract_x
_atom_site_fract_y
_atom_site_fract_z
Si Si1 0.954370 0.544655 0.678438
Si Si2 0.593937 0.847834 0.305879
Si Si3 0.179172 0.827132 0.584816
Si Si4 0.831411 0.389817 0.725990
Si Si5 0.823790 0.265627 0.142733
Si Si6 0.771342 0.907752 0.272926
Si Si7 0.257385 0.959885 0.989800
Si Si8 0.473098 0.191193 0.978576
O O1 0.836734 0.557036 0.712813
O O2 0.000000 0.500000 0.500000
O O3 0.097974 0.337404 0.710335
O O4 0.861401 0.828543 0.814147
O O5 0.753632 0.530820 0.197597
O O6 0.630887 0.974588 0.295983
O O7 0.486560 0.902352 0.215167
O O8 0.500000 0.000000 0.500000
O O9 0.231343 0.647657 0.397812
O O10 0.198747 0.702066 0.680971
O O11 0.281546 0.849716 0.585018
O O12 0.999662 0.119669 0.684497
O O13 0.712983 0.528462 0.905297
O O14 0.724919 0.253104 0.079242
O O15 0.000000 0.000000 0.000000
O O16 0.818163 0.874936 0.098416
O O17 0.427905 0.797915 0.962085
O O18 0.500000 0.000000 0.000000
#
# Coordination Sequence:
#
# PCOD8014488 Si02
#       8
#     2   2   2   2   2   2   2   2
#     4  11  23  36  67 100 135 172 229 294 338 391
#     4  12  28  44  69 101 140 178 227 287 345 406
#     4   9  22  41  69  97 129 176 231 281 333 402
#     4  10  21  41  67  99 132 177 230 276 335 407
#     4  11  25  44  69 101 138 176 225 294 347 386
#     4  10  22  44  64  95 132 183 229 275 334 416
#     4  11  24  44  69  95 133 187 229 269 342 418
#     4  12  24  44  68  94 135 185 226 268 333 425
#
# _framework density 22.814927000000001
#
# number of rings (size 3 to 8) (size 9 to 14) (size 15 to 20)
#    0.000    1.250    2.500    1.875    7.000    3.500 
#    2.250    2.500    0.000    0.000    0.000    0.000 
#    0.000    0.000    0.000    0.000    0.000    0.000 
#
# Total GULP energy -198302.427414 kJ/mol
# GULP energy per Si atom -12393.901713 kJ/mol
# Density = 2.276300 g / cm^3
# Si number density = 22.814927 Si / 1000 Ang^3
#
#
#
# Elastic Constant Matrix: (Units=GPa)
#
#
# Indices 1 2 3 4 5 6 
#
# 1 126.2689 12.1124 39.3924 -11.9386 18.7108 6.3205
# 2 12.1124 42.7450 20.6713 -7.2054 10.3100 -0.7557
# 3 39.3924 20.6713 140.9254 -8.0851 14.5214 -1.5300
# 4 -11.9386 -7.2054 -8.0851 28.0455 -3.2548 3.0351
# 5 18.7108 10.3100 14.5214 -3.2548 37.1705 1.1831
# 6 6.3205 -0.7557 -1.5300 3.0351 1.1831 29.3702
#
#
#
# Elastic Compliance Matrix: (Units=1/GPa)
#
#
# Indices 1 2 3 4 5 6 
#
# 1 0.009553 -0.000338 -0.002097 0.003220 -0.003539 -0.002364
# 2 -0.000338 0.027226 -0.002999 0.005285 -0.005756 0.000303
# 3 -0.002097 -0.002999 0.008297 0.000486 -0.001337 0.000810
# 4 0.003220 0.005285 0.000486 0.039054 0.000289 -0.004579
# 5 -0.003539 -0.005756 -0.001337 0.000289 0.030852 -0.000729
# 6 -0.002364 0.000303 0.000810 -0.004579 -0.000729 0.035109
#
#
# Mechanical properties :
#
#
# Convention : Reuss Voigt Hill
#
# Bulk Modulus (GPa) = 29.23460 50.47684 39.85572
# Shear Modulus (GPa) = 29.00864 34.76811 31.88838
#
# Velocity S-wave (km/s) = 3.56964 3.90798 3.74264
# Velocity P-wave (km/s) = 5.46182 6.52193 6.01527
#
# Compressibility (1/GPa) = 0.03420605
#
# Stress axis : x y z
#
# Youngs Moduli (GPa) = 104.67377 36.73018 120.53273
#
# Poissons Ratio (x) = 0.01243 0.25277
# Poissons Ratio (y) = 0.03542 0.36151
# Poissons Ratio (z) = 0.21951 0.11016
#
# Static dielectric constant tensor:
#      x y z
#    x 4.653530 -0.018900 0.118860 
#    y -0.018900 4.094160 0.049780 
#    z 0.118860 0.049780 3.927760 
# 
# 
# High freq. dielectric constant tensor:
#      x y z
#    x 1.908790 0.005320 0.021690 
#    y 0.005320 1.891280 -0.008150 
#    z 0.021690 -0.008150 1.904340 
# 
# From -- ./inp_files/299179.got.cif
#   From: 2010.06.25/outbox.cif.g09.slc.cpg/sg2_150_cif.got.tgz:299179.got - 2010.06.27 13:26:56.
