data_PCOD8014135
_publ_section_title
;
Structure prediction by ZEFSAII (Michael W. Deem and Ramdas Pophale) SiO2 
 PCOD8014135
Probable space group: P -1
;
_chemical_formula_sum "Si O2"
_cell_formula_units_Z 16
_cell_length_a 8.913242
_cell_length_b 9.628254
_cell_length_c 15.757384
_cell_angle_alpha 137.677443
_cell_angle_beta 89.849146
_cell_angle_gamma 68.619689
_cell_volume 763.781974
_symmetry_space_group_name_H-M "P -1"
_symmetry_group_IT_number 2
_symmetry_cell_setting 'triclinic'
loop_
_space_group_symop_operation_xyz
x,y,z
-x,-y,-z
loop_
_atom_site_type_symbol
_atom_site_label
_atom_site_fract_x
_atom_site_fract_y
_atom_site_fract_z
Si Si1 0.105977 0.008053 0.424009
Si Si2 0.497224 0.129179 0.662933
Si Si3 0.371465 0.390323 0.622366
Si Si4 0.055071 0.636938 0.172721
Si Si5 0.422548 0.826747 0.830203
Si Si6 0.780504 0.748552 0.858651
Si Si7 0.704743 0.788964 0.142567
Si Si8 0.013990 0.514602 0.605814
O O1 0.315571 0.910767 0.386422
O O2 0.089176 0.854078 0.280082
O O3 0.998046 0.293594 0.535630
O O4 0.000000 0.000000 0.500000
O O5 0.346870 0.351289 0.704562
O O6 0.448353 0.202639 0.794734
O O7 0.491112 0.884540 0.538838
O O8 0.436473 0.575120 0.695872
O O9 0.191556 0.505804 0.622090
O O10 0.078432 0.493683 0.196268
O O11 0.856214 0.765130 0.194019
O O12 0.208486 0.449754 0.023605
O O13 0.603860 0.748249 0.842438
O O14 0.390314 0.966086 0.803915
O O15 0.263986 0.009261 0.978725
O O16 0.860267 0.748483 0.765643
O O17 0.000000 0.500000 0.500000
#
# Coordination Sequence:
#
# PCOD8014135 Si02
#       8
#     2   2   2   2   2   2   2   2
#     4  11  23  40  65  87 116 169 209 244 311 375
#     4  10  23  41  62  94 124 159 207 262 305 367
#     4  10  23  41  60  92 123 163 204 247 319 369
#     4  10  21  41  65  91 121 170 206 246 310 380
#     4  10  23  40  65  94 119 168 204 250 315 366
#     4  10  21  42  64  87 129 163 204 252 307 376
#     4  10  23  40  64  94 126 156 209 264 301 360
#     4  11  25  40  58  92 127 156 204 261 303 359
#
# _framework density 20.948387
#
# number of rings (size 3 to 8) (size 9 to 14) (size 15 to 20)
#    0.000    1.750    1.250    1.500    8.750    1.500 
#    2.250    0.000    0.000    0.000    0.000    0.000 
#    0.000    0.000    0.000    0.000    0.000    0.000 
#
# Total GULP energy -198248.488472 kJ/mol
# GULP energy per Si atom -12390.530530 kJ/mol
# Density = 2.090071 g / cm^3
# Si number density = 20.948387 Si / 1000 Ang^3
#
#
#
# Elastic Constant Matrix: (Units=GPa)
#
#
# Indices 1 2 3 4 5 6 
#
# 1 83.0941 41.3436 45.2765 -8.3848 6.5105 2.0866
# 2 41.3436 91.3093 33.8121 -25.6712 -6.7852 -8.0777
# 3 45.2765 33.8121 88.3722 -25.3251 -0.4638 8.8815
# 4 -8.3848 -25.6712 -25.3251 39.0286 12.0282 -2.2857
# 5 6.5105 -6.7852 -0.4638 12.0282 39.0433 -4.8986
# 6 2.0866 -8.0777 8.8815 -2.2857 -4.8986 29.0573
#
#
#
# Elastic Compliance Matrix: (Units=1/GPa)
#
#
# Indices 1 2 3 4 5 6 
#
# 1 0.020691 -0.008104 -0.008964 -0.005759 -0.003446 -0.002033
# 2 -0.008104 0.018428 -0.000900 0.009433 0.002534 0.007149
# 3 -0.008964 -0.000900 0.019864 0.010808 -0.002412 -0.005234
# 4 -0.005759 0.009433 0.010808 0.040647 -0.009630 0.001306
# 5 -0.003446 0.002534 -0.002412 -0.009630 0.030324 0.006044
# 6 -0.002033 0.007149 -0.005234 0.001306 0.006044 0.039270
#
#
# Mechanical properties :
#
#
# Convention : Reuss Voigt Hill
#
# Bulk Modulus (GPa) = 43.39419 55.95999 49.67709
# Shear Modulus (GPa) = 23.49149 30.91541 27.20345
#
# Velocity S-wave (km/s) = 3.35236 3.84577 3.60751
# Velocity P-wave (km/s) = 5.97865 6.81844 6.41231
#
# Compressibility (1/GPa) = 0.02304456
#
# Stress axis : x y z
#
# Youngs Moduli (GPa) = 48.32957 54.26663 50.34293
#
# Poissons Ratio (x) = 0.43979 0.45129
# Poissons Ratio (y) = 0.39168 0.04533
# Poissons Ratio (z) = 0.43325 0.04886
#
# Static dielectric constant tensor:
#      x y z
#    x 3.557240 -0.185380 0.047700 
#    y -0.185380 3.708540 -0.019000 
#    z 0.047700 -0.019000 4.154470 
# 
# 
# High freq. dielectric constant tensor:
#      x y z
#    x 1.807580 -0.013300 0.000890 
#    y -0.013300 1.817480 -0.007150 
#    z 0.000890 -0.007150 1.835670 
# 
# From -- ./inp_files/493876.got.cif
#   From: 2010.06.25/outbox.cif.g09.slc.cpg/sg2_247_cif.got.tgz:493876.got - 2010.06.27 13:26:56.
