data_PCOD8014459
_publ_section_title
;
Structure prediction by ZEFSAII (Michael W. Deem and Ramdas Pophale) SiO2 
 PCOD8014459
Probable space group: P -1
;
_chemical_formula_sum "Si O2"
_cell_formula_units_Z 16
_cell_length_a 20.249894
_cell_length_b 6.734155
_cell_length_c 9.635008
_cell_angle_alpha 44.780237
_cell_angle_beta 55.492007
_cell_angle_gamma 52.512067
_cell_volume 712.766979
_symmetry_space_group_name_H-M "P -1"
_symmetry_group_IT_number 2
_symmetry_cell_setting 'triclinic'
loop_
_space_group_symop_operation_xyz
x,y,z
-x,-y,-z
loop_
_atom_site_type_symbol
_atom_site_label
_atom_site_fract_x
_atom_site_fract_y
_atom_site_fract_z
Si Si1 0.347523 0.181733 0.730494
Si Si2 0.394360 0.413054 0.292479
Si Si3 0.093651 0.448113 0.088005
Si Si4 0.512759 0.140639 0.056610
Si Si5 0.238845 0.832061 0.126435
Si Si6 0.855697 0.580358 0.650590
Si Si7 0.815170 0.267511 0.357123
Si Si8 0.061598 0.661154 0.608149
O O1 0.397146 0.182300 0.527764
O O2 0.280028 0.514465 0.674553
O O3 0.412133 0.095103 0.825243
O O4 0.295917 0.951451 0.895119
O O5 0.423681 0.230597 0.203899
O O6 0.298615 0.663567 0.269179
O O7 0.465187 0.566316 0.157871
O O8 0.095818 0.511311 0.217239
O O9 0.993244 0.494505 0.157005
O O10 0.157217 0.108711 0.142179
O O11 0.117411 0.701830 0.852648
O O12 0.500000 0.000000 0.000000
O O13 0.212490 0.587918 0.194369
O O14 0.921136 0.482839 0.493177
O O15 0.809219 0.939944 0.523524
O O16 0.848829 0.358731 0.417804
O O17 0.000000 0.000000 0.500000
#
# Coordination Sequence:
#
# PCOD8014459 Si02
#       8
#     2   2   2   2   2   2   2   2
#     4  10  22  44  67  93 132 170 209 260 318 379
#     4  10  21  41  67  97 127 168 212 252 312 381
#     4  11  24  42  63  93 130 169 218 270 320 378
#     4  10  23  42  67  98 131 164 204 260 315 374
#     4  10  23  41  65  93 134 169 211 266 319 372
#     4  12  23  41  65  94 125 173 218 265 321 377
#     4  11  26  42  64  96 128 168 217 268 319 379
#     4  12  23  43  66  88 130 173 214 270 327 372
#
# _framework density 22.447727
#
# number of rings (size 3 to 8) (size 9 to 14) (size 15 to 20)
#    0.000    1.250    2.500    2.625    0.000    8.000 
#    0.000    6.250    0.000    0.000    0.000    0.000 
#    0.000    0.000    0.000    0.000    0.000    0.000 
#
# Total GULP energy -198385.898547 kJ/mol
# GULP energy per Si atom -12399.118659 kJ/mol
# Density = 2.239663 g / cm^3
# Si number density = 22.447727 Si / 1000 Ang^3
#
#
#
# Elastic Constant Matrix: (Units=GPa)
#
#
# Indices 1 2 3 4 5 6 
#
# 1 81.4573 43.7892 36.9491 1.5839 -11.2802 4.8256
# 2 43.7892 85.4365 32.3116 9.3122 -2.4461 25.6166
# 3 36.9491 32.3116 133.3435 9.1751 -10.1673 20.8346
# 4 1.5839 9.3122 9.1751 36.1710 -3.4941 -1.5902
# 5 -11.2802 -2.4461 -10.1673 -3.4941 33.8480 1.4447
# 6 4.8256 25.6166 20.8346 -1.5902 1.4447 33.6647
#
#
#
# Elastic Compliance Matrix: (Units=1/GPa)
#
#
# Indices 1 2 3 4 5 6 
#
# 1 0.020606 -0.011903 -0.004081 0.004043 0.004831 0.008613
# 2 -0.011903 0.023197 0.000544 -0.006517 -0.002095 -0.016500
# 3 -0.004081 0.000544 0.009740 -0.002543 0.001600 -0.006046
# 4 0.004043 -0.006517 -0.002543 0.030396 0.002940 0.007263
# 5 0.004831 -0.002095 0.001600 0.002940 0.031843 -0.001316
# 6 0.008613 -0.016500 -0.006046 0.007263 -0.001316 0.045166
#
#
# Mechanical properties :
#
#
# Convention : Reuss Voigt Hill
#
# Bulk Modulus (GPa) = 44.12453 58.48189 51.30321
# Shear Modulus (GPa) = 25.07741 33.21590 29.14665
#
# Velocity S-wave (km/s) = 3.34600 3.85086 3.60727
# Velocity P-wave (km/s) = 5.88446 6.77357 6.34461
#
# Compressibility (1/GPa) = 0.02266313
#
# Stress axis : x y z
#
# Youngs Moduli (GPa) = 48.52885 43.10930 102.66714
#
# Poissons Ratio (x) = 0.51312 0.41901
# Poissons Ratio (y) = 0.57762 -0.05583
# Poissons Ratio (z) = 0.19806 -0.02344
#
# Static dielectric constant tensor:
#      x y z
#    x 4.175290 -0.119020 -0.219060 
#    y -0.119020 4.011650 0.043030 
#    z -0.219060 0.043030 4.513780 
# 
# 
# High freq. dielectric constant tensor:
#      x y z
#    x 1.879690 -0.011050 -0.008760 
#    y -0.011050 1.871730 0.005510 
#    z -0.008760 0.005510 1.907780 
# 
# From -- ./inp_files/323205.got.cif
#   From: 2010.06.25/outbox.cif.g09.slc.cpg/sg2_162_cif.got.tgz:323205.got - 2010.06.27 13:26:56.
