data_PCOD8014182
_publ_section_title
;
Structure prediction by ZEFSAII (Michael W. Deem and Ramdas Pophale) SiO2 
 PCOD8014182
Probable space group: P -1
;
_chemical_formula_sum "Si O2"
_cell_formula_units_Z 16
_cell_length_a 9.340139
_cell_length_b 14.573667
_cell_length_c 8.765852
_cell_angle_alpha 40.794931
_cell_angle_beta 96.072271
_cell_angle_gamma 84.410049
_cell_volume 745.722842
_symmetry_space_group_name_H-M "P -1"
_symmetry_group_IT_number 2
_symmetry_cell_setting 'triclinic'
loop_
_space_group_symop_operation_xyz
x,y,z
-x,-y,-z
loop_
_atom_site_type_symbol
_atom_site_label
_atom_site_fract_x
_atom_site_fract_y
_atom_site_fract_z
Si Si1 0.735128 0.013546 0.283619
Si Si2 0.398635 0.251511 0.434484
Si Si3 0.034253 0.022214 0.149720
Si Si4 0.299543 0.838859 0.592586
Si Si5 0.474568 0.156060 0.877335
Si Si6 0.016725 0.519023 0.724872
Si Si7 0.191997 0.565682 0.963652
Si Si8 0.845393 0.713112 0.205424
O O1 0.722202 0.042494 0.425497
O O2 0.707845 0.856843 0.442695
O O3 0.618081 0.146206 0.013025
O O4 0.901552 0.007125 0.261498
O O5 0.534923 0.185829 0.420482
O O6 0.457303 0.269035 0.591917
O O7 0.309678 0.408288 0.166876
O O8 0.183582 0.899969 0.367220
O O9 0.056993 0.182084 0.971885
O O10 0.000000 0.000000 0.000000
O O11 0.277535 0.688218 0.845320
O O12 0.328268 0.197762 0.915591
O O13 0.500000 0.000000 0.000000
O O14 0.900035 0.648289 0.459432
O O15 0.106209 0.594155 0.756705
O O16 0.134038 0.416236 0.751981
O O17 0.925385 0.424200 0.925273
#
# Coordination Sequence:
#
# PCOD8014182 Si02
#       8
#     2   2   2   2   2   2   2   2
#     4  11  25  41  66  97 130 167 218 271 326 383
#     4  11  23  43  66  91 132 177 213 259 331 395
#     4  12  24  40  68  95 133 165 216 269 327 381
#     4  12  26  42  64 100 130 167 219 272 326 382
#     4  10  21  41  65  94 129 172 214 262 322 389
#     4  10  24  40  70  94 129 173 220 266 324 386
#     4  11  24  42  66  94 134 169 217 268 328 383
#     4  11  22  43  66  99 127 171 222 268 317 390
#
# _framework density 21.455691999999999
#
# number of rings (size 3 to 8) (size 9 to 14) (size 15 to 20)
#    0.000    1.000    1.250    6.375    7.000    0.000 
#    0.000    0.625    0.000    0.000    0.000    0.000 
#    0.000    0.000    0.000    0.000    0.000    0.000 
#
# Total GULP energy -198489.172559 kJ/mol
# GULP energy per Si atom -12405.573285 kJ/mol
# Density = 2.140686 g / cm^3
# Si number density = 21.455692 Si / 1000 Ang^3
#
#
#
# Elastic Constant Matrix: (Units=GPa)
#
#
# Indices 1 2 3 4 5 6 
#
# 1 61.7088 17.1747 0.6769 2.3643 2.0350 -13.7135
# 2 17.1747 66.6218 22.5142 7.2473 5.7767 -12.5360
# 3 0.6769 22.5142 82.7257 4.9589 6.7312 7.3194
# 4 2.3643 7.2473 4.9589 35.4333 1.5010 -4.4286
# 5 2.0350 5.7767 6.7312 1.5010 39.2892 -5.9674
# 6 -13.7135 -12.5360 7.3194 -4.4286 -5.9674 35.1398
#
#
#
# Elastic Compliance Matrix: (Units=1/GPa)
#
#
# Indices 1 2 3 4 5 6 
#
# 1 0.018561 -0.003845 0.000323 0.000222 0.000437 0.005907
# 2 -0.003845 0.019346 -0.005600 -0.002115 -0.000665 0.006188
# 3 0.000323 -0.005600 0.014379 -0.001468 -0.002431 -0.005465
# 4 0.000222 -0.002115 -0.001468 0.029262 -0.000063 0.003315
# 5 0.000437 -0.000665 -0.002431 -0.000063 0.026701 0.004966
# 6 0.005907 0.006188 -0.005465 0.003315 0.004966 0.035370
#
#
# Mechanical properties :
#
#
# Convention : Reuss Voigt Hill
#
# Bulk Modulus (GPa) = 29.37528 32.42087 30.89807
# Shear Modulus (GPa) = 28.86654 33.35181 31.10917
#
# Velocity S-wave (km/s) = 3.67195 3.94693 3.81192
# Velocity P-wave (km/s) = 5.63014 5.99286 5.81433
#
# Compressibility (1/GPa) = 0.03404223
#
# Stress axis : x y z
#
# Youngs Moduli (GPa) = 53.87509 51.69035 69.54609
#
# Poissons Ratio (x) = 0.19874 -0.02246
# Poissons Ratio (y) = 0.20714 0.38948
# Poissons Ratio (z) = -0.01740 0.28948
#
# Static dielectric constant tensor:
#      x y z
#    x 4.002090 0.009630 0.166160 
#    y 0.009630 3.782260 0.252970 
#    z 0.166160 0.252970 4.226260 
# 
# 
# High freq. dielectric constant tensor:
#      x y z
#    x 1.845420 -0.012960 0.007640 
#    y -0.012960 1.837600 0.011410 
#    z 0.007640 0.011410 1.853840 
# 
# From -- ./inp_files/184080.got.cif
#   From: 2010.06.25/outbox.cif.g09.slc.cpg/sg2_93_cif.got.tgz:184080.got - 2010.06.27 13:26:56.
