data_PCOD8014734
_publ_section_title
;
Structure prediction by ZEFSAII (Michael W. Deem and Ramdas Pophale) SiO2 
 PCOD8014734
Probable space group: P -1
;
_chemical_formula_sum "Si O2"
_cell_formula_units_Z 16
_cell_length_a 11.413088
_cell_length_b 15.071719
_cell_length_c 9.646127
_cell_angle_alpha 120.474073
_cell_angle_beta 108.383996
_cell_angle_gamma 30.354804
_cell_volume 693.639358
_symmetry_space_group_name_H-M "P -1"
_symmetry_group_IT_number 2
_symmetry_cell_setting 'triclinic'
loop_
_space_group_symop_operation_xyz
x,y,z
-x,-y,-z
loop_
_atom_site_type_symbol
_atom_site_label
_atom_site_fract_x
_atom_site_fract_y
_atom_site_fract_z
Si Si1 0.201176 0.299297 0.319945
Si Si2 0.612897 0.627867 0.562555
Si Si3 0.950369 0.932071 0.847962
Si Si4 0.390131 0.326614 0.934440
Si Si5 0.144164 0.835863 0.539599
Si Si6 0.821103 0.427379 0.203422
Si Si7 0.892030 0.359032 0.692673
Si Si8 0.392813 0.097073 0.684599
O O1 0.381842 0.256737 0.291707
O O2 0.000000 0.500000 0.500000
O O3 0.050155 0.338221 0.186361
O O4 0.378568 0.087630 0.281184
O O5 0.373576 0.736799 0.598924
O O6 0.642944 0.605533 0.390963
O O7 0.846630 0.410912 0.552753
O O8 0.008290 0.902026 0.682363
O O9 0.102997 0.737562 0.837246
O O10 0.670421 0.108318 0.890590
O O11 0.000000 0.000000 0.000000
O O12 0.328305 0.463112 0.909363
O O13 0.291047 0.286297 0.814654
O O14 0.274015 0.443190 0.127983
O O15 0.199219 0.692353 0.359492
O O16 0.000000 0.000000 0.500000
O O17 0.171899 0.175723 0.690094
O O18 0.500000 0.000000 0.500000
#
# Coordination Sequence:
#
# PCOD8014734 Si02
#       8
#     2   2   2   2   2   2   2   2
#     4  10  21  41  71 106 133 180 236 296 350 421
#     4  11  22  44  71  99 138 184 242 293 355 423
#     4  12  27  47  73 105 143 190 244 292 356 436
#     4  12  27  46  71 108 147 187 239 299 362 425
#     4  12  26  46  71 104 141 190 243 295 362 428
#     4  11  23  46  73 102 141 188 239 291 363 422
#     4  12  26  44  70 106 147 188 235 301 360 425
#     4  12  22  44  74 104 146 187 243 296 354 434
#
# _framework density 23.066742000000001
#
# number of rings (size 3 to 8) (size 9 to 14) (size 15 to 20)
#    0.000    0.500    2.500    7.500    3.500    0.500 
#    2.250    1.250    0.000    0.000    0.000    0.000 
#    0.000    0.000    0.000    0.000    0.000    0.000 
#
# Total GULP energy -198221.483259 kJ/mol
# GULP energy per Si atom -12388.842704 kJ/mol
# Density = 2.301424 g / cm^3
# Si number density = 23.066742 Si / 1000 Ang^3
#
#
#
# Elastic Constant Matrix: (Units=GPa)
#
#
# Indices 1 2 3 4 5 6 
#
# 1 131.1827 23.0410 32.8116 13.2608 18.2846 6.3668
# 2 23.0410 117.3257 13.5688 -3.7267 -3.8624 16.9916
# 3 32.8116 13.5688 77.9038 8.8748 8.4592 5.1683
# 4 13.2608 -3.7267 8.8748 31.7914 0.6366 -4.5118
# 5 18.2846 -3.8624 8.4592 0.6366 33.8902 7.8620
# 6 6.3668 16.9916 5.1683 -4.5118 7.8620 46.9793
#
#
#
# Elastic Compliance Matrix: (Units=1/GPa)
#
#
# Indices 1 2 3 4 5 6 
#
# 1 0.009643 -0.001841 -0.002864 -0.003326 -0.004667 0.000136
# 2 -0.001841 0.009690 -0.001218 0.001685 0.003180 -0.003491
# 3 -0.002864 -0.001218 0.014892 -0.003173 -0.002073 -0.000768
# 4 -0.003326 0.001685 -0.003173 0.034361 0.001377 0.003260
# 5 -0.004667 0.003180 -0.002073 0.001377 0.034245 -0.005888
# 6 0.000136 -0.003491 -0.000768 0.003260 -0.005888 0.023913
#
#
# Mechanical properties :
#
#
# Convention : Reuss Voigt Hill
#
# Bulk Modulus (GPa) = 44.68628 51.69499 48.19064
# Shear Modulus (GPa) = 34.23509 39.66488 36.94999
#
# Velocity S-wave (km/s) = 3.85668 4.15127 4.00668
# Velocity P-wave (km/s) = 6.26471 6.74070 6.50706
#
# Compressibility (1/GPa) = 0.02237823
#
# Stress axis : x y z
#
# Youngs Moduli (GPa) = 103.70466 103.20364 67.14928
#
# Poissons Ratio (x) = 0.19004 0.19232
# Poissons Ratio (y) = 0.19096 0.08177
# Poissons Ratio (z) = 0.29701 0.12567
#
# Static dielectric constant tensor:
#      x y z
#    x 4.653570 -0.097670 0.241600 
#    y -0.097670 4.049890 -0.025210 
#    z 0.241600 -0.025210 3.928780 
# 
# 
# High freq. dielectric constant tensor:
#      x y z
#    x 1.927710 0.003550 0.014870 
#    y 0.003550 1.924090 -0.005630 
#    z 0.014870 -0.005630 1.890160 
# 
# From -- ./inp_files/273760.got.cif
#   From: 2010.06.25/outbox.cif.g09.slc.cpg/sg2_137_cif.got.tgz:273760.got - 2010.06.27 13:26:56.
