data_PCOD8014820
_publ_section_title
;
Structure prediction by ZEFSAII (Michael W. Deem and Ramdas Pophale) SiO2 
 PCOD8014820
Probable space group: P -1
;
_chemical_formula_sum "Si O2"
_cell_formula_units_Z 14
_cell_length_a 16.216899
_cell_length_b 6.792997
_cell_length_c 18.531182
_cell_angle_alpha 92.065595
_cell_angle_beta 157.549517
_cell_angle_gamma 76.173068
_cell_volume 656.255759
_symmetry_space_group_name_H-M "P -1"
_symmetry_group_IT_number 2
_symmetry_cell_setting 'triclinic'
loop_
_space_group_symop_operation_xyz
x,y,z
-x,-y,-z
loop_
_atom_site_type_symbol
_atom_site_label
_atom_site_fract_x
_atom_site_fract_y
_atom_site_fract_z
Si Si1 0.052736 0.835191 0.382365
Si Si2 0.709868 0.993609 0.523263
Si Si3 0.138589 0.229004 0.101194
Si Si4 0.533123 0.999003 0.911648
Si Si5 0.402735 0.765475 0.909060
Si Si6 0.075090 0.921381 0.945101
Si Si7 0.360769 0.310603 0.638870
O O1 0.172870 0.580882 0.513117
O O2 0.281322 0.845090 0.530133
O O3 0.903248 0.050493 0.321674
O O4 0.841945 0.869107 0.152242
O O5 0.760847 0.753168 0.526698
O O6 0.932934 0.944246 0.756957
O O7 0.439733 0.126810 0.346799
O O8 0.058836 0.139189 0.102897
O O9 0.000000 0.500000 0.000000
O O10 0.062866 0.156884 0.963953
O O11 0.463032 0.807272 0.875879
O O12 0.397608 0.136922 0.731279
O O13 0.434433 0.181861 0.901604
O O14 0.500000 0.500000 0.000000
O O15 0.372573 0.722090 0.171261
#
# Coordination Sequence:
#
# PCOD8014820 Si02
#       7
#     2   2   2   2   2   2   2
#     4  10  22  39  63  93 123 163 213 257 312 375
#     4  11  23  39  63  93 122 172 207 252 321 362
#     4  10  22  38  63  92 124 167 207 250 315 365
#     4   9  21  41  61  89 127 160 205 268 305 370
#     4   9  20  40  66  88 125 167 204 260 320 366
#     4  10  21  42  60  90 132 157 209 264 295 375
#     4  11  23  41  63  92 128 164 212 258 313 372
#
# _framework density 21.333145999999999
#
# number of rings (size 3 to 8) (size 9 to 14) (size 15 to 20)
#    0.857    1.143    1.429    1.286    2.000    3.429 
#    2.571    1.429    0.000    0.000    0.000    0.000 
#    0.000    0.000    0.000    0.000    0.000    0.000 
#
# Total GULP energy -173461.789901 kJ/mol
# GULP energy per Si atom -12390.127850 kJ/mol
# Density = 2.128459 g / cm^3
# Si number density = 21.333146 Si / 1000 Ang^3
#
#
#
# Elastic Constant Matrix: (Units=GPa)
#
#
# Indices 1 2 3 4 5 6 
#
# 1 99.7560 38.7231 45.1516 -3.7604 16.5159 18.4844
# 2 38.7231 129.7020 65.0397 -24.8582 8.3691 13.8620
# 3 45.1516 65.0397 97.8492 -3.4535 6.0305 5.6571
# 4 -3.7604 -24.8582 -3.4535 39.9408 -2.9728 -0.2240
# 5 16.5159 8.3691 6.0305 -2.9728 26.2331 3.4089
# 6 18.4844 13.8620 5.6571 -0.2240 3.4089 31.5664
#
#
#
# Elastic Compliance Matrix: (Units=1/GPa)
#
#
# Indices 1 2 3 4 5 6 
#
# 1 0.015384 -0.000328 -0.006023 0.000143 -0.007271 -0.006999
# 2 -0.000328 0.014232 -0.008722 0.007984 -0.000859 -0.004345
# 3 -0.006023 -0.008722 0.018336 -0.004287 0.001368 0.003893
# 4 0.000143 0.007984 -0.004287 0.029789 0.002093 -0.002836
# 5 -0.007271 -0.000859 0.001368 0.002093 0.042924 -0.000231
# 6 -0.006999 -0.004345 0.003893 -0.002836 -0.000231 0.036993
#
#
# Mechanical properties :
#
#
# Convention : Reuss Voigt Hill
#
# Bulk Modulus (GPa) = 56.16437 69.45955 62.81196
# Shear Modulus (GPa) = 25.80782 31.44090 28.62436
#
# Velocity S-wave (km/s) = 3.48192 3.84318 3.66700
# Velocity P-wave (km/s) = 6.52300 7.23350 6.88742
#
# Compressibility (1/GPa) = 0.01780488
#
# Stress axis : x y z
#
# Youngs Moduli (GPa) = 65.00306 70.26444 54.53724
#
# Poissons Ratio (x) = 0.02306 0.32847
# Poissons Ratio (y) = 0.02133 0.47570
# Poissons Ratio (z) = 0.39150 0.61288
#
# Static dielectric constant tensor:
#      x y z
#    x 3.861750 0.030720 0.199060 
#    y 0.030720 3.820240 0.148600 
#    z 0.199060 0.148600 3.638380 
# 
# 
# High freq. dielectric constant tensor:
#      x y z
#    x 1.838900 0.011020 0.017710 
#    y 0.011020 1.831870 0.010750 
#    z 0.017710 0.010750 1.824050 
# 
# From -- ./inp_files/598846.got.cif
#   From: 2010.06.25/outbox.cif.g09.slc.cpg/sg2_300_cif.got.tgz:598846.got - 2010.06.27 13:26:56.
