data_PCOD8014978
_publ_section_title
;
Structure prediction by ZEFSAII (Michael W. Deem and Ramdas Pophale) SiO2 
 PCOD8014978
Probable space group: P -1
;
_chemical_formula_sum "Si O2"
_cell_formula_units_Z 12
_cell_length_a 13.233388
_cell_length_b 9.010780
_cell_length_c 6.845297
_cell_angle_alpha 90.892393
_cell_angle_beta 129.558399
_cell_angle_gamma 111.807373
_cell_volume 546.823011
_symmetry_space_group_name_H-M "P -1"
_symmetry_group_IT_number 2
_symmetry_cell_setting 'triclinic'
loop_
_space_group_symop_operation_xyz
x,y,z
-x,-y,-z
loop_
_atom_site_type_symbol
_atom_site_label
_atom_site_fract_x
_atom_site_fract_y
_atom_site_fract_z
Si Si1 0.640574 0.655439 0.283956
Si Si2 0.635106 0.856622 0.639747
Si Si3 0.658630 0.192341 0.586303
Si Si4 0.168884 0.709140 0.830759
Si Si5 0.832496 0.963156 0.246934
Si Si6 0.153217 0.504041 0.449131
O O1 0.597087 0.701288 0.441682
O O2 0.711963 0.819585 0.236911
O O3 0.765563 0.604716 0.487897
O O4 0.500000 0.500000 0.000000
O O5 0.500532 0.810503 0.631689
O O6 0.655106 0.014699 0.531632
O O7 0.783249 0.905997 0.957653
O O8 0.788458 0.339479 0.623508
O O9 0.686422 0.218890 0.853250
O O10 0.181259 0.574032 0.705392
O O11 0.024903 0.619330 0.796700
O O12 0.167546 0.860470 0.708244
O O13 0.000000 0.000000 0.500000
#
# Coordination Sequence:
#
# PCOD8014978 Si02
#       6
#     2   2   2   2   2   2
#     4  12  25  41  65 100 131 167 210 265 324 378
#     4  10  24  42  67  93 128 170 214 260 319 381
#     4  10  21  42  64  92 123 167 215 262 311 378
#     4  10  22  41  63  91 126 169 212 259 315 379
#     4  11  23  45  65  92 131 171 213 259 317 381
#     4  11  22  38  62  94 128 165 209 261 319 373
#
# _framework density 21.944944
#
# number of rings (size 3 to 8) (size 9 to 14) (size 15 to 20)
#    0.000    1.333    1.667    3.500    0.000    4.667 
#    3.000    6.667    0.000    0.000    0.000    0.000 
#    0.000    0.000    0.000    0.000    0.000    0.000 
#
# Total GULP energy -148775.418702 kJ/mol
# GULP energy per Si atom -12397.951558 kJ/mol
# Density = 2.189500 g / cm^3
# Si number density = 21.944944 Si / 1000 Ang^3
#
#
#
# Elastic Constant Matrix: (Units=GPa)
#
#
# Indices 1 2 3 4 5 6 
#
# 1 84.0891 46.5608 39.2973 -2.0282 -0.1493 -4.6293
# 2 46.5608 107.6863 17.7386 4.3741 2.5784 20.0512
# 3 39.2973 17.7386 106.4294 11.3542 7.6722 -14.3624
# 4 -2.0282 4.3741 11.3542 34.1318 -4.8842 -5.7747
# 5 -0.1493 2.5784 7.6722 -4.8842 24.5185 3.9441
# 6 -4.6293 20.0512 -14.3624 -5.7747 3.9441 46.5630
#
#
#
# Elastic Compliance Matrix: (Units=1/GPa)
#
#
# Indices 1 2 3 4 5 6 
#
# 1 0.019988 -0.008718 -0.006196 0.005569 0.003406 0.004232
# 2 -0.008718 0.014581 0.000295 -0.003923 -0.001265 -0.007434
# 3 -0.006196 0.000295 0.012996 -0.005007 -0.005635 0.003122
# 4 0.005569 -0.003923 -0.005007 0.033658 0.008044 0.004192
# 5 0.003406 -0.001265 -0.005635 0.008044 0.044894 -0.003660
# 6 0.004232 -0.007434 0.003122 0.004192 -0.003660 0.026891
#
#
# Mechanical properties :
#
#
# Convention : Reuss Voigt Hill
#
# Bulk Modulus (GPa) = 54.56001 56.15535 55.35768
# Shear Modulus (GPa) = 26.54584 34.01652 30.28118
#
# Velocity S-wave (km/s) = 3.48178 3.94138 3.71869
# Velocity P-wave (km/s) = 6.40937 6.80863 6.61201
#
# Compressibility (1/GPa) = 0.01832844
#
# Stress axis : x y z
#
# Youngs Moduli (GPa) = 50.03005 68.58383 76.94595
#
# Poissons Ratio (x) = 0.59788 0.47674
# Poissons Ratio (y) = 0.43614 -0.02271
# Poissons Ratio (z) = 0.30998 -0.02024
#
# Static dielectric constant tensor:
#      x y z
#    x 3.788550 0.062510 0.160460 
#    y 0.062510 4.153070 0.132920 
#    z 0.160460 0.132920 3.876570 
# 
# 
# High freq. dielectric constant tensor:
#      x y z
#    x 1.853360 0.002670 0.012260 
#    y 0.002670 1.878510 0.006310 
#    z 0.012260 0.006310 1.863950 
# 
# From -- ./inp_files/22464.got.cif
#   From: 2010.06.25/outbox.cif.g09.slc.cpg/sg2_12_cif.got.tgz:22464.got - 2010.06.27 13:26:56.
