data_PCOD8014331
_publ_section_title
;
Structure prediction by ZEFSAII (Michael W. Deem and Ramdas Pophale) SiO2 
 PCOD8014331
Probable space group: P -1
;
_chemical_formula_sum "Si O2"
_cell_formula_units_Z 16
_cell_length_a 12.030583
_cell_length_b 8.721545
_cell_length_c 12.572136
_cell_angle_alpha 69.143421
_cell_angle_beta 131.744176
_cell_angle_gamma 131.459810
_cell_volume 729.078167
_symmetry_space_group_name_H-M "P -1"
_symmetry_group_IT_number 2
_symmetry_cell_setting 'triclinic'
loop_
_space_group_symop_operation_xyz
x,y,z
-x,-y,-z
loop_
_atom_site_type_symbol
_atom_site_label
_atom_site_fract_x
_atom_site_fract_y
_atom_site_fract_z
Si Si1 0.272141 0.981765 0.766868
Si Si2 0.223502 0.259333 0.212289
Si Si3 0.077093 0.732344 0.502860
Si Si4 0.346545 0.250044 0.075660
Si Si5 0.276492 0.335758 0.785043
Si Si6 0.171932 0.838745 0.966091
Si Si7 0.410667 0.076523 0.498154
Si Si8 0.378243 0.708388 0.219431
O O1 0.104836 0.816302 0.620724
O O2 0.237264 0.850816 0.882902
O O3 0.278490 0.173446 0.758276
O O4 0.471194 0.092994 0.807267
O O5 0.200296 0.184235 0.094599
O O6 0.309109 0.164508 0.356659
O O7 0.367381 0.508171 0.237953
O O8 0.026049 0.195363 0.148979
O O9 0.000000 0.500000 0.500000
O O10 0.929517 0.741082 0.345389
O O11 0.269515 0.877464 0.527715
O O12 0.559764 0.429361 0.207028
O O13 0.294817 0.332387 0.924395
O O14 0.328975 0.051680 0.075138
O O15 0.180216 0.668631 0.075028
O O16 0.575698 0.253323 0.635702
O O17 0.500000 0.000000 0.500000
#
# Coordination Sequence:
#
# PCOD8014331 Si02
#       8
#     2   2   2   2   2   2   2   2
#     4  10  22  43  65  96 131 173 218 273 326 392
#     4  12  24  44  66  98 134 177 220 271 335 397
#     4  11  26  41  68  97 129 171 221 275 327 393
#     4  10  22  39  68  94 128 177 215 271 326 389
#     4  10  21  41  66  97 128 171 226 262 327 394
#     4  11  24  41  68  99 137 171 223 277 329 393
#     4  11  26  45  66  96 136 174 220 275 334 397
#     4  11  24  42  67  97 133 178 220 268 334 397
#
# _framework density 21.945519999999998
#
# number of rings (size 3 to 8) (size 9 to 14) (size 15 to 20)
#    0.000    1.250    1.250    4.125    5.250    4.000 
#    0.000    0.000    0.000    0.000    0.000    0.000 
#    0.000    0.000    0.000    0.000    0.000    0.000 
#
# Total GULP energy -198266.438345 kJ/mol
# GULP energy per Si atom -12391.652397 kJ/mol
# Density = 2.189557 g / cm^3
# Si number density = 21.945520 Si / 1000 Ang^3
#
#
#
# Elastic Constant Matrix: (Units=GPa)
#
#
# Indices 1 2 3 4 5 6 
#
# 1 103.4004 24.9939 67.7382 -6.8520 -15.5874 -8.3176
# 2 24.9939 83.3770 51.8028 -0.5527 -7.4705 -7.6728
# 3 67.7382 51.8028 124.2856 -2.2184 -5.3869 -15.5628
# 4 -6.8520 -0.5527 -2.2184 36.7599 -9.6922 3.0160
# 5 -15.5874 -7.4705 -5.3869 -9.6922 43.3312 -0.8604
# 6 -8.3176 -7.6728 -15.5628 3.0160 -0.8604 27.0362
#
#
#
# Elastic Compliance Matrix: (Units=1/GPa)
#
#
# Indices 1 2 3 4 5 6 
#
# 1 0.016595 0.001348 -0.009290 0.004138 0.005970 -0.000131
# 2 0.001348 0.016486 -0.007375 0.000663 0.002575 0.000856
# 3 -0.009290 -0.007375 0.016616 -0.001993 -0.002899 0.004744
# 4 0.004138 0.000663 -0.001993 0.030219 0.008059 -0.002801
# 5 0.005970 0.002575 -0.002899 0.008059 0.027129 0.000863
# 6 -0.000131 0.000856 0.004744 -0.002801 0.000863 0.040260
#
#
# Mechanical properties :
#
#
# Convention : Reuss Voigt Hill
#
# Bulk Modulus (GPa) = 52.46195 66.68143 59.57169
# Shear Modulus (GPa) = 27.13042 32.52733 29.82888
#
# Velocity S-wave (km/s) = 3.51987 3.85409 3.69077
# Velocity P-wave (km/s) = 6.36213 7.08917 6.73547
#
# Compressibility (1/GPa) = 0.01906144
#
# Stress axis : x y z
#
# Youngs Moduli (GPa) = 60.25902 60.65756 60.18253
#
# Poissons Ratio (x) = -0.08174 0.55911
# Poissons Ratio (y) = -0.08121 0.44386
# Poissons Ratio (z) = 0.55982 0.44737
#
# Static dielectric constant tensor:
#      x y z
#    x 3.857270 0.077670 -0.161710 
#    y 0.077670 4.042870 0.145530 
#    z -0.161710 0.145530 4.168810 
# 
# 
# High freq. dielectric constant tensor:
#      x y z
#    x 1.866440 -0.005180 -0.006690 
#    y -0.005180 1.869930 0.006230 
#    z -0.006690 0.006230 1.868450 
# 
# From -- ./inp_files/261484.got.cif
#   From: 2010.06.25/outbox.cif.g09.slc.cpg/sg2_131_cif.got.tgz:261484.got - 2010.06.27 13:26:56.
