data_PCOD8014885
_publ_section_title
;
Structure prediction by ZEFSAII (Michael W. Deem and Ramdas Pophale) SiO2 
 PCOD8014885
Probable space group: P -1
;
_chemical_formula_sum "Si O2"
_cell_formula_units_Z 16
_cell_length_a 11.441797
_cell_length_b 17.321628
_cell_length_c 8.296772
_cell_angle_alpha 94.770108
_cell_angle_beta 129.836684
_cell_angle_gamma 123.436878
_cell_volume 771.942817
_symmetry_space_group_name_H-M "P -1"
_symmetry_group_IT_number 2
_symmetry_cell_setting 'triclinic'
loop_
_space_group_symop_operation_xyz
x,y,z
-x,-y,-z
loop_
_atom_site_type_symbol
_atom_site_label
_atom_site_fract_x
_atom_site_fract_y
_atom_site_fract_z
Si Si1 0.950360 0.259277 0.156139
Si Si2 0.555785 0.219400 0.889778
Si Si3 0.254946 0.439948 0.194346
Si Si4 0.961599 0.025760 0.717071
Si Si5 0.538298 0.485452 0.203265
Si Si6 0.513148 0.715008 0.843810
Si Si7 0.553061 0.317789 0.580856
Si Si8 0.014710 0.894433 0.916929
O O1 0.995808 0.310626 0.024271
O O2 0.214388 0.372743 0.494441
O O3 0.861274 0.134302 0.044305
O O4 0.740571 0.221339 0.059868
O O5 0.603183 0.282000 0.771359
O O6 0.273423 0.074877 0.626458
O O7 0.609490 0.290892 0.111730
O O8 0.500000 0.500000 0.500000
O O9 0.277897 0.412909 0.033792
O O10 0.258885 0.534858 0.215877
O O11 0.060137 0.979622 0.841324
O O12 0.187628 0.160383 0.852909
O O13 0.866439 0.031407 0.795231
O O14 0.572198 0.407836 0.242017
O O15 0.500000 0.500000 0.000000
O O16 0.424816 0.711403 0.586778
O O17 0.275533 0.238946 0.334853
#
# Coordination Sequence:
#
# PCOD8014885 Si02
#       8
#     2   2   2   2   2   2   2   2
#     4  11  22  39  60  93 127 154 197 261 310 359
#     4  11  25  38  58  94 128 164 198 248 318 357
#     4  10  16  35  59  86 113 153 204 242 296 354
#     4   9  20  38  65  89 112 165 211 249 297 357
#     4  11  22  38  65  94 119 160 207 253 302 363
#     4  11  21  40  64  87 124 161 213 248 286 375
#     4  10  18  38  63  84 119 160 203 248 295 361
#     4   9  17  36  67  88 113 157 213 252 294 360
#
# _framework density 20.726925999999999
#
# number of rings (size 3 to 8) (size 9 to 14) (size 15 to 20)
#    0.000    1.750    5.000    2.625    1.750    1.500 
#    2.250    0.625    0.000    0.000    0.000    0.000 
#    0.000    0.000    0.000    0.000    0.000    0.000 
#
# Total GULP energy -198230.691561 kJ/mol
# GULP energy per Si atom -12389.418223 kJ/mol
# Density = 2.067975 g / cm^3
# Si number density = 20.726926 Si / 1000 Ang^3
#
#
#
# Elastic Constant Matrix: (Units=GPa)
#
#
# Indices 1 2 3 4 5 6 
#
# 1 138.5467 30.6671 34.4066 -13.2003 -26.5267 -7.7108
# 2 30.6671 71.6319 17.0611 0.1803 -15.7701 -3.8181
# 3 34.4066 17.0611 32.8891 -4.1660 -18.7017 -3.5648
# 4 -13.2003 0.1803 -4.1660 25.6862 3.2918 -13.8966
# 5 -26.5267 -15.7701 -18.7017 3.2918 27.6156 0.1588
# 6 -7.7108 -3.8181 -3.5648 -13.8966 0.1588 34.5542
#
#
#
# Elastic Compliance Matrix: (Units=1/GPa)
#
#
# Indices 1 2 3 4 5 6 
#
# 1 0.010943 -0.001964 -0.007013 0.006141 0.003886 0.003953
# 2 -0.001964 0.016942 -0.003983 -0.002459 0.005384 0.000009
# 3 -0.007013 -0.003983 0.057923 0.005247 0.029556 0.005945
# 4 0.006141 -0.002459 0.005247 0.055825 0.001255 0.024085
# 5 0.003886 0.005384 0.029556 0.001255 0.062857 0.004727
# 6 0.003953 0.000009 0.005945 0.024085 0.004727 0.040101
#
#
# Mechanical properties :
#
#
# Convention : Reuss Voigt Hill
#
# Bulk Modulus (GPa) = 16.69788 45.25972 30.97880
# Shear Modulus (GPa) = 17.21316 28.30008 22.75662
#
# Velocity S-wave (km/s) = 2.88492 3.69911 3.31709
# Velocity P-wave (km/s) = 4.37843 6.33468 5.44513
#
# Compressibility (1/GPa) = 0.05988785
#
# Stress axis : x y z
#
# Youngs Moduli (GPa) = 91.37986 59.02606 17.26417
#
# Poissons Ratio (x) = 0.11592 0.12108
# Poissons Ratio (y) = 0.17946 0.06876
# Poissons Ratio (z) = 0.64089 0.23510
#
# Static dielectric constant tensor:
#      x y z
#    x 3.708270 0.311080 -0.604250 
#    y 0.311080 3.883110 -0.050940 
#    z -0.604250 -0.050940 3.563150 
# 
# 
# High freq. dielectric constant tensor:
#      x y z
#    x 1.807580 0.005110 -0.025820 
#    y 0.005110 1.808120 0.011820 
#    z -0.025820 0.011820 1.781530 
# 
# From -- ./inp_files/189208.got.cif
#   From: 2010.06.25/outbox.cif.g09.slc.cpg/sg2_95_cif.got.tgz:189208.got - 2010.06.27 13:26:56.
