data_PCOD8014395
_publ_section_title
;
Structure prediction by ZEFSAII (Michael W. Deem and Ramdas Pophale) SiO2 
 PCOD8014395
Probable space group: P -1
;
_chemical_formula_sum "Si O2"
_cell_formula_units_Z 14
_cell_length_a 9.392532
_cell_length_b 11.606662
_cell_length_c 11.400806
_cell_angle_alpha 56.796741
_cell_angle_beta 60.556412
_cell_angle_gamma 34.990150
_cell_volume 593.952079
_symmetry_space_group_name_H-M "P -1"
_symmetry_group_IT_number 2
_symmetry_cell_setting 'triclinic'
loop_
_space_group_symop_operation_xyz
x,y,z
-x,-y,-z
loop_
_atom_site_type_symbol
_atom_site_label
_atom_site_fract_x
_atom_site_fract_y
_atom_site_fract_z
Si Si1 0.497659 0.133045 0.330107
Si Si2 0.493499 0.230680 0.890544
Si Si3 0.655260 0.700166 0.443788
Si Si4 0.212306 0.201260 0.869224
Si Si5 0.356722 0.456898 0.044482
Si Si6 0.914224 0.794479 0.504198
Si Si7 0.312626 0.742581 0.422271
O O1 0.349820 0.276307 0.428010
O O2 0.500754 0.240723 0.167556
O O3 0.324283 0.110127 0.374957
O O4 0.786546 0.916613 0.363265
O O5 0.272138 0.294260 0.875718
O O6 0.667721 0.202252 0.745655
O O7 0.368395 0.423587 0.918877
O O8 0.649834 0.022595 0.018641
O O9 0.706012 0.811725 0.289529
O O10 0.385622 0.809665 0.452735
O O11 0.877302 0.454069 0.459475
O O12 0.922199 0.354869 0.903200
O O13 0.500000 0.500000 0.000000
O O14 0.035207 0.853454 0.484185
O O15 0.500000 0.500000 0.500000
#
# Coordination Sequence:
#
# PCOD8014395 Si02
#       7
#     2   2   2   2   2   2   2
#     4  11  25  39  61  96 125 169 205 251 318 378
#     4  10  24  45  67  93 127 166 218 260 314 379
#     4  10  21  41  67  91 123 161 215 258 310 368
#     4  10  23  45  69  92 123 175 212 262 314 367
#     4  12  28  41  62  97 135 168 206 259 323 380
#     4  10  22  40  63  90 126 162 211 256 309 367
#     4   9  21  41  68  90 116 166 210 265 308 354
#
# _framework density 23.570924999999999
#
# number of rings (size 3 to 8) (size 9 to 14) (size 15 to 20)
#    0.000    1.714    1.429    0.857   10.000    1.143 
#    0.000    0.000    0.000    0.000    0.000    0.000 
#    0.000    0.000    0.000    0.000    0.000    0.000 
#
# Total GULP energy -173525.244968 kJ/mol
# GULP energy per Si atom -12394.660355 kJ/mol
# Density = 2.351728 g / cm^3
# Si number density = 23.570925 Si / 1000 Ang^3
#
#
#
# Elastic Constant Matrix: (Units=GPa)
#
#
# Indices 1 2 3 4 5 6 
#
# 1 182.7969 30.4821 46.3570 10.4287 -27.6050 -18.2847
# 2 30.4821 53.7716 16.1086 1.6614 -6.3381 -29.6155
# 3 46.3570 16.1086 79.1558 0.7530 -6.9818 -15.2145
# 4 10.4287 1.6614 0.7530 33.7494 4.9580 7.5595
# 5 -27.6050 -6.3381 -6.9818 4.9580 40.7138 6.1005
# 6 -18.2847 -29.6155 -15.2145 7.5595 6.1005 37.4465
#
#
#
# Elastic Compliance Matrix: (Units=1/GPa)
#
#
# Indices 1 2 3 4 5 6 
#
# 1 0.007647 -0.002628 -0.003506 -0.002833 0.004510 0.000069
# 2 -0.002628 0.036267 -0.000206 -0.007473 0.000430 0.028754
# 3 -0.003506 -0.000206 0.015572 -0.000217 -0.000396 0.004561
# 4 -0.002833 -0.007473 -0.000217 0.034688 -0.005320 -0.013517
# 5 0.004510 0.000430 -0.000396 -0.005320 0.028443 -0.001178
# 6 0.000069 0.028754 0.004561 -0.013517 -0.001178 0.054253
#
#
# Mechanical properties :
#
#
# Convention : Reuss Voigt Hill
#
# Bulk Modulus (GPa) = 21.36403 55.73552 38.54977
# Shear Modulus (GPa) = 24.37217 37.23371 30.80294
#
# Velocity S-wave (km/s) = 3.21906 3.97879 3.61892
# Velocity P-wave (km/s) = 4.78538 6.69364 5.81828
#
# Compressibility (1/GPa) = 0.04680765
#
# Stress axis : x y z
#
# Youngs Moduli (GPa) = 130.76345 27.57323 64.21709
#
# Poissons Ratio (x) = 0.07246 0.22514
# Poissons Ratio (y) = 0.34365 0.01320
# Poissons Ratio (z) = 0.45845 0.00567
#
# Static dielectric constant tensor:
#      x y z
#    x 4.907850 -0.091170 -0.146110 
#    y -0.091170 4.320870 -0.196390 
#    z -0.146110 -0.196390 4.361360 
# 
# 
# High freq. dielectric constant tensor:
#      x y z
#    x 1.953750 0.001340 -0.001960 
#    y 0.001340 1.942570 -0.008640 
#    z -0.001960 -0.008640 1.927920 
# 
# From -- ./inp_files/389302.got.cif
#   From: 2010.06.25/outbox.cif.g09.slc.cpg/sg2_195_cif.got.tgz:389302.got - 2010.06.27 13:26:56.
