data_PCOD8014722
_publ_section_title
;
Structure prediction by ZEFSAII (Michael W. Deem and Ramdas Pophale) SiO2 
 PCOD8014722
Probable space group: P -1
;
_chemical_formula_sum "Si O2"
_cell_formula_units_Z 16
_cell_length_a 16.479969
_cell_length_b 9.584284
_cell_length_c 8.834145
_cell_angle_alpha 66.475118
_cell_angle_beta 106.505074
_cell_angle_gamma 143.713467
_cell_volume 755.338116
_symmetry_space_group_name_H-M "P -1"
_symmetry_group_IT_number 2
_symmetry_cell_setting 'triclinic'
loop_
_space_group_symop_operation_xyz
x,y,z
-x,-y,-z
loop_
_atom_site_type_symbol
_atom_site_label
_atom_site_fract_x
_atom_site_fract_y
_atom_site_fract_z
Si Si1 0.874660 0.915804 0.531374
Si Si2 0.925402 0.222008 0.186972
Si Si3 0.526760 0.306196 0.207398
Si Si4 0.950184 0.067750 0.843213
Si Si5 0.117143 0.507387 0.907525
Si Si6 0.567929 0.052881 0.169055
Si Si7 0.289203 0.155321 0.000324
Si Si8 0.556938 0.411710 0.526091
O O1 0.722535 0.638357 0.530965
O O2 0.901872 0.116436 0.384107
O O3 0.898621 0.946250 0.707491
O O4 0.000000 0.000000 0.500000
O O5 0.962245 0.445730 0.151881
O O6 0.050303 0.329696 0.100910
O O7 0.777325 0.996570 0.124634
O O8 0.554625 0.170380 0.234239
O O9 0.392821 0.173957 0.105288
O O10 0.508622 0.297294 0.381921
O O11 0.649885 0.589732 0.099351
O O12 0.079590 0.366216 0.792814
O O13 0.825770 0.989686 0.873640
O O14 0.000000 0.000000 0.000000
O O15 0.277756 0.755440 0.885853
O O16 0.506544 0.806932 0.303578
O O17 0.500000 0.000000 0.000000
O O18 0.500000 0.500000 0.500000
#
# Coordination Sequence:
#
# PCOD8014722 Si02
#       8
#     2   2   2   2   2   2   2   2
#     4  12  26  42  71 101 134 180 233 290 344 409
#     4  10  21  44  68 102 135 179 230 286 346 418
#     4  11  24  43  71 100 145 185 233 292 354 422
#     4  11  24  42  66  98 135 180 231 286 346 419
#     4  10  23  42  69  96 140 178 226 285 347 417
#     4  12  28  43  71 108 142 185 238 292 357 423
#     4  10  21  41  71 100 138 183 230 280 356 426
#     4  12  28  49  73 103 147 190 238 295 359 430
#
# _framework density 21.182566999999999
#
# number of rings (size 3 to 8) (size 9 to 14) (size 15 to 20)
#    0.000    1.000    1.250    4.875   10.500    0.500 
#    0.000    0.000    0.000    0.000    0.000    0.000 
#    0.000    0.000    0.000    0.000    0.000    0.000 
#
# Total GULP energy -198237.355345 kJ/mol
# GULP energy per Si atom -12389.834709 kJ/mol
# Density = 2.113435 g / cm^3
# Si number density = 21.182567 Si / 1000 Ang^3
#
#
#
# Elastic Constant Matrix: (Units=GPa)
#
#
# Indices 1 2 3 4 5 6 
#
# 1 104.9461 50.1841 29.7048 -3.0531 3.0551 -9.2666
# 2 50.1841 106.8379 44.5447 -13.8789 8.8589 0.6784
# 3 29.7048 44.5447 121.7618 6.8138 16.8365 -5.0919
# 4 -3.0531 -13.8789 6.8138 36.3201 -6.4316 -9.7554
# 5 3.0551 8.8589 16.8365 -6.4316 22.1769 -1.6875
# 6 -9.2666 0.6784 -5.0919 -9.7554 -1.6875 44.4946
#
#
#
# Elastic Compliance Matrix: (Units=1/GPa)
#
#
# Indices 1 2 3 4 5 6 
#
# 1 0.012749 -0.005633 -0.001171 0.000154 0.001633 0.002703
# 2 -0.005633 0.014541 -0.004262 0.005673 -0.000201 -0.000646
# 3 -0.001171 -0.004262 0.011526 -0.005501 -0.008512 -0.000389
# 4 0.000154 0.005673 -0.005501 0.034982 0.012602 0.007464
# 5 0.001633 -0.000201 -0.008512 0.012602 0.055386 0.004233
# 6 0.002703 -0.000646 -0.000389 0.007464 0.004233 0.024800
#
#
# Mechanical properties :
#
#
# Convention : Reuss Voigt Hill
#
# Bulk Modulus (GPa) = 59.93709 64.71256 62.32482
# Shear Modulus (GPa) = 27.52122 34.53912 31.03017
#
# Velocity S-wave (km/s) = 3.60841 4.04238 3.83154
# Velocity P-wave (km/s) = 6.76149 7.23906 7.00435
#
# Compressibility (1/GPa) = 0.01668416
#
# Stress axis : x y z
#
# Youngs Moduli (GPa) = 78.43510 68.77261 86.75909
#
# Poissons Ratio (x) = 0.38740 0.10159
# Poissons Ratio (y) = 0.44183 0.36977
# Poissons Ratio (z) = 0.09185 0.29311
#
# Static dielectric constant tensor:
#      x y z
#    x 4.187880 0.012430 0.423090 
#    y 0.012430 4.207960 -0.072830 
#    z 0.423090 -0.072830 4.820640 
# 
# 
# High freq. dielectric constant tensor:
#      x y z
#    x 1.841330 -0.001020 -0.002750 
#    y -0.001020 1.847490 -0.001720 
#    z -0.002750 -0.001720 1.828380 
# 
# From -- ./inp_files/297942.got.cif
#   From: 2010.06.25/outbox.cif.g09.slc.cpg/sg2_149_cif.got.tgz:297942.got - 2010.06.27 13:26:56.
