data_PCOD8014266
_publ_section_title
;
Structure prediction by ZEFSAII (Michael W. Deem and Ramdas Pophale) SiO2 
 PCOD8014266
Probable space group: P -1
;
_chemical_formula_sum "Si O2"
_cell_formula_units_Z 12
_cell_length_a 7.380980
_cell_length_b 10.312537
_cell_length_c 9.158641
_cell_angle_alpha 111.937642
_cell_angle_beta 108.951966
_cell_angle_gamma 113.440635
_cell_volume 493.024688
_symmetry_space_group_name_H-M "P -1"
_symmetry_group_IT_number 2
_symmetry_cell_setting 'triclinic'
loop_
_space_group_symop_operation_xyz
x,y,z
-x,-y,-z
loop_
_atom_site_type_symbol
_atom_site_label
_atom_site_fract_x
_atom_site_fract_y
_atom_site_fract_z
Si Si1 0.763494 0.193769 0.858283
Si Si2 0.681176 0.493811 0.365762
Si Si3 0.314078 0.112822 0.118770
Si Si4 0.724877 0.918615 0.232113
Si Si5 0.820412 0.646649 0.766042
Si Si6 0.985809 0.770000 0.340279
O O1 0.543393 0.201877 0.827491
O O2 0.825095 0.220185 0.713834
O O3 0.686572 0.005045 0.807912
O O4 0.991090 0.345819 0.074506
O O5 0.583245 0.293009 0.260844
O O6 0.853466 0.599609 0.592657
O O7 0.451628 0.500095 0.315214
O O8 0.823371 0.580359 0.290220
O O9 0.132052 0.162360 0.134493
O O10 0.266017 0.026743 0.910149
O O11 0.821548 0.802333 0.215303
O O12 0.885369 0.091601 0.439513
#
# Coordination Sequence:
#
# PCOD8014266 Si02
#       6
#     2   2   2   2   2   2
#     4  12  23  41  66  95 122 161 216 254 299 370
#     4   9  21  40  68  91 122 171 199 250 325 360
#     4  10  21  41  66  91 122 163 210 251 305 364
#     4  11  25  39  65  94 123 167 208 253 305 370
#     4   9  20  39  69  89 122 165 208 251 307 366
#     4  11  24  43  63  89 133 161 203 258 315 362
#
# _framework density 24.339552999999999
#
# number of rings (size 3 to 8) (size 9 to 14) (size 15 to 20)
#    1.000    0.667    1.667    2.500    4.667    2.667 
#    0.000    6.667    0.000    0.000    0.000    0.000 
#    0.000    0.000    0.000    0.000    0.000    0.000 
#
# Total GULP energy -148818.714549 kJ/mol
# GULP energy per Si atom -12401.559546 kJ/mol
# Density = 2.428416 g / cm^3
# Si number density = 24.339553 Si / 1000 Ang^3
#
#
#
# Elastic Constant Matrix: (Units=GPa)
#
#
# Indices 1 2 3 4 5 6 
#
# 1 73.8771 10.9561 14.7874 -1.5426 -2.0328 28.2363
# 2 10.9561 97.8824 37.7267 -15.9632 -14.3923 37.3370
# 3 14.7874 37.7267 96.5882 2.8051 -14.0378 0.8157
# 4 -1.5426 -15.9632 2.8051 26.9079 14.2511 -9.2917
# 5 -2.0328 -14.3923 -14.0378 14.2511 28.1741 -4.3120
# 6 28.2363 37.3370 0.8157 -9.2917 -4.3120 29.1273
#
#
#
# Elastic Compliance Matrix: (Units=1/GPa)
#
#
# Indices 1 2 3 4 5 6 
#
# 1 0.054627 0.045379 -0.024809 -0.006676 0.000932 -0.112422
# 2 0.045379 0.066332 -0.031515 0.000131 0.001827 -0.127824
# 3 -0.024809 -0.031515 0.027266 -0.005457 0.008121 0.063146
# 4 -0.006676 0.000131 -0.005457 0.061114 -0.030772 0.021396
# 5 0.000932 0.001827 0.008121 -0.030772 0.055325 -0.005099
# 6 -0.112422 -0.127824 0.063146 0.021396 -0.005099 0.311469
#
#
# Mechanical properties :
#
#
# Convention : Reuss Voigt Hill
#
# Bulk Modulus (GPa) = 7.91547 43.92092 25.91820
# Shear Modulus (GPa) = 7.81086 30.50034 19.15560
#
# Velocity S-wave (km/s) = 1.79335 3.54378 2.80842
# Velocity P-wave (km/s) = 2.74723 5.90159 4.60305
#
# Compressibility (1/GPa) = 0.12633482
#
# Stress axis : x y z
#
# Youngs Moduli (GPa) = 18.30610 15.07572 36.67510
#
# Poissons Ratio (x) = -0.68412 0.90988
# Poissons Ratio (y) = -0.83071 1.15581
# Poissons Ratio (z) = 0.45416 0.47511
#
# Static dielectric constant tensor:
#      x y z
#    x 4.181560 0.282040 0.100940 
#    y 0.282040 4.035330 0.126000 
#    z 0.100940 0.126000 4.289590 
# 
# 
# High freq. dielectric constant tensor:
#      x y z
#    x 1.951570 0.027660 -0.002960 
#    y 0.027660 1.951010 0.009820 
#    z -0.002960 0.009820 1.975320 
# 
# From -- ./inp_files/164376.got.cif
#   From: 2010.06.25/outbox.cif.g09.slc.cpg/sg2_83_cif.got.tgz:164376.got - 2010.06.27 13:26:56.
