data_PCOD8014158
_publ_section_title
;
Structure prediction by ZEFSAII (Michael W. Deem and Ramdas Pophale) SiO2 
 PCOD8014158
Probable space group: P -1
;
_chemical_formula_sum "Si O2"
_cell_formula_units_Z 16
_cell_length_a 9.057396
_cell_length_b 8.192511
_cell_length_c 16.825843
_cell_angle_alpha 110.418551
_cell_angle_beta 45.014481
_cell_angle_gamma 85.931330
_cell_volume 726.408357
_symmetry_space_group_name_H-M "P -1"
_symmetry_group_IT_number 2
_symmetry_cell_setting 'triclinic'
loop_
_space_group_symop_operation_xyz
x,y,z
-x,-y,-z
loop_
_atom_site_type_symbol
_atom_site_label
_atom_site_fract_x
_atom_site_fract_y
_atom_site_fract_z
Si Si1 0.703344 0.914690 0.969405
Si Si2 0.896311 0.308531 0.473952
Si Si3 0.525431 0.617828 0.243821
Si Si4 0.523327 0.309435 0.913467
Si Si5 0.736129 0.179719 0.122567
Si Si6 0.577400 0.951393 0.372084
Si Si7 0.993378 0.028644 0.254510
Si Si8 0.685589 0.745602 0.601139
O O1 0.951411 0.857561 0.819680
O O2 0.697872 0.731330 0.986332
O O3 0.500000 0.000000 0.000000
O O4 0.620390 0.110181 0.086909
O O5 0.723876 0.353975 0.622676
O O6 0.850715 0.512088 0.483279
O O7 0.843495 0.184885 0.406781
O O8 0.170526 0.190293 0.379870
O O9 0.484509 0.673515 0.176098
O O10 0.727988 0.387330 0.137528
O O11 0.609896 0.747797 0.286478
O O12 0.770960 0.134505 0.820291
O O13 0.500000 0.500000 0.000000
O O14 0.577821 0.208044 0.264901
O O15 0.000000 0.000000 0.000000
O O16 0.500000 0.000000 0.500000
O O17 0.357320 0.131993 0.442097
O O18 0.834718 0.938992 0.262318
#
# Coordination Sequence:
#
# PCOD8014158 Si02
#       8
#     2   2   2   2   2   2   2   2
#     4  10  21  41  65  92 131 176 224 272 327 409
#     4  10  22  43  68  98 128 186 232 284 341 415
#     4  11  24  44  69 100 139 178 235 289 348 408
#     4  11  25  43  71 104 137 178 232 289 341 403
#     4  11  23  44  68  94 131 187 230 278 344 414
#     4  12  25  43  64 103 143 177 223 288 360 405
#     4  11  23  42  65  98 140 183 230 274 347 415
#     4  10  23  41  67  95 133 177 235 284 346 417
#
# _framework density 22.026177000000001
#
# number of rings (size 3 to 8) (size 9 to 14) (size 15 to 20)
#    0.000    1.250    1.250    5.250    1.750    4.500 
#    2.250    3.750    0.000    0.000    0.000    0.000 
#    0.000    0.000    0.000    0.000    0.000    0.000 
#
# Total GULP energy -198298.359967 kJ/mol
# GULP energy per Si atom -12393.647498 kJ/mol
# Density = 2.197604 g / cm^3
# Si number density = 22.026177 Si / 1000 Ang^3
#
#
#
# Elastic Constant Matrix: (Units=GPa)
#
#
# Indices 1 2 3 4 5 6 
#
# 1 115.6760 72.7094 35.1287 15.9921 6.9359 20.9522
# 2 72.7094 161.1917 62.7049 0.8597 10.9793 7.6302
# 3 35.1287 62.7049 93.7273 -0.2671 9.3049 4.4818
# 4 15.9921 0.8597 -0.2671 31.7609 5.0190 -0.4823
# 5 6.9359 10.9793 9.3049 5.0190 49.6316 5.8926
# 6 20.9522 7.6302 4.4818 -0.4823 5.8926 41.1097
#
#
#
# Elastic Compliance Matrix: (Units=1/GPa)
#
#
# Indices 1 2 3 4 5 6 
#
# 1 0.015009 -0.005911 -0.001480 -0.007677 0.001051 -0.006632
# 2 -0.005911 0.010778 -0.004959 0.002847 -0.001124 0.001748
# 3 -0.001480 -0.004959 0.014690 0.001263 -0.001616 0.000320
# 4 -0.007677 0.002847 0.001263 0.035970 -0.003934 0.004232
# 5 0.001051 -0.001124 -0.001616 -0.003934 0.021337 -0.003256
# 6 -0.006632 0.001748 0.000320 0.004232 -0.003256 0.027862
#
#
# Mechanical properties :
#
#
# Convention : Reuss Voigt Hill
#
# Bulk Modulus (GPa) = 63.38194 79.07569 71.22881
# Shear Modulus (GPa) = 32.13222 37.83725 34.98473
#
# Velocity S-wave (km/s) = 3.82359 4.14917 3.98970
# Velocity P-wave (km/s) = 6.95208 7.67677 7.32339
#
# Compressibility (1/GPa) = 0.01577737
#
# Stress axis : x y z
#
# Youngs Moduli (GPa) = 66.62462 92.78145 68.07261
#
# Poissons Ratio (x) = 0.54848 0.10073
# Poissons Ratio (y) = 0.39385 0.33757
# Poissons Ratio (z) = 0.09859 0.46010
#
# Static dielectric constant tensor:
#      x y z
#    x 3.976100 -0.222650 0.349230 
#    y -0.222650 3.266610 0.410080 
#    z 0.349230 0.410080 3.462360 
# 
# 
# High freq. dielectric constant tensor:
#      x y z
#    x 1.879310 0.008890 0.009050 
#    y 0.008890 1.872070 -0.007970 
#    z 0.009050 -0.007970 1.862460 
# 
# From -- ./inp_files/448029.got.cif
#   From: 2010.06.25/outbox.cif.g09.slc.cpg/sg2_225_cif.got.tgz:448029.got - 2010.06.27 13:26:56.
