data_PCOD8014547
_publ_section_title
;
Structure prediction by ZEFSAII (Michael W. Deem and Ramdas Pophale) SiO2 
 PCOD8014547
Probable space group: P -1
;
_chemical_formula_sum "Si O2"
_cell_formula_units_Z 16
_cell_length_a 15.548679
_cell_length_b 12.294779
_cell_length_c 12.580225
_cell_angle_alpha 81.830463
_cell_angle_beta 153.000368
_cell_angle_gamma 116.352920
_cell_volume 765.323950
_symmetry_space_group_name_H-M "P -1"
_symmetry_group_IT_number 2
_symmetry_cell_setting 'triclinic'
loop_
_space_group_symop_operation_xyz
x,y,z
-x,-y,-z
loop_
_atom_site_type_symbol
_atom_site_label
_atom_site_fract_x
_atom_site_fract_y
_atom_site_fract_z
Si Si1 0.513057 0.671869 0.697482
Si Si2 0.621478 0.793891 0.201119
Si Si3 0.699056 0.791858 0.648367
Si Si4 0.252850 0.945797 0.301833
Si Si5 0.452568 0.561221 0.221883
Si Si6 0.290053 0.829038 0.746466
Si Si7 0.836209 0.283719 0.602297
Si Si8 0.102276 0.153357 0.712039
O O1 0.603081 0.736393 0.669924
O O2 0.417200 0.506411 0.621222
O O3 0.270356 0.651738 0.464984
O O4 0.765142 0.793490 0.034422
O O5 0.593944 0.679544 0.263091
O O6 0.685250 0.786021 0.152409
O O7 0.334939 0.740112 0.882871
O O8 0.859389 0.968454 0.480725
O O9 0.508092 0.646728 0.380586
O O10 0.671337 0.910041 0.573845
O O11 0.003937 0.872858 0.959749
O O12 0.160193 0.818510 0.302037
O O13 0.500000 0.000000 0.500000
O O14 0.136311 0.429177 0.874126
O O15 0.347518 0.820829 0.687459
O O16 0.998909 0.764995 0.440848
O O17 0.500000 0.000000 0.000000
#
# Coordination Sequence:
#
# PCOD8014547 Si02
#       8
#     2   2   2   2   2   2   2   2
#     4  12  24  45  69  95 137 181 217 275 334 394
#     4  10  24  41  67  99 127 172 223 274 334 388
#     4  11  26  45  70 100 133 177 224 274 336 391
#     4  11  24  44  73 100 124 171 230 282 318 390
#     4  12  28  43  64  99 144 178 216 270 336 411
#     4  10  21  41  68  95 129 169 220 282 325 384
#     4  12  25  44  67 100 135 176 222 274 340 391
#     4  10  21  44  70  95 125 170 228 280 322 390
#
# _framework density 20.906179999999999
#
# number of rings (size 3 to 8) (size 9 to 14) (size 15 to 20)
#    0.000    1.000    5.000    0.375    7.000    3.500 
#    0.000    0.000    0.000    0.000    0.000    0.000 
#    0.000    0.000    0.000    0.000    0.000    0.000 
#
# Total GULP energy -198372.086730 kJ/mol
# GULP energy per Si atom -12398.255421 kJ/mol
# Density = 2.085860 g / cm^3
# Si number density = 20.906180 Si / 1000 Ang^3
#
#
#
# Elastic Constant Matrix: (Units=GPa)
#
#
# Indices 1 2 3 4 5 6 
#
# 1 76.8038 58.2772 49.2159 13.4039 -8.4866 -11.0034
# 2 58.2772 148.5544 45.0467 -9.6079 6.7916 -13.9843
# 3 49.2159 45.0467 77.9609 -3.7991 -4.2863 -6.2452
# 4 13.4039 -9.6079 -3.7991 27.1348 -5.8828 6.3158
# 5 -8.4866 6.7916 -4.2863 -5.8828 39.4428 -3.5476
# 6 -11.0034 -13.9843 -6.2452 6.3158 -3.5476 37.6459
#
#
#
# Elastic Compliance Matrix: (Units=1/GPa)
#
#
# Indices 1 2 3 4 5 6 
#
# 1 0.041196 -0.011315 -0.019767 -0.028249 0.005332 0.009800
# 2 -0.011315 0.011650 0.000640 0.009312 -0.003047 -0.000723
# 3 -0.019767 0.000640 0.025352 0.014457 0.000212 -0.003739
# 4 -0.028249 0.009312 0.014457 0.059323 0.001641 -0.012197
# 5 0.005332 -0.003047 0.000212 0.001641 0.027543 0.002782
# 6 0.009800 -0.000723 -0.003739 -0.012197 0.002782 0.030847
#
#
# Mechanical properties :
#
#
# Convention : Reuss Voigt Hill
#
# Bulk Modulus (GPa) = 57.75655 67.59985 62.67820
# Shear Modulus (GPa) = 19.04283 30.89665 24.96974
#
# Velocity S-wave (km/s) = 3.02134 3.84848 3.45972
# Velocity P-wave (km/s) = 6.31331 7.22169 6.78272
#
# Compressibility (1/GPa) = 0.01731405
#
# Stress axis : x y z
#
# Youngs Moduli (GPa) = 24.27444 85.83807 39.44432
#
# Poissons Ratio (x) = 0.97127 0.77968
# Poissons Ratio (y) = 0.27467 -0.02525
# Poissons Ratio (z) = 0.47983 -0.05494
#
# Static dielectric constant tensor:
#      x y z
#    x 3.860370 -0.344880 -0.016490 
#    y -0.344880 4.067650 -0.292960 
#    z -0.016490 -0.292960 3.959640 
# 
# 
# High freq. dielectric constant tensor:
#      x y z
#    x 1.823130 -0.017990 -0.006750 
#    y -0.017990 1.827270 -0.017380 
#    z -0.006750 -0.017380 1.817330 
# 
# From -- ./inp_files/433674.got.cif
#   From: 2010.06.25/outbox.cif.g09.slc.cpg/sg2_217_cif.got.tgz:433674.got - 2010.06.27 13:26:56.
