data_PCOD8014484
_publ_section_title
;
Structure prediction by ZEFSAII (Michael W. Deem and Ramdas Pophale) SiO2 
 PCOD8014484
Probable space group: P -1
;
_chemical_formula_sum "Si O2"
_cell_formula_units_Z 12
_cell_length_a 9.055700
_cell_length_b 6.939973
_cell_length_c 20.305145
_cell_angle_alpha 137.841748
_cell_angle_beta 135.024190
_cell_angle_gamma 72.912837
_cell_volume 529.066837
_symmetry_space_group_name_H-M "P -1"
_symmetry_group_IT_number 2
_symmetry_cell_setting 'triclinic'
loop_
_space_group_symop_operation_xyz
x,y,z
-x,-y,-z
loop_
_atom_site_type_symbol
_atom_site_label
_atom_site_fract_x
_atom_site_fract_y
_atom_site_fract_z
Si Si1 0.065997 0.711865 0.937078
Si Si2 0.531723 0.282830 0.655286
Si Si3 0.437086 0.552636 0.066933
Si Si4 0.625097 0.446339 0.586595
Si Si5 0.762563 0.696949 0.319353
Si Si6 0.156159 0.837147 0.853661
O O1 0.203351 0.758159 0.922807
O O2 0.811044 0.375907 0.773806
O O3 0.246608 0.690016 0.041704
O O4 0.000000 0.000000 0.000000
O O5 0.497194 0.428116 0.611635
O O6 0.448565 0.431811 0.725607
O O7 0.363911 0.890290 0.503682
O O8 0.669249 0.789564 0.245295
O O9 0.500000 0.500000 0.000000
O O10 0.329571 0.210587 0.985333
O O11 0.500000 0.500000 0.500000
O O12 0.884489 0.762463 0.747982
O O13 0.808805 0.393495 0.245679
O O14 0.000000 0.000000 0.500000
#
# Coordination Sequence:
#
# PCOD8014484 Si02
#       6
#     2   2   2   2   2   2
#     4  11  25  46  74 105 138 190 249 300 353 429
#     4  10  23  41  67  98 146 176 239 296 353 411
#     4  12  27  46  78 103 144 196 244 293 367 431
#     4  10  21  41  67  98 138 190 233 291 356 425
#     4  12  25  46  72 108 150 190 236 302 365 430
#     4  11  24  46  71 102 147 188 241 301 359 428
#
# _framework density 22.681445
#
# number of rings (size 3 to 8) (size 9 to 14) (size 15 to 20)
#    0.000    1.000    3.333    2.500    2.333    6.667 
#    0.000    1.667    0.000    0.000    0.000    0.000 
#    0.000    0.000    0.000    0.000    0.000    0.000 
#
# Total GULP energy -148757.423833 kJ/mol
# GULP energy per Si atom -12396.451986 kJ/mol
# Density = 2.262982 g / cm^3
# Si number density = 22.681445 Si / 1000 Ang^3
#
#
#
# Elastic Constant Matrix: (Units=GPa)
#
#
# Indices 1 2 3 4 5 6 
#
# 1 130.9860 45.5457 32.5819 -9.0627 -19.2918 21.1025
# 2 45.5457 108.3497 51.7084 -33.6854 1.0681 1.4453
# 3 32.5819 51.7084 126.7340 -25.0238 3.6410 3.1654
# 4 -9.0627 -33.6854 -25.0238 49.0832 2.8265 -4.8900
# 5 -19.2918 1.0681 3.6410 2.8265 41.3762 2.1711
# 6 21.1025 1.4453 3.1654 -4.8900 2.1711 35.6983
#
#
#
# Elastic Compliance Matrix: (Units=1/GPa)
#
#
# Indices 1 2 3 4 5 6 
#
# 1 0.011720 -0.005171 -0.001548 -0.003278 0.006347 -0.007417
# 2 -0.005171 0.015690 -0.003361 0.008701 -0.003330 0.004114
# 3 -0.001548 -0.003361 0.010247 0.002796 -0.001761 0.000633
# 4 -0.003278 0.008701 0.002796 0.027947 -0.004193 0.005421
# 5 0.006347 -0.003330 -0.001761 -0.004193 0.027956 -0.005736
# 6 -0.007417 0.004114 0.000633 0.005421 -0.005736 0.033266
#
#
# Mechanical properties :
#
#
# Convention : Reuss Voigt Hill
#
# Bulk Modulus (GPa) = 57.15182 69.52685 63.33933
# Shear Modulus (GPa) = 32.71849 40.98045 36.84947
#
# Velocity S-wave (km/s) = 3.80218 4.25524 4.03507
# Velocity P-wave (km/s) = 6.67291 7.40695 7.04949
#
# Compressibility (1/GPa) = 0.01749726
#
# Stress axis : x y z
#
# Youngs Moduli (GPa) = 85.32168 63.73344 97.59192
#
# Poissons Ratio (x) = 0.32956 0.15105
# Poissons Ratio (y) = 0.44119 0.32804
# Poissons Ratio (z) = 0.13206 0.21423
#
# Static dielectric constant tensor:
#      x y z
#    x 4.267860 0.158300 0.080830 
#    y 0.158300 4.129860 0.121190 
#    z 0.080830 0.121190 6.969520 
# 
# 
# High freq. dielectric constant tensor:
#      x y z
#    x 1.905620 0.010630 0.000990 
#    y 0.010630 1.876740 -0.010260 
#    z 0.000990 -0.010260 1.907970 
# 
# From -- ./inp_files/26530.got.cif
#   From: 2010.06.25/outbox.cif.g09.slc.cpg/sg2_14_cif.got.tgz:26530.got - 2010.06.27 13:26:56.
