data_PCOD8014385
_publ_section_title
;
Structure prediction by ZEFSAII (Michael W. Deem and Ramdas Pophale) SiO2 
 PCOD8014385
Probable space group: P -1
;
_chemical_formula_sum "Si O2"
_cell_formula_units_Z 16
_cell_length_a 16.244169
_cell_length_b 7.903909
_cell_length_c 9.659099
_cell_angle_alpha 97.146819
_cell_angle_beta 120.287375
_cell_angle_gamma 47.740708
_cell_volume 746.485132
_symmetry_space_group_name_H-M "P -1"
_symmetry_group_IT_number 2
_symmetry_cell_setting 'triclinic'
loop_
_space_group_symop_operation_xyz
x,y,z
-x,-y,-z
loop_
_atom_site_type_symbol
_atom_site_label
_atom_site_fract_x
_atom_site_fract_y
_atom_site_fract_z
Si Si1 0.115975 0.951545 0.364209
Si Si2 0.388650 0.080421 0.802826
Si Si3 0.145292 0.910005 0.795547
Si Si4 0.318113 0.520288 0.682476
Si Si5 0.125159 0.220388 0.607527
Si Si6 0.587923 0.750814 0.708577
Si Si7 0.762797 0.205727 0.835919
Si Si8 0.562521 0.161480 0.680832
O O1 0.218374 0.680714 0.485292
O O2 0.124612 0.942534 0.204208
O O3 0.154992 0.083569 0.475555
O O4 0.962846 0.105235 0.296197
O O5 0.304383 0.341485 0.691756
O O6 0.267902 0.121026 0.768959
O O7 0.465290 0.881619 0.725994
O O8 0.500000 0.000000 0.000000
O O9 0.279517 0.682330 0.800802
O O10 0.079649 0.154331 0.686607
O O11 0.176315 0.925880 0.979231
O O12 0.474758 0.352711 0.752981
O O13 0.000000 0.500000 0.500000
O O14 0.705466 0.471030 0.826471
O O15 0.542919 0.754081 0.518790
O O16 0.636531 0.889398 0.763586
O O17 0.657310 0.190286 0.707036
#
# Coordination Sequence:
#
# PCOD8014385 Si02
#       8
#     2   2   2   2   2   2   2   2
#     4  11  23  45  65  91 125 180 221 258 320 405
#     4  11  23  38  64 102 135 165 214 285 335 376
#     4  11  25  41  66  95 127 169 222 274 324 382
#     4  10  21  41  67  88 131 165 218 265 321 393
#     4  11  24  44  70  92 127 178 226 262 327 407
#     4  10  22  39  62  95 137 169 213 267 330 391
#     4  12  24  41  67  95 138 167 214 273 340 380
#     4  10  22  39  63  99 124 177 216 257 327 409
#
# _framework density 21.433782000000001
#
# number of rings (size 3 to 8) (size 9 to 14) (size 15 to 20)
#    0.000    1.250    1.250    5.250    7.000    0.500 
#    2.250    0.625    0.000    0.000    0.000    0.000 
#    0.000    0.000    0.000    0.000    0.000    0.000 
#
# Total GULP energy -198355.066853 kJ/mol
# GULP energy per Si atom -12397.191678 kJ/mol
# Density = 2.138500 g / cm^3
# Si number density = 21.433782 Si / 1000 Ang^3
#
#
#
# Elastic Constant Matrix: (Units=GPa)
#
#
# Indices 1 2 3 4 5 6 
#
# 1 106.0383 50.5069 29.5506 7.0776 -2.9783 -10.7789
# 2 50.5069 125.8140 52.3522 -3.1368 -13.7512 3.2268
# 3 29.5506 52.3522 97.2713 14.8732 -14.5138 -7.1245
# 4 7.0776 -3.1368 14.8732 24.7327 -4.5526 -6.8223
# 5 -2.9783 -13.7512 -14.5138 -4.5526 41.0881 3.8798
# 6 -10.7789 3.2268 -7.1245 -6.8223 3.8798 24.9941
#
#
#
# Elastic Compliance Matrix: (Units=1/GPa)
#
#
# Indices 1 2 3 4 5 6 
#
# 1 0.012829 -0.005398 -0.000418 -0.002903 -0.001875 0.005609
# 2 -0.005398 0.013398 -0.006444 0.006393 0.002960 -0.004609
# 3 -0.000418 -0.006444 0.015764 -0.009143 0.002150 0.002316
# 4 -0.002903 0.006393 -0.009143 0.050582 0.003494 0.008581
# 5 -0.001875 0.002960 0.002150 0.003494 0.026695 -0.003768
# 6 0.005609 -0.004609 0.002316 0.008581 -0.003768 0.046611
#
#
# Mechanical properties :
#
#
# Convention : Reuss Voigt Hill
#
# Bulk Modulus (GPa) = 57.23459 65.99367 61.61413
# Shear Modulus (GPa) = 25.48140 31.27726 28.37933
#
# Velocity S-wave (km/s) = 3.45170 3.82416 3.64269
# Velocity P-wave (km/s) = 6.53044 7.09615 6.81916
#
# Compressibility (1/GPa) = 0.01747195
#
# Stress axis : x y z
#
# Youngs Moduli (GPa) = 77.94804 74.63984 63.43478
#
# Poissons Ratio (x) = 0.40287 0.02649
# Poissons Ratio (y) = 0.42073 0.40880
# Poissons Ratio (z) = 0.03255 0.48101
#
# Static dielectric constant tensor:
#      x y z
#    x 3.988690 0.063600 -0.228080 
#    y 0.063600 3.938750 -0.015900 
#    z -0.228080 -0.015900 3.798330 
# 
# 
# High freq. dielectric constant tensor:
#      x y z
#    x 1.844300 0.002060 -0.018980 
#    y 0.002060 1.844370 0.004440 
#    z -0.018980 0.004440 1.828960 
# 
# From -- ./inp_files/329195.got.cif
#   From: 2010.06.25/outbox.cif.g09.slc.cpg/sg2_165_cif.got.tgz:329195.got - 2010.06.27 13:26:56.
