data_PCOD8014863
_publ_section_title
;
Structure prediction by ZEFSAII (Michael W. Deem and Ramdas Pophale) SiO2 
 PCOD8014863
Probable space group: P -1
;
_chemical_formula_sum "Si O2"
_cell_formula_units_Z 16
_cell_length_a 7.740609
_cell_length_b 15.577437
_cell_length_c 10.748455
_cell_angle_alpha 49.167535
_cell_angle_beta 43.935207
_cell_angle_gamma 70.103096
_cell_volume 659.028035
_symmetry_space_group_name_H-M "P -1"
_symmetry_group_IT_number 2
_symmetry_cell_setting 'triclinic'
loop_
_space_group_symop_operation_xyz
x,y,z
-x,-y,-z
loop_
_atom_site_type_symbol
_atom_site_label
_atom_site_fract_x
_atom_site_fract_y
_atom_site_fract_z
Si Si1 0.978761 0.586885 0.259179
Si Si2 0.930637 0.013683 0.713461
Si Si3 0.398141 0.607148 0.213179
Si Si4 0.603687 0.008395 0.648858
Si Si5 0.454731 0.243235 0.520599
Si Si6 0.220844 0.519528 0.968032
Si Si7 0.670639 0.750304 0.156825
Si Si8 0.080236 0.888745 0.117377
O O1 0.189906 0.646344 0.197013
O O2 0.728803 0.508075 0.531449
O O3 0.888728 0.679182 0.130236
O O4 0.103532 0.506003 0.180374
O O5 0.781576 0.043288 0.644153
O O6 0.902940 0.105391 0.747007
O O7 0.813926 0.884969 0.947541
O O8 0.231891 0.028110 0.512902
O O9 0.621465 0.578616 0.039335
O O10 0.514189 0.713013 0.146445
O O11 0.518225 0.125946 0.545558
O O12 0.363271 0.896771 0.905872
O O13 0.594532 0.350413 0.261980
O O14 0.525461 0.267964 0.606525
O O15 0.140996 0.227428 0.694533
O O16 0.000000 0.500000 0.000000
O O17 0.000000 0.000000 0.000000
#
# Coordination Sequence:
#
# PCOD8014863 Si02
#       8
#     2   2   2   2   2   2   2   2
#     4  11  24  45  69  96 139 176 223 284 329 402
#     4  11  23  43  66  96 133 173 225 274 333 403
#     4  11  25  45  67 103 134 176 229 271 340 401
#     4  10  23  43  65  95 132 171 225 278 328 398
#     4  11  24  42  68  99 130 179 224 269 345 397
#     4  12  23  45  73  97 138 176 222 282 333 401
#     4  12  22  43  68  97 137 180 218 275 342 394
#     4  10  21  42  62  91 130 169 217 276 326 391
#
# _framework density 24.278179000000002
#
# number of rings (size 3 to 8) (size 9 to 14) (size 15 to 20)
#    0.000    1.000    5.000    2.625    0.000    3.000 
#    6.750    1.250    0.000    0.000    0.000    0.000 
#    0.000    0.000    0.000    0.000    0.000    0.000 
#
# Total GULP energy -198452.463395 kJ/mol
# GULP energy per Si atom -12403.278962 kJ/mol
# Density = 2.422292 g / cm^3
# Si number density = 24.278179 Si / 1000 Ang^3
#
#
#
# Elastic Constant Matrix: (Units=GPa)
#
#
# Indices 1 2 3 4 5 6 
#
# 1 85.9278 1.7595 9.3887 -3.5040 -13.7640 13.3958
# 2 1.7595 38.3419 9.7469 9.9639 -6.4679 6.5741
# 3 9.3887 9.7469 58.1624 13.2366 -18.3520 5.0392
# 4 -3.5040 9.9639 13.2366 38.6510 2.9689 -1.2982
# 5 -13.7640 -6.4679 -18.3520 2.9689 38.2215 4.5853
# 6 13.3958 6.5741 5.0392 -1.2982 4.5853 39.3068
#
#
#
# Elastic Compliance Matrix: (Units=1/GPa)
#
#
# Indices 1 2 3 4 5 6 
#
# 1 0.013374 0.001197 -0.000242 0.000383 0.005515 -0.005358
# 2 0.001197 0.030598 -0.000788 -0.008237 0.006647 -0.006472
# 3 -0.000242 -0.000788 0.023747 -0.009060 0.012434 -0.004580
# 4 0.000383 -0.008237 -0.009060 0.031946 -0.008624 0.004470
# 5 0.005515 0.006647 0.012434 -0.008624 0.037017 -0.009189
# 6 -0.005358 -0.006472 -0.004580 0.004470 -0.009189 0.030156
#
#
# Mechanical properties :
#
#
# Convention : Reuss Voigt Hill
#
# Bulk Modulus (GPa) = 14.69454 24.91360 19.80407
# Shear Modulus (GPa) = 26.42874 34.00500 30.21687
#
# Velocity S-wave (km/s) = 3.30294 3.74657 3.53173
# Velocity P-wave (km/s) = 4.54000 5.38514 4.98053
#
# Compressibility (1/GPa) = 0.06805247
#
# Stress axis : x y z
#
# Youngs Moduli (GPa) = 74.77209 32.68171 42.11137
#
# Poissons Ratio (x) = -0.03913 0.01020
# Poissons Ratio (y) = -0.08953 0.03319
# Poissons Ratio (z) = 0.01811 0.02576
#
# Static dielectric constant tensor:
#      x y z
#    x 4.576910 0.135700 -0.257000 
#    y 0.135700 4.316440 0.356580 
#    z -0.257000 0.356580 4.470780 
# 
# 
# High freq. dielectric constant tensor:
#      x y z
#    x 1.969810 0.003920 -0.008340 
#    y 0.003920 1.962570 0.016900 
#    z -0.008340 0.016900 1.957810 
# 
# From -- ./inp_files/398525.got.cif
#   From: 2010.06.25/outbox.cif.g09.slc.cpg/sg2_200_cif.got.tgz:398525.got - 2010.06.27 13:26:56.
