data_PCOD8014548
_publ_section_title
;
Structure prediction by ZEFSAII (Michael W. Deem and Ramdas Pophale) SiO2 
 PCOD8014548
Probable space group: P -1
;
_chemical_formula_sum "Si O2"
_cell_formula_units_Z 16
_cell_length_a 8.566507
_cell_length_b 14.806350
_cell_length_c 12.101385
_cell_angle_alpha 93.881568
_cell_angle_beta 96.815002
_cell_angle_gamma 148.635608
_cell_volume 749.628741
_symmetry_space_group_name_H-M "P -1"
_symmetry_group_IT_number 2
_symmetry_cell_setting 'triclinic'
loop_
_space_group_symop_operation_xyz
x,y,z
-x,-y,-z
loop_
_atom_site_type_symbol
_atom_site_label
_atom_site_fract_x
_atom_site_fract_y
_atom_site_fract_z
Si Si1 0.117086 0.129143 0.431338
Si Si2 0.527650 0.938517 0.405844
Si Si3 0.345475 0.956950 0.189239
Si Si4 0.923944 0.980359 0.816647
Si Si5 0.768419 0.400045 0.574269
Si Si6 0.490263 0.722709 0.954843
Si Si7 0.794445 0.586605 0.998911
Si Si8 0.073842 0.662646 0.821064
O O1 0.060575 0.065155 0.298803
O O2 0.493033 0.331475 0.503506
O O3 0.000000 0.000000 0.500000
O O4 0.905119 0.113516 0.425805
O O5 0.335980 0.880905 0.281040
O O6 0.369368 0.765424 0.414708
O O7 0.500000 0.000000 0.500000
O O8 0.211775 0.987809 0.216952
O O9 0.710802 0.149296 0.195563
O O10 0.122586 0.804845 0.062636
O O11 0.696615 0.811650 0.868176
O O12 0.280254 0.162267 0.909854
O O13 0.000000 0.500000 0.500000
O O14 0.946270 0.534521 0.703056
O O15 0.298862 0.720141 0.929728
O O16 0.230981 0.514105 0.933436
O O17 0.789009 0.559913 0.864703
O O18 0.500000 0.500000 0.000000
#
# Coordination Sequence:
#
# PCOD8014548 Si02
#       8
#     2   2   2   2   2   2   2   2
#     4  10  23  39  69  97 127 174 224 266 331 400
#     4  11  24  41  67  99 130 172 222 280 336 387
#     4  11  23  43  63  94 137 172 214 281 340 385
#     4  10  21  41  68  95 132 174 221 270 328 405
#     4  11  23  46  71  96 131 176 227 275 333 409
#     4  10  22  40  65  94 132 171 223 263 329 401
#     4  12  25  39  62  99 133 170 221 278 331 384
#     4  11  25  42  66  94 133 181 221 268 333 410
#
# _framework density 21.343897999999999
#
# number of rings (size 3 to 8) (size 9 to 14) (size 15 to 20)
#    0.000    1.250    1.250    5.250    5.250    2.000 
#    0.000    2.500    0.000    0.000    0.000    0.000 
#    0.000    0.000    0.000    0.000    0.000    0.000 
#
# Total GULP energy -198390.657341 kJ/mol
# GULP energy per Si atom -12399.416084 kJ/mol
# Density = 2.129532 g / cm^3
# Si number density = 21.343898 Si / 1000 Ang^3
#
#
#
# Elastic Constant Matrix: (Units=GPa)
#
#
# Indices 1 2 3 4 5 6 
#
# 1 108.3685 44.6684 63.3981 -1.8071 -11.6279 20.3121
# 2 44.6684 124.2571 51.1086 4.8932 -14.5578 1.9404
# 3 63.3981 51.1086 129.7900 -5.8624 -10.7111 13.3731
# 4 -1.8071 4.8932 -5.8624 30.3366 4.5295 0.5893
# 5 -11.6279 -14.5578 -10.7111 4.5295 41.9544 -2.7653
# 6 20.3121 1.9404 13.3731 0.5893 -2.7653 38.0786
#
#
#
# Elastic Compliance Matrix: (Units=1/GPa)
#
#
# Indices 1 2 3 4 5 6 
#
# 1 0.014780 -0.002864 -0.005380 0.000217 0.001326 -0.005756
# 2 -0.002864 0.010678 -0.002953 -0.002898 0.002619 0.002256
# 3 -0.005380 -0.002953 0.011733 0.002424 0.000144 -0.001128
# 4 0.000217 -0.002898 0.002424 0.034567 -0.004168 -0.001657
# 5 0.001326 0.002619 0.000144 -0.004168 0.025667 0.001037
# 6 -0.005756 0.002256 -0.001128 -0.001657 0.001037 0.029714
#
#
# Mechanical properties :
#
#
# Convention : Reuss Voigt Hill
#
# Bulk Modulus (GPa) = 67.57674 75.64065 71.60870
# Shear Modulus (GPa) = 32.37013 35.62330 33.99671
#
# Velocity S-wave (km/s) = 3.89858 4.08979 3.99533
# Velocity P-wave (km/s) = 7.21075 7.60380 7.40988
#
# Compressibility (1/GPa) = 0.01479799
#
# Stress axis : x y z
#
# Youngs Moduli (GPa) = 67.65815 93.65356 85.23079
#
# Poissons Ratio (x) = 0.26820 0.45851
# Poissons Ratio (y) = 0.19376 0.25168
# Poissons Ratio (z) = 0.36398 0.27656
#
# Static dielectric constant tensor:
#      x y z
#    x 4.138760 0.175230 0.210470 
#    y 0.175230 4.227390 -0.090950 
#    z 0.210470 -0.090950 3.998090 
# 
# 
# High freq. dielectric constant tensor:
#      x y z
#    x 1.838890 0.011560 0.002800 
#    y 0.011560 1.841990 -0.007460 
#    z 0.002800 -0.007460 1.842020 
# 
# From -- ./inp_files/205870.got.cif
#   From: 2010.06.25/outbox.cif.g09.slc.cpg/sg2_103_cif.got.tgz:205870.got - 2010.06.27 13:26:56.
