data_PCOD8014083
_publ_section_title
;
Structure prediction by ZEFSAII (Michael W. Deem and Ramdas Pophale) SiO2 
 PCOD8014083
Probable space group: P -1
;
_chemical_formula_sum "Si O2"
_cell_formula_units_Z 14
_cell_length_a 8.764540
_cell_length_b 18.266714
_cell_length_c 12.040126
_cell_angle_alpha 32.335574
_cell_angle_beta 138.730304
_cell_angle_gamma 148.964492
_cell_volume 528.895106
_symmetry_space_group_name_H-M "P -1"
_symmetry_group_IT_number 2
_symmetry_cell_setting 'triclinic'
loop_
_space_group_symop_operation_xyz
x,y,z
-x,-y,-z
loop_
_atom_site_type_symbol
_atom_site_label
_atom_site_fract_x
_atom_site_fract_y
_atom_site_fract_z
Si Si1 0.252408 0.806500 0.995517
Si Si2 0.101936 0.070919 0.840924
Si Si3 0.300495 0.123364 0.570056
Si Si4 0.207149 0.385121 0.206301
Si Si5 0.160029 0.285070 0.919383
Si Si6 0.170959 0.394840 0.415290
Si Si7 0.087505 0.621303 0.498468
O O1 0.075010 0.727095 0.884331
O O2 0.361579 0.005959 0.821792
O O3 0.541996 0.818408 0.128466
O O4 0.025649 0.690870 0.122530
O O5 0.003587 0.187767 0.605658
O O6 0.000000 0.000000 0.000000
O O7 0.916406 0.904229 0.867689
O O8 0.293824 0.263380 0.456344
O O9 0.559833 0.238947 0.473074
O O10 0.000000 0.000000 0.500000
O O11 0.488274 0.556320 0.076743
O O12 0.135138 0.438526 0.213759
O O13 0.055530 0.285460 0.736170
O O14 0.500000 0.500000 0.500000
O O15 0.033865 0.460135 0.339814
O O16 0.000000 0.500000 0.500000
#
# Coordination Sequence:
#
# PCOD8014083 Si02
#       7
#     2   2   2   2   2   2   2
#     4  11  25  41  68 101 139 180 219 277 338 385
#     4  12  24  44  69 102 137 173 227 277 329 397
#     4  10  21  41  64  98 136 175 222 270 327 395
#     4  11  24  45  66 101 140 176 222 276 335 396
#     4  12  23  41  70  99 134 173 229 269 329 392
#     4  12  24  44  72  98 133 177 225 275 332 399
#     4  12  23  41  73  99 126 174 230 272 328 403
#
# _framework density 26.470276999999999
#
# number of rings (size 3 to 8) (size 9 to 14) (size 15 to 20)
#    0.000    0.571    5.714    1.714    4.000    0.000 
#    0.000   12.143    0.000    0.000    0.000    0.000 
#    0.000    0.000    0.000    0.000    0.000    0.000 
#
# Total GULP energy -173505.347342 kJ/mol
# GULP energy per Si atom -12393.239096 kJ/mol
# Density = 2.641003 g / cm^3
# Si number density = 26.470277 Si / 1000 Ang^3
#
#
#
# Elastic Constant Matrix: (Units=GPa)
#
#
# Indices 1 2 3 4 5 6 
#
# 1 168.5684 45.7049 27.3598 -12.5909 -40.5361 -4.7261
# 2 45.7049 124.5766 19.2395 -19.1065 -8.2679 10.2533
# 3 27.3598 19.2395 51.5056 1.7235 -11.8757 -7.5841
# 4 -12.5909 -19.1065 1.7235 27.4379 -2.6998 -2.6935
# 5 -40.5361 -8.2679 -11.8757 -2.6998 49.1690 -5.0604
# 6 -4.7261 10.2533 -7.5841 -2.6935 -5.0604 45.6472
#
#
#
# Elastic Compliance Matrix: (Units=1/GPa)
#
#
# Indices 1 2 3 4 5 6 
#
# 1 0.008797 -0.002051 -0.002172 0.003607 0.006784 0.001976
# 2 -0.002051 0.010484 -0.003636 0.006229 -0.000762 -0.002888
# 3 -0.002172 -0.003636 0.023569 -0.004204 0.003538 0.004652
# 4 0.003607 0.006229 -0.004204 0.043390 0.005537 0.001450
# 5 0.006784 -0.000762 0.003538 0.005537 0.027459 0.004832
# 6 0.001976 -0.002888 0.004652 0.001450 0.004832 0.024155
#
#
# Mechanical properties :
#
#
# Convention : Reuss Voigt Hill
#
# Bulk Modulus (GPa) = 36.85813 58.80658 47.83236
# Shear Modulus (GPa) = 30.74723 41.27390 36.01057
#
# Velocity S-wave (km/s) = 3.41189 3.95302 3.69238
# Velocity P-wave (km/s) = 5.42917 6.56502 6.02393
#
# Compressibility (1/GPa) = 0.02713105
#
# Stress axis : x y z
#
# Youngs Moduli (GPa) = 113.67092 95.38520 42.42880
#
# Poissons Ratio (x) = 0.19566 0.09217
# Poissons Ratio (y) = 0.23317 0.15426
# Poissons Ratio (z) = 0.24694 0.34681
#
# Static dielectric constant tensor:
#      x y z
#    x 4.926440 -0.197480 0.440980 
#    y -0.197480 4.668860 -0.712950 
#    z 0.440980 -0.712950 6.018530 
# 
# 
# High freq. dielectric constant tensor:
#      x y z
#    x 2.076370 -0.010190 0.000170 
#    y -0.010190 2.057330 -0.030440 
#    z 0.000170 -0.030440 2.062680 
# 
# From -- ./inp_files/158015.got.cif
#   From: 2010.06.25/outbox.cif.g09.slc.cpg/sg2_80_cif.got.tgz:158015.got - 2010.06.27 13:26:56.
