data_PCOD8014918
_publ_section_title
;
Structure prediction by ZEFSAII (Michael W. Deem and Ramdas Pophale) SiO2 
 PCOD8014918
Probable space group: P -1
;
_chemical_formula_sum "Si O2"
_cell_formula_units_Z 14
_cell_length_a 7.870635
_cell_length_b 17.906292
_cell_length_c 6.982519
_cell_angle_alpha 105.654079
_cell_angle_beta 76.988788
_cell_angle_gamma 141.663840
_cell_volume 587.604850
_symmetry_space_group_name_H-M "P -1"
_symmetry_group_IT_number 2
_symmetry_cell_setting 'triclinic'
loop_
_space_group_symop_operation_xyz
x,y,z
-x,-y,-z
loop_
_atom_site_type_symbol
_atom_site_label
_atom_site_fract_x
_atom_site_fract_y
_atom_site_fract_z
Si Si1 0.422776 0.189278 0.585308
Si Si2 0.309966 0.623568 0.678191
Si Si3 0.895312 0.763463 0.745169
Si Si4 0.190369 0.418839 0.551634
Si Si5 0.141439 0.936967 0.474281
Si Si6 0.188318 0.684278 0.085721
Si Si7 0.744946 0.128570 0.929433
O O1 0.613123 0.284560 0.430238
O O2 0.577193 0.264246 0.792786
O O3 0.125802 0.125382 0.614499
O O4 0.383520 0.083073 0.507668
O O5 0.578382 0.675904 0.741094
O O6 0.148760 0.493702 0.534481
O O7 0.133090 0.599002 0.880972
O O8 0.976494 0.704603 0.604961
O O9 0.074003 0.889484 0.675046
O O10 0.978135 0.794389 0.967580
O O11 0.500000 0.500000 0.500000
O O12 0.089771 0.387515 0.778429
O O13 0.235020 0.892950 0.308326
O O14 0.307269 0.797856 0.016103
O O15 0.500000 0.000000 0.000000
#
# Coordination Sequence:
#
# PCOD8014918 Si02
#       7
#     2   2   2   2   2   2   2
#     4  10  23  40  67  93 128 171 210 260 320 376
#     4  10  23  44  65  92 127 165 218 263 310 375
#     4  10  22  44  65  90 130 172 208 258 317 379
#     4  10  23  45  66  90 127 170 217 263 314 372
#     4  10  21  42  63  93 131 170 210 257 318 382
#     4  12  24  40  66  97 129 162 217 262 318 372
#     4  12  25  37  65  99 133 164 211 259 319 384
#
# _framework density 23.825534000000001
#
# number of rings (size 3 to 8) (size 9 to 14) (size 15 to 20)
#    0.000    1.429    1.429    3.000    4.000    1.714 
#    2.571    7.143    0.000    0.000    0.000    0.000 
#    0.000    0.000    0.000    0.000    0.000    0.000 
#
# Total GULP energy -173548.746562 kJ/mol
# GULP energy per Si atom -12396.339040 kJ/mol
# Density = 2.377131 g / cm^3
# Si number density = 23.825534 Si / 1000 Ang^3
#
#
#
# Elastic Constant Matrix: (Units=GPa)
#
#
# Indices 1 2 3 4 5 6 
#
# 1 54.1156 21.5788 8.1434 -7.6349 -7.2310 -16.0789
# 2 21.5788 122.6587 17.5598 -14.7541 -15.0207 -21.8243
# 3 8.1434 17.5598 74.1639 -8.0397 -17.2033 -13.9036
# 4 -7.6349 -14.7541 -8.0397 33.7738 -3.8625 -4.2543
# 5 -7.2310 -15.0207 -17.2033 -3.8625 43.9640 1.6609
# 6 -16.0789 -21.8243 -13.9036 -4.2543 1.6609 41.6195
#
#
#
# Elastic Compliance Matrix: (Units=1/GPa)
#
#
# Indices 1 2 3 4 5 6 
#
# 1 0.022978 -0.001322 0.001117 0.006480 0.003992 0.009060
# 2 -0.001322 0.010425 0.000122 0.005383 0.003661 0.005401
# 3 0.001117 0.000122 0.016827 0.005933 0.007088 0.006440
# 4 0.006480 0.005383 0.005933 0.037120 0.008081 0.010780
# 5 0.003992 0.003661 0.007088 0.008081 0.027927 0.005541
# 6 0.009060 0.005401 0.006440 0.010780 0.005541 0.033392
#
#
# Mechanical properties :
#
#
# Convention : Reuss Voigt Hill
#
# Bulk Modulus (GPa) = 19.97474 38.38915 29.18194
# Shear Modulus (GPa) = 30.20761 37.44852 33.82807
#
# Velocity S-wave (km/s) = 3.56458 3.96887 3.77214
# Velocity P-wave (km/s) = 5.03424 6.09509 5.58989
#
# Compressibility (1/GPa) = 0.05006324
#
# Stress axis : x y z
#
# Youngs Moduli (GPa) = 43.52061 95.92754 59.42919
#
# Poissons Ratio (x) = 0.12681 -0.06638
# Poissons Ratio (y) = 0.05753 -0.00726
# Poissons Ratio (z) = -0.04861 -0.01172
#
# Static dielectric constant tensor:
#      x y z
#    x 4.403690 -0.203880 -0.067910 
#    y -0.203880 4.623050 0.135130 
#    z -0.067910 0.135130 4.213700 
# 
# 
# High freq. dielectric constant tensor:
#      x y z
#    x 1.948150 -0.011820 -0.001560 
#    y -0.011820 1.961270 -0.000030 
#    z -0.001560 -0.000030 1.931110 
# 
# From -- ./inp_files/27180.got.cif
#   From: 2010.06.25/outbox.cif.g09.slc.cpg/sg2_14_cif.got.tgz:27180.got - 2010.06.27 13:26:56.
