data_PCOD8014758
_publ_section_title
;
Structure prediction by ZEFSAII (Michael W. Deem and Ramdas Pophale) SiO2 
 PCOD8014758
Probable space group: P -1
;
_chemical_formula_sum "Si O2"
_cell_formula_units_Z 14
_cell_length_a 8.391124
_cell_length_b 12.008714
_cell_length_c 8.667721
_cell_angle_alpha 114.015156
_cell_angle_beta 88.270124
_cell_angle_gamma 126.526620
_cell_volume 613.772587
_symmetry_space_group_name_H-M "P -1"
_symmetry_group_IT_number 2
_symmetry_cell_setting 'triclinic'
loop_
_space_group_symop_operation_xyz
x,y,z
-x,-y,-z
loop_
_atom_site_type_symbol
_atom_site_label
_atom_site_fract_x
_atom_site_fract_y
_atom_site_fract_z
Si Si1 0.778091 0.948315 0.994715
Si Si2 0.000338 0.479610 0.307386
Si Si3 0.239800 0.786090 0.313464
Si Si4 0.705887 0.971424 0.355914
Si Si5 0.408669 0.599300 0.864286
Si Si6 0.340639 0.312563 0.809495
Si Si7 0.021068 0.756885 0.018041
O O1 0.768760 0.003394 0.194339
O O2 0.785317 0.060142 0.930476
O O3 0.596859 0.760469 0.860657
O O4 0.000000 0.000000 0.000000
O O5 0.798309 0.436423 0.204753
O O6 0.030964 0.352805 0.190894
O O7 0.000000 0.500000 0.500000
O O8 0.203279 0.649291 0.339761
O O9 0.475522 0.911414 0.330699
O O10 0.161082 0.869293 0.455586
O O11 0.099163 0.706343 0.121388
O O12 0.732623 0.848540 0.360687
O O13 0.384703 0.439287 0.751622
O O14 0.450392 0.625162 0.064158
O O15 0.180905 0.270291 0.928748
#
# Coordination Sequence:
#
# PCOD8014758 Si02
#       7
#     2   2   2   2   2   2   2
#     4  11  22  41  67 103 138 176 224 286 341 401
#     4  12  27  45  67 100 143 178 230 283 342 408
#     4  11  25  43  69 101 135 183 231 282 338 411
#     4  10  23  43  67  98 142 176 228 282 342 403
#     4  10  22  41  69  99 133 176 226 274 341 396
#     4  10  21  41  72 100 127 178 228 279 332 408
#     4  12  23  41  73  97 131 185 227 279 344 399
#
# _framework density 22.809750000000001
#
# number of rings (size 3 to 8) (size 9 to 14) (size 15 to 20)
#    0.000    1.143    4.286    3.000    6.000    5.143 
#    0.000    0.714    0.000    0.000    0.000    0.000 
#    0.000    0.000    0.000    0.000    0.000    0.000 
#
# Total GULP energy -173454.933890 kJ/mol
# GULP energy per Si atom -12389.638135 kJ/mol
# Density = 2.275783 g / cm^3
# Si number density = 22.809750 Si / 1000 Ang^3
#
#
#
# Elastic Constant Matrix: (Units=GPa)
#
#
# Indices 1 2 3 4 5 6 
#
# 1 73.6107 17.4203 37.9066 -2.0482 -12.2152 -1.7158
# 2 17.4203 151.7697 45.1759 9.5019 -13.2024 -9.4453
# 3 37.9066 45.1759 96.1924 -2.2954 -19.5116 1.6598
# 4 -2.0482 9.5019 -2.2954 36.3031 -6.1653 -6.3148
# 5 -12.2152 -13.2024 -19.5116 -6.1653 29.6442 2.8569
# 6 -1.7158 -9.4453 1.6598 -6.3148 2.8569 35.3007
#
#
#
# Elastic Compliance Matrix: (Units=1/GPa)
#
#
# Indices 1 2 3 4 5 6 
#
# 1 0.017369 0.000136 -0.006232 0.001305 0.003277 0.001142
# 2 0.000136 0.007982 -0.003769 -0.001889 0.000550 0.001937
# 3 -0.006232 -0.003769 0.016164 0.002483 0.007121 -0.002204
# 4 0.001305 -0.001889 0.002483 0.030237 0.007208 0.004267
# 5 0.003277 0.000550 0.007121 0.007208 0.041719 -0.002115
# 6 0.001142 0.001937 -0.002204 0.004267 -0.002115 0.029940
#
#
# Mechanical properties :
#
#
# Convention : Reuss Voigt Hill
#
# Bulk Modulus (GPa) = 45.90619 58.06425 51.98522
# Shear Modulus (GPa) = 29.34231 34.98761 32.16496
#
# Velocity S-wave (km/s) = 3.59052 3.92074 3.75926
# Velocity P-wave (km/s) = 6.11216 6.78288 6.45623
#
# Compressibility (1/GPa) = 0.02178355
#
# Stress axis : x y z
#
# Youngs Moduli (GPa) = 57.57413 125.28255 61.86768
#
# Poissons Ratio (x) = -0.01702 0.38557
# Poissons Ratio (y) = -0.00782 0.23318
# Poissons Ratio (z) = 0.35882 0.47220
#
# Static dielectric constant tensor:
#      x y z
#    x 4.354570 -0.123400 -0.920910 
#    y -0.123400 5.361440 0.141100 
#    z -0.920910 0.141100 5.832170 
# 
# 
# High freq. dielectric constant tensor:
#      x y z
#    x 1.897960 -0.005190 -0.013160 
#    y -0.005190 1.918830 0.019530 
#    z -0.013160 0.019530 1.874130 
# 
# From -- ./inp_files/190034.got.cif
#   From: 2010.06.25/outbox.cif.g09.slc.cpg/sg2_96_cif.got.tgz:190034.got - 2010.06.27 13:26:56.
