data_PCOD8014899
_publ_section_title
;
Structure prediction by ZEFSAII (Michael W. Deem and Ramdas Pophale) SiO2 
 PCOD8014899
Probable space group: P -1
;
_chemical_formula_sum "Si O2"
_cell_formula_units_Z 16
_cell_length_a 13.266854
_cell_length_b 5.284942
_cell_length_c 13.609909
_cell_angle_alpha 59.073081
_cell_angle_beta 105.079102
_cell_angle_gamma 81.717092
_cell_volume 744.626186
_symmetry_space_group_name_H-M "P -1"
_symmetry_group_IT_number 2
_symmetry_cell_setting 'triclinic'
loop_
_space_group_symop_operation_xyz
x,y,z
-x,-y,-z
loop_
_atom_site_type_symbol
_atom_site_label
_atom_site_fract_x
_atom_site_fract_y
_atom_site_fract_z
Si Si1 0.550142 0.286808 0.341658
Si Si2 0.915488 0.517088 0.061567
Si Si3 0.758025 0.343886 0.493902
Si Si4 0.792288 0.068299 0.055341
Si Si5 0.466464 0.691464 0.052945
Si Si6 0.112015 0.348873 0.652476
Si Si7 0.988265 0.895132 0.646666
Si Si8 0.596341 0.603512 0.545603
O O1 0.647208 0.381474 0.397930
O O2 0.532864 0.446490 0.200250
O O3 0.429382 0.376869 0.348739
O O4 0.592071 0.915156 0.423780
O O5 0.984205 0.322658 0.208112
O O6 0.828648 0.367566 0.025239
O O7 0.000000 0.500000 0.000000
O O8 0.851935 0.870361 0.013802
O O9 0.802160 0.621606 0.414015
O O10 0.719756 0.374942 0.593489
O O11 0.855548 0.011184 0.575489
O O12 0.662496 0.201262 0.977596
O O13 0.817781 0.850006 0.200997
O O14 0.500000 0.500000 0.000000
O O15 0.500000 0.000000 0.000000
O O16 0.045157 0.701481 0.603403
O O17 0.027736 0.194917 0.614271
O O18 0.500000 0.500000 0.500000
#
# Coordination Sequence:
#
# PCOD8014899 Si02
#       8
#     2   2   2   2   2   2   2   2
#     4  10  24  43  64  94 136 164 226 275 318 393
#     4  10  21  42  63  89 125 165 214 265 317 384
#     4  11  22  37  66  90 124 173 209 255 340 372
#     4  10  22  41  61  92 123 168 207 267 330 372
#     4  12  27  44  70 102 132 175 227 272 334 398
#     4  10  22  38  61  89 132 156 207 263 314 385
#     4  10  23  38  59  95 125 160 210 258 313 391
#     4   9  22  43  63  90 128 174 216 270 327 379
#
# _framework density 21.487290999999999
#
# number of rings (size 3 to 8) (size 9 to 14) (size 15 to 20)
#    0.000    1.750    0.000    2.625    8.750    2.000 
#    6.750    0.000    0.000    0.000    0.000    0.000 
#    0.000    0.000    0.000    0.000    0.000    0.000 
#
# Total GULP energy -198307.368863 kJ/mol
# GULP energy per Si atom -12394.210554 kJ/mol
# Density = 2.143839 g / cm^3
# Si number density = 21.487291 Si / 1000 Ang^3
#
#
#
# Elastic Constant Matrix: (Units=GPa)
#
#
# Indices 1 2 3 4 5 6 
#
# 1 127.8764 34.9227 44.9788 11.9401 0.8706 -22.6887
# 2 34.9227 116.7461 32.7269 7.7257 -4.5031 -11.3508
# 3 44.9788 32.7269 74.4191 8.5564 -2.6718 0.5617
# 4 11.9401 7.7257 8.5564 24.6977 0.7840 -5.7240
# 5 0.8706 -4.5031 -2.6718 0.7840 34.3308 -2.2421
# 6 -22.6887 -11.3508 0.5617 -5.7240 -2.2421 37.2256
#
#
#
# Elastic Compliance Matrix: (Units=1/GPa)
#
#
# Indices 1 2 3 4 5 6 
#
# 1 0.011716 -0.000930 -0.006563 -0.001534 -0.000458 0.006693
# 2 -0.000930 0.010273 -0.003828 -0.000884 0.001261 0.002563
# 3 -0.006563 -0.003828 0.019606 -0.003841 0.000886 -0.006000
# 4 -0.001534 -0.000884 -0.003841 0.044165 -0.001020 0.005583
# 5 -0.000458 0.001261 0.000886 -0.001020 0.029509 0.001713
# 6 0.006693 0.002563 -0.006000 0.005583 0.001713 0.032776
#
#
# Mechanical properties :
#
#
# Convention : Reuss Voigt Hill
#
# Bulk Modulus (GPa) = 52.76113 60.47762 56.61937
# Shear Modulus (GPa) = 28.24760 33.01170 30.62965
#
# Velocity S-wave (km/s) = 3.62970 3.92386 3.77965
# Velocity P-wave (km/s) = 6.49417 6.98110 6.74203
#
# Compressibility (1/GPa) = 0.01895335
#
# Stress axis : x y z
#
# Youngs Moduli (GPa) = 85.35082 97.33938 51.00464
#
# Poissons Ratio (x) = 0.09057 0.33473
# Poissons Ratio (y) = 0.07942 0.19524
# Poissons Ratio (z) = 0.56014 0.37261
#
# Static dielectric constant tensor:
#      x y z
#    x 4.153550 -0.273880 -0.253340 
#    y -0.273880 4.378380 0.092230 
#    z -0.253340 0.092230 3.904200 
# 
# 
# High freq. dielectric constant tensor:
#      x y z
#    x 1.857400 -0.006320 -0.008130 
#    y -0.006320 1.856640 -0.000340 
#    z -0.008130 -0.000340 1.835030 
# 
# From -- ./inp_files/471121.got.cif
#   From: 2010.06.25/outbox.cif.g09.slc.cpg/sg2_236_cif.got.tgz:471121.got - 2010.06.27 13:26:56.
