data_PCOD8014638
_publ_section_title
;
Structure prediction by ZEFSAII (Michael W. Deem and Ramdas Pophale) SiO2 
 PCOD8014638
Probable space group: P -1
;
_chemical_formula_sum "Si O2"
_cell_formula_units_Z 16
_cell_length_a 18.066037
_cell_length_b 8.890015
_cell_length_c 21.221324
_cell_angle_alpha 40.049043
_cell_angle_beta 19.679193
_cell_angle_gamma 43.673589
_cell_volume 738.466775
_symmetry_space_group_name_H-M "P -1"
_symmetry_group_IT_number 2
_symmetry_cell_setting 'triclinic'
loop_
_space_group_symop_operation_xyz
x,y,z
-x,-y,-z
loop_
_atom_site_type_symbol
_atom_site_label
_atom_site_fract_x
_atom_site_fract_y
_atom_site_fract_z
Si Si1 0.010293 0.976827 0.151909
Si Si2 0.823692 0.689948 0.193010
Si Si3 0.383586 0.978729 0.952917
Si Si4 0.546667 0.746499 0.074662
Si Si5 0.205956 0.935857 0.478516
Si Si6 0.837353 0.299327 0.677636
Si Si7 0.980825 0.479278 0.784043
Si Si8 0.333040 0.805139 0.556991
O O1 0.005011 0.703463 0.225891
O O2 0.203611 0.034726 0.026849
O O3 0.777729 0.036901 0.351039
O O4 0.045467 0.134020 0.012207
O O5 0.982294 0.652229 0.137344
O O6 0.591371 0.798802 0.367247
O O7 0.775330 0.450282 0.271569
O O8 0.405806 0.214233 0.902138
O O9 0.618853 0.926579 0.748590
O O10 0.312376 0.757747 0.122875
O O11 0.319079 0.613278 0.282772
O O12 0.741810 0.599047 0.934279
O O13 0.500000 0.000000 0.000000
O O14 0.166826 0.677565 0.564232
O O15 0.297884 0.922385 0.479648
O O16 0.971988 0.067930 0.623455
O O17 0.000000 0.500000 0.500000
#
# Coordination Sequence:
#
# PCOD8014638 Si02
#       8
#     2   2   2   2   2   2   2   2
#     4  12  23  41  70 104 138 181 228 280 338 403
#     4  10  22  42  67 100 139 183 224 278 338 405
#     4  11  23  43  70  95 131 180 224 270 347 402
#     4  10  22  48  68  94 135 180 226 281 341 400
#     4  11  22  45  66  96 137 181 225 278 343 410
#     4  11  25  45  71  99 133 173 230 291 336 403
#     4  11  24  44  67 101 144 177 230 287 337 402
#     4  10  21  41  69  96 139 179 227 274 337 407
#
# _framework density 21.666512999999998
#
# number of rings (size 3 to 8) (size 9 to 14) (size 15 to 20)
#    0.000    1.250    5.000    1.500    1.750    2.500 
#    4.500    0.000    0.000    0.000    0.000    0.000 
#    0.000    0.000    0.000    0.000    0.000    0.000 
#
# Total GULP energy -198414.938742 kJ/mol
# GULP energy per Si atom -12400.933671 kJ/mol
# Density = 2.161720 g / cm^3
# Si number density = 21.666513 Si / 1000 Ang^3
#
#
#
# Elastic Constant Matrix: (Units=GPa)
#
#
# Indices 1 2 3 4 5 6 
#
# 1 104.6871 58.6179 58.1971 2.5401 -15.8547 6.6663
# 2 58.6179 118.5190 61.0362 22.4450 2.9312 15.5582
# 3 58.1971 61.0362 132.4387 5.2776 8.0071 3.4982
# 4 2.5401 22.4450 5.2776 40.0890 -1.5072 -6.1349
# 5 -15.8547 2.9312 8.0071 -1.5072 33.7113 4.5813
# 6 6.6663 15.5582 3.4982 -6.1349 4.5813 33.3248
#
#
#
# Elastic Compliance Matrix: (Units=1/GPa)
#
#
# Indices 1 2 3 4 5 6 
#
# 1 0.018113 -0.007055 -0.005493 0.003849 0.010679 -0.000512
# 2 -0.007055 0.016801 -0.003862 -0.009701 -0.003295 -0.007360
# 3 -0.005493 -0.003862 0.011957 0.001131 -0.005390 0.002596
# 4 0.003849 -0.009701 0.001131 0.031469 0.002557 0.009082
# 5 0.010679 -0.003295 -0.005390 0.002557 0.036999 -0.004648
# 6 -0.000512 -0.007360 0.002596 0.009082 -0.004648 0.035585
#
#
# Mechanical properties :
#
#
# Convention : Reuss Voigt Hill
#
# Bulk Modulus (GPa) = 71.18029 79.03858 75.10943
# Shear Modulus (GPa) = 26.53535 33.27793 29.90664
#
# Velocity S-wave (km/s) = 3.50339 3.92333 3.71929
# Velocity P-wave (km/s) = 7.02061 7.55527 7.29284
#
# Compressibility (1/GPa) = 0.01404883
#
# Stress axis : x y z
#
# Youngs Moduli (GPa) = 55.20897 59.52105 83.63378
#
# Poissons Ratio (x) = 0.41993 0.45943
# Poissons Ratio (y) = 0.38950 0.32303
# Poissons Ratio (z) = 0.30328 0.22990
#
# Static dielectric constant tensor:
#      x y z
#    x 4.341550 0.005780 -0.289300 
#    y 0.005780 3.945650 0.075160 
#    z -0.289300 0.075160 3.953230 
# 
# 
# High freq. dielectric constant tensor:
#      x y z
#    x 1.854560 0.000130 -0.014090 
#    y 0.000130 1.842750 0.007550 
#    z -0.014090 0.007550 1.852440 
# 
# From -- ./inp_files/218512.got.cif
#   From: 2010.06.25/outbox.cif.g09.slc.cpg/sg2_110_cif.got.tgz:218512.got - 2010.06.27 13:26:56.
