data_PCOD8014597
_publ_section_title
;
Structure prediction by ZEFSAII (Michael W. Deem and Ramdas Pophale) SiO2 
 PCOD8014597
Probable space group: P -1
;
_chemical_formula_sum "Si O2"
_cell_formula_units_Z 16
_cell_length_a 9.423052
_cell_length_b 11.739144
_cell_length_c 8.187562
_cell_angle_alpha 126.717392
_cell_angle_beta 90.105835
_cell_angle_gamma 76.987943
_cell_volume 697.063768
_symmetry_space_group_name_H-M "P -1"
_symmetry_group_IT_number 2
_symmetry_cell_setting 'triclinic'
loop_
_space_group_symop_operation_xyz
x,y,z
-x,-y,-z
loop_
_atom_site_type_symbol
_atom_site_label
_atom_site_fract_x
_atom_site_fract_y
_atom_site_fract_z
Si Si1 0.652043 0.244520 0.383646
Si Si2 0.777384 0.334793 0.965937
Si Si3 0.085479 0.833869 0.903531
Si Si4 0.603073 0.947496 0.111209
Si Si5 0.230232 0.531216 0.234954
Si Si6 0.525395 0.721596 0.137468
Si Si7 0.345275 0.377079 0.602618
Si Si8 0.155185 0.306792 0.269201
O O1 0.742078 0.205906 0.181894
O O2 0.747427 0.320226 0.561572
O O3 0.485166 0.352391 0.456750
O O4 0.640316 0.086780 0.318137
O O5 0.900768 0.195105 0.924522
O O6 0.721245 0.450061 0.213622
O O7 0.851245 0.411821 0.889597
O O8 0.639981 0.289416 0.846793
O O9 0.003728 0.721047 0.725420
O O10 0.000000 0.000000 0.000000
O O11 0.519834 0.876317 0.184914
O O12 0.753227 0.830979 0.955383
O O13 0.500000 0.000000 0.000000
O O14 0.135559 0.457002 0.291421
O O15 0.387462 0.413591 0.094009
O O16 0.602795 0.713374 0.307636
O O17 0.224660 0.316615 0.455246
#
# Coordination Sequence:
#
# PCOD8014597 Si02
#       8
#     2   2   2   2   2   2   2   2
#     4  12  22  42  67 100 132 170 229 271 331 389
#     4  11  22  43  71 101 136 170 220 285 336 389
#     4  12  28  46  65  93 142 187 220 263 336 409
#     4  11  22  38  64  98 134 181 217 278 328 390
#     4  10  22  42  71 101 128 169 226 284 335 385
#     4  10  21  41  69 106 136 164 222 283 343 385
#     4  11  22  41  73 107 127 165 227 290 331 382
#     4  11  25  44  65  97 138 180 224 267 333 403
#
# _framework density 22.953423000000001
#
# number of rings (size 3 to 8) (size 9 to 14) (size 15 to 20)
#    0.000    1.000    5.000    2.250    1.750    4.000 
#    2.250    3.125    0.000    0.000    0.000    0.000 
#    0.000    0.000    0.000    0.000    0.000    0.000 
#
# Total GULP energy -198330.824904 kJ/mol
# GULP energy per Si atom -12395.676556 kJ/mol
# Density = 2.290118 g / cm^3
# Si number density = 22.953423 Si / 1000 Ang^3
#
#
#
# Elastic Constant Matrix: (Units=GPa)
#
#
# Indices 1 2 3 4 5 6 
#
# 1 70.8370 46.2535 17.7165 -9.2390 22.1302 14.3021
# 2 46.2535 186.9468 52.2955 -9.0259 25.3586 4.6104
# 3 17.7165 52.2955 76.2968 6.4946 18.5608 11.0874
# 4 -9.2390 -9.0259 6.4946 39.1198 -0.8403 10.4152
# 5 22.1302 25.3586 18.5608 -0.8403 27.7517 2.3448
# 6 14.3021 4.6104 11.0874 10.4152 2.3448 35.0549
#
#
#
# Elastic Compliance Matrix: (Units=1/GPa)
#
#
# Indices 1 2 3 4 5 6 
#
# 1 0.024255 -0.003716 0.001801 0.007166 -0.016001 -0.011036
# 2 -0.003716 0.007693 -0.004461 0.001174 -0.001187 0.001646
# 3 0.001801 -0.004461 0.019041 -0.002722 -0.009780 -0.004708
# 4 0.007166 0.001174 -0.002722 0.030890 -0.003087 -0.011189
# 5 -0.016001 -0.001187 -0.009780 -0.003087 0.055737 0.006966
# 6 -0.011036 0.001646 -0.004708 -0.011189 0.006966 0.037160
#
#
# Mechanical properties :
#
#
# Convention : Reuss Voigt Hill
#
# Bulk Modulus (GPa) = 26.15218 62.95686 44.55452
# Shear Modulus (GPa) = 24.96589 34.90629 29.93609
#
# Velocity S-wave (km/s) = 3.30157 3.90390 3.61530
# Velocity P-wave (km/s) = 5.09433 6.91435 6.07291
#
# Compressibility (1/GPa) = 0.03823774
#
# Stress axis : x y z
#
# Youngs Moduli (GPa) = 41.22927 129.98004 52.51854
#
# Poissons Ratio (x) = 0.48304 -0.09461
# Poissons Ratio (y) = 0.15322 0.23427
# Poissons Ratio (z) = -0.07427 0.57981
#
# Static dielectric constant tensor:
#      x y z
#    x 4.054240 0.241800 -0.064830 
#    y 0.241800 4.362010 0.091480 
#    z -0.064830 0.091480 4.083170 
# 
# 
# High freq. dielectric constant tensor:
#      x y z
#    x 1.888850 0.011200 0.004140 
#    y 0.011200 1.915760 0.001860 
#    z 0.004140 0.001860 1.898830 
# 
# From -- ./inp_files/182511.got.cif
#   From: 2010.06.25/outbox.cif.g09.slc.cpg/sg2_92_cif.got.tgz:182511.got - 2010.06.27 13:26:56.
