data_PCOD8014242
_publ_section_title
;
Structure prediction by ZEFSAII (Michael W. Deem and Ramdas Pophale) SiO2 
 PCOD8014242
Probable space group: P -1
;
_chemical_formula_sum "Si O2"
_cell_formula_units_Z 16
_cell_length_a 9.906610
_cell_length_b 14.990137
_cell_length_c 13.301924
_cell_angle_alpha 131.361718
_cell_angle_beta 146.351070
_cell_angle_gamma 71.049419
_cell_volume 690.475183
_symmetry_space_group_name_H-M "P -1"
_symmetry_group_IT_number 2
_symmetry_cell_setting 'triclinic'
loop_
_space_group_symop_operation_xyz
x,y,z
-x,-y,-z
loop_
_atom_site_type_symbol
_atom_site_label
_atom_site_fract_x
_atom_site_fract_y
_atom_site_fract_z
Si Si1 0.853958 0.332236 0.267024
Si Si2 0.344628 0.649401 0.211811
Si Si3 0.836169 0.725659 0.417618
Si Si4 0.398587 0.305776 0.227338
Si Si5 0.754593 0.902989 0.355016
Si Si6 0.948783 0.349811 0.682765
Si Si7 0.311137 0.396780 0.447462
Si Si8 0.158511 0.833896 0.328906
O O1 0.000000 0.500000 0.500000
O O2 0.915239 0.258025 0.341870
O O3 0.997261 0.315634 0.243596
O O4 0.508867 0.242814 0.966467
O O5 0.540121 0.667228 0.251108
O O6 0.473583 0.633634 0.383174
O O7 0.306466 0.780292 0.303215
O O8 0.034519 0.504332 0.890542
O O9 0.906728 0.869920 0.515404
O O10 0.815591 0.626973 0.238270
O O11 0.626183 0.265862 0.373044
O O12 0.267666 0.341833 0.267151
O O13 0.557759 0.436264 0.345506
O O14 0.124611 0.178934 0.905789
O O15 0.634150 0.998731 0.393839
O O16 0.000000 0.000000 0.500000
O O17 0.948757 0.257413 0.704280
#
# Coordination Sequence:
#
# PCOD8014242 Si02
#       8
#     2   2   2   2   2   2   2   2
#     4  11  28  48  76 109 147 187 246 313 361 439
#     4  11  23  44  70 110 145 191 242 313 361 424
#     4  11  28  45  75 106 145 193 244 302 370 427
#     4  11  23  38  71 107 140 194 229 300 363 428
#     4  12  30  50  71 106 149 201 246 295 370 447
#     4  12  23  42  72 109 146 188 247 304 361 432
#     4  10  21  41  66 109 145 176 248 293 364 423
#     4  12  26  46  69 101 154 189 246 294 364 444
#
# _framework density 23.172447999999999
#
# number of rings (size 3 to 8) (size 9 to 14) (size 15 to 20)
#    0.000    0.750    3.750    3.000   12.250    2.000 
#    0.000    1.250    0.000    0.000    0.000    0.000 
#    0.000    0.000    0.000    0.000    0.000    0.000 
#
# Total GULP energy -198330.383899 kJ/mol
# GULP energy per Si atom -12395.648994 kJ/mol
# Density = 2.311971 g / cm^3
# Si number density = 23.172448 Si / 1000 Ang^3
#
#
#
# Elastic Constant Matrix: (Units=GPa)
#
#
# Indices 1 2 3 4 5 6 
#
# 1 100.7437 34.0454 32.4102 -1.2526 -2.1533 1.5529
# 2 34.0454 132.9433 52.5821 -5.4896 -9.0276 -0.2842
# 3 32.4102 52.5821 114.5988 -3.9361 3.7714 -6.2477
# 4 -1.2526 -5.4896 -3.9361 37.7265 -9.1159 -4.3296
# 5 -2.1533 -9.0276 3.7714 -9.1159 22.5864 5.5773
# 6 1.5529 -0.2842 -6.2477 -4.3296 5.5773 39.2548
#
#
#
# Elastic Compliance Matrix: (Units=1/GPa)
#
#
# Indices 1 2 3 4 5 6 
#
# 1 0.011385 -0.001888 -0.002441 -0.000031 0.000972 -0.000994
# 2 -0.001888 0.010198 -0.004320 0.002244 0.005798 -0.001115
# 3 -0.002441 -0.004320 0.011680 -0.000327 -0.004672 0.002552
# 4 -0.000031 0.002244 -0.000327 0.030038 0.012708 0.001473
# 5 0.000972 0.005798 -0.004672 0.012708 0.054337 -0.007059
# 6 -0.000994 -0.001115 0.002552 0.001473 -0.007059 0.027077
#
#
# Mechanical properties :
#
#
# Convention : Reuss Voigt Hill
#
# Bulk Modulus (GPa) = 62.63187 65.15123 63.89155
# Shear Modulus (GPa) = 29.88032 35.19674 32.53853
#
# Velocity S-wave (km/s) = 3.59482 3.90154 3.75132
# Velocity P-wave (km/s) = 6.65715 6.96225 6.81141
#
# Compressibility (1/GPa) = 0.01596631
#
# Stress axis : x y z
#
# Youngs Moduli (GPa) = 87.83441 98.05799 85.61441
#
# Poissons Ratio (x) = 0.18509 0.20899
# Poissons Ratio (y) = 0.16579 0.36985
# Poissons Ratio (z) = 0.21441 0.42361
#
# Static dielectric constant tensor:
#      x y z
#    x 4.375590 0.022850 -0.180020 
#    y 0.022850 4.346450 -0.092440 
#    z -0.180020 -0.092440 3.910100 
# 
# 
# High freq. dielectric constant tensor:
#      x y z
#    x 1.937980 0.002200 -0.009290 
#    y 0.002200 1.919620 -0.021220 
#    z -0.009290 -0.021220 1.886490 
# 
# From -- ./inp_files/522455.got.cif
#   From: 2010.06.25/outbox.cif.g09.slc.cpg/sg2_262_cif.got.tgz:522455.got - 2010.06.27 13:26:56.
