data_PCOD8014468
_publ_section_title
;
Structure prediction by ZEFSAII (Michael W. Deem and Ramdas Pophale) SiO2 
 PCOD8014468
Probable space group: P -1
;
_chemical_formula_sum "Si O2"
_cell_formula_units_Z 14
_cell_length_a 8.553194
_cell_length_b 10.491423
_cell_length_c 9.012395
_cell_angle_alpha 49.783291
_cell_angle_beta 88.347099
_cell_angle_gamma 102.092153
_cell_volume 589.084421
_symmetry_space_group_name_H-M "P -1"
_symmetry_group_IT_number 2
_symmetry_cell_setting 'triclinic'
loop_
_space_group_symop_operation_xyz
x,y,z
-x,-y,-z
loop_
_atom_site_type_symbol
_atom_site_label
_atom_site_fract_x
_atom_site_fract_y
_atom_site_fract_z
Si Si1 0.030127 0.745607 0.393651
Si Si2 0.981401 0.651174 0.775820
Si Si3 0.160227 0.290012 0.852831
Si Si4 0.892763 0.053274 0.242770
Si Si5 0.674917 0.495455 0.042364
Si Si6 0.650138 0.976511 0.919493
Si Si7 0.424050 0.894849 0.724651
O O1 0.031895 0.617656 0.629950
O O2 0.903074 0.640585 0.349372
O O3 0.211793 0.837759 0.255359
O O4 0.948484 0.881308 0.371112
O O5 0.075460 0.849337 0.672078
O O6 0.787346 0.624414 0.819856
O O7 0.000000 0.500000 0.000000
O O8 0.272402 0.444506 0.834858
O O9 0.261924 0.154615 0.907916
O O10 0.992615 0.184038 0.016725
O O11 0.696765 0.015101 0.251177
O O12 0.684905 0.298527 0.177000
O O13 0.500000 0.500000 0.000000
O O14 0.574205 0.889937 0.830550
O O15 0.500000 0.000000 0.000000
O O16 0.500000 0.000000 0.500000
#
# Coordination Sequence:
#
# PCOD8014468 Si02
#       7
#     2   2   2   2   2   2   2
#     4  11  23  42  70 102 131 180 227 264 338 401
#     4  11  23  42  68  96 137 177 223 273 324 396
#     4  10  22  43  69  94 133 180 220 275 335 397
#     4  10  21  41  67  97 134 174 223 271 326 403
#     4  11  24  45  66  93 137 175 220 279 337 390
#     4  11  22  41  67 103 138 171 221 283 332 391
#     4  12  24  39  69 102 129 173 228 275 328 399
#
# _framework density 23.765692999999999
#
# number of rings (size 3 to 8) (size 9 to 14) (size 15 to 20)
#    0.000    1.143    2.857    4.714    2.000    0.000 
#    0.000    5.000    0.000    0.000    0.000    0.000 
#    0.000    0.000    0.000    0.000    0.000    0.000 
#
# Total GULP energy -173534.798622 kJ/mol
# GULP energy per Si atom -12395.342759 kJ/mol
# Density = 2.371160 g / cm^3
# Si number density = 23.765693 Si / 1000 Ang^3
#
#
#
# Elastic Constant Matrix: (Units=GPa)
#
#
# Indices 1 2 3 4 5 6 
#
# 1 147.9759 24.3189 36.2364 18.3431 -14.4067 0.5173
# 2 24.3189 103.0997 28.9946 20.9804 -4.9372 17.6010
# 3 36.2364 28.9946 104.5741 32.0201 3.9708 15.0408
# 4 18.3431 20.9804 32.0201 36.1345 7.6903 3.6271
# 5 -14.4067 -4.9372 3.9708 7.6903 24.3774 8.4078
# 6 0.5173 17.6010 15.0408 3.6271 8.4078 44.0559
#
#
#
# Elastic Compliance Matrix: (Units=1/GPa)
#
#
# Indices 1 2 3 4 5 6 
#
# 1 0.008363 -0.000335 -0.001868 -0.003742 0.006445 -0.000249
# 2 -0.000335 0.012767 -0.000534 -0.007660 0.006818 -0.005585
# 3 -0.001868 -0.000534 0.014360 -0.011366 0.001414 -0.004001
# 4 -0.003742 -0.007660 -0.011366 0.047508 -0.019224 0.006742
# 5 0.006445 0.006818 0.001414 -0.019224 0.056340 -0.012452
# 6 -0.000249 -0.005585 -0.004001 0.006742 -0.012452 0.028120
#
#
# Mechanical properties :
#
#
# Convention : Reuss Voigt Hill
#
# Bulk Modulus (GPa) = 33.31527 59.41663 46.36595
# Shear Modulus (GPa) = 27.33184 38.65354 32.99269
#
# Velocity S-wave (km/s) = 3.39492 4.03729 3.72996
# Velocity P-wave (km/s) = 5.42365 6.84019 6.17269
#
# Compressibility (1/GPa) = 0.03001627
#
# Stress axis : x y z
#
# Youngs Moduli (GPa) = 119.58118 78.32554 69.63793
#
# Poissons Ratio (x) = 0.02621 0.13009
# Poissons Ratio (y) = 0.04001 0.03719
# Poissons Ratio (z) = 0.22339 0.04183
#
# Static dielectric constant tensor:
#      x y z
#    x 4.956250 0.066050 -0.275920 
#    y 0.066050 4.642650 0.098050 
#    z -0.275920 0.098050 4.798290 
# 
# 
# High freq. dielectric constant tensor:
#      x y z
#    x 1.966150 0.001010 0.006950 
#    y 0.001010 1.944640 0.013960 
#    z 0.006950 0.013960 1.920860 
# 
# From -- ./inp_files/174313.got.cif
#   From: 2010.06.25/outbox.cif.g09.slc.cpg/sg2_88_cif.got.tgz:174313.got - 2010.06.27 13:26:56.
