data_PCOD8014374
_publ_section_title
;
Structure prediction by ZEFSAII (Michael W. Deem and Ramdas Pophale) SiO2 
 PCOD8014374
Probable space group: P -1
;
_chemical_formula_sum "Si O2"
_cell_formula_units_Z 14
_cell_length_a 8.482931
_cell_length_b 9.829145
_cell_length_c 9.059900
_cell_angle_alpha 67.453326
_cell_angle_beta 72.905050
_cell_angle_gamma 70.320677
_cell_volume 645.017532
_symmetry_space_group_name_H-M "P -1"
_symmetry_group_IT_number 2
_symmetry_cell_setting 'triclinic'
loop_
_space_group_symop_operation_xyz
x,y,z
-x,-y,-z
loop_
_atom_site_type_symbol
_atom_site_label
_atom_site_fract_x
_atom_site_fract_y
_atom_site_fract_z
Si Si1 0.077168 0.318831 0.549431
Si Si2 0.358078 0.953704 0.152938
Si Si3 0.204554 0.717281 0.162693
Si Si4 0.430579 0.287148 0.594971
Si Si5 0.062192 0.138995 0.348070
Si Si6 0.118066 0.619276 0.923720
Si Si7 0.464853 0.515683 0.736237
O O1 0.243986 0.264072 0.626784
O O2 0.123196 0.245525 0.406404
O O3 0.000000 0.500000 0.500000
O O4 0.928192 0.249527 0.680274
O O5 0.282515 0.861870 0.087869
O O6 0.442912 0.860538 0.311054
O O7 0.213042 0.088677 0.207254
O O8 0.500000 0.000000 0.000000
O O9 0.353863 0.564795 0.208744
O O10 0.097803 0.704809 0.050544
O O11 0.406052 0.424591 0.658313
O O12 0.513163 0.325551 0.403031
O O13 0.914336 0.254966 0.249304
O O14 0.000000 0.000000 0.500000
O O15 0.318334 0.534964 0.891279
O O16 0.000000 0.500000 0.000000
#
# Coordination Sequence:
#
# PCOD8014374 Si02
#       7
#     2   2   2   2   2   2   2
#     4  12  23  44  74 108 137 186 243 289 356 432
#     4  11  27  46  68 100 143 191 240 297 355 424
#     4  11  24  43  71  99 144 182 234 298 358 420
#     4  10  22  40  70  96 139 182 234 288 354 420
#     4  12  27  48  71 101 148 189 239 290 354 436
#     4  12  27  42  72 107 143 183 243 301 364 419
#     4  10  21  41  67 102 139 179 231 293 359 418
#
# _framework density 21.704839
#
# number of rings (size 3 to 8) (size 9 to 14) (size 15 to 20)
#    0.000    0.857    2.857    3.857    8.000    3.429 
#    0.000    0.000    0.000    0.000    0.000    0.000 
#    0.000    0.000    0.000    0.000    0.000    0.000 
#
# Total GULP energy -173564.270432 kJ/mol
# GULP energy per Si atom -12397.447888 kJ/mol
# Density = 2.165544 g / cm^3
# Si number density = 21.704839 Si / 1000 Ang^3
#
#
#
# Elastic Constant Matrix: (Units=GPa)
#
#
# Indices 1 2 3 4 5 6 
#
# 1 126.4689 33.6234 35.7580 3.3338 0.0533 11.6394
# 2 33.6234 85.8770 35.1001 4.3163 4.4253 12.8933
# 3 35.7580 35.1001 96.4208 1.7247 -11.6558 12.8197
# 4 3.3338 4.3163 1.7247 35.7054 0.4899 -4.3272
# 5 0.0533 4.4253 -11.6558 0.4899 51.7064 8.1099
# 6 11.6394 12.8933 12.8197 -4.3272 8.1099 35.5424
#
#
#
# Elastic Compliance Matrix: (Units=1/GPa)
#
#
# Indices 1 2 3 4 5 6 
#
# 1 0.009381 -0.002445 -0.002412 -0.000627 -0.000124 -0.001363
# 2 -0.002445 0.014990 -0.004357 -0.001696 -0.001798 -0.002862
# 3 -0.002412 -0.004357 0.013827 -0.000407 0.004060 -0.003593
# 4 -0.000627 -0.001696 -0.000407 0.028873 -0.000957 0.004701
# 5 -0.000124 -0.001798 0.004060 -0.000957 0.021320 -0.005753
# 6 -0.001363 -0.002862 -0.003593 0.004701 -0.005753 0.032801
#
#
# Mechanical properties :
#
#
# Convention : Reuss Voigt Hill
#
# Bulk Modulus (GPa) = 50.57524 57.52552 54.05038
# Shear Modulus (GPa) = 34.19757 38.20984 36.20371
#
# Velocity S-wave (km/s) = 3.97366 4.20030 4.08855
# Velocity P-wave (km/s) = 6.66372 7.07704 6.87349
#
# Compressibility (1/GPa) = 0.01977252
#
# Stress axis : x y z
#
# Youngs Moduli (GPa) = 106.59909 66.71153 72.32093
#
# Poissons Ratio (x) = 0.16308 0.17441
# Poissons Ratio (y) = 0.26059 0.31507
# Poissons Ratio (z) = 0.25707 0.29064
#
# Static dielectric constant tensor:
#      x y z
#    x 3.975290 -0.024230 -0.066390 
#    y -0.024230 3.835880 -0.005930 
#    z -0.066390 -0.005930 4.261090 
# 
# 
# High freq. dielectric constant tensor:
#      x y z
#    x 1.868460 -0.000710 -0.003940 
#    y -0.000710 1.843160 0.005150 
#    z -0.003940 0.005150 1.856800 
# 
# From -- ./inp_files/157137.got.cif
#   From: 2010.06.25/outbox.cif.g09.slc.cpg/sg2_79_cif.got.tgz:157137.got - 2010.06.27 13:26:56.
