data_PCOD8014171
_publ_section_title
;
Structure prediction by ZEFSAII (Michael W. Deem and Ramdas Pophale) SiO2 
 PCOD8014171
Probable space group: P -1
;
_chemical_formula_sum "Si O2"
_cell_formula_units_Z 16
_cell_length_a 14.368040
_cell_length_b 12.464573
_cell_length_c 8.624008
_cell_angle_alpha 94.136987
_cell_angle_beta 99.138815
_cell_angle_gamma 27.951293
_cell_volume 706.948992
_symmetry_space_group_name_H-M "P -1"
_symmetry_group_IT_number 2
_symmetry_cell_setting 'triclinic'
loop_
_space_group_symop_operation_xyz
x,y,z
-x,-y,-z
loop_
_atom_site_type_symbol
_atom_site_label
_atom_site_fract_x
_atom_site_fract_y
_atom_site_fract_z
Si Si1 0.945921 0.335585 0.603316
Si Si2 0.804031 0.092260 0.531427
Si Si3 0.355347 0.534229 0.415859
Si Si4 0.777165 0.575502 0.263323
Si Si5 0.379717 0.534788 0.073402
Si Si6 0.010362 0.158814 0.133692
Si Si7 0.865390 0.691258 0.115563
Si Si8 0.604680 0.127420 0.937150
O O1 0.746592 0.477841 0.627709
O O2 0.888110 0.459942 0.446658
O O3 0.002862 0.358086 0.756650
O O4 0.119057 0.068784 0.596499
O O5 0.570202 0.299395 0.532175
O O6 0.790789 0.234539 0.499900
O O7 0.949894 0.934083 0.699867
O O8 0.392410 0.551658 0.259165
O O9 0.910461 0.376291 0.152803
O O10 0.768302 0.705970 0.213066
O O11 0.551253 0.750873 0.229160
O O12 0.500000 0.500000 0.000000
O O13 0.140777 0.769202 0.989349
O O14 0.479989 0.316881 0.054232
O O15 0.220972 0.966609 0.081644
O O16 0.000000 0.500000 0.000000
O O17 0.683697 0.937477 0.011392
#
# Coordination Sequence:
#
# PCOD8014171 Si02
#       8
#     2   2   2   2   2   2   2   2
#     4  11  24  43  68  93 133 175 220 270 333 391
#     4  10  23  41  65  94 130 172 217 268 330 389
#     4  11  23  41  65  96 133 169 225 267 324 396
#     4  10  23  43  65  96 127 173 221 272 328 390
#     4  11  25  40  64 101 135 171 217 267 328 398
#     4  10  21  41  65  93 132 171 220 266 325 389
#     4  12  24  43  68  96 134 174 222 278 330 383
#     4  11  22  41  68  93 135 175 216 273 332 386
#
# _framework density 22.632467999999999
#
# number of rings (size 3 to 8) (size 9 to 14) (size 15 to 20)
#    0.000    1.250    1.250    4.125    1.750    9.000 
#    2.250    0.625    0.000    0.000    0.000    0.000 
#    0.000    0.000    0.000    0.000    0.000    0.000 
#
# Total GULP energy -198353.331863 kJ/mol
# GULP energy per Si atom -12397.083241 kJ/mol
# Density = 2.258096 g / cm^3
# Si number density = 22.632468 Si / 1000 Ang^3
#
#
#
# Elastic Constant Matrix: (Units=GPa)
#
#
# Indices 1 2 3 4 5 6 
#
# 1 107.1128 19.5073 17.7749 4.6631 13.2922 -3.3977
# 2 19.5073 105.0332 35.8205 -2.9981 13.8198 12.9543
# 3 17.7749 35.8205 84.6405 6.9019 18.3106 -0.0505
# 4 4.6631 -2.9981 6.9019 29.1238 -3.4503 2.8298
# 5 13.2922 13.8198 18.3106 -3.4503 43.4643 -4.0393
# 6 -3.3977 12.9543 -0.0505 2.8298 -4.0393 29.5478
#
#
#
# Elastic Compliance Matrix: (Units=1/GPa)
#
#
# Indices 1 2 3 4 5 6 
#
# 1 0.010186 -0.001593 -0.000807 -0.002043 -0.002268 0.001754
# 2 -0.001593 0.012566 -0.004850 0.003091 -0.001800 -0.006242
# 3 -0.000807 -0.004850 0.015501 -0.004809 -0.004952 0.001844
# 4 -0.002043 0.003091 -0.004809 0.037062 0.004185 -0.004576
# 5 -0.002268 -0.001800 -0.004952 0.004185 0.027046 0.003816
# 6 0.001754 -0.006242 0.001844 -0.004576 0.003816 0.037745
#
#
# Mechanical properties :
#
#
# Convention : Reuss Voigt Hill
#
# Bulk Modulus (GPa) = 42.09843 49.22133 45.65988
# Shear Modulus (GPa) = 30.76503 35.33944 33.05224
#
# Velocity S-wave (km/s) = 3.69091 3.95580 3.82565
# Velocity P-wave (km/s) = 6.06672 6.53145 6.30337
#
# Compressibility (1/GPa) = 0.02375385
#
# Stress axis : x y z
#
# Youngs Moduli (GPa) = 98.17476 79.58255 64.51151
#
# Poissons Ratio (x) = 0.12677 0.05204
# Poissons Ratio (y) = 0.15638 0.31287
# Poissons Ratio (z) = 0.07920 0.38596
#
# Static dielectric constant tensor:
#      x y z
#    x 4.003640 0.057310 0.152770 
#    y 0.057310 4.335950 -0.156360 
#    z 0.152770 -0.156360 3.953310 
# 
# 
# High freq. dielectric constant tensor:
#      x y z
#    x 1.896380 0.000500 0.011690 
#    y 0.000500 1.902590 -0.012930 
#    z 0.011690 -0.012930 1.887460 
# 
# From -- ./inp_files/124874.got.cif
#   From: 2010.06.25/outbox.cif.g09.slc.cpg/sg2_63_cif.got.tgz:124874.got - 2010.06.27 13:26:56.
