data_PCOD8014933
_publ_section_title
;
Structure prediction by ZEFSAII (Michael W. Deem and Ramdas Pophale) SiO2 
 PCOD8014933
Probable space group: P -1
;
_chemical_formula_sum "Si O2"
_cell_formula_units_Z 16
_cell_length_a 16.430887
_cell_length_b 8.123301
_cell_length_c 18.580913
_cell_angle_alpha 135.249675
_cell_angle_beta 156.098255
_cell_angle_gamma 43.409932
_cell_volume 681.040731
_symmetry_space_group_name_H-M "P -1"
_symmetry_group_IT_number 2
_symmetry_cell_setting 'triclinic'
loop_
_space_group_symop_operation_xyz
x,y,z
-x,-y,-z
loop_
_atom_site_type_symbol
_atom_site_label
_atom_site_fract_x
_atom_site_fract_y
_atom_site_fract_z
Si Si1 0.842466 0.902581 0.791400
Si Si2 0.606317 0.655586 0.052536
Si Si3 0.163637 0.045900 0.590361
Si Si4 0.419649 0.791846 0.452500
Si Si5 0.430316 0.325929 0.235126
Si Si6 0.297217 0.862570 0.978757
Si Si7 0.152336 0.421483 0.911619
Si Si8 0.908562 0.052178 0.651305
O O1 0.637572 0.864362 0.654539
O O2 0.999154 0.645566 0.814846
O O3 0.751483 0.059884 0.696991
O O4 0.000000 0.000000 0.000000
O O5 0.773005 0.714060 0.260609
O O6 0.604635 0.372895 0.966626
O O7 0.665871 0.720119 0.040622
O O8 0.385799 0.825590 0.955830
O O9 0.347660 0.794142 0.659834
O O10 0.088788 0.107959 0.467302
O O11 0.000000 0.000000 0.500000
O O12 0.457060 0.505986 0.376246
O O13 0.322409 0.843989 0.470074
O O14 0.274548 0.488725 0.100239
O O15 0.343337 0.103052 0.125426
O O16 0.050997 0.897187 0.781475
O O17 0.005712 0.267070 0.774310
#
# Coordination Sequence:
#
# PCOD8014933 Si02
#       8
#     2   2   2   2   2   2   2   2
#     4  11  24  48  71 104 139 185 227 287 353 410
#     4  10  21  42  63  96 135 179 231 295 340 418
#     4  11  23  40  66  95 136 183 236 289 345 408
#     4  11  25  47  71 103 146 176 236 285 343 430
#     4  10  23  42  67  98 131 187 233 283 347 418
#     4   9  22  41  64  95 136 177 233 282 351 403
#     4  11  22  40  70  97 136 186 231 286 350 406
#     4  11  24  43  66 103 133 187 228 291 343 413
#
# _framework density 23.493455000000001
#
# number of rings (size 3 to 8) (size 9 to 14) (size 15 to 20)
#    0.000    1.500    2.500    1.500    1.750    6.000 
#   15.750    0.000    0.000    0.000    0.000    0.000 
#    0.000    0.000    0.000    0.000    0.000    0.000 
#
# Total GULP energy -198222.527505 kJ/mol
# GULP energy per Si atom -12388.907969 kJ/mol
# Density = 2.343998 g / cm^3
# Si number density = 23.493455 Si / 1000 Ang^3
#
#
#
# Elastic Constant Matrix: (Units=GPa)
#
#
# Indices 1 2 3 4 5 6 
#
# 1 94.0777 -8.5462 23.1612 22.6780 26.6722 -20.6395
# 2 -8.5462 59.8917 13.7466 11.3391 5.8064 3.0806
# 3 23.1612 13.7466 125.4082 11.0813 5.7343 -5.8489
# 4 22.6780 11.3391 11.0813 32.1961 -6.4983 -3.8061
# 5 26.6722 5.8064 5.7343 -6.4983 34.6946 -5.4309
# 6 -20.6395 3.0806 -5.8489 -3.8061 -5.4309 28.2362
#
#
#
# Elastic Compliance Matrix: (Units=1/GPa)
#
#
# Indices 1 2 3 4 5 6 
#
# 1 0.029631 0.012465 -0.002511 -0.028856 -0.028218 0.010462
# 2 0.012465 0.024475 -0.002441 -0.020001 -0.017027 -0.000035
# 3 -0.002511 -0.002441 0.008692 -0.000127 0.000940 0.000395
# 4 -0.028856 -0.020001 -0.000127 0.065680 0.037402 -0.002890
# 5 -0.028218 -0.017027 0.000940 0.037402 0.059901 -0.002011
# 6 0.010462 -0.000035 0.000395 -0.002890 -0.002011 0.042372
#
#
# Mechanical properties :
#
#
# Convention : Reuss Voigt Hill
#
# Bulk Modulus (GPa) = 12.84926 37.34455 25.09690
# Shear Modulus (GPa) = 20.68969 35.75978 28.22473
#
# Velocity S-wave (km/s) = 2.97081 3.90566 3.46986
# Velocity P-wave (km/s) = 4.15316 6.02239 5.17291
#
# Compressibility (1/GPa) = 0.07782551
#
# Stress axis : x y z
#
# Youngs Moduli (GPa) = 33.74804 40.85798 115.04992
#
# Poissons Ratio (x) = -0.50931 0.28888
# Poissons Ratio (y) = -0.42068 0.28081
# Poissons Ratio (z) = 0.08474 0.09972
#
# Static dielectric constant tensor:
#      x y z
#    x 4.127810 -0.145140 0.150170 
#    y -0.145140 4.330480 -0.214710 
#    z 0.150170 -0.214710 4.632100 
# 
# 
# High freq. dielectric constant tensor:
#      x y z
#    x 1.922240 -0.006970 0.010080 
#    y -0.006970 1.928260 -0.005940 
#    z 0.010080 -0.005940 1.937930 
# 
# From -- ./inp_files/599790.got.cif
#   From: 2010.06.25/outbox.cif.g09.slc.cpg/sg2_300_cif.got.tgz:599790.got - 2010.06.27 13:26:56.
