data_PCOD8014094
_publ_section_title
;
Structure prediction by ZEFSAII (Michael W. Deem and Ramdas Pophale) SiO2 
 PCOD8014094
Probable space group: P -1
;
_chemical_formula_sum "Si O2"
_cell_formula_units_Z 16
_cell_length_a 18.847603
_cell_length_b 8.763319
_cell_length_c 15.247274
_cell_angle_alpha 53.587730
_cell_angle_beta 144.141735
_cell_angle_gamma 143.864707
_cell_volume 856.265457
_symmetry_space_group_name_H-M "P -1"
_symmetry_group_IT_number 2
_symmetry_cell_setting 'triclinic'
loop_
_space_group_symop_operation_xyz
x,y,z
-x,-y,-z
loop_
_atom_site_type_symbol
_atom_site_label
_atom_site_fract_x
_atom_site_fract_y
_atom_site_fract_z
Si Si1 0.693692 0.041430 0.548680
Si Si2 0.442105 0.514601 0.532213
Si Si3 0.161122 0.437107 0.016032
Si Si4 0.925872 0.890862 0.645814
Si Si5 0.880133 0.251556 0.400680
Si Si6 0.537533 0.861048 0.267402
Si Si7 0.033992 0.994147 0.169578
Si Si8 0.982061 0.581317 0.708846
O O1 0.829626 0.023893 0.672172
O O2 0.785215 0.328968 0.577405
O O3 0.562078 0.825640 0.564713
O O4 0.592721 0.979924 0.380058
O O5 0.500000 0.500000 0.500000
O O6 0.249853 0.368993 0.398301
O O7 0.474908 0.379435 0.678330
O O8 0.121560 0.248843 0.961093
O O9 0.043608 0.494680 0.871457
O O10 0.350134 0.728378 0.103152
O O11 0.120996 0.276684 0.119094
O O12 0.004314 0.815914 0.687998
O O13 0.910197 0.063001 0.514453
O O14 0.041360 0.042306 0.796701
O O15 0.000000 0.500000 0.500000
O O16 0.915348 0.333482 0.307092
O O17 0.684774 0.099502 0.270476
#
# Coordination Sequence:
#
# PCOD8014094 Si02
#       8
#     2   2   2   2   2   2   2   2
#     4  10  16  34  59  84 108 140 194 236 265 331
#     4   9  15  29  57  83 100 135 190 233 270 306
#     4  10  21  33  57  86 115 143 184 232 278 342
#     4  11  21  36  59  82 114 149 183 237 282 329
#     4  11  20  39  63  82 102 147 206 238 260 319
#     4  10  17  32  62  85 102 141 198 245 260 306
#     4  10  17  35  58  84 110 149 188 226 272 333
#     4  11  24  35  51  87 121 150 178 221 297 342
#
# _framework density 18.685794000000001
#
# number of rings (size 3 to 8) (size 9 to 14) (size 15 to 20)
#    0.000    1.750    6.250    1.875    0.000    1.500 
#    0.000    0.000    5.500    1.500    0.000    0.000 
#    0.000    0.000    0.000    0.000    0.000    0.000 
#
# Total GULP energy -198257.867898 kJ/mol
# GULP energy per Si atom -12391.116744 kJ/mol
# Density = 1.864326 g / cm^3
# Si number density = 18.685794 Si / 1000 Ang^3
#
#
#
# Elastic Constant Matrix: (Units=GPa)
#
#
# Indices 1 2 3 4 5 6 
#
# 1 46.6469 11.8855 14.7752 0.0046 -2.4732 -6.4469
# 2 11.8855 80.6548 19.6420 9.7134 5.6159 1.4246
# 3 14.7752 19.6420 70.9902 13.2596 -3.7479 -5.3413
# 4 0.0046 9.7134 13.2596 31.5450 3.3457 4.6457
# 5 -2.4732 5.6159 -3.7479 3.3457 18.4348 0.6591
# 6 -6.4469 1.4246 -5.3413 4.6457 0.6591 28.6118
#
#
#
# Elastic Compliance Matrix: (Units=1/GPa)
#
#
# Indices 1 2 3 4 5 6 
#
# 1 0.024276 -0.003083 -0.004013 0.001655 0.002917 0.004538
# 2 -0.003083 0.014295 -0.003266 -0.002276 -0.004964 -0.001532
# 3 -0.004013 -0.003266 0.017800 -0.007584 0.005320 0.003690
# 4 0.001655 -0.002276 -0.007584 0.037355 -0.007162 -0.006830
# 5 0.002917 -0.004964 0.005320 -0.007162 0.058469 0.001713
# 6 0.004538 -0.001532 0.003690 -0.006830 0.001713 0.037808
#
#
# Mechanical properties :
#
#
# Convention : Reuss Voigt Hill
#
# Bulk Modulus (GPa) = 28.05211 32.32192 30.18702
# Shear Modulus (GPa) = 22.46096 25.85094 24.15595
#
# Velocity S-wave (km/s) = 3.47080 3.72352 3.59938
# Velocity P-wave (km/s) = 5.57737 5.98509 5.78482
#
# Compressibility (1/GPa) = 0.03564794
#
# Stress axis : x y z
#
# Youngs Moduli (GPa) = 41.19292 69.95462 56.17887
#
# Poissons Ratio (x) = 0.21564 0.22546
# Poissons Ratio (y) = 0.12698 0.18347
# Poissons Ratio (z) = 0.16532 0.22846
#
# Static dielectric constant tensor:
#      x y z
#    x 3.124350 0.121070 -0.147690 
#    y 0.121070 3.947630 0.204350 
#    z -0.147690 0.204350 3.344600 
# 
# 
# High freq. dielectric constant tensor:
#      x y z
#    x 1.686470 0.010770 -0.013800 
#    y 0.010770 1.735940 0.006640 
#    z -0.013800 0.006640 1.709840 
# 
# From -- ./inp_files/432740.got.cif
#   From: 2010.06.25/outbox.cif.g09.slc.cpg/sg2_217_cif.got.tgz:432740.got - 2010.06.27 13:26:56.
