data_PCOD8014710
_publ_section_title
;
Structure prediction by ZEFSAII (Michael W. Deem and Ramdas Pophale) SiO2 
 PCOD8014710
Probable space group: P -1
;
_chemical_formula_sum "Si O2"
_cell_formula_units_Z 16
_cell_length_a 12.689563
_cell_length_b 8.346473
_cell_length_c 9.395533
_cell_angle_alpha 65.126460
_cell_angle_beta 124.313894
_cell_angle_gamma 100.113906
_cell_volume 743.163557
_symmetry_space_group_name_H-M "P -1"
_symmetry_group_IT_number 2
_symmetry_cell_setting 'triclinic'
loop_
_space_group_symop_operation_xyz
x,y,z
-x,-y,-z
loop_
_atom_site_type_symbol
_atom_site_label
_atom_site_fract_x
_atom_site_fract_y
_atom_site_fract_z
Si Si1 0.359014 0.097462 0.383663
Si Si2 0.916233 0.010101 0.788663
Si Si3 0.347510 0.445219 0.753286
Si Si4 0.087703 0.654076 0.534629
Si Si5 0.334275 0.826309 0.970352
Si Si6 0.944377 0.141995 0.292614
Si Si7 0.604062 0.571292 0.887200
Si Si8 0.589450 0.874925 0.270911
O O1 0.236181 0.986546 0.295002
O O2 0.334398 0.279765 0.211890
O O3 0.350015 0.150465 0.520386
O O4 0.500000 0.000000 0.500000
O O5 0.960955 0.844815 0.776732
O O6 0.951711 0.179506 0.659750
O O7 0.000000 0.000000 0.000000
O O8 0.227135 0.583720 0.616393
O O9 0.458064 0.558013 0.730821
O O10 0.331013 0.272028 0.710313
O O11 0.390799 0.367540 0.968576
O O12 0.080581 0.686703 0.688182
O O13 0.000000 0.500000 0.500000
O O14 0.321069 0.620767 0.003357
O O15 0.436044 0.850195 0.166185
O O16 0.190562 0.908630 0.861095
O O17 0.389437 0.926453 0.838770
O O18 0.000000 0.000000 0.500000
#
# Coordination Sequence:
#
# PCOD8014710 Si02
#       8
#     2   2   2   2   2   2   2   2
#     4  12  28  45  70  96 140 178 220 278 353 394
#     4  11  28  47  65 102 140 178 226 280 342 407
#     4  10  22  41  70 100 130 163 236 275 326 395
#     4  11  24  42  72  98 131 180 228 274 331 403
#     4  10  21  41  70  99 127 174 229 273 328 396
#     4  10  22  42  69  91 137 178 226 268 334 399
#     4  10  23  42  70  98 130 172 221 284 325 396
#     4  10  24  39  69 101 132 170 223 278 337 399
#
# _framework density 21.529582000000001
#
# number of rings (size 3 to 8) (size 9 to 14) (size 15 to 20)
#    0.000    1.500    1.250    2.250   15.750    2.000 
#    2.250    1.250    0.000    0.000    0.000    0.000 
#    0.000    0.000    0.000    0.000    0.000    0.000 
#
# Total GULP energy -198256.964328 kJ/mol
# GULP energy per Si atom -12391.060270 kJ/mol
# Density = 2.148058 g / cm^3
# Si number density = 21.529582 Si / 1000 Ang^3
#
#
#
# Elastic Constant Matrix: (Units=GPa)
#
#
# Indices 1 2 3 4 5 6 
#
# 1 103.9168 37.5754 50.1794 5.0972 19.9222 4.3125
# 2 37.5754 97.8019 50.5982 -0.4627 -6.0570 5.2106
# 3 50.1794 50.5982 97.7796 15.1988 -5.1378 -7.6033
# 4 5.0972 -0.4627 15.1988 31.4923 4.1762 -0.1862
# 5 19.9222 -6.0570 -5.1378 4.1762 42.8651 -6.3727
# 6 4.3125 5.2106 -7.6033 -0.1862 -6.3727 33.3986
#
#
#
# Elastic Compliance Matrix: (Units=1/GPa)
#
#
# Indices 1 2 3 4 5 6 
#
# 1 0.016809 -0.002131 -0.008974 0.002916 -0.010341 -0.005838
# 2 -0.002131 0.015302 -0.007669 0.004077 0.001303 -0.003587
# 3 -0.008974 -0.007669 0.021450 -0.010012 0.007926 0.008695
# 4 0.002916 0.004077 -0.010012 0.036973 -0.006216 -0.004272
# 5 -0.010341 0.001303 0.007926 -0.006216 0.031191 0.008853
# 6 -0.005838 -0.003587 0.008695 -0.004272 0.008853 0.034900
#
#
# Mechanical properties :
#
#
# Convention : Reuss Voigt Hill
#
# Bulk Modulus (GPa) = 62.44952 64.02272 63.23612
# Shear Modulus (GPa) = 25.06156 32.29423 28.67789
#
# Velocity S-wave (km/s) = 3.41552 3.87718 3.65365
# Velocity P-wave (km/s) = 6.68010 7.06010 6.87273
#
# Compressibility (1/GPa) = 0.01601293
#
# Stress axis : x y z
#
# Youngs Moduli (GPa) = 59.49362 65.35061 46.62062
#
# Poissons Ratio (x) = 0.13925 0.41837
# Poissons Ratio (y) = 0.12677 0.35754
# Poissons Ratio (z) = 0.53389 0.50118
#
# Static dielectric constant tensor:
#      x y z
#    x 3.966250 -0.191310 0.129460 
#    y -0.191310 3.961150 0.147970 
#    z 0.129460 0.147970 3.947200 
# 
# 
# High freq. dielectric constant tensor:
#      x y z
#    x 1.844050 -0.005880 0.018860 
#    y -0.005880 1.840390 0.007190 
#    z 0.018860 0.007190 1.844170 
# 
# From -- ./inp_files/242696.got.cif
#   From: 2010.06.25/outbox.cif.g09.slc.cpg/sg2_122_cif.got.tgz:242696.got - 2010.06.27 13:26:56.
