data_PCOD8014053
_publ_section_title
;
Structure prediction by ZEFSAII (Michael W. Deem and Ramdas Pophale) SiO2 
 PCOD8014053
Probable space group: P -1
;
_chemical_formula_sum "Si O2"
_cell_formula_units_Z 12
_cell_length_a 14.157220
_cell_length_b 19.278490
_cell_length_c 17.178473
_cell_angle_alpha 159.221911
_cell_angle_beta 21.879337
_cell_angle_gamma 159.487211
_cell_volume 528.755634
_symmetry_space_group_name_H-M "P -1"
_symmetry_group_IT_number 2
_symmetry_cell_setting 'triclinic'
loop_
_space_group_symop_operation_xyz
x,y,z
-x,-y,-z
loop_
_atom_site_type_symbol
_atom_site_label
_atom_site_fract_x
_atom_site_fract_y
_atom_site_fract_z
Si Si1 0.686117 0.899677 0.176950
Si Si2 0.321885 0.634231 0.493984
Si Si3 0.836600 0.098596 0.828715
Si Si4 0.679722 0.420198 0.009391
Si Si5 0.346007 0.664246 0.327864
Si Si6 0.800864 0.106250 0.684412
O O1 0.608724 0.716712 0.117652
O O2 0.688661 0.120139 0.434651
O O3 0.417367 0.757583 0.173492
O O4 0.000000 0.000000 0.000000
O O5 0.409168 0.459063 0.281500
O O6 0.432090 0.653364 0.339438
O O7 0.976628 0.553142 0.675458
O O8 0.485551 0.873023 0.665385
O O9 0.893370 0.157026 0.756076
O O10 0.035801 0.332054 0.970151
O O11 0.942162 0.920078 0.582517
O O12 0.500000 0.000000 0.000000
O O13 0.777997 0.318920 0.897511
#
# Coordination Sequence:
#
# PCOD8014053 Si02
#       6
#     2   2   2   2   2   2
#     4  11  22  41  62  94 130 169 209 253 313 373
#     4  10  21  41  64  95 127 170 212 252 315 371
#     4  10  24  44  65  94 118 162 212 256 321 377
#     4  11  22  41  65  93 124 165 208 256 316 371
#     4  10  22  40  61  91 135 168 208 258 303 373
#     4  10  22  44  64  88 131 155 204 270 309 373
#
# _framework density 22.694794000000002
#
# number of rings (size 3 to 8) (size 9 to 14) (size 15 to 20)
#    0.000    1.667    3.333    0.500    2.333    1.333 
#    9.000    0.000    0.000    0.000    0.000    0.000 
#    0.000    0.000    0.000    0.000    0.000    0.000 
#
# Total GULP energy -148696.908827 kJ/mol
# GULP energy per Si atom -12391.409069 kJ/mol
# Density = 2.264314 g / cm^3
# Si number density = 22.694794 Si / 1000 Ang^3
#
#
#
# Elastic Constant Matrix: (Units=GPa)
#
#
# Indices 1 2 3 4 5 6 
#
# 1 73.5778 28.9003 17.8235 -11.7554 -15.1879 -3.4879
# 2 28.9003 104.8634 34.2491 -22.4473 4.8312 13.0814
# 3 17.8235 34.2491 60.9268 -18.3208 -18.1454 -8.3717
# 4 -11.7554 -22.4473 -18.3208 31.0634 -3.7605 4.2700
# 5 -15.1879 4.8312 -18.1454 -3.7605 40.5283 7.0117
# 6 -3.4879 13.0814 -8.3717 4.2700 7.0117 45.5196
#
#
#
# Elastic Compliance Matrix: (Units=1/GPa)
#
#
# Indices 1 2 3 4 5 6 
#
# 1 0.017650 -0.004910 0.001708 0.004944 0.008189 0.001352
# 2 -0.004910 0.015714 -0.008727 0.004422 -0.006179 -0.005960
# 3 0.001708 -0.008727 0.030113 0.013371 0.015622 0.004516
# 4 0.004944 0.004422 0.013371 0.047322 0.012534 -0.004803
# 5 0.008189 -0.006179 0.015622 0.012534 0.036911 -0.001585
# 6 0.001352 -0.005960 0.004516 -0.004803 -0.001585 0.025310
#
#
# Mechanical properties :
#
#
# Convention : Reuss Voigt Hill
#
# Bulk Modulus (GPa) = 25.23948 44.59042 34.91495
# Shear Modulus (GPa) = 23.79990 33.98192 28.89091
#
# Velocity S-wave (km/s) = 3.24187 3.87375 3.57181
# Velocity P-wave (km/s) = 5.01581 6.30067 5.69459
#
# Compressibility (1/GPa) = 0.03962047
#
# Stress axis : x y z
#
# Youngs Moduli (GPa) = 56.65626 63.63605 33.20844
#
# Poissons Ratio (x) = 0.31245 -0.05673
# Poissons Ratio (y) = 0.27818 0.28980
# Poissons Ratio (z) = -0.09678 0.55534
#
# Static dielectric constant tensor:
#      x y z
#    x 4.384340 -0.102790 0.410740 
#    y -0.102790 4.423570 -0.168090 
#    z 0.410740 -0.168090 5.184890 
# 
# 
# High freq. dielectric constant tensor:
#      x y z
#    x 1.891130 0.018860 -0.012910 
#    y 0.018860 1.894050 0.019930 
#    z -0.012910 0.019930 1.899720 
# 
# From -- ./inp_files/96938.got.cif
#   From: 2010.06.25/outbox.cif.g09.slc.cpg/sg2_49_cif.got.tgz:96938.got - 2010.06.27 13:26:56.
