data_PCOD8014082
_publ_section_title
;
Structure prediction by ZEFSAII (Michael W. Deem and Ramdas Pophale) SiO2 
 PCOD8014082
Probable space group: P -1
;
_chemical_formula_sum "Si O2"
_cell_formula_units_Z 12
_cell_length_a 14.338807
_cell_length_b 17.235834
_cell_length_c 12.497827
_cell_angle_alpha 151.482893
_cell_angle_beta 31.685918
_cell_angle_gamma 158.077024
_cell_volume 539.343562
_symmetry_space_group_name_H-M "P -1"
_symmetry_group_IT_number 2
_symmetry_cell_setting 'triclinic'
loop_
_space_group_symop_operation_xyz
x,y,z
-x,-y,-z
loop_
_atom_site_type_symbol
_atom_site_label
_atom_site_fract_x
_atom_site_fract_y
_atom_site_fract_z
Si Si1 0.957959 0.170212 0.859185
Si Si2 0.076137 0.178146 0.993455
Si Si3 0.817118 0.437144 0.356113
Si Si4 0.588999 0.665164 0.514286
Si Si5 0.287107 0.634876 0.398691
Si Si6 0.768003 0.053771 0.347617
O O1 0.235161 0.325998 0.725189
O O2 0.741398 0.925200 0.714841
O O3 0.957295 0.118338 0.920248
O O4 0.886610 0.311198 0.083603
O O5 0.847114 0.060089 0.158117
O O6 0.302587 0.458068 0.130232
O O7 0.189428 0.073962 0.770522
O O8 0.668048 0.450471 0.434406
O O9 0.640034 0.299255 0.467474
O O10 0.079502 0.696018 0.448894
O O11 0.500000 0.500000 0.500000
O O12 0.000000 0.500000 0.500000
O O13 0.458797 0.868609 0.439720
#
# Coordination Sequence:
#
# PCOD8014082 Si02
#       6
#     2   2   2   2   2   2
#     4  11  24  45  68  95 135 170 222 277 324 388
#     4  10  21  41  64  98 129 178 212 266 330 384
#     4  11  24  44  66 101 130 174 218 270 331 387
#     4  11  26  45  69  95 129 175 226 272 331 385
#     4  11  22  41  64 100 135 170 211 265 329 394
#     4  10  23  39  67  97 137 169 220 262 325 403
#
# _framework density 22.249269999999999
#
# number of rings (size 3 to 8) (size 9 to 14) (size 15 to 20)
#    0.000    1.333    1.667    3.000    0.000   10.000 
#    3.000    0.000    0.000    0.000    0.000    0.000 
#    0.000    0.000    0.000    0.000    0.000    0.000 
#
# Total GULP energy -148840.398791 kJ/mol
# GULP energy per Si atom -12403.366566 kJ/mol
# Density = 2.219863 g / cm^3
# Si number density = 22.249270 Si / 1000 Ang^3
#
#
#
# Elastic Constant Matrix: (Units=GPa)
#
#
# Indices 1 2 3 4 5 6 
#
# 1 111.3919 32.5806 13.6017 -14.5977 23.2218 -12.0383
# 2 32.5806 150.0771 41.0226 -13.3067 9.7806 -16.4671
# 3 13.6017 41.0226 91.7559 6.1019 14.3576 -2.0769
# 4 -14.5977 -13.3067 6.1019 29.7209 -6.3902 -2.7813
# 5 23.2218 9.7806 14.3576 -6.3902 21.2722 3.6019
# 6 -12.0383 -16.4671 -2.0769 -2.7813 3.6019 39.2836
#
#
#
# Elastic Compliance Matrix: (Units=1/GPa)
#
#
# Indices 1 2 3 4 5 6 
#
# 1 0.013193 -0.001310 0.000760 0.003153 -0.014223 0.005061
# 2 -0.001310 0.008786 -0.004129 0.004666 0.001021 0.003300
# 3 0.000760 -0.004129 0.014800 -0.006888 -0.010956 -0.000198
# 4 0.003153 0.004666 -0.006888 0.041430 0.010744 0.004506
# 5 -0.014223 0.001021 -0.010956 0.010744 0.074480 -0.010578
# 6 0.005061 0.003300 -0.000198 0.004506 -0.010578 0.029669
#
#
# Mechanical properties :
#
#
# Convention : Reuss Voigt Hill
#
# Bulk Modulus (GPa) = 36.46875 58.62609 47.54742
# Shear Modulus (GPa) = 24.89371 35.79001 30.34186
#
# Velocity S-wave (km/s) = 3.34856 4.01508 3.69687
# Velocity P-wave (km/s) = 5.60152 6.92108 6.29597
#
# Compressibility (1/GPa) = 0.02742073
#
# Stress axis : x y z
#
# Youngs Moduli (GPa) = 75.79918 113.82331 67.56907
#
# Poissons Ratio (x) = 0.14913 -0.05139
# Poissons Ratio (y) = 0.09931 0.27899
# Poissons Ratio (z) = -0.05764 0.46997
#
# Static dielectric constant tensor:
#      x y z
#    x 4.393660 -0.430620 -0.079100 
#    y -0.430620 4.522120 0.140340 
#    z -0.079100 0.140340 4.620610 
# 
# 
# High freq. dielectric constant tensor:
#      x y z
#    x 1.892240 -0.011690 -0.014890 
#    y -0.011690 1.882290 -0.000600 
#    z -0.014890 -0.000600 1.885250 
# 
# From -- ./inp_files/23513.got.cif
#   From: 2010.06.25/outbox.cif.g09.slc.cpg/sg2_12_cif.got.tgz:23513.got - 2010.06.27 13:26:56.
