data_PCOD8014731
_publ_section_title
;
Structure prediction by ZEFSAII (Michael W. Deem and Ramdas Pophale) SiO2 
 PCOD8014731
Probable space group: P -1
;
_chemical_formula_sum "Si O2"
_cell_formula_units_Z 16
_cell_length_a 8.486816
_cell_length_b 14.078250
_cell_length_c 14.169700
_cell_angle_alpha 51.566514
_cell_angle_beta 144.688283
_cell_angle_gamma 128.875897
_cell_volume 738.963785
_symmetry_space_group_name_H-M "P -1"
_symmetry_group_IT_number 2
_symmetry_cell_setting 'triclinic'
loop_
_space_group_symop_operation_xyz
x,y,z
-x,-y,-z
loop_
_atom_site_type_symbol
_atom_site_label
_atom_site_fract_x
_atom_site_fract_y
_atom_site_fract_z
Si Si1 0.891177 0.037796 0.227065
Si Si2 0.755909 0.755363 0.373462
Si Si3 0.095472 0.648707 0.461158
Si Si4 0.753031 0.582330 0.635241
Si Si5 0.707057 0.710589 0.724960
Si Si6 0.029900 0.802385 0.158094
Si Si7 0.081750 0.653413 0.104749
Si Si8 0.684739 0.973450 0.961882
O O1 0.905347 0.902693 0.353570
O O2 0.635800 0.077236 0.129667
O O3 0.868457 0.039443 0.101042
O O4 0.175216 0.141210 0.332323
O O5 0.881806 0.706159 0.559124
O O6 0.415694 0.727928 0.220747
O O7 0.850539 0.690520 0.369434
O O8 0.400453 0.688297 0.638472
O O9 0.000000 0.500000 0.500000
O O10 0.149407 0.721277 0.342421
O O11 0.500000 0.500000 0.500000
O O12 0.649113 0.623750 0.657488
O O13 0.967059 0.496178 0.810647
O O14 0.937657 0.669574 0.926120
O O15 0.924639 0.708938 0.076390
O O16 0.773728 0.850522 0.046026
O O17 0.273876 0.924344 0.165565
#
# Coordination Sequence:
#
# PCOD8014731 Si02
#       8
#     2   2   2   2   2   2   2   2
#     4  11  21  43  69 102 139 174 226 280 337 404
#     4  11  22  44  70  97 137 189 219 267 346 413
#     4  12  26  45  66  98 138 185 228 277 344 404
#     4  10  23  44  69  94 129 184 229 273 341 407
#     4  12  26  43  69 102 137 175 229 293 337 391
#     4  11  21  41  74  98 134 187 222 266 342 408
#     4  11  21  44  73 100 136 174 234 280 327 407
#     4  10  21  41  71 104 138 180 221 272 339 415
#
# _framework density 21.65194
#
# number of rings (size 3 to 8) (size 9 to 14) (size 15 to 20)
#    0.000    1.000    3.750    4.875    0.000    1.000 
#    2.250    1.250    0.000    0.000    0.000    0.000 
#    0.000    0.000    0.000    0.000    0.000    0.000 
#
# Total GULP energy -198372.984698 kJ/mol
# GULP energy per Si atom -12398.311544 kJ/mol
# Density = 2.160266 g / cm^3
# Si number density = 21.651940 Si / 1000 Ang^3
#
#
#
# Elastic Constant Matrix: (Units=GPa)
#
#
# Indices 1 2 3 4 5 6 
#
# 1 124.2235 46.6776 42.5018 -8.5323 6.6833 -17.5944
# 2 46.6776 130.9315 69.9270 -20.1566 11.6660 -1.9523
# 3 42.5018 69.9270 89.0967 -22.0234 -7.9862 6.5399
# 4 -8.5323 -20.1566 -22.0234 40.5809 5.1299 -5.8565
# 5 6.6833 11.6660 -7.9862 5.1299 34.2870 -9.3145
# 6 -17.5944 -1.9523 6.5399 -5.8565 -9.3145 41.1242
#
#
#
# Elastic Compliance Matrix: (Units=1/GPa)
#
#
# Indices 1 2 3 4 5 6 
#
# 1 0.010919 -0.001080 -0.004857 0.000045 -0.001526 0.005053
# 2 -0.001080 0.015338 -0.011758 0.002101 -0.007885 0.000649
# 3 -0.004857 -0.011758 0.025112 0.005073 0.008986 -0.003872
# 4 0.000045 0.002101 0.005073 0.029247 -0.003168 0.002760
# 5 -0.001526 -0.007885 0.008986 -0.003168 0.036147 0.005280
# 6 0.005053 0.000649 -0.003872 0.002760 0.005280 0.028714
#
#
# Mechanical properties :
#
#
# Convention : Reuss Voigt Hill
#
# Bulk Modulus (GPa) = 62.58391 73.60717 68.09554
# Shear Modulus (GPa) = 26.85393 35.54144 31.19768
#
# Velocity S-wave (km/s) = 3.52555 4.05593 3.80000
# Velocity P-wave (km/s) = 6.74833 7.48355 7.12543
#
# Compressibility (1/GPa) = 0.01597855
#
# Stress axis : x y z
#
# Youngs Moduli (GPa) = 91.58590 65.19937 39.82126
#
# Poissons Ratio (x) = 0.07042 0.19343
# Poissons Ratio (y) = 0.09892 0.46820
# Poissons Ratio (z) = 0.44487 0.76658
#
# Static dielectric constant tensor:
#      x y z
#    x 4.091130 0.039690 -0.120710 
#    y 0.039690 4.129360 -0.505740 
#    z -0.120710 -0.505740 3.910570 
# 
# 
# High freq. dielectric constant tensor:
#      x y z
#    x 1.859120 -0.006460 -0.005380 
#    y -0.006460 1.853320 -0.036030 
#    z -0.005380 -0.036030 1.833950 
# 
# From -- ./inp_files/270930.got.cif
#   From: 2010.06.25/outbox.cif.g09.slc.cpg/sg2_136_cif.got.tgz:270930.got - 2010.06.27 13:26:56.
