data_PCOD8014502
_publ_section_title
;
Structure prediction by ZEFSAII (Michael W. Deem and Ramdas Pophale) SiO2 
 PCOD8014502
Probable space group: P -1
;
_chemical_formula_sum "Si O2"
_cell_formula_units_Z 16
_cell_length_a 8.397248
_cell_length_b 15.687606
_cell_length_c 6.735479
_cell_angle_alpha 105.216872
_cell_angle_beta 99.100095
_cell_angle_gamma 69.986415
_cell_volume 802.183235
_symmetry_space_group_name_H-M "P -1"
_symmetry_group_IT_number 2
_symmetry_cell_setting 'triclinic'
loop_
_space_group_symop_operation_xyz
x,y,z
-x,-y,-z
loop_
_atom_site_type_symbol
_atom_site_label
_atom_site_fract_x
_atom_site_fract_y
_atom_site_fract_z
Si Si1 0.492235 0.272953 0.062605
Si Si2 0.789074 0.102437 0.918580
Si Si3 0.045804 0.807056 0.323364
Si Si4 0.572842 0.570058 0.170514
Si Si5 0.674264 0.350404 0.484971
Si Si6 0.916736 0.896245 0.748990
Si Si7 0.865326 0.738972 0.908009
Si Si8 0.112489 0.553838 0.655487
O O1 0.608347 0.307925 0.256958
O O2 0.318145 0.274111 0.130302
O O3 0.597090 0.168832 0.950460
O O4 0.452666 0.336430 0.899150
O O5 0.877517 0.131970 0.765721
O O6 0.782245 0.998430 0.819223
O O7 0.897787 0.106481 0.138568
O O8 0.198883 0.728901 0.407228
O O9 0.928096 0.874117 0.504436
O O10 0.926020 0.760972 0.149087
O O11 0.484798 0.592697 0.380706
O O12 0.772379 0.517722 0.206217
O O13 0.500000 0.500000 0.000000
O O14 0.771044 0.420416 0.471853
O O15 0.849402 0.821887 0.802344
O O16 0.001707 0.645738 0.800804
O O17 0.000000 0.500000 0.500000
#
# Coordination Sequence:
#
# PCOD8014502 Si02
#       8
#     2   2   2   2   2   2   2   2
#     4  12  25  43  64  95 132 168 211 264 317 376
#     4  10  21  41  68 101 124 168 216 257 317 383
#     4  11  20  41  69  93 127 167 212 263 316 377
#     4  12  26  42  65  92 126 169 215 263 311 374
#     4  12  23  44  67  91 127 168 212 265 315 375
#     4  10  21  42  70  94 131 167 210 263 318 383
#     4  11  26  42  62  96 131 167 212 264 320 377
#     4  12  26  44  66  94 129 171 214 263 321 377
#
# _framework density 19.945565999999999
#
# number of rings (size 3 to 8) (size 9 to 14) (size 15 to 20)
#    0.000    0.750    5.000    3.000    3.500    2.000 
#    0.000    0.625    0.000    0.000    0.000    0.000 
#    0.000    0.000    0.000    0.000    0.000    0.000 
#
# Total GULP energy -198493.428126 kJ/mol
# GULP energy per Si atom -12405.839258 kJ/mol
# Density = 1.990017 g / cm^3
# Si number density = 19.945566 Si / 1000 Ang^3
#
#
#
# Elastic Constant Matrix: (Units=GPa)
#
#
# Indices 1 2 3 4 5 6 
#
# 1 91.4062 41.5405 28.0549 1.1913 3.5642 -0.0621
# 2 41.5405 133.3077 48.8774 11.4046 0.1422 -23.2171
# 3 28.0549 48.8774 111.1549 3.1800 3.0591 6.8967
# 4 1.1913 11.4046 3.1800 27.4161 -4.5099 5.9052
# 5 3.5642 0.1422 3.0591 -4.5099 34.5648 0.9964
# 6 -0.0621 -23.2171 6.8967 5.9052 0.9964 21.3987
#
#
#
# Elastic Compliance Matrix: (Units=1/GPa)
#
#
# Indices 1 2 3 4 5 6 
#
# 1 0.013560 -0.005259 -0.000789 0.002897 -0.000751 -0.006176
# 2 -0.005259 0.016904 -0.007232 -0.011265 -0.001044 0.023814
# 3 -0.000789 -0.007232 0.013076 0.004368 -0.000094 -0.013265
# 4 0.002897 -0.011265 0.004368 0.047382 0.006322 -0.026992
# 5 -0.000751 -0.001044 -0.000094 0.006322 0.029968 -0.004244
# 6 -0.006176 0.023814 -0.013265 -0.026992 -0.004244 0.084473
#
#
# Mechanical properties :
#
#
# Convention : Reuss Voigt Hill
#
# Bulk Modulus (GPa) = 58.89288 63.64605 61.26946
# Shear Modulus (GPa) = 21.04513 31.16896 26.10705
#
# Velocity S-wave (km/s) = 3.25180 3.95739 3.62182
# Velocity P-wave (km/s) = 6.60983 7.27052 6.94803
#
# Compressibility (1/GPa) = 0.01697998
#
# Stress axis : x y z
#
# Youngs Moduli (GPa) = 73.74866 59.15663 76.47308
#
# Poissons Ratio (x) = 0.31109 0.06033
# Poissons Ratio (y) = 0.38783 0.55309
# Poissons Ratio (z) = 0.05818 0.42785
#
# Static dielectric constant tensor:
#      x y z
#    x 3.694810 -0.133220 -0.021900 
#    y -0.133220 3.871440 -0.000900 
#    z -0.021900 -0.000900 3.847760 
# 
# 
# High freq. dielectric constant tensor:
#      x y z
#    x 1.766670 -0.006360 -0.002450 
#    y -0.006360 1.797120 0.000340 
#    z -0.002450 0.000340 1.789880 
# 
# From -- ./inp_files/38147.got.cif
#   From: 2010.06.25/outbox.cif.g09.slc.cpg/sg2_20_cif.got.tgz:38147.got - 2010.06.27 13:26:56.
