data_PCOD8014807
_publ_section_title
;
Structure prediction by ZEFSAII (Michael W. Deem and Ramdas Pophale) SiO2 
 PCOD8014807
Probable space group: P -1
;
_chemical_formula_sum "Si O2"
_cell_formula_units_Z 14
_cell_length_a 11.049208
_cell_length_b 8.992873
_cell_length_c 17.677187
_cell_angle_alpha 119.743765
_cell_angle_beta 38.269919
_cell_angle_gamma 90.777301
_cell_volume 675.416490
_symmetry_space_group_name_H-M "P -1"
_symmetry_group_IT_number 2
_symmetry_cell_setting 'triclinic'
loop_
_space_group_symop_operation_xyz
x,y,z
-x,-y,-z
loop_
_atom_site_type_symbol
_atom_site_label
_atom_site_fract_x
_atom_site_fract_y
_atom_site_fract_z
Si Si1 0.111482 0.966087 0.204177
Si Si2 0.803494 0.296334 0.766959
Si Si3 0.458245 0.729338 0.480749
Si Si4 0.701428 0.776039 0.506259
Si Si5 0.752332 0.474433 0.524818
Si Si6 0.678986 0.689575 0.209682
Si Si7 0.420457 0.510928 0.227147
O O1 0.864246 0.022064 0.294194
O O2 0.052631 0.206975 0.292175
O O3 0.076273 0.937596 0.303926
O O4 0.396230 0.741832 0.970674
O O5 0.794921 0.280190 0.675882
O O6 0.005455 0.332780 0.693184
O O7 0.500000 0.500000 0.000000
O O8 0.610993 0.677624 0.470390
O O9 0.477869 0.514317 0.395028
O O10 0.596072 0.758042 0.354922
O O11 0.730678 0.674882 0.549760
O O12 0.470972 0.063905 0.698767
O O13 0.717828 0.507448 0.640897
O O14 0.595573 0.561110 0.182560
O O15 0.000000 0.500000 0.000000
#
# Coordination Sequence:
#
# PCOD8014807 Si02
#       7
#     2   2   2   2   2   2   2
#     4   9  19  41  62  86 121 163 195 249 307 344
#     4  10  22  37  65  89 115 165 207 250 293 352
#     4   9  20  39  61  85 123 155 196 251 304 348
#     4  12  21  39  62  91 123 158 202 245 309 361
#     4   9  22  39  61  90 121 166 189 250 312 359
#     4  11  23  36  62  95 116 159 205 255 299 355
#     4  10  21  42  58  87 128 154 207 248 292 363
#
# _framework density 20.727951000000001
#
# number of rings (size 3 to 8) (size 9 to 14) (size 15 to 20)
#    0.857    1.143    1.429    1.714    4.000    2.857 
#    2.571    5.000    0.000    0.000    0.000    0.000 
#    0.000    0.000    0.000    0.000    0.000    0.000 
#
# Total GULP energy -173435.073233 kJ/mol
# GULP energy per Si atom -12388.219517 kJ/mol
# Density = 2.068077 g / cm^3
# Si number density = 20.727951 Si / 1000 Ang^3
#
#
#
# Elastic Constant Matrix: (Units=GPa)
#
#
# Indices 1 2 3 4 5 6 
#
# 1 56.9007 13.9899 21.8216 -0.9724 -3.9156 -22.5757
# 2 13.9899 142.5639 43.3246 9.6810 6.7314 -20.6608
# 3 21.8216 43.3246 82.9122 5.1364 -0.7389 -2.6762
# 4 -0.9724 9.6810 5.1364 18.3702 -1.1987 1.6620
# 5 -3.9156 6.7314 -0.7389 -1.1987 34.0463 -3.5651
# 6 -22.5757 -20.6608 -2.6762 1.6620 -3.5651 26.5580
#
#
#
# Elastic Compliance Matrix: (Units=1/GPa)
#
#
# Indices 1 2 3 4 5 6 
#
# 1 0.033017 0.003898 -0.009674 -0.000005 0.006056 0.030937
# 2 0.003898 0.010330 -0.005788 -0.004659 -0.000736 0.010959
# 3 -0.009674 -0.005788 0.017354 -0.001371 -0.000791 -0.010997
# 4 -0.000005 -0.004659 -0.001371 0.058060 0.002191 -0.007106
# 5 0.006056 -0.000736 -0.000791 0.002191 0.031168 0.008542
# 6 0.030937 0.010959 -0.010997 -0.007106 0.008542 0.072960
#
#
# Mechanical properties :
#
#
# Convention : Reuss Voigt Hill
#
# Bulk Modulus (GPa) = 26.61426 48.96100 37.78763
# Shear Modulus (GPa) = 19.33919 29.34427 24.34173
#
# Velocity S-wave (km/s) = 3.05782 3.76664 3.43059
# Velocity P-wave (km/s) = 5.03336 6.52601 5.82767
#
# Compressibility (1/GPa) = 0.03757385
#
# Stress axis : x y z
#
# Youngs Moduli (GPa) = 30.28736 96.80367 57.62284
#
# Poissons Ratio (x) = -0.37731 0.55742
# Poissons Ratio (y) = -0.11805 0.33352
# Poissons Ratio (z) = 0.29299 0.56029
#
# Static dielectric constant tensor:
#      x y z
#    x 3.709760 -0.311290 -0.131070 
#    y -0.311290 3.743860 0.004930 
#    z -0.131070 0.004930 3.550780 
# 
# 
# High freq. dielectric constant tensor:
#      x y z
#    x 1.804790 -0.016710 -0.008880 
#    y -0.016710 1.809100 -0.000540 
#    z -0.008880 -0.000540 1.794630 
# 
# From -- ./inp_files/565398.got.cif
#   From: 2010.06.25/outbox.cif.g09.slc.cpg/sg2_283_cif.got.tgz:565398.got - 2010.06.27 13:26:56.
