data_PCOD8014288
_publ_section_title
;
Structure prediction by ZEFSAII (Michael W. Deem and Ramdas Pophale) SiO2 
 PCOD8014288
Probable space group: P -1
;
_chemical_formula_sum "Si O2"
_cell_formula_units_Z 14
_cell_length_a 8.427830
_cell_length_b 8.410836
_cell_length_c 22.786517
_cell_angle_alpha 46.178519
_cell_angle_beta 31.492084
_cell_angle_gamma 55.298351
_cell_volume 607.817838
_symmetry_space_group_name_H-M "P -1"
_symmetry_group_IT_number 2
_symmetry_cell_setting 'triclinic'
loop_
_space_group_symop_operation_xyz
x,y,z
-x,-y,-z
loop_
_atom_site_type_symbol
_atom_site_label
_atom_site_fract_x
_atom_site_fract_y
_atom_site_fract_z
Si Si1 0.225976 0.171583 0.961537
Si Si2 0.182017 0.256195 0.191510
Si Si3 0.782431 0.788169 0.608727
Si Si4 0.078016 0.694994 0.296767
Si Si5 0.125975 0.713513 0.060945
Si Si6 0.896142 0.102739 0.197518
Si Si7 0.193132 0.116322 0.553086
O O1 0.586881 0.181671 0.838796
O O2 0.060758 0.931272 0.061821
O O3 0.100356 0.335469 0.910400
O O4 0.119395 0.220880 0.048499
O O5 0.540818 0.256242 0.078944
O O6 0.024052 0.180267 0.199996
O O7 0.087549 0.505444 0.170098
O O8 0.061070 0.087230 0.323131
O O9 0.899985 0.564811 0.658721
O O10 0.442433 0.826986 0.727855
O O11 0.775727 0.746708 0.551527
O O12 0.000000 0.000000 0.500000
O O13 0.904506 0.717665 0.407717
O O14 0.901534 0.831842 0.267492
O O15 0.500000 0.000000 0.500000
#
# Coordination Sequence:
#
# PCOD8014288 Si02
#       7
#     2   2   2   2   2   2   2
#     4  11  23  41  66  98 132 166 215 268 330 387
#     4  10  21  41  66  93 130 170 213 264 325 381
#     4  12  28  44  67  99 131 172 226 272 318 383
#     4  11  24  46  72  90 132 180 216 264 334 386
#     4  10  22  38  65 101 127 164 215 268 321 387
#     4  11  24  46  65  98 133 171 215 268 329 392
#     4  11  22  47  69  91 130 177 223 263 319 399
#
# _framework density 23.033218000000002
#
# number of rings (size 3 to 8) (size 9 to 14) (size 15 to 20)
#    0.000    1.143    5.714    1.714    2.000    4.000 
#    2.571    0.000    0.000    0.000    0.000    0.000 
#    0.000    0.000    0.000    0.000    0.000    0.000 
#
# Total GULP energy -173539.431738 kJ/mol
# GULP energy per Si atom -12395.673696 kJ/mol
# Density = 2.298079 g / cm^3
# Si number density = 23.033218 Si / 1000 Ang^3
#
#
#
# Elastic Constant Matrix: (Units=GPa)
#
#
# Indices 1 2 3 4 5 6 
#
# 1 27.8666 10.5836 7.6975 12.3676 -4.2480 -1.2666
# 2 10.5836 122.7522 33.4762 -4.4957 -7.4427 -23.8648
# 3 7.6975 33.4762 69.8080 11.5627 4.4551 -2.1907
# 4 12.3676 -4.4957 11.5627 45.5410 -4.1124 0.1514
# 5 -4.2480 -7.4427 4.4551 -4.1124 29.7925 0.5131
# 6 -1.2666 -23.8648 -2.1907 0.1514 0.5131 25.7697
#
#
#
# Elastic Compliance Matrix: (Units=1/GPa)
#
#
# Indices 1 2 3 4 5 6 
#
# 1 0.043319 -0.003867 -0.001320 -0.011458 0.003854 -0.001573
# 2 -0.003867 0.012715 -0.006279 0.004221 0.003958 0.010948
# 3 -0.001320 -0.006279 0.018584 -0.005437 -0.005215 -0.004164
# 4 -0.011458 0.004221 -0.005437 0.027214 0.003945 0.002645
# 5 0.003854 0.003958 -0.005215 0.003945 0.036382 0.002664
# 6 -0.001573 0.010948 -0.004164 0.002645 0.002664 0.048444
#
#
# Mechanical properties :
#
#
# Convention : Reuss Voigt Hill
#
# Bulk Modulus (GPa) = 19.34721 35.99350 27.67036
# Shear Modulus (GPa) = 22.04380 31.46528 26.75454
#
# Velocity S-wave (km/s) = 3.09697 3.70007 3.41187
# Velocity P-wave (km/s) = 4.60502 5.82363 5.24980
#
# Compressibility (1/GPa) = 0.05168703
#
# Stress axis : x y z
#
# Youngs Moduli (GPa) = 23.08431 78.64490 53.80834
#
# Poissons Ratio (x) = 0.30411 0.07102
# Poissons Ratio (y) = 0.08926 0.33788
# Poissons Ratio (z) = 0.03047 0.49384
#
# Static dielectric constant tensor:
#      x y z
#    x 3.966100 -0.274960 0.115070 
#    y -0.274960 4.406590 -0.235080 
#    z 0.115070 -0.235080 4.551480 
# 
# 
# High freq. dielectric constant tensor:
#      x y z
#    x 1.888800 -0.019580 0.003670 
#    y -0.019580 1.920210 -0.002620 
#    z 0.003670 -0.002620 1.910920 
# 
# From -- ./inp_files/207871.got.cif
#   From: 2010.06.25/outbox.cif.g09.slc.cpg/sg2_104_cif.got.tgz:207871.got - 2010.06.27 13:26:56.
