data_PCOD8014013
_publ_section_title
;
Structure prediction by ZEFSAII (Michael W. Deem and Ramdas Pophale) SiO2 
 PCOD8014013
Probable space group: P -1
;
_chemical_formula_sum "Si O2"
_cell_formula_units_Z 16
_cell_length_a 19.489595
_cell_length_b 18.904288
_cell_length_c 6.617337
_cell_angle_alpha 107.197903
_cell_angle_beta 94.050638
_cell_angle_gamma 23.160825
_cell_volume 773.633702
_symmetry_space_group_name_H-M "P -1"
_symmetry_group_IT_number 2
_symmetry_cell_setting 'triclinic'
loop_
_space_group_symop_operation_xyz
x,y,z
-x,-y,-z
loop_
_atom_site_type_symbol
_atom_site_label
_atom_site_fract_x
_atom_site_fract_y
_atom_site_fract_z
Si Si1 0.629604 0.478242 0.476181
Si Si2 0.077403 0.081833 0.235175
Si Si3 0.393793 0.637416 0.897852
Si Si4 0.075419 0.214386 0.635509
Si Si5 0.309975 0.919049 0.803018
Si Si6 0.667225 0.914832 0.534300
Si Si7 0.619731 0.713431 0.902765
Si Si8 0.418525 0.128468 0.279413
O O1 0.555310 0.525779 0.720396
O O2 0.676993 0.360517 0.246271
O O3 0.451896 0.712762 0.547553
O O4 0.834224 0.318438 0.406511
O O5 0.149464 0.067649 0.404439
O O6 0.191622 0.888177 0.132567
O O7 0.130103 0.059762 0.006678
O O8 0.500000 0.500000 0.000000
O O9 0.828855 0.465134 0.823163
O O10 0.195548 0.089033 0.766878
O O11 0.142509 0.221544 0.540979
O O12 0.454345 0.818629 0.900463
O O13 0.601452 0.966229 0.333294
O O14 0.736977 0.766749 0.534120
O O15 0.472803 0.143625 0.814302
O O16 0.679100 0.699057 0.697578
O O17 0.500000 0.000000 0.000000
#
# Coordination Sequence:
#
# PCOD8014013 Si02
#       8
#     2   2   2   2   2   2   2   2
#     4  10  22  41  62  89 128 163 206 259 309 361
#     4  11  23  40  62  92 127 168 207 254 314 369
#     4  10  22  40  64  91 124 164 209 258 303 367
#     4  12  24  37  65  94 122 171 211 249 321 373
#     4  11  23  40  59  91 131 160 208 262 303 368
#     4  10  21  41  64  91 125 164 209 257 315 368
#     4  11  22  40  62  91 126 162 208 259 308 370
#     4   9  20  41  67  88 126 164 203 267 307 361
#
# _framework density 20.681622999999998
#
# number of rings (size 3 to 8) (size 9 to 14) (size 15 to 20)
#    0.000    1.500    3.750    1.125    0.000    4.000 
#    0.000    5.625    0.000    0.000    0.000    0.000 
#    0.000    0.000    0.000    0.000    0.000    0.000 
#
# Total GULP energy -198366.032390 kJ/mol
# GULP energy per Si atom -12397.877024 kJ/mol
# Density = 2.063455 g / cm^3
# Si number density = 20.681623 Si / 1000 Ang^3
#
#
#
# Elastic Constant Matrix: (Units=GPa)
#
#
# Indices 1 2 3 4 5 6 
#
# 1 102.2980 33.8611 16.2225 -1.1874 -7.2006 -9.9617
# 2 33.8611 98.8937 30.4029 -0.6257 -18.0675 -2.9292
# 3 16.2225 30.4029 65.8913 -3.0556 2.4141 -8.7773
# 4 -1.1874 -0.6257 -3.0556 24.1993 -0.4878 -1.4714
# 5 -7.2006 -18.0675 2.4141 -0.4878 33.1465 -3.1663
# 6 -9.9617 -2.9292 -8.7773 -1.4714 -3.1663 33.6335
#
#
#
# Elastic Compliance Matrix: (Units=1/GPa)
#
#
# Indices 1 2 3 4 5 6 
#
# 1 0.011391 -0.003359 -0.000869 0.000563 0.000999 0.002973
# 2 -0.003359 0.014556 -0.006279 -0.000469 0.007591 -0.000672
# 3 -0.000869 -0.006279 0.019077 0.002345 -0.004599 0.003844
# 4 0.000563 -0.000469 0.002345 0.041806 0.000561 0.002620
# 5 0.000999 0.007591 -0.004599 0.000561 0.035162 0.003092
# 6 0.002973 -0.000672 0.003844 0.002620 0.003092 0.031963
#
#
# Mechanical properties :
#
#
# Convention : Reuss Voigt Hill
#
# Bulk Modulus (GPa) = 41.64801 47.56179 44.60490
# Shear Modulus (GPa) = 27.32640 30.63561 28.98100
#
# Velocity S-wave (km/s) = 3.63890 3.85294 3.74745
# Velocity P-wave (km/s) = 6.15117 6.54527 6.35127
#
# Compressibility (1/GPa) = 0.02401075
#
# Stress axis : x y z
#
# Youngs Moduli (GPa) = 87.78503 68.69907 52.41963
#
# Poissons Ratio (x) = 0.23076 0.04556
# Poissons Ratio (y) = 0.29487 0.32913
# Poissons Ratio (z) = 0.07630 0.43134
#
# Static dielectric constant tensor:
#      x y z
#    x 4.358230 0.256060 0.365210 
#    y 0.256060 3.490410 0.016680 
#    z 0.365210 0.016680 4.237610 
# 
# 
# High freq. dielectric constant tensor:
#      x y z
#    x 1.832780 0.004260 0.005400 
#    y 0.004260 1.788750 -0.007800 
#    z 0.005400 -0.007800 1.804490 
# 
# From -- ./inp_files/13336.got.cif
#   From: 2010.06.25/outbox.cif.g09.slc.cpg/sg2_7_cif.got.tgz:13336.got - 2010.06.27 13:26:56.
