data_PCOD8014465
_publ_section_title
;
Structure prediction by ZEFSAII (Michael W. Deem and Ramdas Pophale) SiO2 
 PCOD8014465
Probable space group: P -1
;
_chemical_formula_sum "Si O2"
_cell_formula_units_Z 16
_cell_length_a 15.131370
_cell_length_b 11.883634
_cell_length_c 9.783153
_cell_angle_alpha 110.204430
_cell_angle_beta 137.419399
_cell_angle_gamma 102.116364
_cell_volume 762.206029
_symmetry_space_group_name_H-M "P -1"
_symmetry_group_IT_number 2
_symmetry_cell_setting 'triclinic'
loop_
_space_group_symop_operation_xyz
x,y,z
-x,-y,-z
loop_
_atom_site_type_symbol
_atom_site_label
_atom_site_fract_x
_atom_site_fract_y
_atom_site_fract_z
Si Si1 0.570663 0.773206 0.445817
Si Si2 0.991144 0.636423 0.048266
Si Si3 0.463258 0.312929 0.036468
Si Si4 0.099663 0.827554 0.976586
Si Si5 0.267364 0.319792 0.599625
Si Si6 0.609939 0.008341 0.247345
Si Si7 0.383158 0.861997 0.188987
Si Si8 0.441650 0.594399 0.503061
O O1 0.616460 0.681655 0.380632
O O2 0.382367 0.715655 0.145907
O O3 0.547755 0.743105 0.570028
O O4 0.738797 0.980549 0.692561
O O5 0.786278 0.542283 0.832498
O O6 0.165766 0.804969 0.409862
O O7 0.000000 0.500000 0.000000
O O8 0.999721 0.688429 0.925618
O O9 0.657205 0.493559 0.262319
O O10 0.478008 0.316608 0.218758
O O11 0.300709 0.294540 0.781810
O O12 0.410111 0.147470 0.851015
O O13 0.957652 0.827101 0.743167
O O14 0.171695 0.778805 0.924942
O O15 0.490916 0.977538 0.225978
O O16 0.500000 0.000000 0.000000
O O17 0.500000 0.000000 0.500000
O O18 0.500000 0.500000 0.500000
#
# Coordination Sequence:
#
# PCOD8014465 Si02
#       8
#     2   2   2   2   2   2   2   2
#     4  11  21  42  71  99 137 181 232 281 343 415
#     4  12  24  45  73 102 136 182 238 280 342 421
#     4  11  24  44  69  97 147 181 222 287 358 402
#     4  11  22  40  72 102 131 183 239 280 332 423
#     4  11  22  43  70  99 138 186 226 283 349 415
#     4  12  26  45  70 103 143 185 222 291 362 402
#     4  10  21  41  67  97 131 178 230 277 329 414
#     4  12  25  44  71 104 135 181 233 286 338 410
#
# _framework density 20.991700000000002
#
# number of rings (size 3 to 8) (size 9 to 14) (size 15 to 20)
#    0.000    0.750    6.250    1.875    5.250    1.000 
#    2.250    1.875    0.000    0.000    0.000    0.000 
#    0.000    0.000    0.000    0.000    0.000    0.000 
#
# Total GULP energy -198277.180148 kJ/mol
# GULP energy per Si atom -12392.323759 kJ/mol
# Density = 2.094392 g / cm^3
# Si number density = 20.991700 Si / 1000 Ang^3
#
#
#
# Elastic Constant Matrix: (Units=GPa)
#
#
# Indices 1 2 3 4 5 6 
#
# 1 117.6193 36.9136 53.6628 -8.8166 11.4143 -8.9481
# 2 36.9136 115.4623 39.3601 -7.1730 0.8634 1.4712
# 3 53.6628 39.3601 97.9988 -15.7849 -1.3523 -11.7885
# 4 -8.8166 -7.1730 -15.7849 44.9167 -5.7676 -10.0541
# 5 11.4143 0.8634 -1.3523 -5.7676 30.6147 -7.5930
# 6 -8.9481 1.4712 -11.7885 -10.0541 -7.5930 41.3086
#
#
#
# Elastic Compliance Matrix: (Units=1/GPa)
#
#
# Indices 1 2 3 4 5 6 
#
# 1 0.012334 -0.001829 -0.006222 -0.000728 -0.004992 -0.000134
# 2 -0.001829 0.010437 -0.003488 -0.000387 -0.000315 -0.001915
# 3 -0.006222 -0.003488 0.016851 0.006286 0.005884 0.006197
# 4 -0.000728 -0.000387 0.006286 0.027525 0.008190 0.009855
# 5 -0.004992 -0.000315 0.005884 0.008190 0.038749 0.009725
# 6 -0.000134 -0.001915 0.006197 0.009855 0.009725 0.030202
#
#
# Mechanical properties :
#
#
# Convention : Reuss Voigt Hill
#
# Bulk Modulus (GPa) = 60.43666 65.66147 63.04907
# Shear Modulus (GPa) = 30.35997 36.77760 33.56879
#
# Velocity S-wave (km/s) = 3.80713 4.19024 4.00327
# Velocity P-wave (km/s) = 6.94110 7.39989 7.17417
#
# Compressibility (1/GPa) = 0.01654625
#
# Stress axis : x y z
#
# Youngs Moduli (GPa) = 81.07479 95.81253 59.34278
#
# Poissons Ratio (x) = 0.17519 0.36923
# Poissons Ratio (y) = 0.14825 0.20697
# Poissons Ratio (z) = 0.50445 0.33416
#
# Static dielectric constant tensor:
#      x y z
#    x 4.121230 -0.224730 0.172730 
#    y -0.224730 4.410170 -0.302910 
#    z 0.172730 -0.302910 3.844960 
# 
# 
# High freq. dielectric constant tensor:
#      x y z
#    x 1.819110 -0.010570 0.000260 
#    y -0.010570 1.844940 -0.012040 
#    z 0.000260 -0.012040 1.810320 
# 
# From -- ./inp_files/308209.got.cif
#   From: 2010.06.25/outbox.cif.g09.slc.cpg/sg2_155_cif.got.tgz:308209.got - 2010.06.27 13:26:56.
