data_PCOD8014625
_publ_section_title
;
Structure prediction by ZEFSAII (Michael W. Deem and Ramdas Pophale) SiO2 
 PCOD8014625
Probable space group: P -1
;
_chemical_formula_sum "Si O2"
_cell_formula_units_Z 16
_cell_length_a 27.562941
_cell_length_b 8.904773
_cell_length_c 13.665515
_cell_angle_alpha 143.298395
_cell_angle_beta 26.086839
_cell_angle_gamma 151.169384
_cell_volume 709.459483
_symmetry_space_group_name_H-M "P -1"
_symmetry_group_IT_number 2
_symmetry_cell_setting 'triclinic'
loop_
_space_group_symop_operation_xyz
x,y,z
-x,-y,-z
loop_
_atom_site_type_symbol
_atom_site_label
_atom_site_fract_x
_atom_site_fract_y
_atom_site_fract_z
Si Si1 0.303124 0.365576 0.936612
Si Si2 0.187083 0.376490 0.423385
Si Si3 0.425473 0.420701 0.348584
Si Si4 0.107939 0.851194 0.145133
Si Si5 0.654399 0.394489 0.218215
Si Si6 0.055588 0.346193 0.110430
Si Si7 0.556223 0.329450 0.759431
Si Si8 0.796968 0.279948 0.607650
O O1 0.433825 0.532716 0.858695
O O2 0.353022 0.421173 0.763234
O O3 0.212876 0.494455 0.185124
O O4 0.205066 0.995674 0.948116
O O5 0.290336 0.508023 0.395590
O O6 0.231138 0.666187 0.424219
O O7 0.036561 0.219190 0.657791
O O8 0.183666 0.111290 0.230281
O O9 0.368096 0.488386 0.580613
O O10 0.444784 0.643847 0.341993
O O11 0.315881 0.065541 0.329943
O O12 0.089398 0.539957 0.049837
O O13 0.539097 0.029109 0.222925
O O14 0.806142 0.482421 0.987837
O O15 0.946836 0.353260 0.377264
O O16 0.000000 0.000000 0.000000
O O17 0.500000 0.500000 0.000000
#
# Coordination Sequence:
#
# PCOD8014625 Si02
#       8
#     2   2   2   2   2   2   2   2
#     4  11  23  41  68  97 129 175 233 273 325 395
#     4   9  19  39  66  99 131 166 219 274 329 388
#     4  12  24  42  64  95 143 176 216 275 339 395
#     4   9  20  40  67  96 131 172 215 276 328 387
#     4  12  26  43  64  95 139 180 219 275 337 391
#     4  11  22  43  67  93 139 175 217 271 341 393
#     4  12  24  40  68 102 132 174 226 274 329 402
#     4  10  21  41  69  95 130 177 221 276 327 392
#
# _framework density 22.552382000000001
#
# number of rings (size 3 to 8) (size 9 to 14) (size 15 to 20)
#    0.000    1.250    1.250    6.375    0.000    1.500 
#    0.000    0.625    0.000    0.000    0.000    0.000 
#    0.000    0.000    0.000    0.000    0.000    0.000 
#
# Total GULP energy -198436.106531 kJ/mol
# GULP energy per Si atom -12402.256658 kJ/mol
# Density = 2.250105 g / cm^3
# Si number density = 22.552382 Si / 1000 Ang^3
#
#
#
# Elastic Constant Matrix: (Units=GPa)
#
#
# Indices 1 2 3 4 5 6 
#
# 1 131.1241 49.4249 41.3082 -19.8864 5.0684 -0.4810
# 2 49.4249 134.3960 30.0353 -23.4320 -2.0074 -16.9850
# 3 41.3082 30.0353 81.6461 -16.5419 -0.3527 -0.9548
# 4 -19.8864 -23.4320 -16.5419 38.7955 -4.1539 -0.0630
# 5 5.0684 -2.0074 -0.3527 -4.1539 38.6329 -14.0321
# 6 -0.4810 -16.9850 -0.9548 -0.0630 -14.0321 41.7919
#
#
#
# Elastic Compliance Matrix: (Units=1/GPa)
#
#
# Indices 1 2 3 4 5 6 
#
# 1 0.010237 -0.002882 -0.003812 0.001664 -0.002007 -0.001812
# 2 -0.002882 0.010301 -0.001337 0.004535 0.003290 0.005234
# 3 -0.003812 -0.001337 0.015474 0.003948 0.001041 0.000122
# 4 0.001664 0.004535 0.003948 0.031566 0.004754 0.003596
# 5 -0.002007 0.003290 0.001041 0.004754 0.031124 0.011795
# 6 -0.001812 0.005234 0.000122 0.003596 0.011795 0.030003
#
#
# Mechanical properties :
#
#
# Convention : Reuss Voigt Hill
#
# Bulk Modulus (GPa) = 50.12465 65.41144 57.76804
# Shear Modulus (GPa) = 33.02175 38.93726 35.97950
#
# Velocity S-wave (km/s) = 3.83067 4.15966 3.99855
# Velocity P-wave (km/s) = 6.46835 7.22063 6.85482
#
# Compressibility (1/GPa) = 0.01995026
#
# Stress axis : x y z
#
# Youngs Moduli (GPa) = 97.68872 97.08255 64.62340
#
# Poissons Ratio (x) = 0.27975 0.24634
# Poissons Ratio (y) = 0.28149 0.08641
# Poissons Ratio (z) = 0.37238 0.12981
#
# Static dielectric constant tensor:
#      x y z
#    x 4.071930 -0.072220 -0.166260 
#    y -0.072220 3.314480 -0.369440 
#    z -0.166260 -0.369440 4.020410 
# 
# 
# High freq. dielectric constant tensor:
#      x y z
#    x 1.880420 -0.012550 -0.014630 
#    y -0.012550 1.898250 -0.021700 
#    z -0.014630 -0.021700 1.887440 
# 
# From -- ./inp_files/476408.got.cif
#   From: 2010.06.25/outbox.cif.g09.slc.cpg/sg2_239_cif.got.tgz:476408.got - 2010.06.27 13:26:56.
