data_PCOD8014317
_publ_section_title
;
Structure prediction by ZEFSAII (Michael W. Deem and Ramdas Pophale) SiO2 
 PCOD8014317
Probable space group: P -1
;
_chemical_formula_sum "Si O2"
_cell_formula_units_Z 16
_cell_length_a 6.369556
_cell_length_b 12.875545
_cell_length_c 11.234170
_cell_angle_alpha 65.619162
_cell_angle_beta 122.990560
_cell_angle_gamma 90.676653
_cell_volume 675.961119
_symmetry_space_group_name_H-M "P -1"
_symmetry_group_IT_number 2
_symmetry_cell_setting 'triclinic'
loop_
_space_group_symop_operation_xyz
x,y,z
-x,-y,-z
loop_
_atom_site_type_symbol
_atom_site_label
_atom_site_fract_x
_atom_site_fract_y
_atom_site_fract_z
Si Si1 0.951757 0.036989 0.236547
Si Si2 0.713362 0.415793 0.771293
Si Si3 0.772335 0.768174 0.726806
Si Si4 0.915226 0.156693 0.928526
Si Si5 0.669658 0.401907 0.013815
Si Si6 0.284930 0.793148 0.407482
Si Si7 0.814073 0.454385 0.545226
Si Si8 0.443240 0.195129 0.096409
O O1 0.690684 0.078752 0.214804
O O2 0.152704 0.108613 0.305748
O O3 0.903956 0.053834 0.068222
O O4 0.083528 0.897961 0.370138
O O5 0.808639 0.279815 0.909576
O O6 0.911529 0.444562 0.719877
O O7 0.454711 0.441718 0.599255
O O8 0.671902 0.480154 0.855376
O O9 0.577043 0.769393 0.557115
O O10 0.626720 0.760699 0.810354
O O11 0.027644 0.657748 0.829563
O O12 0.730221 0.160184 0.755982
O O13 0.208335 0.155431 0.980249
O O14 0.516161 0.301735 0.998619
O O15 0.500000 0.500000 0.000000
O O16 0.200709 0.672660 0.447599
O O17 0.000000 0.500000 0.500000
#
# Coordination Sequence:
#
# PCOD8014317 Si02
#       8
#     2   2   2   2   2   2   2   2
#     4  10  21  44  70  99 134 184 229 280 342 405
#     4  10  21  44  67  98 133 178 227 280 346 408
#     4  10  23  45  64 100 143 177 221 286 353 399
#     4  10  21  42  69  97 133 180 225 286 342 405
#     4  11  24  41  74  99 131 184 236 283 335 418
#     4  11  24  41  70 103 139 176 233 281 340 419
#     4  10  25  44  67  98 141 182 216 287 355 401
#     4  10  21  41  66  95 136 181 229 274 350 398
#
# _framework density 23.670002
#
# number of rings (size 3 to 8) (size 9 to 14) (size 15 to 20)
#    0.000    1.750    3.750    0.750    5.250    2.500 
#    4.500   11.250    0.000    0.000    0.000    0.000 
#    0.000    0.000    0.000    0.000    0.000    0.000 
#
# Total GULP energy -198216.704790 kJ/mol
# GULP energy per Si atom -12388.544049 kJ/mol
# Density = 2.361613 g / cm^3
# Si number density = 23.670002 Si / 1000 Ang^3
#
#
#
# Elastic Constant Matrix: (Units=GPa)
#
#
# Indices 1 2 3 4 5 6 
#
# 1 153.3331 59.3400 70.1626 -1.2971 -0.1481 -20.8493
# 2 59.3400 81.4493 49.4870 -5.6937 -1.4308 -6.4902
# 3 70.1626 49.4870 128.9121 12.8136 3.8633 -6.8801
# 4 -1.2971 -5.6937 12.8136 51.2664 -7.1031 3.9512
# 5 -0.1481 -1.4308 3.8633 -7.1031 31.5402 -4.5769
# 6 -20.8493 -6.4902 -6.8801 3.9512 -4.5769 30.3615
#
#
#
# Elastic Compliance Matrix: (Units=1/GPa)
#
#
# Indices 1 2 3 4 5 6 
#
# 1 0.011073 -0.005275 -0.003766 0.000357 0.001190 0.005756
# 2 -0.005275 0.019425 -0.005055 0.003649 0.002187 -0.000761
# 3 -0.003766 -0.005055 0.012187 -0.004024 -0.002762 -0.000797
# 4 0.000357 0.003649 -0.004024 0.021808 0.005292 -0.001927
# 5 0.001190 0.002187 -0.002762 0.005292 0.034082 0.005108
# 6 0.005756 -0.000761 -0.000797 -0.001927 0.005108 0.037566
#
#
# Mechanical properties :
#
#
# Convention : Reuss Voigt Hill
#
# Bulk Modulus (GPa) = 68.99121 80.18598 74.58860
# Shear Modulus (GPa) = 29.55738 34.94727 32.25233
#
# Velocity S-wave (km/s) = 3.53757 3.84661 3.69532
# Velocity P-wave (km/s) = 6.77468 7.32658 7.05602
#
# Compressibility (1/GPa) = 0.01449460
#
# Stress axis : x y z
#
# Youngs Moduli (GPa) = 90.30939 51.48123 82.05243
#
# Poissons Ratio (x) = 0.27156 0.30898
# Poissons Ratio (y) = 0.47637 0.41474
# Poissons Ratio (z) = 0.34008 0.26022
#
# Static dielectric constant tensor:
#      x y z
#    x 3.271650 0.426000 0.089010 
#    y 0.426000 3.906620 -0.184130 
#    z 0.089010 -0.184130 4.362220 
# 
# 
# High freq. dielectric constant tensor:
#      x y z
#    x 1.935260 -0.021790 0.003620 
#    y -0.021790 1.933710 -0.012140 
#    z 0.003620 -0.012140 1.939960 
# 
# From -- ./inp_files/367628.got.cif
#   From: 2010.06.25/outbox.cif.g09.slc.cpg/sg2_184_cif.got.tgz:367628.got - 2010.06.27 13:26:56.
