data_PCOD8014927
_publ_section_title
;
Structure prediction by ZEFSAII (Michael W. Deem and Ramdas Pophale) SiO2 
 PCOD8014927
Probable space group: P -1
;
_chemical_formula_sum "Si O2"
_cell_formula_units_Z 16
_cell_length_a 20.291958
_cell_length_b 17.053300
_cell_length_c 9.125625
_cell_angle_alpha 64.008991
_cell_angle_beta 53.945456
_cell_angle_gamma 18.313679
_cell_volume 706.184050
_symmetry_space_group_name_H-M "P -1"
_symmetry_group_IT_number 2
_symmetry_cell_setting 'triclinic'
loop_
_space_group_symop_operation_xyz
x,y,z
-x,-y,-z
loop_
_atom_site_type_symbol
_atom_site_label
_atom_site_fract_x
_atom_site_fract_y
_atom_site_fract_z
Si Si1 0.216148 0.759413 0.786441
Si Si2 0.477044 0.979936 0.198811
Si Si3 0.080474 0.249452 0.391360
Si Si4 0.541226 0.542447 0.008988
Si Si5 0.532202 0.885531 0.655818
Si Si6 0.053009 0.080087 0.561576
Si Si7 0.014261 0.337829 0.080355
Si Si8 0.007565 0.835894 0.763189
O O1 0.464513 0.477399 0.792436
O O2 0.147899 0.750977 0.771665
O O3 0.264369 0.794630 0.587951
O O4 0.000000 0.000000 0.000000
O O5 0.261940 0.120855 0.368893
O O6 0.374168 0.165535 0.275565
O O7 0.767137 0.654371 0.137174
O O8 0.500000 0.000000 0.000000
O O9 0.165711 0.061982 0.453061
O O10 0.146250 0.210762 0.171506
O O11 0.764642 0.582199 0.555276
O O12 0.500000 0.500000 0.000000
O O13 0.799974 0.328831 0.793721
O O14 0.302008 0.852353 0.047149
O O15 0.500000 0.000000 0.500000
O O16 0.249861 0.122681 0.836136
O O17 0.962707 0.155843 0.448568
O O18 0.894530 0.363161 0.188238
#
# Coordination Sequence:
#
# PCOD8014927 Si02
#       8
#     2   2   2   2   2   2   2   2
#     4  10  21  42  63  95 130 169 219 268 324 400
#     4  12  24  46  72  96 138 179 223 275 343 407
#     4  11  24  45  67 105 138 173 229 283 330 404
#     4  11  22  42  65  92 130 177 219 274 332 389
#     4  12  23  45  73  97 133 180 223 274 346 401
#     4  10  23  43  65  97 135 169 227 274 328 403
#     4  11  25  45  67 103 142 170 224 290 332 398
#     4  11  23  43  68  93 133 176 219 273 340 388
#
# _framework density 22.656981999999999
#
# number of rings (size 3 to 8) (size 9 to 14) (size 15 to 20)
#    0.000    1.000    5.000    2.625    0.000    2.500 
#   13.500    0.000    0.000    0.000    0.000    0.000 
#    0.000    0.000    0.000    0.000    0.000    0.000 
#
# Total GULP energy -198308.414910 kJ/mol
# GULP energy per Si atom -12394.275932 kJ/mol
# Density = 2.260541 g / cm^3
# Si number density = 22.656982 Si / 1000 Ang^3
#
#
#
# Elastic Constant Matrix: (Units=GPa)
#
#
# Indices 1 2 3 4 5 6 
#
# 1 125.0258 20.3066 26.5393 -22.3064 6.2136 -5.3457
# 2 20.3066 68.1651 13.0098 -12.4871 -11.7096 -2.2807
# 3 26.5393 13.0098 97.6761 -19.3387 0.6992 -10.2840
# 4 -22.3064 -12.4871 -19.3387 41.1264 -3.4218 -0.0589
# 5 6.2136 -11.7096 0.6992 -3.4218 34.9331 -0.2202
# 6 -5.3457 -2.2807 -10.2840 -0.0589 -0.2202 31.6662
#
#
#
# Elastic Compliance Matrix: (Units=1/GPa)
#
#
# Indices 1 2 3 4 5 6 
#
# 1 0.009447 -0.002193 -0.001444 0.003612 -0.002027 0.000961
# 2 -0.002193 0.017436 -0.000862 0.004255 0.006673 0.000660
# 3 -0.001444 -0.000862 0.012043 0.004640 0.000204 0.003615
# 4 0.003612 0.004255 0.004640 0.030056 0.003651 0.002504
# 5 -0.002027 0.006673 0.000204 0.003651 0.031580 0.000431
# 6 0.000961 0.000660 0.003615 0.002504 0.000431 0.032971
#
#
# Mechanical properties :
#
#
# Convention : Reuss Voigt Hill
#
# Bulk Modulus (GPa) = 33.41422 45.61982 39.51702
# Shear Modulus (GPa) = 32.78537 36.94589 34.86563
#
# Velocity S-wave (km/s) = 3.80811 4.04253 3.92707
# Velocity P-wave (km/s) = 5.84085 6.47828 6.16780
#
# Compressibility (1/GPa) = 0.02992738
#
# Stress axis : x y z
#
# Youngs Moduli (GPa) = 105.85035 57.35243 83.03597
#
# Poissons Ratio (x) = 0.12578 0.11991
# Poissons Ratio (y) = 0.23215 0.07160
# Poissons Ratio (z) = 0.15285 0.04945
#
# Static dielectric constant tensor:
#      x y z
#    x 2.138670 1.538400 -2.534880 
#    y 1.538400 3.101530 2.074730 
#    z -2.534880 2.074730 -1.172860 
# 
# 
# High freq. dielectric constant tensor:
#      x y z
#    x 1.895840 0.008720 0.010330 
#    y 0.008720 1.895500 -0.004010 
#    z 0.010330 -0.004010 1.903850 
# 
# From -- ./inp_files/348425.got.cif
#   From: 2010.06.25/outbox.cif.g09.slc.cpg/sg2_175_cif.got.tgz:348425.got - 2010.06.27 13:26:56.
