data_PCOD8014576
_publ_section_title
;
Structure prediction by ZEFSAII (Michael W. Deem and Ramdas Pophale) SiO2 
 PCOD8014576
Probable space group: P -1
;
_chemical_formula_sum "Si O2"
_cell_formula_units_Z 16
_cell_length_a 11.846331
_cell_length_b 8.550284
_cell_length_c 18.636661
_cell_angle_alpha 95.844677
_cell_angle_beta 128.818396
_cell_angle_gamma 42.212797
_cell_volume 713.022162
_symmetry_space_group_name_H-M "P -1"
_symmetry_group_IT_number 2
_symmetry_cell_setting 'triclinic'
loop_
_space_group_symop_operation_xyz
x,y,z
-x,-y,-z
loop_
_atom_site_type_symbol
_atom_site_label
_atom_site_fract_x
_atom_site_fract_y
_atom_site_fract_z
Si Si1 0.223112 0.204412 0.247336
Si Si2 0.163512 0.405128 0.489212
Si Si3 0.098851 0.966598 0.206714
Si Si4 0.891657 0.062944 0.273887
Si Si5 0.145865 0.269096 0.763310
Si Si6 0.240026 0.700246 0.531719
Si Si7 0.728730 0.195739 0.946050
Si Si8 0.311384 0.129875 0.117943
O O1 0.361444 0.123911 0.221596
O O2 0.950452 0.558406 0.191539
O O3 0.498658 0.976300 0.399421
O O4 0.124461 0.117549 0.193282
O O5 0.182496 0.572386 0.507922
O O6 0.000000 0.500000 0.500000
O O7 0.009876 0.502111 0.357827
O O8 0.424540 0.573530 0.322203
O O9 0.978774 0.092338 0.244767
O O10 0.844492 0.110119 0.069658
O O11 0.555312 0.433333 0.175965
O O12 0.908630 0.862946 0.252994
O O13 0.148135 0.855638 0.424683
O O14 0.488684 0.970200 0.866010
O O15 0.000000 0.000000 0.500000
O O16 0.661909 0.078905 0.898071
O O17 0.000000 0.000000 0.000000
O O18 0.000000 0.500000 0.000000
#
# Coordination Sequence:
#
# PCOD8014576 Si02
#       8
#     2   2   2   2   2   2   2   2
#     4  11  24  44  70  99 133 179 222 274 338 399
#     4  10  21  41  68  99 133 173 220 271 339 398
#     4  11  24  44  66  97 134 177 225 272 335 398
#     4  11  25  43  68 103 133 175 223 276 338 397
#     4  11  25  44  68 102 138 171 223 281 333 402
#     4  10  23  40  67  98 132 172 221 275 332 397
#     4  12  24  45  70  95 136 176 225 276 332 400
#     4  12  27  45  69  98 135 178 227 275 332 396
#
# _framework density 22.439696999999999
#
# number of rings (size 3 to 8) (size 9 to 14) (size 15 to 20)
#    0.000    1.000    2.500    3.375    3.500    3.500 
#    0.000    0.000    0.000    0.000    0.000    0.000 
#    0.000    0.000    0.000    0.000    0.000    0.000 
#
# Total GULP energy -198251.361355 kJ/mol
# GULP energy per Si atom -12390.710085 kJ/mol
# Density = 2.238862 g / cm^3
# Si number density = 22.439697 Si / 1000 Ang^3
#
#
#
# Elastic Constant Matrix: (Units=GPa)
#
#
# Indices 1 2 3 4 5 6 
#
# 1 51.7632 1.5736 -7.0614 -0.7351 -7.5708 -16.3800
# 2 1.5736 110.5580 30.9249 -13.0144 -5.2143 -13.4715
# 3 -7.0614 30.9249 100.1390 -11.5335 -6.8911 9.6091
# 4 -0.7351 -13.0144 -11.5335 39.4725 -4.8195 -0.5282
# 5 -7.5708 -5.2143 -6.8911 -4.8195 32.1976 -6.1170
# 6 -16.3800 -13.4715 9.6091 -0.5282 -6.1170 29.9884
#
#
#
# Elastic Compliance Matrix: (Units=1/GPa)
#
#
# Indices 1 2 3 4 5 6 
#
# 1 0.026462 0.002482 0.000475 0.002970 0.010517 0.017614
# 2 0.002482 0.011642 -0.003585 0.003421 0.003844 0.008579
# 3 0.000475 -0.003585 0.011979 0.002451 0.001544 -0.004831
# 4 0.002970 0.003421 0.002451 0.028120 0.006794 0.004255
# 5 0.010517 0.003844 0.001544 0.006794 0.038335 0.014915
# 6 0.017614 0.008579 -0.004831 0.004255 0.014915 0.051486
#
#
# Mechanical properties :
#
#
# Convention : Reuss Voigt Hill
#
# Bulk Modulus (GPa) = 20.48005 34.81496 27.64750
# Shear Modulus (GPa) = 26.94621 36.13325 31.53973
#
# Velocity S-wave (km/s) = 3.46906 4.01713 3.75311
# Velocity P-wave (km/s) = 5.01919 6.08811 5.57931
#
# Compressibility (1/GPa) = 0.04882801
#
# Stress axis : x y z
#
# Youngs Moduli (GPa) = 37.78958 85.89773 83.48105
#
# Poissons Ratio (x) = -0.21324 -0.03965
# Poissons Ratio (y) = -0.09381 0.29926
# Poissons Ratio (z) = -0.01795 0.30793
#
# Static dielectric constant tensor:
#      x y z
#    x 3.943400 0.038240 0.257310 
#    y 0.038240 3.382690 -1.364250 
#    z 0.257310 -1.364250 2.155880 
# 
# 
# High freq. dielectric constant tensor:
#      x y z
#    x 1.887770 -0.012700 -0.005810 
#    y -0.012700 1.884780 -0.009940 
#    z -0.005810 -0.009940 1.897000 
# 
# From -- ./inp_files/282669.got.cif
#   From: 2010.06.25/outbox.cif.g09.slc.cpg/sg2_142_cif.got.tgz:282669.got - 2010.06.27 13:26:56.
