data_PCOD8014993
_publ_section_title
;
Structure prediction by ZEFSAII (Michael W. Deem and Ramdas Pophale) SiO2 
 PCOD8014993
Probable space group: P -1
;
_chemical_formula_sum "Si O2"
_cell_formula_units_Z 16
_cell_length_a 10.024295
_cell_length_b 12.164407
_cell_length_c 11.155742
_cell_angle_alpha 94.365406
_cell_angle_beta 59.074969
_cell_angle_gamma 137.991905
_cell_volume 660.992385
_symmetry_space_group_name_H-M "P -1"
_symmetry_group_IT_number 2
_symmetry_cell_setting 'triclinic'
loop_
_space_group_symop_operation_xyz
x,y,z
-x,-y,-z
loop_
_atom_site_type_symbol
_atom_site_label
_atom_site_fract_x
_atom_site_fract_y
_atom_site_fract_z
Si Si1 0.270078 0.706512 0.952818
Si Si2 0.114804 0.860552 0.053887
Si Si3 0.316312 0.085548 0.605262
Si Si4 0.784214 0.078008 0.601480
Si Si5 0.629539 0.229970 0.700366
Si Si6 0.232539 0.271742 0.579838
Si Si7 0.696539 0.440406 0.864901
Si Si8 0.158436 0.265996 0.063186
O O1 0.525871 0.861591 0.757634
O O2 0.206422 0.790775 0.038515
O O3 0.362868 0.686570 0.019076
O O4 0.000000 0.500000 0.000000
O O5 0.012851 0.854613 0.222930
O O6 0.862017 0.715836 0.066106
O O7 0.355040 0.069234 0.895422
O O8 0.579290 0.216946 0.579811
O O9 0.346521 0.214786 0.526598
O O10 0.256013 0.954762 0.525733
O O11 0.067344 0.950626 0.802615
O O12 0.788831 0.209405 0.645388
O O13 0.081685 0.204558 0.516119
O O14 0.790481 0.431244 0.697804
O O15 0.500000 0.500000 0.500000
O O16 0.910078 0.656665 0.830959
O O17 0.442157 0.372383 0.958201
#
# Coordination Sequence:
#
# PCOD8014993 Si02
#       8
#     2   2   2   2   2   2   2   2
#     4  11  22  39  70  96 127 172 218 273 318 388
#     4  10  21  42  64  95 129 164 224 266 329 379
#     4  11  24  44  65  93 135 176 215 265 337 391
#     4  11  25  45  66  96 135 179 216 268 334 389
#     4  10  22  43  69  96 127 175 219 279 320 384
#     4  12  27  43  68 100 135 173 216 274 327 396
#     4  11  21  37  64  99 126 163 229 266 325 378
#     4  10  22  38  65  93 129 172 212 271 319 395
#
# _framework density 24.206028
#
# number of rings (size 3 to 8) (size 9 to 14) (size 15 to 20)
#    0.000    1.250    1.250    4.500    1.750    7.000 
#    0.000    1.250    0.000    0.000    0.000    0.000 
#    0.000    0.000    0.000    0.000    0.000    0.000 
#
# Total GULP energy -198311.160477 kJ/mol
# GULP energy per Si atom -12394.447530 kJ/mol
# Density = 2.415093 g / cm^3
# Si number density = 24.206028 Si / 1000 Ang^3
#
#
#
# Elastic Constant Matrix: (Units=GPa)
#
#
# Indices 1 2 3 4 5 6 
#
# 1 103.9182 -0.6541 -1.2270 0.4455 12.9859 -16.2280
# 2 -0.6541 66.4215 -9.4780 11.0872 6.1541 -9.6544
# 3 -1.2270 -9.4780 33.4346 1.8292 7.1180 -2.3076
# 4 0.4455 11.0872 1.8292 39.8025 7.5840 -6.0633
# 5 12.9859 6.1541 7.1180 7.5840 24.7010 8.7776
# 6 -16.2280 -9.6544 -2.3076 -6.0633 8.7776 35.1523
#
#
#
# Elastic Compliance Matrix: (Units=1/GPa)
#
#
# Indices 1 2 3 4 5 6 
#
# 1 0.013282 0.003333 0.005109 0.003177 -0.014352 0.011514
# 2 0.003333 0.019294 0.008982 -0.001970 -0.012138 0.010118
# 3 0.005109 0.008982 0.037886 0.001633 -0.020895 0.012812
# 4 0.003177 -0.001970 0.001633 0.029757 -0.014240 0.009721
# 5 -0.014352 -0.012138 -0.020895 -0.014240 0.072807 -0.031967
# 6 0.011514 0.010118 0.012812 0.009721 -0.031967 0.047042
#
#
# Mechanical properties :
#
#
# Convention : Reuss Voigt Hill
#
# Bulk Modulus (GPa) = 9.49580 20.11733 14.80656
# Shear Modulus (GPa) = 22.69381 34.27339 28.48360
#
# Velocity S-wave (km/s) = 3.06523 3.76693 3.43405
# Velocity P-wave (km/s) = 4.05696 5.22002 4.67480
#
# Compressibility (1/GPa) = 0.10530976
#
# Stress axis : x y z
#
# Youngs Moduli (GPa) = 75.28873 51.82926 26.39485
#
# Poissons Ratio (x) = -0.17274 -0.13484
# Poissons Ratio (y) = -0.25093 -0.23708
# Poissons Ratio (z) = -0.38462 -0.46554
#
# Static dielectric constant tensor:
#      x y z
#    x 4.506140 0.048120 0.117750 
#    y 0.048120 4.721730 0.153200 
#    z 0.117750 0.153200 4.015940 
# 
# 
# High freq. dielectric constant tensor:
#      x y z
#    x 1.978130 0.001110 0.005950 
#    y 0.001110 1.971650 0.010220 
#    z 0.005950 0.010220 1.936500 
# 
# From -- ./inp_files/392599.got.cif
#   From: 2010.06.25/outbox.cif.g09.slc.cpg/sg2_197_cif.got.tgz:392599.got - 2010.06.27 13:26:56.
