data_PCOD8014745
_publ_section_title
;
Structure prediction by ZEFSAII (Michael W. Deem and Ramdas Pophale) SiO2 
 PCOD8014745
Probable space group: P -1
;
_chemical_formula_sum "Si O2"
_cell_formula_units_Z 16
_cell_length_a 13.933516
_cell_length_b 8.361255
_cell_length_c 8.625437
_cell_angle_alpha 54.041829
_cell_angle_beta 77.588428
_cell_angle_gamma 99.780037
_cell_volume 736.566222
_symmetry_space_group_name_H-M "P -1"
_symmetry_group_IT_number 2
_symmetry_cell_setting 'triclinic'
loop_
_space_group_symop_operation_xyz
x,y,z
-x,-y,-z
loop_
_atom_site_type_symbol
_atom_site_label
_atom_site_fract_x
_atom_site_fract_y
_atom_site_fract_z
Si Si1 0.648464 0.931401 0.529910
Si Si2 0.548150 0.520451 0.641458
Si Si3 0.270134 0.598025 0.773100
Si Si4 0.976082 0.928481 0.223741
Si Si5 0.152609 0.825418 0.842205
Si Si6 0.228606 0.483777 0.506679
Si Si7 0.650611 0.744496 0.969817
Si Si8 0.180521 0.867607 0.170640
O O1 0.552511 0.745664 0.583874
O O2 0.637624 0.163115 0.411288
O O3 0.750580 0.962803 0.369044
O O4 0.664071 0.860974 0.736328
O O5 0.500000 0.500000 0.500000
O O6 0.662739 0.504557 0.618564
O O7 0.470057 0.333666 0.883369
O O8 0.163615 0.619339 0.872217
O O9 0.240735 0.475639 0.691343
O O10 0.313694 0.457181 0.947583
O O11 0.871981 0.716474 0.399092
O O12 0.078006 0.891513 0.277292
O O13 0.952117 0.126482 0.197806
O O14 0.000000 0.000000 0.000000
O O15 0.157825 0.798215 0.040274
O O16 0.208621 0.695087 0.353489
O O17 0.722656 0.907121 0.980351
#
# Coordination Sequence:
#
# PCOD8014745 Si02
#       8
#     2   2   2   2   2   2   2   2
#     4  10  23  45  62 100 138 170 228 272 334 396
#     4  12  25  42  72  95 136 183 224 273 333 402
#     4  10  22  41  66  94 139 171 219 283 323 396
#     4  10  21  41  71  95 131 178 220 280 332 404
#     4   9  20  41  65  95 132 173 218 276 326 392
#     4  12  22  45  65 100 135 174 230 274 337 398
#     4  12  24  44  66 100 137 183 220 276 335 392
#     4  11  23  42  69 100 134 178 226 270 338 403
#
# _framework density 21.72242
#
# number of rings (size 3 to 8) (size 9 to 14) (size 15 to 20)
#    0.750    0.500    3.750    3.000    1.750    1.000 
#    0.000    8.125    0.000    0.000    0.000    0.000 
#    0.000    0.000    0.000    0.000    0.000    0.000 
#
# Total GULP energy -198248.026843 kJ/mol
# GULP energy per Si atom -12390.501678 kJ/mol
# Density = 2.167298 g / cm^3
# Si number density = 21.722420 Si / 1000 Ang^3
#
#
#
# Elastic Constant Matrix: (Units=GPa)
#
#
# Indices 1 2 3 4 5 6 
#
# 1 105.8241 12.4295 28.8847 -10.6751 -10.9501 -27.7869
# 2 12.4295 59.5456 6.1916 -5.0200 7.5225 -11.0657
# 3 28.8847 6.1916 83.8816 -11.7053 7.6132 -12.2465
# 4 -10.6751 -5.0200 -11.7053 34.3322 -4.6780 2.4682
# 5 -10.9501 7.5225 7.6132 -4.6780 35.9766 -1.8666
# 6 -27.7869 -11.0657 -12.2465 2.4682 -1.8666 38.0575
#
#
#
# Elastic Compliance Matrix: (Units=1/GPa)
#
#
# Indices 1 2 3 4 5 6 
#
# 1 0.013775 -0.001417 -0.003501 0.003091 0.006079 0.008616
# 2 -0.001417 0.018453 0.000300 0.001526 -0.003941 0.004135
# 3 -0.003501 0.000300 0.014121 0.003155 -0.003619 0.001693
# 4 0.003091 0.001526 0.003155 0.031824 0.004189 0.001857
# 5 0.006079 -0.003941 -0.003619 0.004189 0.031958 0.003424
# 6 0.008616 0.004135 0.001693 0.001857 0.003424 0.034362
#
#
# Mechanical properties :
#
#
# Convention : Reuss Voigt Hill
#
# Bulk Modulus (GPa) = 26.94519 38.25146 32.59832
# Shear Modulus (GPa) = 30.10216 35.12297 32.61256
#
# Velocity S-wave (km/s) = 3.72662 4.02543 3.87891
# Velocity P-wave (km/s) = 5.56311 6.26521 5.92457
#
# Compressibility (1/GPa) = 0.03711238
#
# Stress axis : x y z
#
# Youngs Moduli (GPa) = 72.59471 54.19063 70.81717
#
# Poissons Ratio (x) = 0.07681 0.24795
# Poissons Ratio (y) = 0.10290 -0.02126
# Poissons Ratio (z) = 0.25417 -0.01627
#
# Static dielectric constant tensor:
#      x y z
#    x 4.397590 -0.072990 -0.376330 
#    y -0.072990 4.145720 -0.281890 
#    z -0.376330 -0.281890 3.978060 
# 
# 
# High freq. dielectric constant tensor:
#      x y z
#    x 1.849640 -0.017610 -0.004900 
#    y -0.017610 1.851040 -0.010050 
#    z -0.004900 -0.010050 1.854290 
# 
# From -- ./inp_files/294065.got.cif
#   From: 2010.06.25/outbox.cif.g09.slc.cpg/sg2_148_cif.got.tgz:294065.got - 2010.06.27 13:26:56.
