data_PCOD8014688
_publ_section_title
;
Structure prediction by ZEFSAII (Michael W. Deem and Ramdas Pophale) SiO2 
 PCOD8014688
Probable space group: P -1
;
_chemical_formula_sum "Si O2"
_cell_formula_units_Z 12
_cell_length_a 10.053458
_cell_length_b 8.191158
_cell_length_c 10.481911
_cell_angle_alpha 67.850771
_cell_angle_beta 41.444930
_cell_angle_gamma 72.335410
_cell_volume 528.871030
_symmetry_space_group_name_H-M "P -1"
_symmetry_group_IT_number 2
_symmetry_cell_setting 'triclinic'
loop_
_space_group_symop_operation_xyz
x,y,z
-x,-y,-z
loop_
_atom_site_type_symbol
_atom_site_label
_atom_site_fract_x
_atom_site_fract_y
_atom_site_fract_z
Si Si1 0.063292 0.725097 0.581133
Si Si2 0.570125 0.986263 0.100853
Si Si3 0.512678 0.408716 0.655639
Si Si4 0.133606 0.516199 0.024363
Si Si5 0.200875 0.095748 0.473717
Si Si6 0.029701 0.872716 0.132976
O O1 0.256107 0.590393 0.463237
O O2 0.900778 0.657698 0.817406
O O3 0.950062 0.754490 0.520682
O O4 0.143048 0.903460 0.527406
O O5 0.428434 0.114552 0.254591
O O6 0.571128 0.789478 0.218442
O O7 0.791072 0.062750 0.924917
O O8 0.500000 0.000000 0.000000
O O9 0.500000 0.500000 0.500000
O O10 0.369057 0.527368 0.816381
O O11 0.067854 0.678485 0.111323
O O12 0.000000 0.500000 0.000000
O O13 0.175424 0.117573 0.637992
O O14 0.000000 0.000000 0.000000
#
# Coordination Sequence:
#
# PCOD8014688 Si02
#       6
#     2   2   2   2   2   2
#     4  10  21  41  70  94 134 175 228 274 343 404
#     4  11  24  47  74 100 137 183 227 280 342 414
#     4  11  22  38  69  99 130 176 224 280 339 396
#     4  12  24  42  64  96 139 178 223 281 339 400
#     4  10  22  43  69  99 131 181 226 277 338 412
#     4  12  27  42  68 102 139 178 229 283 339 404
#
# _framework density 22.689841999999999
#
# number of rings (size 3 to 8) (size 9 to 14) (size 15 to 20)
#    0.000    1.000    1.667    7.000    2.333    2.667 
#    0.000    5.833    0.000    0.000    0.000    0.000 
#    0.000    0.000    0.000    0.000    0.000    0.000 
#
# Total GULP energy -148784.841416 kJ/mol
# GULP energy per Si atom -12398.736785 kJ/mol
# Density = 2.263820 g / cm^3
# Si number density = 22.689842 Si / 1000 Ang^3
#
#
#
# Elastic Constant Matrix: (Units=GPa)
#
#
# Indices 1 2 3 4 5 6 
#
# 1 72.0042 19.7237 25.5648 4.3541 12.5691 -11.0198
# 2 19.7237 44.6198 16.9146 5.8161 4.6658 -20.1008
# 3 25.5648 16.9146 160.1230 23.8930 7.8075 -20.6271
# 4 4.3541 5.8161 23.8930 54.2493 -7.1757 -0.4328
# 5 12.5691 4.6658 7.8075 -7.1757 35.2353 -1.2549
# 6 -11.0198 -20.1008 -20.6271 -0.4328 -1.2549 36.0229
#
#
#
# Elastic Compliance Matrix: (Units=1/GPa)
#
#
# Indices 1 2 3 4 5 6 
#
# 1 0.017163 -0.005993 -0.001661 -0.000668 -0.005069 0.000771
# 2 -0.005993 0.033181 0.000218 -0.003356 -0.002394 0.016683
# 3 -0.001661 0.000218 0.007575 -0.003417 -0.001674 0.003852
# 4 -0.000668 -0.003356 -0.003417 0.021064 0.005602 -0.003585
# 5 -0.005069 -0.002394 -0.001674 0.005602 0.031923 -0.002665
# 6 0.000771 0.016683 0.003852 -0.003585 -0.002665 0.039375
#
#
# Mechanical properties :
#
#
# Convention : Reuss Voigt Hill
#
# Bulk Modulus (GPa) = 23.22981 44.57256 33.90118
# Shear Modulus (GPa) = 27.85514 39.40441 33.62977
#
# Velocity S-wave (km/s) = 3.50758 4.17184 3.85405
# Velocity P-wave (km/s) = 5.16376 6.54924 5.89733
#
# Compressibility (1/GPa) = 0.04304814
#
# Stress axis : x y z
#
# Youngs Moduli (GPa) = 58.26644 30.13762 132.01322
#
# Poissons Ratio (x) = 0.18060 0.21927
# Poissons Ratio (y) = 0.34916 -0.02882
# Poissons Ratio (z) = 0.09678 -0.00658
#
# Static dielectric constant tensor:
#      x y z
#    x 3.974070 -0.382250 -0.208560 
#    y -0.382250 4.209840 0.084640 
#    z -0.208560 0.084640 4.625850 
# 
# 
# High freq. dielectric constant tensor:
#      x y z
#    x 1.871360 -0.026270 -0.001630 
#    y -0.026270 1.892710 0.000310 
#    z -0.001630 0.000310 1.926110 
# 
# From -- ./inp_files/157027.got.cif
#   From: 2010.06.25/outbox.cif.g09.slc.cpg/sg2_79_cif.got.tgz:157027.got - 2010.06.27 13:26:56.
