data_PCOD8014336
_publ_section_title
;
Structure prediction by ZEFSAII (Michael W. Deem and Ramdas Pophale) SiO2 
 PCOD8014336
Probable space group: P -1
;
_chemical_formula_sum "Si O2"
_cell_formula_units_Z 16
_cell_length_a 14.949294
_cell_length_b 13.795289
_cell_length_c 19.191745
_cell_angle_alpha 24.840290
_cell_angle_beta 150.023866
_cell_angle_gamma 133.066801
_cell_volume 723.297732
_symmetry_space_group_name_H-M "P -1"
_symmetry_group_IT_number 2
_symmetry_cell_setting 'triclinic'
loop_
_space_group_symop_operation_xyz
x,y,z
-x,-y,-z
loop_
_atom_site_type_symbol
_atom_site_label
_atom_site_fract_x
_atom_site_fract_y
_atom_site_fract_z
Si Si1 0.342170 0.678413 0.717013
Si Si2 0.558383 0.421363 0.887829
Si Si3 0.922507 0.562854 0.327146
Si Si4 0.589499 0.151470 0.708485
Si Si5 0.289791 0.529439 0.508335
Si Si6 0.208095 0.221231 0.332789
Si Si7 0.361047 0.174677 0.669842
Si Si8 0.002326 0.244536 0.310691
O O1 0.444331 0.583365 0.772968
O O2 0.133974 0.657481 0.593812
O O3 0.269581 0.992042 0.466176
O O4 0.500000 0.500000 0.000000
O O5 0.430160 0.554347 0.645567
O O6 0.764172 0.451272 0.997642
O O7 0.585363 0.128964 0.100912
O O8 0.000000 0.500000 0.500000
O O9 0.081377 0.579529 0.370968
O O10 0.713058 0.836485 0.001291
O O11 0.737862 0.263724 0.707788
O O12 0.402986 0.257613 0.457814
O O13 0.500470 0.241728 0.667946
O O14 0.393542 0.244764 0.724684
O O15 0.154603 0.106492 0.439221
O O16 0.000000 0.500000 0.000000
O O17 0.116655 0.356795 0.365363
O O18 0.000000 0.000000 0.500000
#
# Coordination Sequence:
#
# PCOD8014336 Si02
#       8
#     2   2   2   2   2   2   2   2
#     4  12  23  45  78  95 135 189 236 285 346 404
#     4  11  22  42  64 103 134 178 235 284 334 419
#     4  12  25  47  69 102 138 183 243 287 337 421
#     4  11  23  48  67  99 146 183 231 287 352 415
#     4  12  25  40  67 101 142 182 223 287 351 410
#     4  11  24  45  70 104 136 175 227 293 349 404
#     4  10  21  41  66  97 135 183 231 278 343 411
#     4   9  20  38  65  94 133 170 229 280 330 407
#
# _framework density 22.120905
#
# number of rings (size 3 to 8) (size 9 to 14) (size 15 to 20)
#    0.000    1.000    3.750    3.375    5.250    0.000 
#    9.000    2.500    0.000    0.000    0.000    0.000 
#    0.000    0.000    0.000    0.000    0.000    0.000 
#
# Total GULP energy -198229.292063 kJ/mol
# GULP energy per Si atom -12389.330754 kJ/mol
# Density = 2.207056 g / cm^3
# Si number density = 22.120905 Si / 1000 Ang^3
#
#
#
# Elastic Constant Matrix: (Units=GPa)
#
#
# Indices 1 2 3 4 5 6 
#
# 1 129.1582 42.2232 9.0816 5.5262 19.6275 -1.0661
# 2 42.2232 85.1364 25.9944 -4.4599 10.3866 -19.7673
# 3 9.0816 25.9944 89.8428 -0.5141 10.6650 -14.0230
# 4 5.5262 -4.4599 -0.5141 34.3221 1.8359 4.0503
# 5 19.6275 10.3866 10.6650 1.8359 28.0439 4.4415
# 6 -1.0661 -19.7673 -14.0230 4.0503 4.4415 44.0444
#
#
#
# Elastic Compliance Matrix: (Units=1/GPa)
#
#
# Indices 1 2 3 4 5 6 
#
# 1 0.010201 -0.005011 0.000884 -0.001876 -0.005337 -0.001010
# 2 -0.005011 0.017202 -0.003065 0.002361 -0.002914 0.006700
# 3 0.000884 -0.003065 0.013032 -0.000475 -0.004937 0.003336
# 4 -0.001876 0.002361 -0.000475 0.030005 -0.001062 -0.001789
# 5 -0.005337 -0.002914 -0.004937 -0.001062 0.043577 -0.007305
# 6 -0.001010 0.006700 0.003336 -0.001789 -0.007305 0.027650
#
#
# Mechanical properties :
#
#
# Convention : Reuss Voigt Hill
#
# Bulk Modulus (GPa) = 38.38698 50.97067 44.67882
# Shear Modulus (GPa) = 30.35162 36.40463 33.37812
#
# Velocity S-wave (km/s) = 3.70818 4.06114 3.88866
# Velocity P-wave (km/s) = 5.97704 6.71434 6.35639
#
# Compressibility (1/GPa) = 0.02605050
#
# Stress axis : x y z
#
# Youngs Moduli (GPa) = 98.02591 58.13415 76.73321
#
# Poissons Ratio (x) = 0.29130 -0.06782
# Poissons Ratio (y) = 0.49119 0.23522
# Poissons Ratio (z) = -0.08664 0.17820
#
# Static dielectric constant tensor:
#      x y z
#    x 5.256290 0.624020 1.594140 
#    y 0.624020 4.568830 1.388220 
#    z 1.594140 1.388220 6.510740 
# 
# 
# High freq. dielectric constant tensor:
#      x y z
#    x 1.893630 0.006360 0.002690 
#    y 0.006360 1.869020 0.015290 
#    z 0.002690 0.015290 1.854930 
# 
# From -- ./inp_files/573573.got.cif
#   From: 2010.06.25/outbox.cif.g09.slc.cpg/sg2_287_cif.got.tgz:573573.got - 2010.06.27 13:26:56.
