data_PCOD8014491
_publ_section_title
;
Structure prediction by ZEFSAII (Michael W. Deem and Ramdas Pophale) SiO2 
 PCOD8014491
Probable space group: P -1
;
_chemical_formula_sum "Si O2"
_cell_formula_units_Z 16
_cell_length_a 8.968378
_cell_length_b 13.988443
_cell_length_c 11.058199
_cell_angle_alpha 129.053571
_cell_angle_beta 138.028090
_cell_angle_gamma 51.857461
_cell_volume 690.097918
_symmetry_space_group_name_H-M "P -1"
_symmetry_group_IT_number 2
_symmetry_cell_setting 'triclinic'
loop_
_space_group_symop_operation_xyz
x,y,z
-x,-y,-z
loop_
_atom_site_type_symbol
_atom_site_label
_atom_site_fract_x
_atom_site_fract_y
_atom_site_fract_z
Si Si1 0.399869 0.728821 0.663942
Si Si2 0.089732 0.095645 0.550330
Si Si3 0.247328 0.150587 0.926182
Si Si4 0.101132 0.790157 0.887075
Si Si5 0.034687 0.983712 0.202668
Si Si6 0.786391 0.624062 0.632215
Si Si7 0.415637 0.555781 0.760723
Si Si8 0.069909 0.575247 0.993177
O O1 0.526397 0.677831 0.573497
O O2 0.458272 0.613152 0.702927
O O3 0.124770 0.781916 0.519179
O O4 0.508979 0.838835 0.868166
O O5 0.270443 0.136185 0.781031
O O6 0.204258 0.020762 0.436288
O O7 0.000000 0.000000 0.500000
O O8 0.184877 0.035282 0.868568
O O9 0.030117 0.273956 0.922134
O O10 0.314653 0.666862 0.886755
O O11 0.870196 0.743971 0.729896
O O12 0.160564 0.858874 0.099237
O O13 0.064498 0.890748 0.837497
O O14 0.765925 0.528102 0.435004
O O15 0.963096 0.544485 0.777491
O O16 0.653089 0.464792 0.885962
O O17 0.000000 0.500000 0.000000
#
# Coordination Sequence:
#
# PCOD8014491 Si02
#       8
#     2   2   2   2   2   2   2   2
#     4  11  21  40  66 102 128 172 218 273 337 386
#     4  10  22  38  67  97 126 168 223 277 320 385
#     4  10  21  41  67  99 135 164 218 277 335 382
#     4  11  23  44  66  95 134 185 219 268 329 400
#     4  10  21  43  65  89 136 177 217 272 325 388
#     4  11  24  43  68  96 135 173 224 272 330 393
#     4  12  24  40  70  97 132 179 218 267 338 394
#     4  11  22  39  66 103 133 164 215 283 327 384
#
# _framework density 23.185116000000001
#
# number of rings (size 3 to 8) (size 9 to 14) (size 15 to 20)
#    0.000    1.250    6.250    1.500    1.750    2.500 
#    0.000    0.000    0.000    7.500    0.000    0.000 
#    0.000    0.000    0.000    0.000    0.000    0.000 
#
# Total GULP energy -198303.623175 kJ/mol
# GULP energy per Si atom -12393.976448 kJ/mol
# Density = 2.313235 g / cm^3
# Si number density = 23.185116 Si / 1000 Ang^3
#
#
#
# Elastic Constant Matrix: (Units=GPa)
#
#
# Indices 1 2 3 4 5 6 
#
# 1 83.7012 40.2770 36.9087 9.8917 -12.9301 1.9412
# 2 40.2770 98.9111 38.9677 6.2342 -11.1846 -8.4077
# 3 36.9087 38.9677 122.8247 4.8716 -31.6983 -11.7676
# 4 9.8917 6.2342 4.8716 24.3451 -1.8277 -8.5289
# 5 -12.9301 -11.1846 -31.6983 -1.8277 37.4186 9.5209
# 6 1.9412 -8.4077 -11.7676 -8.5289 9.5209 40.2806
#
#
#
# Elastic Compliance Matrix: (Units=1/GPa)
#
#
# Indices 1 2 3 4 5 6 
#
# 1 0.017205 -0.005554 -0.002909 -0.006482 0.002740 -0.004859
# 2 -0.005554 0.013508 -0.002556 0.000145 -0.000685 0.002533
# 3 -0.002909 -0.002556 0.012025 0.000497 0.008109 0.001308
# 4 -0.006482 0.000145 0.000497 0.047268 -0.002274 0.011034
# 5 0.002740 -0.000685 0.008109 -0.002274 0.035979 -0.006892
# 6 -0.004859 0.002533 0.001308 0.011034 -0.006892 0.029936
#
#
# Mechanical properties :
#
#
# Convention : Reuss Voigt Hill
#
# Bulk Modulus (GPa) = 48.31259 59.74930 54.03095
# Shear Modulus (GPa) = 27.04764 33.02779 30.03771
#
# Velocity S-wave (km/s) = 3.41925 3.77838 3.60329
# Velocity P-wave (km/s) = 6.03915 6.69786 6.37702
#
# Compressibility (1/GPa) = 0.02069854
#
# Stress axis : x y z
#
# Youngs Moduli (GPa) = 58.12308 74.03223 83.15881
#
# Poissons Ratio (x) = 0.41120 0.24191
# Poissons Ratio (y) = 0.32284 0.21257
# Poissons Ratio (z) = 0.16908 0.18924
#
# Static dielectric constant tensor:
#      x y z
#    x 4.221730 0.102830 -0.477610 
#    y 0.102830 4.302420 0.145020 
#    z -0.477610 0.145020 4.769520 
# 
# 
# High freq. dielectric constant tensor:
#      x y z
#    x 1.903460 0.009440 -0.023350 
#    y 0.009440 1.918380 0.018520 
#    z -0.023350 0.018520 1.912950 
# 
# From -- ./inp_files/399691.got.cif
#   From: 2010.06.25/outbox.cif.g09.slc.cpg/sg2_200_cif.got.tgz:399691.got - 2010.06.27 13:26:56.
