data_PCOD8014046
_publ_section_title
;
Structure prediction by ZEFSAII (Michael W. Deem and Ramdas Pophale) SiO2 
 PCOD8014046
Probable space group: P -1
;
_chemical_formula_sum "Si O2"
_cell_formula_units_Z 14
_cell_length_a 17.533395
_cell_length_b 14.022768
_cell_length_c 14.709145
_cell_angle_alpha 36.938438
_cell_angle_beta 23.738761
_cell_angle_gamma 24.480591
_cell_volume 590.768753
_symmetry_space_group_name_H-M "P -1"
_symmetry_group_IT_number 2
_symmetry_cell_setting 'triclinic'
loop_
_space_group_symop_operation_xyz
x,y,z
-x,-y,-z
loop_
_atom_site_type_symbol
_atom_site_label
_atom_site_fract_x
_atom_site_fract_y
_atom_site_fract_z
Si Si1 0.187501 0.025332 0.976955
Si Si2 0.802699 0.763631 0.701988
Si Si3 0.058688 0.712034 0.645716
Si Si4 0.757661 0.188276 0.188813
Si Si5 0.683880 0.158914 0.833845
Si Si6 0.406959 0.426136 0.228232
Si Si7 0.418925 0.194889 0.672567
O O1 0.202010 0.890496 0.149007
O O2 0.882132 0.212036 0.119423
O O3 0.220878 0.179579 0.862318
O O4 0.431323 0.832919 0.784057
O O5 0.874181 0.749179 0.739215
O O6 0.076633 0.593027 0.467703
O O7 0.591322 0.033428 0.695640
O O8 0.644291 0.691332 0.919775
O O9 0.856192 0.906826 0.793993
O O10 0.240804 0.462592 0.685949
O O11 0.271687 0.712713 0.373239
O O12 0.510420 0.422425 0.219248
O O13 0.636550 0.099329 0.427496
O O14 0.000000 0.000000 0.000000
O O15 0.500000 0.500000 0.000000
#
# Coordination Sequence:
#
# PCOD8014046 Si02
#       7
#     2   2   2   2   2   2   2
#     4  10  24  43  67 101 134 174 232 268 341 398
#     4  11  23  44  67 101 139 175 225 277 341 398
#     4  11  23  47  68 100 137 177 231 276 342 389
#     4  10  21  41  64  94 134 174 218 271 329 399
#     4  10  24  44  73  98 134 181 224 284 334 405
#     4  11  22  42  71  97 142 180 215 285 335 401
#     4  11  24  42  67 102 132 177 222 283 329 405
#
# _framework density 23.697935000000001
#
# number of rings (size 3 to 8) (size 9 to 14) (size 15 to 20)
#    0.000    1.429    1.429    3.857    0.000    8.000 
#    5.143    6.429    0.000    0.000    0.000    0.000 
#    0.000    0.000    0.000    0.000    0.000    0.000 
#
# Total GULP energy -173554.740045 kJ/mol
# GULP energy per Si atom -12396.767146 kJ/mol
# Density = 2.364400 g / cm^3
# Si number density = 23.697935 Si / 1000 Ang^3
#
#
#
# Elastic Constant Matrix: (Units=GPa)
#
#
# Indices 1 2 3 4 5 6 
#
# 1 99.7079 24.4595 26.6152 16.1704 -5.0288 -19.8906
# 2 24.4595 106.3496 22.6961 5.7923 -14.9553 -15.0528
# 3 26.6152 22.6961 129.2950 10.7869 -10.9424 -16.3674
# 4 16.1704 5.7923 10.7869 27.6858 0.0052 3.4122
# 5 -5.0288 -14.9553 -10.9424 0.0052 32.9381 7.4382
# 6 -19.8906 -15.0528 -16.3674 3.4122 7.4382 41.6314
#
#
#
# Elastic Compliance Matrix: (Units=1/GPa)
#
#
# Indices 1 2 3 4 5 6 
#
# 1 0.013114 -0.001586 -0.001062 -0.007650 -0.000419 0.005976
# 2 -0.001586 0.010890 -0.000862 -0.001294 0.003908 0.002249
# 3 -0.001062 -0.000862 0.008829 -0.002957 0.001799 0.002573
# 4 -0.007650 -0.001294 -0.002957 0.043080 -0.000785 -0.008676
# 5 -0.000419 0.003908 0.001799 -0.000785 0.033575 -0.004014
# 6 0.005976 0.002249 0.002573 -0.008676 -0.004014 0.030129
#
#
# Mechanical properties :
#
#
# Convention : Reuss Voigt Hill
#
# Bulk Modulus (GPa) = 38.73884 53.65490 46.19687
# Shear Modulus (GPa) = 32.20837 37.88984 35.04910
#
# Velocity S-wave (km/s) = 3.69063 4.00292 3.84994
# Velocity P-wave (km/s) = 5.87736 6.63738 6.26890
#
# Compressibility (1/GPa) = 0.02581388
#
# Stress axis : x y z
#
# Youngs Moduli (GPa) = 76.25729 91.82742 113.26643
#
# Poissons Ratio (x) = 0.14562 0.12025
# Poissons Ratio (y) = 0.12093 0.09760
# Poissons Ratio (z) = 0.08096 0.07913
#
# Static dielectric constant tensor:
#      x y z
#    x 5.054750 -1.005990 -0.197600 
#    y -1.005990 5.812020 0.586080 
#    z -0.197600 0.586080 4.625880 
# 
# 
# High freq. dielectric constant tensor:
#      x y z
#    x 1.940790 -0.007880 0.006450 
#    y -0.007880 1.936300 0.004400 
#    z 0.006450 0.004400 1.950230 
# 
# From -- ./inp_files/578317.got.cif
#   From: 2010.06.25/outbox.cif.g09.slc.cpg/sg2_290_cif.got.tgz:578317.got - 2010.06.27 13:26:56.
