data_PCOD8014875
_publ_section_title
;
Structure prediction by ZEFSAII (Michael W. Deem and Ramdas Pophale) SiO2 
 PCOD8014875
Probable space group: P -1
;
_chemical_formula_sum "Si O2"
_cell_formula_units_Z 14
_cell_length_a 19.002709
_cell_length_b 8.994856
_cell_length_c 11.009045
_cell_angle_alpha 33.034584
_cell_angle_beta 33.100771
_cell_angle_gamma 45.444421
_cell_volume 560.212873
_symmetry_space_group_name_H-M "P -1"
_symmetry_group_IT_number 2
_symmetry_cell_setting 'triclinic'
loop_
_space_group_symop_operation_xyz
x,y,z
-x,-y,-z
loop_
_atom_site_type_symbol
_atom_site_label
_atom_site_fract_x
_atom_site_fract_y
_atom_site_fract_z
Si Si1 0.998447 0.765237 0.484175
Si Si2 0.901837 0.703757 0.937771
Si Si3 0.594035 0.328574 0.840775
Si Si4 0.664884 0.749251 0.124545
Si Si5 0.577522 0.412849 0.280714
Si Si6 0.895623 0.803697 0.348892
Si Si7 0.358919 0.156431 0.450235
O O1 0.925291 0.747840 0.729447
O O2 0.902396 0.825414 0.469831
O O3 0.081422 0.501431 0.519711
O O4 0.095820 0.019864 0.177958
O O5 0.751253 0.618204 0.200859
O O6 0.000000 0.500000 0.000000
O O7 0.499808 0.374114 0.833168
O O8 0.676116 0.607682 0.561638
O O9 0.501806 0.241162 0.144713
O O10 0.692459 0.076973 0.843368
O O11 0.687308 0.581278 0.081100
O O12 0.514947 0.726640 0.390001
O O13 0.635894 0.158541 0.291278
O O14 0.748917 0.865494 0.483708
O O15 0.000000 0.000000 0.000000
#
# Coordination Sequence:
#
# PCOD8014875 Si02
#       7
#     2   2   2   2   2   2   2
#     4  10  25  42  61  98 124 177 227 256 334 386
#     4  11  24  43  67  94 133 173 220 275 323 390
#     4  10  21  42  62  93 126 166 208 267 319 388
#     4  10  23  39  62  93 127 162 214 255 330 380
#     4  10  22  38  63  97 122 165 207 264 321 382
#     4  11  24  42  65  93 135 175 219 272 323 390
#     4  10  23  38  64  92 125 163 218 257 323 382
#
# _framework density 24.990497999999999
#
# number of rings (size 3 to 8) (size 9 to 14) (size 15 to 20)
#    0.000    1.714    0.000    2.571    6.000    5.714 
#    0.000    0.000    0.000    0.000    0.000    0.000 
#    0.000    0.000    0.000    0.000    0.000    0.000 
#
# Total GULP energy -173450.146752 kJ/mol
# GULP energy per Si atom -12389.296197 kJ/mol
# Density = 2.493362 g / cm^3
# Si number density = 24.990498 Si / 1000 Ang^3
#
#
#
# Elastic Constant Matrix: (Units=GPa)
#
#
# Indices 1 2 3 4 5 6 
#
# 1 166.3448 65.7648 36.8280 -38.9652 -19.1463 -15.4826
# 2 65.7648 94.9876 48.8606 -47.6270 -15.0740 2.9324
# 3 36.8280 48.8606 69.2992 -37.8967 -16.4026 1.8003
# 4 -38.9652 -47.6270 -37.8967 46.2343 3.5418 -4.8045
# 5 -19.1463 -15.0740 -16.4026 3.5418 42.8269 -4.3612
# 6 -15.4826 2.9324 1.8003 -4.8045 -4.3612 47.8101
#
#
#
# Elastic Compliance Matrix: (Units=1/GPa)
#
#
# Indices 1 2 3 4 5 6 
#
# 1 0.009258 -0.004499 0.001282 0.004393 0.003085 0.003949
# 2 -0.004499 0.026227 -0.004884 0.018870 0.003723 -0.000646
# 3 0.001282 -0.004884 0.030600 0.020690 0.009115 0.002473
# 4 0.004393 0.018870 0.020690 0.061503 0.012133 0.006773
# 5 0.003085 0.003723 0.009115 0.012133 0.028964 0.004289
# 6 0.003949 -0.000646 0.002473 0.006773 0.004289 0.023213
#
#
# Mechanical properties :
#
#
# Convention : Reuss Voigt Hill
#
# Bulk Modulus (GPa) = 20.04681 70.39316 45.21998
# Shear Modulus (GPa) = 23.51905 39.31949 31.41927
#
# Velocity S-wave (km/s) = 3.07110 3.97089 3.54962
# Velocity P-wave (km/s) = 4.54034 7.01805 5.91049
#
# Compressibility (1/GPa) = 0.04988325
#
# Stress axis : x y z
#
# Youngs Moduli (GPa) = 108.01383 38.12870 32.68000
#
# Poissons Ratio (x) = 0.17154 -0.04189
# Poissons Ratio (y) = 0.48596 0.15959
# Poissons Ratio (z) = -0.13845 0.18620
#
# Static dielectric constant tensor:
#      x y z
#    x 4.560470 0.175980 -0.270950 
#    y 0.175980 4.746700 -0.422060 
#    z -0.270950 -0.422060 4.745620 
# 
# 
# High freq. dielectric constant tensor:
#      x y z
#    x 2.006610 0.002020 -0.016360 
#    y 0.002020 1.992960 -0.028430 
#    z -0.016360 -0.028430 1.984350 
# 
# From -- ./inp_files/27295.got.cif
#   From: 2010.06.25/outbox.cif.g09.slc.cpg/sg2_14_cif.got.tgz:27295.got - 2010.06.27 13:26:56.
