data_PCOD8014968
_publ_section_title
;
Structure prediction by ZEFSAII (Michael W. Deem and Ramdas Pophale) SiO2 
 PCOD8014968
Probable space group: P -1
;
_chemical_formula_sum "Si O2"
_cell_formula_units_Z 16
_cell_length_a 9.984308
_cell_length_b 14.357356
_cell_length_c 13.302953
_cell_angle_alpha 31.790264
_cell_angle_beta 58.650759
_cell_angle_gamma 79.045288
_cell_volume 710.508375
_symmetry_space_group_name_H-M "P -1"
_symmetry_group_IT_number 2
_symmetry_cell_setting 'triclinic'
loop_
_space_group_symop_operation_xyz
x,y,z
-x,-y,-z
loop_
_atom_site_type_symbol
_atom_site_label
_atom_site_fract_x
_atom_site_fract_y
_atom_site_fract_z
Si Si1 0.569929 0.086732 0.083772
Si Si2 0.856204 0.808000 0.613903
Si Si3 0.160404 0.582787 0.946280
Si Si4 0.125875 0.730905 0.027483
Si Si5 0.730806 0.805458 0.878155
Si Si6 0.550363 0.332961 0.398576
Si Si7 0.840841 0.853571 0.361426
Si Si8 0.084236 0.663651 0.407190
O O1 0.417781 0.143934 0.074828
O O2 0.458666 0.828831 0.366987
O O3 0.691922 0.194012 0.040518
O O4 0.695453 0.167085 0.859328
O O5 0.733045 0.809343 0.751773
O O6 0.751974 0.775353 0.579488
O O7 0.890737 0.624099 0.783151
O O8 0.060139 0.026915 0.318416
O O9 0.365305 0.701798 0.704169
O O10 0.171128 0.743847 0.878408
O O11 0.000000 0.500000 0.000000
O O12 0.956044 0.484494 0.343796
O O13 0.062155 0.892732 0.924502
O O14 0.680730 0.581704 0.150061
O O15 0.340478 0.278589 0.517474
O O16 0.991306 0.798025 0.328221
O O17 0.000000 0.500000 0.500000
#
# Coordination Sequence:
#
# PCOD8014968 Si02
#       8
#     2   2   2   2   2   2   2   2
#     4  10  22  39  65  91 123 164 210 258 306 370
#     4  10  23  39  62  91 132 167 201 249 320 378
#     4  11  23  39  63  93 133 166 204 254 318 378
#     4  10  23  37  64  96 123 165 207 258 311 366
#     4  10  22  39  60  91 128 166 201 255 315 371
#     4  10  23  36  61  96 121 163 202 258 313 364
#     4  11  23  39  63  97 124 161 213 255 308 376
#     4  10  21  42  64  91 125 165 210 259 308 360
#
# _framework density 22.519088
#
# number of rings (size 3 to 8) (size 9 to 14) (size 15 to 20)
#    0.000    1.750    1.250    2.250    8.750    7.500 
#    0.000    0.625    0.000    1.500    0.000    0.000 
#    0.000    0.000    0.000    0.000    0.000    0.000 
#
# Total GULP energy -198319.741351 kJ/mol
# GULP energy per Si atom -12394.983834 kJ/mol
# Density = 2.246783 g / cm^3
# Si number density = 22.519088 Si / 1000 Ang^3
#
#
#
# Elastic Constant Matrix: (Units=GPa)
#
#
# Indices 1 2 3 4 5 6 
#
# 1 39.1180 10.8705 17.2326 -2.9691 7.9781 -20.5223
# 2 10.8705 63.1686 27.7843 -2.5785 0.1192 -37.0452
# 3 17.2326 27.7843 159.5469 -10.2596 11.1793 -33.0370
# 4 -2.9691 -2.5785 -10.2596 34.1099 -6.6934 1.5191
# 5 7.9781 0.1192 11.1793 -6.6934 27.2129 0.1886
# 6 -20.5223 -37.0452 -33.0370 1.5191 0.1886 37.8861
#
#
#
# Elastic Compliance Matrix: (Units=1/GPa)
#
#
# Indices 1 2 3 4 5 6 
#
# 1 0.045191 0.015979 0.002089 0.001117 -0.014193 0.041951
# 2 0.015979 0.043071 0.002189 0.001846 -0.005683 0.052634
# 3 0.002089 0.002189 0.008163 0.001626 -0.003647 0.010343
# 4 0.001117 0.001846 0.001626 0.031237 0.006662 0.002542
# 5 -0.014193 -0.005683 -0.003647 0.006662 0.044187 -0.016913
# 6 0.041951 0.052634 0.010343 0.002542 -0.016913 0.109587
#
#
# Mechanical properties :
#
#
# Convention : Reuss Voigt Hill
#
# Bulk Modulus (GPa) = 7.30244 41.51202 24.40723
# Shear Modulus (GPa) = 17.44785 33.57152 25.50969
#
# Velocity S-wave (km/s) = 2.78655 3.86528 3.36937
# Velocity P-wave (km/s) = 3.68822 6.19634 5.09890
#
# Compressibility (1/GPa) = 0.13694046
#
# Stress axis : x y z
#
# Youngs Moduli (GPa) = 22.12822 23.21726 122.50803
#
# Poissons Ratio (x) = -0.37099 -0.25596
# Poissons Ratio (y) = -0.35359 -0.26820
# Poissons Ratio (z) = -0.04623 -0.05083
#
# Static dielectric constant tensor:
#      x y z
#    x 3.794580 -0.035220 0.244610 
#    y -0.035220 4.128420 0.125290 
#    z 0.244610 0.125290 4.706530 
# 
# 
# High freq. dielectric constant tensor:
#      x y z
#    x 1.864940 -0.016260 0.012790 
#    y -0.016260 1.880550 -0.006340 
#    z 0.012790 -0.006340 1.902130 
# 
# From -- ./inp_files/455556.got.cif
#   From: 2010.06.25/outbox.cif.g09.slc.cpg/sg2_228_cif.got.tgz:455556.got - 2010.06.27 13:26:56.
