data_PCOD8014558
_publ_section_title
;
Structure prediction by ZEFSAII (Michael W. Deem and Ramdas Pophale) SiO2 
 PCOD8014558
Probable space group: P -1
;
_chemical_formula_sum "Si O2"
_cell_formula_units_Z 16
_cell_length_a 14.819228
_cell_length_b 8.255164
_cell_length_c 14.148179
_cell_angle_alpha 42.970649
_cell_angle_beta 42.090885
_cell_angle_gamma 45.971566
_cell_volume 745.745128
_symmetry_space_group_name_H-M "P -1"
_symmetry_group_IT_number 2
_symmetry_cell_setting 'triclinic'
loop_
_space_group_symop_operation_xyz
x,y,z
-x,-y,-z
loop_
_atom_site_type_symbol
_atom_site_label
_atom_site_fract_x
_atom_site_fract_y
_atom_site_fract_z
Si Si1 0.456140 0.095745 0.648606
Si Si2 0.362729 0.250706 0.002858
Si Si3 0.156642 0.373142 0.812823
Si Si4 0.605593 0.661275 0.847681
Si Si5 0.931080 0.869193 0.182486
Si Si6 0.363310 0.770646 0.705105
Si Si7 0.899717 0.837843 0.862179
Si Si8 0.102172 0.640272 0.321482
O O1 0.325775 0.327215 0.694846
O O2 0.554371 0.213147 0.461645
O O3 0.531771 0.943629 0.747031
O O4 0.410467 0.898017 0.704229
O O5 0.392820 0.476644 0.826884
O O6 0.330418 0.329501 0.102759
O O7 0.222135 0.212658 0.084510
O O8 0.500000 0.000000 0.000000
O O9 0.122609 0.322638 0.753402
O O10 0.059297 0.654445 0.793687
O O11 0.130756 0.184054 0.992965
O O12 0.734223 0.536503 0.728535
O O13 0.500000 0.500000 0.000000
O O14 0.054781 0.714043 0.220755
O O15 0.803937 0.078232 0.248054
O O16 0.000000 0.000000 0.000000
O O17 0.904246 0.114401 0.717259
O O18 0.000000 0.500000 0.500000
#
# Coordination Sequence:
#
# PCOD8014558 Si02
#       8
#     2   2   2   2   2   2   2   2
#     4  10  21  41  68  99 130 175 218 280 322 392
#     4  12  25  43  66  98 136 178 219 276 336 400
#     4  10  21  41  68  96 128 166 226 271 327 386
#     4  12  23  44  70  98 134 180 229 262 327 411
#     4  11  20  40  70  96 121 173 228 268 312 400
#     4  10  22  39  67  99 132 167 227 274 329 388
#     4  11  24  42  66  99 131 173 220 280 329 396
#     4  12  26  44  69  99 134 174 221 280 337 394
#
# _framework density 21.455051999999998
#
# number of rings (size 3 to 8) (size 9 to 14) (size 15 to 20)
#    0.000    1.000    2.500    5.250    1.750    0.000 
#    2.250    2.500    0.000    0.000    0.000    0.000 
#    0.000    0.000    0.000    0.000    0.000    0.000 
#
# Total GULP energy -198390.013687 kJ/mol
# GULP energy per Si atom -12399.375855 kJ/mol
# Density = 2.140622 g / cm^3
# Si number density = 21.455052 Si / 1000 Ang^3
#
#
#
# Elastic Constant Matrix: (Units=GPa)
#
#
# Indices 1 2 3 4 5 6 
#
# 1 100.7978 31.2845 38.6784 -8.2068 -1.4355 -4.9547
# 2 31.2845 143.3536 67.7437 23.2001 -16.0595 -10.2414
# 3 38.6784 67.7437 148.9559 8.5968 -13.9624 -1.8199
# 4 -8.2068 23.2001 8.5968 41.6707 -2.7894 -8.2431
# 5 -1.4355 -16.0595 -13.9624 -2.7894 30.7463 -0.2738
# 6 -4.9547 -10.2414 -1.8199 -8.2431 -0.2738 32.5694
#
#
#
# Elastic Compliance Matrix: (Units=1/GPa)
#
#
# Indices 1 2 3 4 5 6 
#
# 1 0.011983 -0.002145 -0.002483 0.004399 -0.001271 0.002113
# 2 -0.002145 0.010407 -0.003564 -0.004961 0.003281 0.001519
# 3 -0.002483 -0.003564 0.009194 -0.000473 0.002145 -0.001086
# 4 0.004399 -0.004961 -0.000473 0.029000 0.000087 0.006423
# 5 -0.001271 0.003281 0.002145 0.000087 0.035172 0.001276
# 6 0.002113 0.001519 -0.001086 0.006423 0.001276 0.033078
#
#
# Mechanical properties :
#
#
# Convention : Reuss Voigt Hill
#
# Bulk Modulus (GPa) = 65.78753 74.28006 70.03379
# Shear Modulus (GPa) = 33.26996 38.02399 35.64697
#
# Velocity S-wave (km/s) = 3.94214 4.21439 4.08054
# Velocity P-wave (km/s) = 7.17288 7.64054 7.41040
#
# Compressibility (1/GPa) = 0.01520045
#
# Stress axis : x y z
#
# Youngs Moduli (GPa) = 83.44834 96.09068 108.76667
#
# Poissons Ratio (x) = 0.20612 0.27010
# Poissons Ratio (y) = 0.17901 0.38759
# Poissons Ratio (z) = 0.20723 0.34242
#
# Static dielectric constant tensor:
#      x y z
#    x 3.649040 -0.170320 -0.073230 
#    y -0.170320 3.947060 0.111760 
#    z -0.073230 0.111760 3.732940 
# 
# 
# High freq. dielectric constant tensor:
#      x y z
#    x 1.847980 -0.010810 0.000680 
#    y -0.010810 1.853780 0.009010 
#    z 0.000680 0.009010 1.831820 
# 
# From -- ./inp_files/356597.got.cif
#   From: 2010.06.25/outbox.cif.g09.slc.cpg/sg2_179_cif.got.tgz:356597.got - 2010.06.27 13:26:56.
