data_PCOD8014392
_publ_section_title
;
Structure prediction by ZEFSAII (Michael W. Deem and Ramdas Pophale) SiO2 
 PCOD8014392
Probable space group: P -1
;
_chemical_formula_sum "Si O2"
_cell_formula_units_Z 16
_cell_length_a 14.920396
_cell_length_b 10.376632
_cell_length_c 12.225670
_cell_angle_alpha 105.094895
_cell_angle_beta 29.094266
_cell_angle_gamma 117.180586
_cell_volume 775.485168
_symmetry_space_group_name_H-M "P -1"
_symmetry_group_IT_number 2
_symmetry_cell_setting 'triclinic'
loop_
_space_group_symop_operation_xyz
x,y,z
-x,-y,-z
loop_
_atom_site_type_symbol
_atom_site_label
_atom_site_fract_x
_atom_site_fract_y
_atom_site_fract_z
Si Si1 0.560500 0.785856 0.058327
Si Si2 0.486906 0.862979 0.659050
Si Si3 0.246895 0.800270 0.557847
Si Si4 0.335538 0.335609 0.681272
Si Si5 0.792586 0.397489 0.771824
Si Si6 0.638904 0.093716 0.973114
Si Si7 0.207141 0.327097 0.057952
Si Si8 0.918914 0.326893 0.072193
O O1 0.364997 0.746653 0.336943
O O2 0.436012 0.685312 0.063194
O O3 0.710728 0.726720 0.937067
O O4 0.705850 0.971320 0.924262
O O5 0.602946 0.780324 0.464053
O O6 0.239642 0.779204 0.875114
O O7 0.602614 0.030270 0.520919
O O8 0.498981 0.875882 0.781456
O O9 0.192342 0.693163 0.697133
O O10 0.040508 0.791854 0.719022
O O11 0.500000 0.500000 0.500000
O O12 0.335803 0.331880 0.812459
O O13 0.104054 0.285012 0.871759
O O14 0.819443 0.261334 0.774207
O O15 0.769456 0.506009 0.910048
O O16 0.000000 0.500000 0.500000
O O17 0.500000 0.000000 0.000000
O O18 0.000000 0.500000 0.000000
#
# Coordination Sequence:
#
# PCOD8014392 Si02
#       8
#     2   2   2   2   2   2   2   2
#     4  10  21  41  67  90 127 168 214 263 318 379
#     4  11  22  41  67  89 126 167 210 250 324 373
#     4  10  23  40  62  90 130 167 205 263 317 373
#     4  11  23  40  62  93 132 163 203 266 314 373
#     4  11  21  40  68  91 126 169 212 266 325 362
#     4   9  22  42  67  91 128 167 206 264 318 373
#     4  11  23  39  67  94 128 166 221 259 313 383
#     4  11  23  37  62  92 128 163 211 254 312 380
#
# _framework density 20.632244
#
# number of rings (size 3 to 8) (size 9 to 14) (size 15 to 20)
#    0.000    1.500    2.500    2.250    1.750    5.000 
#    0.000    0.625    5.500    0.000    0.000    0.000 
#    0.000    0.000    0.000    0.000    0.000    0.000 
#
# Total GULP energy -198291.758159 kJ/mol
# GULP energy per Si atom -12393.234885 kJ/mol
# Density = 2.058528 g / cm^3
# Si number density = 20.632244 Si / 1000 Ang^3
#
#
#
# Elastic Constant Matrix: (Units=GPa)
#
#
# Indices 1 2 3 4 5 6 
#
# 1 103.5944 46.0168 36.2523 -2.9012 1.4875 6.5091
# 2 46.0168 131.5600 43.5422 -18.2082 6.1491 6.8968
# 3 36.2523 43.5422 82.7584 -9.7666 10.1025 4.8556
# 4 -2.9012 -18.2082 -9.7666 42.5589 3.8579 10.4988
# 5 1.4875 6.1491 10.1025 3.8579 30.9392 -0.9836
# 6 6.5091 6.8968 4.8556 10.4988 -0.9836 37.4594
#
#
#
# Elastic Compliance Matrix: (Units=1/GPa)
#
#
# Indices 1 2 3 4 5 6 
#
# 1 0.012509 -0.003268 -0.004089 -0.001480 0.001549 -0.000586
# 2 -0.003268 0.010620 -0.003353 0.004219 -0.001454 -0.002173
# 3 -0.004089 -0.003353 0.016717 0.003028 -0.005031 -0.001820
# 4 -0.001480 0.004219 0.003028 0.028647 -0.005617 -0.009089
# 5 0.001549 -0.001454 -0.005031 -0.005617 0.034979 0.003143
# 6 -0.000586 -0.002173 -0.001820 -0.009089 0.003143 0.030063
#
#
# Mechanical properties :
#
#
# Convention : Reuss Voigt Hill
#
# Bulk Modulus (GPa) = 54.27476 63.28170 58.77823
# Shear Modulus (GPa) = 31.03695 34.99829 33.01762
#
# Velocity S-wave (km/s) = 3.88273 4.12307 4.00471
# Velocity P-wave (km/s) = 6.81643 7.30781 7.06639
#
# Compressibility (1/GPa) = 0.01842477
#
# Stress axis : x y z
#
# Youngs Moduli (GPa) = 79.94202 94.16322 59.81934
#
# Poissons Ratio (x) = 0.30777 0.24462
# Poissons Ratio (y) = 0.26129 0.20056
# Poissons Ratio (z) = 0.32691 0.31571
#
# Static dielectric constant tensor:
#      x y z
#    x 3.908950 0.042600 0.123540 
#    y 0.042600 3.985180 -0.229380 
#    z 0.123540 -0.229380 3.768360 
# 
# 
# High freq. dielectric constant tensor:
#      x y z
#    x 1.809150 0.008640 0.016010 
#    y 0.008640 1.820600 -0.009900 
#    z 0.016010 -0.009900 1.798190 
# 
# From -- ./inp_files/447620.got.cif
#   From: 2010.06.25/outbox.cif.g09.slc.cpg/sg2_224_cif.got.tgz:447620.got - 2010.06.27 13:26:56.
