data_PCOD8014652
_publ_section_title
;
Structure prediction by ZEFSAII (Michael W. Deem and Ramdas Pophale) SiO2 
 PCOD8014652
Probable space group: P -1
;
_chemical_formula_sum "Si O2"
_cell_formula_units_Z 16
_cell_length_a 8.420865
_cell_length_b 13.295866
_cell_length_c 8.323358
_cell_angle_alpha 76.048335
_cell_angle_beta 51.651539
_cell_angle_gamma 85.602090
_cell_volume 706.026586
_symmetry_space_group_name_H-M "P -1"
_symmetry_group_IT_number 2
_symmetry_cell_setting 'triclinic'
loop_
_space_group_symop_operation_xyz
x,y,z
-x,-y,-z
loop_
_atom_site_type_symbol
_atom_site_label
_atom_site_fract_x
_atom_site_fract_y
_atom_site_fract_z
Si Si1 0.794086 0.668047 0.638783
Si Si2 0.447943 0.153178 0.354149
Si Si3 0.450535 0.521634 0.208507
Si Si4 0.070989 0.007770 0.769876
Si Si5 0.652374 0.079162 0.964591
Si Si6 0.174234 0.782577 0.708096
Si Si7 0.117725 0.407821 0.032972
Si Si8 0.226884 0.717799 0.337649
O O1 0.660350 0.764680 0.720192
O O2 0.670839 0.588364 0.621388
O O3 0.000520 0.714862 0.404751
O O4 0.864595 0.608856 0.778326
O O5 0.279251 0.082288 0.589094
O O6 0.610580 0.219417 0.337764
O O7 0.581971 0.077368 0.195875
O O8 0.648315 0.558648 0.178827
O O9 0.298462 0.607471 0.294722
O O10 0.500000 0.500000 0.000000
O O11 0.879965 0.053891 0.787105
O O12 0.094690 0.896159 0.718863
O O13 0.000000 0.000000 0.000000
O O14 0.625278 0.195164 0.877381
O O15 0.500000 0.000000 0.000000
O O16 0.222084 0.745404 0.516056
O O17 0.995726 0.699696 0.927016
O O18 0.000000 0.500000 0.000000
#
# Coordination Sequence:
#
# PCOD8014652 Si02
#       8
#     2   2   2   2   2   2   2   2
#     4  10  22  43  69 100 137 184 236 294 348 429
#     4  12  25  49  73 105 145 191 241 292 359 425
#     4  10  21  41  69  98 141 181 237 289 351 424
#     4  12  27  48  70 108 144 193 240 291 360 424
#     4  12  27  42  75 105 142 191 240 295 360 418
#     4  11  26  44  70 100 150 187 241 298 353 430
#     4  10  22  42  67 103 136 183 233 291 357 418
#     4  11  24  44  67 107 137 190 240 296 359 421
#
# _framework density 22.662033999999998
#
# number of rings (size 3 to 8) (size 9 to 14) (size 15 to 20)
#    0.000    1.000    2.500    3.750    7.000    2.000 
#    0.000    9.375    0.000    0.000    0.000    0.000 
#    0.000    0.000    0.000    0.000    0.000    0.000 
#
# Total GULP energy -198220.086536 kJ/mol
# GULP energy per Si atom -12388.755408 kJ/mol
# Density = 2.261045 g / cm^3
# Si number density = 22.662034 Si / 1000 Ang^3
#
#
#
# Elastic Constant Matrix: (Units=GPa)
#
#
# Indices 1 2 3 4 5 6 
#
# 1 132.4121 61.6204 54.4293 -11.4276 -42.2679 19.6989
# 2 61.6204 156.5078 51.7494 0.9448 -17.8530 11.7633
# 3 54.4293 51.7494 94.2364 4.5740 -19.1382 15.3517
# 4 -11.4276 0.9448 4.5740 49.5833 5.6541 -12.9559
# 5 -42.2679 -17.8530 -19.1382 5.6541 43.7103 -9.3404
# 6 19.6989 11.7633 15.3517 -12.9559 -9.3404 51.9325
#
#
#
# Elastic Compliance Matrix: (Units=1/GPa)
#
#
# Indices 1 2 3 4 5 6 
#
# 1 0.014421 -0.002932 -0.004595 0.002373 0.010211 -0.001019
# 2 -0.002932 0.008493 -0.003055 -0.000521 -0.000670 -0.000159
# 3 -0.004595 -0.003055 0.015783 -0.003326 0.001035 -0.002874
# 4 0.002373 -0.000521 -0.003326 0.022633 -0.001095 0.005651
# 5 0.010211 -0.000670 0.001035 -0.001095 0.033440 0.001714
# 6 -0.001019 -0.000159 -0.002874 0.005651 0.001714 0.022246
#
#
# Mechanical properties :
#
#
# Convention : Reuss Voigt Hill
#
# Bulk Modulus (GPa) = 57.03407 79.86162 68.44785
# Shear Modulus (GPa) = 34.71643 43.40236 39.05939
#
# Velocity S-wave (km/s) = 3.91822 4.38105 4.15608
# Velocity P-wave (km/s) = 6.75957 7.80437 7.30069
#
# Compressibility (1/GPa) = 0.01753338
#
# Stress axis : x y z
#
# Youngs Moduli (GPa) = 69.34205 117.75029 63.35778
#
# Poissons Ratio (x) = 0.34519 0.29113
# Poissons Ratio (y) = 0.20328 0.19359
# Poissons Ratio (z) = 0.31862 0.35978
#
# Static dielectric constant tensor:
#      x y z
#    x 4.335850 0.035190 -0.439050 
#    y 0.035190 4.484700 -0.034930 
#    z -0.439050 -0.034930 4.501220 
# 
# 
# High freq. dielectric constant tensor:
#      x y z
#    x 1.901550 0.006470 -0.033330 
#    y 0.006470 1.909460 -0.012530 
#    z -0.033330 -0.012530 1.883630 
# 
# From -- ./inp_files/186403.got.cif
#   From: 2010.06.25/outbox.cif.g09.slc.cpg/sg2_94_cif.got.tgz:186403.got - 2010.06.27 13:26:56.
