data_PCOD8014462
_publ_section_title
;
Structure prediction by ZEFSAII (Michael W. Deem and Ramdas Pophale) SiO2 
 PCOD8014462
Probable space group: P -1
;
_chemical_formula_sum "Si O2"
_cell_formula_units_Z 14
_cell_length_a 12.199532
_cell_length_b 11.852581
_cell_length_c 6.102841
_cell_angle_alpha 60.412686
_cell_angle_beta 64.383669
_cell_angle_gamma 50.285967
_cell_volume 581.223794
_symmetry_space_group_name_H-M "P -1"
_symmetry_group_IT_number 2
_symmetry_cell_setting 'triclinic'
loop_
_space_group_symop_operation_xyz
x,y,z
-x,-y,-z
loop_
_atom_site_type_symbol
_atom_site_label
_atom_site_fract_x
_atom_site_fract_y
_atom_site_fract_z
Si Si1 0.485844 0.634977 0.027103
Si Si2 0.240922 0.176675 0.416477
Si Si3 0.691733 0.642332 0.137722
Si Si4 0.772158 0.161957 0.629397
Si Si5 0.028443 0.187301 0.262874
Si Si6 0.094911 0.380982 0.719702
Si Si7 0.549998 0.161145 0.520040
O O1 0.613263 0.561557 0.175390
O O2 0.327587 0.738579 0.173894
O O3 0.500000 0.500000 0.000000
O O4 0.513540 0.740777 0.741907
O O5 0.106587 0.173075 0.438771
O O6 0.217405 0.222496 0.647856
O O7 0.390686 0.014325 0.421691
O O8 0.247019 0.306521 0.156854
O O9 0.829452 0.545235 0.276472
O O10 0.570869 0.789326 0.239055
O O11 0.675133 0.182641 0.483752
O O12 0.868097 0.229736 0.412362
O O13 0.875543 0.980236 0.781302
O O14 0.008896 0.328795 0.997303
O O15 0.000000 0.500000 0.500000
#
# Coordination Sequence:
#
# PCOD8014462 Si02
#       7
#     2   2   2   2   2   2   2
#     4  11  24  43  63  98 133 173 217 267 331 393
#     4  10  21  41  67  97 129 169 220 270 325 386
#     4  10  23  42  66  94 129 170 218 272 321 384
#     4   9  20  41  68  98 130 170 221 274 323 386
#     4   9  20  41  68  98 130 170 221 274 323 386
#     4  11  24  43  63  98 133 173 217 267 331 393
#     4  10  21  41  67  97 129 169 220 270 325 386
#
# _framework density 24.087109999999999
#
# number of rings (size 3 to 8) (size 9 to 14) (size 15 to 20)
#    0.000    2.000    0.000    2.143    0.000   10.286 
#   15.429    4.286    0.000    0.000    0.000    0.000 
#    0.000    0.000    0.000    0.000    0.000    0.000 
#
# Total GULP energy -173538.701953 kJ/mol
# GULP energy per Si atom -12395.621568 kJ/mol
# Density = 2.403229 g / cm^3
# Si number density = 24.087110 Si / 1000 Ang^3
#
#
#
# Elastic Constant Matrix: (Units=GPa)
#
#
# Indices 1 2 3 4 5 6 
#
# 1 147.7110 29.2855 36.5643 -0.4033 12.8590 4.0010
# 2 29.2855 64.9533 16.0093 8.9202 16.8211 13.4930
# 3 36.5643 16.0093 84.7008 4.3964 7.8274 3.5442
# 4 -0.4033 8.9202 4.3964 43.6530 -6.3350 6.7606
# 5 12.8590 16.8211 7.8274 -6.3350 38.6145 4.4587
# 6 4.0010 13.4930 3.5442 6.7606 4.4587 26.2666
#
#
#
# Elastic Compliance Matrix: (Units=1/GPa)
#
#
# Indices 1 2 3 4 5 6 
#
# 1 0.008142 -0.002983 -0.002947 0.000776 -0.000759 0.000619
# 2 -0.002983 0.021329 -0.001480 -0.004137 -0.007762 -0.007920
# 3 -0.002947 -0.001480 0.013549 -0.001271 -0.001321 -0.000068
# 4 0.000776 -0.004137 -0.001271 0.025718 0.006664 -0.005572
# 5 -0.000759 -0.007762 -0.001321 0.006664 0.031207 -0.002731
# 6 0.000619 -0.007920 -0.000068 -0.005572 -0.002731 0.043952
#
#
# Mechanical properties :
#
#
# Convention : Reuss Voigt Hill
#
# Bulk Modulus (GPa) = 35.46175 51.23148 43.34662
# Shear Modulus (GPa) = 29.74064 36.07387 32.90726
#
# Velocity S-wave (km/s) = 3.51766 3.87414 3.70019
# Velocity P-wave (km/s) = 5.59042 6.42863 6.02412
#
# Compressibility (1/GPa) = 0.02819940
#
# Stress axis : x y z
#
# Youngs Moduli (GPa) = 122.81371 46.88410 73.80557
#
# Poissons Ratio (x) = 0.13988 0.21752
# Poissons Ratio (y) = 0.36641 0.10924
# Poissons Ratio (z) = 0.36195 0.06939
#
# Static dielectric constant tensor:
#      x y z
#    x 4.588550 0.001610 0.151930 
#    y 0.001610 4.411120 0.234570 
#    z 0.151930 0.234570 4.314190 
# 
# 
# High freq. dielectric constant tensor:
#      x y z
#    x 1.970330 -0.002110 0.004410 
#    y -0.002110 1.955960 0.018390 
#    z 0.004410 0.018390 1.945880 
# 
# From -- ./inp_files/68938.got.cif
#   From: 2010.06.25/outbox.cif.g09.slc.cpg/sg2_35_cif.got.tgz:68938.got - 2010.06.27 13:26:56.
