data_PCOD8014782
_publ_section_title
;
Structure prediction by ZEFSAII (Michael W. Deem and Ramdas Pophale) SiO2 
 PCOD8014782
Probable space group: P -1
;
_chemical_formula_sum "Si O2"
_cell_formula_units_Z 16
_cell_length_a 14.524364
_cell_length_b 5.844165
_cell_length_c 8.956481
_cell_angle_alpha 107.989157
_cell_angle_beta 85.671017
_cell_angle_gamma 79.071276
_cell_volume 702.621317
_symmetry_space_group_name_H-M "P -1"
_symmetry_group_IT_number 2
_symmetry_cell_setting 'triclinic'
loop_
_space_group_symop_operation_xyz
x,y,z
-x,-y,-z
loop_
_atom_site_type_symbol
_atom_site_label
_atom_site_fract_x
_atom_site_fract_y
_atom_site_fract_z
Si Si1 0.716371 0.659483 0.714077
Si Si2 0.622954 0.431701 0.233467
Si Si3 0.874229 0.591660 0.909712
Si Si4 0.799303 0.048098 0.218309
Si Si5 0.940988 0.265072 0.101044
Si Si6 0.428662 0.689982 0.352870
Si Si7 0.425801 0.879823 0.073122
Si Si8 0.706174 0.841740 0.423263
O O1 0.813392 0.541058 0.765015
O O2 0.649851 0.467053 0.691206
O O3 0.738324 0.709943 0.549642
O O4 0.670247 0.913169 0.853173
O O5 0.689688 0.189259 0.246843
O O6 0.527991 0.517416 0.367087
O O7 0.677308 0.654032 0.269566
O O8 0.595801 0.357301 0.056806
O O9 0.982757 0.572070 0.834837
O O10 0.876741 0.379865 0.990354
O O11 0.829602 0.855978 0.041852
O O12 0.869554 0.239334 0.241365
O O13 0.798790 0.919051 0.354906
O O14 0.000000 0.000000 0.000000
O O15 0.464151 0.782549 0.210262
O O16 0.384737 0.929119 0.504243
O O17 0.500000 0.000000 0.000000
#
# Coordination Sequence:
#
# PCOD8014782 Si02
#       8
#     2   2   2   2   2   2   2   2
#     4  11  24  44  63  96 135 175 217 273 333 387
#     4  12  24  40  66  92 131 179 227 270 320 384
#     4  10  21  41  72  99 131 163 217 276 332 394
#     4  11  23  39  68  97 129 172 225 271 323 393
#     4   9  21  40  67 105 129 161 212 274 337 393
#     4  11  26  41  61  92 140 179 222 274 325 382
#     4  11  24  40  63  97 128 170 230 282 323 379
#     4  11  27  42  60  94 139 185 222 262 326 392
#
# _framework density 22.771867
#
# number of rings (size 3 to 8) (size 9 to 14) (size 15 to 20)
#    0.000    1.250    2.500    2.250    5.250    3.000 
#    0.000    0.625    0.000   12.750    0.000    0.000 
#    0.000    0.000    0.000    0.000    0.000    0.000 
#
# Total GULP energy -198327.979049 kJ/mol
# GULP energy per Si atom -12395.498691 kJ/mol
# Density = 2.272004 g / cm^3
# Si number density = 22.771867 Si / 1000 Ang^3
#
#
#
# Elastic Constant Matrix: (Units=GPa)
#
#
# Indices 1 2 3 4 5 6 
#
# 1 133.4714 59.9788 50.7360 -30.7814 -3.3098 12.0527
# 2 59.9788 106.8779 38.8768 -2.6234 -7.4156 13.8011
# 3 50.7360 38.8768 85.7739 0.6575 -17.4837 21.3129
# 4 -30.7814 -2.6234 0.6575 40.4725 15.5059 -14.6841
# 5 -3.3098 -7.4156 -17.4837 15.5059 21.0141 -10.6000
# 6 12.0527 13.8011 21.3129 -14.6841 -10.6000 44.7962
#
#
#
# Elastic Compliance Matrix: (Units=1/GPa)
#
#
# Indices 1 2 3 4 5 6 
#
# 1 0.031662 -0.011811 -0.026926 0.047347 -0.050748 0.011442
# 2 -0.011811 0.015703 0.004834 -0.016584 0.017261 -0.005312
# 3 -0.026926 0.004834 0.042429 -0.050441 0.061734 -0.016358
# 4 0.047347 -0.016584 -0.050441 0.112297 -0.109464 0.027277
# 5 -0.050748 0.017261 0.061734 -0.109464 0.169319 -0.016852
# 6 0.011442 -0.005312 -0.016358 0.027277 -0.016852 0.033618
#
#
# Mechanical properties :
#
#
# Convention : Reuss Voigt Hill
#
# Bulk Modulus (GPa) = 45.47576 69.47850 57.47713
# Shear Modulus (GPa) = 10.41316 33.02533 21.71924
#
# Velocity S-wave (km/s) = 2.14073 3.81237 3.09168
# Velocity P-wave (km/s) = 5.11115 7.06794 6.16764
#
# Compressibility (1/GPa) = 0.02198974
#
# Stress axis : x y z
#
# Youngs Moduli (GPa) = 31.58320 63.68373 23.56890
#
# Poissons Ratio (x) = 0.75216 0.63460
# Poissons Ratio (y) = 0.37303 -0.11394
# Poissons Ratio (z) = 0.85039 -0.30787
#
# Static dielectric constant tensor:
#      x y z
#    x 4.524560 0.014480 -0.253220 
#    y 0.014480 4.387990 0.016320 
#    z -0.253220 0.016320 3.974340 
# 
# 
# High freq. dielectric constant tensor:
#      x y z
#    x 1.892160 0.001180 -0.020100 
#    y 0.001180 1.919790 0.000930 
#    z -0.020100 0.000930 1.874740 
# 
# From -- ./inp_files/89801.got.cif
#   From: 2010.06.25/outbox.cif.g09.slc.cpg/sg2_45_cif.got.tgz:89801.got - 2010.06.27 13:26:56.
