data_PCOD8014482
_publ_section_title
;
Structure prediction by ZEFSAII (Michael W. Deem and Ramdas Pophale) SiO2 
 PCOD8014482
Probable space group: P -1
;
_chemical_formula_sum "Si O2"
_cell_formula_units_Z 16
_cell_length_a 11.331243
_cell_length_b 11.691230
_cell_length_c 14.295539
_cell_angle_alpha 130.158292
_cell_angle_beta 149.587735
_cell_angle_gamma 60.274886
_cell_volume 723.728285
_symmetry_space_group_name_H-M "P -1"
_symmetry_group_IT_number 2
_symmetry_cell_setting 'triclinic'
loop_
_space_group_symop_operation_xyz
x,y,z
-x,-y,-z
loop_
_atom_site_type_symbol
_atom_site_label
_atom_site_fract_x
_atom_site_fract_y
_atom_site_fract_z
Si Si1 0.751638 0.418190 0.242264
Si Si2 0.411568 0.819590 0.530539
Si Si3 0.309025 0.591689 0.021374
Si Si4 0.102335 0.511087 0.179020
Si Si5 0.653776 0.165222 0.192113
Si Si6 0.318591 0.221354 0.142161
Si Si7 0.559184 0.836089 0.441987
Si Si8 0.941652 0.973958 0.659075
O O1 0.548961 0.522675 0.165863
O O2 0.659054 0.259704 0.148680
O O3 0.000000 0.500000 0.500000
O O4 0.776347 0.389686 0.133327
O O5 0.253126 0.672748 0.387554
O O6 0.615899 0.873777 0.773895
O O7 0.524023 0.762762 0.482082
O O8 0.269739 0.961441 0.502924
O O9 0.367530 0.756007 0.195246
O O10 0.098079 0.494990 0.882795
O O11 0.255896 0.376846 0.222154
O O12 0.000000 0.500000 0.000000
O O13 0.549384 0.259482 0.252034
O O14 0.918779 0.124594 0.367292
O O15 0.500000 0.000000 0.000000
O O16 0.102233 0.120913 0.889574
O O17 0.500000 0.000000 0.500000
O O18 0.828487 0.853005 0.597270
#
# Coordination Sequence:
#
# PCOD8014482 Si02
#       8
#     2   2   2   2   2   2   2   2
#     4  11  26  47  71 104 142 188 237 289 351 423
#     4  11  24  39  66  98 131 178 224 285 344 414
#     4  11  25  44  72 102 141 186 231 289 354 416
#     4  12  21  42  69  96 136 174 223 287 347 408
#     4  10  24  43  67  97 137 180 231 289 343 416
#     4  11  24  41  64  98 130 176 227 280 347 406
#     4  10  21  41  67  98 135 176 228 281 349 417
#     4  10  22  43  63  93 133 179 227 280 347 408
#
# _framework density 22.107744
#
# number of rings (size 3 to 8) (size 9 to 14) (size 15 to 20)
#    0.000    1.250    2.500    2.625    3.500    7.000 
#    0.000    0.000    0.000    0.000    0.000    0.000 
#    0.000    0.000    0.000    0.000    0.000    0.000 
#
# Total GULP energy -198261.641345 kJ/mol
# GULP energy per Si atom -12391.352584 kJ/mol
# Density = 2.205743 g / cm^3
# Si number density = 22.107744 Si / 1000 Ang^3
#
#
#
# Elastic Constant Matrix: (Units=GPa)
#
#
# Indices 1 2 3 4 5 6 
#
# 1 158.3691 36.2395 41.8196 -11.7607 12.1631 16.4580
# 2 36.2395 89.6403 32.6018 -15.1673 0.9998 14.0478
# 3 41.8196 32.6018 50.4091 -8.9573 0.1973 14.0479
# 4 -11.7607 -15.1673 -8.9573 42.4268 6.8584 5.7854
# 5 12.1631 0.9998 0.1973 6.8584 42.5113 -4.7970
# 6 16.4580 14.0478 14.0479 5.7854 -4.7970 38.0207
#
#
#
# Elastic Compliance Matrix: (Units=1/GPa)
#
#
# Indices 1 2 3 4 5 6 
#
# 1 0.008550 -0.000754 -0.005782 0.001602 -0.002874 -0.001893
# 2 -0.000754 0.015548 -0.007702 0.004380 -0.001203 -0.003391
# 3 -0.005782 -0.007702 0.032154 0.003328 0.000360 -0.006993
# 4 0.001602 0.004380 0.003328 0.028455 -0.006143 -0.008646
# 5 -0.002874 -0.001203 0.000360 -0.006143 0.026014 0.005772
# 6 -0.001893 -0.003391 -0.006993 -0.008646 0.005772 0.033001
#
#
# Mechanical properties :
#
#
# Convention : Reuss Voigt Hill
#
# Bulk Modulus (GPa) = 36.00237 57.74892 46.87564
# Shear Modulus (GPa) = 27.55471 37.10896 32.33183
#
# Velocity S-wave (km/s) = 3.53424 4.10146 3.82837
# Velocity P-wave (km/s) = 5.74237 6.97191 6.38680
#
# Compressibility (1/GPa) = 0.02777595
#
# Stress axis : x y z
#
# Youngs Moduli (GPa) = 116.95678 64.31889 31.09988
#
# Poissons Ratio (x) = 0.04849 0.17983
# Poissons Ratio (y) = 0.08817 0.23953
# Poissons Ratio (z) = 0.67628 0.49538
#
# Static dielectric constant tensor:
#      x y z
#    x 5.659430 0.435540 0.093760 
#    y 0.435540 4.034830 0.211160 
#    z 0.093760 0.211160 3.709070 
# 
# 
# High freq. dielectric constant tensor:
#      x y z
#    x 1.887690 -0.002980 0.015430 
#    y -0.002980 1.873230 0.002460 
#    z 0.015430 0.002460 1.859880 
# 
# From -- ./inp_files/519174.got.cif
#   From: 2010.06.25/outbox.cif.g09.slc.cpg/sg2_260_cif.got.tgz:519174.got - 2010.06.27 13:26:56.
