data_PCOD8014109
_publ_section_title
;
Structure prediction by ZEFSAII (Michael W. Deem and Ramdas Pophale) SiO2 
 PCOD8014109
Probable space group: P -1
;
_chemical_formula_sum "Si O2"
_cell_formula_units_Z 10
_cell_length_a 15.864878
_cell_length_b 5.677845
_cell_length_c 15.183102
_cell_angle_alpha 93.699231
_cell_angle_beta 17.094001
_cell_angle_gamma 92.466014
_cell_volume 400.364164
_symmetry_space_group_name_H-M "P -1"
_symmetry_group_IT_number 2
_symmetry_cell_setting 'triclinic'
loop_
_space_group_symop_operation_xyz
x,y,z
-x,-y,-z
loop_
_atom_site_type_symbol
_atom_site_label
_atom_site_fract_x
_atom_site_fract_y
_atom_site_fract_z
Si Si1 0.822654 0.321802 0.360685
Si Si2 0.903576 0.702673 0.167703
Si Si3 0.747632 0.362040 0.642214
Si Si4 0.260216 0.206446 0.227117
Si Si5 0.337107 0.078172 0.754312
O O1 0.735890 0.584786 0.413775
O O2 0.795631 0.322277 0.491362
O O3 0.651712 0.104880 0.484839
O O4 0.151397 0.279630 0.999507
O O5 0.670425 0.866472 0.344776
O O6 0.000000 0.500000 0.000000
O O7 0.183487 0.835744 0.921000
O O8 0.823831 0.626789 0.600929
O O9 0.952210 0.156804 0.487210
O O10 0.413791 0.352478 0.000064
O O11 0.500000 0.000000 0.000000
#
# Coordination Sequence:
#
# PCOD8014109 Si02
#       5
#     2   2   2   2   2
#     4  11  22  39  60  90 127 159 206 268 312 364
#     4   9  21  39  61  86 122 167 207 254 313 369
#     4  10  22  39  62  94 124 160 213 261 313 384
#     4  10  21  41  65  88 123 166 206 257 321 385
#     4  10  22  38  60  89 122 165 212 252 310 379
#
# _framework density 24.977262
#
# number of rings (size 3 to 8) (size 9 to 14) (size 15 to 20)
#    0.000    2.000    0.000    2.400    0.000   12.000 
#    0.000   10.000    0.000    0.000    0.000    0.000 
#    0.000    0.000    0.000    0.000    0.000    0.000 
#
# Total GULP energy -123918.179965 kJ/mol
# GULP energy per Si atom -12391.817996 kJ/mol
# Density = 2.492041 g / cm^3
# Si number density = 24.977262 Si / 1000 Ang^3
#
#
#
# Elastic Constant Matrix: (Units=GPa)
#
#
# Indices 1 2 3 4 5 6 
#
# 1 171.6709 37.2069 47.7666 10.8824 14.9056 20.0264
# 2 37.2069 89.1362 16.4279 6.8889 -14.8784 5.5612
# 3 47.7666 16.4279 114.9990 3.5827 -14.7045 8.1024
# 4 10.8824 6.8889 3.5827 48.8883 2.2845 -7.6683
# 5 14.9056 -14.8784 -14.7045 2.2845 39.2795 5.3951
# 6 20.0264 5.5612 8.1024 -7.6683 5.3951 29.6270
#
#
#
# Elastic Compliance Matrix: (Units=1/GPa)
#
#
# Indices 1 2 3 4 5 6 
#
# 1 0.008484 -0.003448 -0.003400 -0.001472 -0.005220 -0.003588
# 2 -0.003448 0.014062 0.000577 -0.001957 0.007281 -0.002299
# 3 -0.003400 0.000577 0.010954 -0.000730 0.005937 -0.002076
# 4 -0.001472 -0.001957 -0.000730 0.022484 -0.002849 0.007901
# 5 -0.005220 0.007281 0.005937 -0.002849 0.033449 -0.006290
# 6 -0.003588 -0.002299 -0.002076 0.007901 -0.006290 0.040368
#
#
# Mechanical properties :
#
#
# Convention : Reuss Voigt Hill
#
# Bulk Modulus (GPa) = 47.71609 64.28987 56.00298
# Shear Modulus (GPa) = 33.48345 41.85261 37.66803
#
# Velocity S-wave (km/s) = 3.66533 4.09788 3.88763
# Velocity P-wave (km/s) = 6.08754 6.94157 6.52854
#
# Compressibility (1/GPa) = 0.02095729
#
# Stress axis : x y z
#
# Youngs Moduli (GPa) = 117.87501 71.11547 91.29387
#
# Poissons Ratio (x) = 0.24522 0.31040
# Poissons Ratio (y) = 0.40646 -0.05271
# Poissons Ratio (z) = 0.40077 -0.04106
#
# Static dielectric constant tensor:
#      x y z
#    x 4.510080 -0.723770 -0.179520 
#    y -0.723770 5.998050 0.219650 
#    z -0.179520 0.219650 5.176070 
# 
# 
# High freq. dielectric constant tensor:
#      x y z
#    x 1.969160 0.008200 0.001090 
#    y 0.008200 2.010560 0.015040 
#    z 0.001090 0.015040 2.031870 
# 
# From -- ./inp_files/5087.got.cif
#   From: 2010.06.25/outbox.cif.g09.slc.cpg/sg2_3_cif.got.tgz:5087.got - 2010.06.27 13:26:56.
