data_PCOD8014203
_publ_section_title
;
Structure prediction by ZEFSAII (Michael W. Deem and Ramdas Pophale) SiO2 
 PCOD8014203
Probable space group: P -1
;
_chemical_formula_sum "Si O2"
_cell_formula_units_Z 16
_cell_length_a 6.832212
_cell_length_b 11.963480
_cell_length_c 13.825651
_cell_angle_alpha 49.431247
_cell_angle_beta 86.801195
_cell_angle_gamma 109.727277
_cell_volume 745.744724
_symmetry_space_group_name_H-M "P -1"
_symmetry_group_IT_number 2
_symmetry_cell_setting 'triclinic'
loop_
_space_group_symop_operation_xyz
x,y,z
-x,-y,-z
loop_
_atom_site_type_symbol
_atom_site_label
_atom_site_fract_x
_atom_site_fract_y
_atom_site_fract_z
Si Si1 0.001571 0.703684 0.289820
Si Si2 0.856763 0.126828 0.528741
Si Si3 0.041666 0.887238 0.676319
Si Si4 0.192162 0.459099 0.418927
Si Si5 0.462182 0.383132 0.156149
Si Si6 0.422698 0.885794 0.775337
Si Si7 0.605957 0.939915 0.947256
Si Si8 0.369276 0.382832 0.800075
O O1 0.832714 0.631004 0.426333
O O2 0.866005 0.661349 0.217458
O O3 0.166067 0.624595 0.332204
O O4 0.154671 0.906110 0.180074
O O5 0.809663 0.077723 0.444595
O O6 0.000584 0.327508 0.425851
O O7 0.622661 0.062567 0.628537
O O8 0.998581 0.041748 0.616009
O O9 0.180155 0.869323 0.771389
O O10 0.804221 0.719469 0.759045
O O11 0.438118 0.516532 0.340379
O O12 0.564565 0.262774 0.197814
O O13 0.595171 0.494522 0.181135
O O14 0.500000 0.500000 0.000000
O O15 0.439781 0.873322 0.897160
O O16 0.640224 0.788224 0.068785
O O17 0.500000 0.000000 0.000000
#
# Coordination Sequence:
#
# PCOD8014203 Si02
#       8
#     2   2   2   2   2   2   2   2
#     4  11  26  44  69  96 129 180 217 274 333 378
#     4  10  21  41  65  95 132 165 216 269 323 394
#     4  10  23  40  65  96 130 171 212 269 329 384
#     4  11  23  45  66  99 133 164 228 277 318 394
#     4  11  24  42  63  98 131 167 220 265 322 393
#     4  11  24  43  67  95 132 174 215 271 328 391
#     4  12  25  47  67  97 135 174 225 267 322 405
#     4  12  25  44  70  96 135 175 218 274 330 389
#
# _framework density 21.455065000000001
#
# number of rings (size 3 to 8) (size 9 to 14) (size 15 to 20)
#    0.000    1.000    5.000    1.125    1.750    3.500 
#    0.000    0.000    0.000    0.000    0.000    0.000 
#    0.000    0.000    0.000    0.000    0.000    0.000 
#
# Total GULP energy -198481.622465 kJ/mol
# GULP energy per Si atom -12405.101404 kJ/mol
# Density = 2.140623 g / cm^3
# Si number density = 21.455065 Si / 1000 Ang^3
#
#
#
# Elastic Constant Matrix: (Units=GPa)
#
#
# Indices 1 2 3 4 5 6 
#
# 1 69.0343 40.3185 26.9612 10.2417 16.5393 13.2386
# 2 40.3185 129.0009 40.0761 8.9075 6.9634 6.5432
# 3 26.9612 40.0761 106.2717 1.0514 8.0279 4.1124
# 4 10.2417 8.9075 1.0514 44.8617 4.2932 1.5972
# 5 16.5393 6.9634 8.0279 4.2932 19.9435 10.7481
# 6 13.2386 6.5432 4.1124 1.5972 10.7481 32.6874
#
#
#
# Elastic Compliance Matrix: (Units=1/GPa)
#
#
# Indices 1 2 3 4 5 6 
#
# 1 0.022898 -0.005243 -0.002640 -0.002691 -0.013775 -0.003231
# 2 -0.005243 0.010176 -0.002655 -0.000964 0.002211 -0.000259
# 3 -0.002640 -0.002655 0.011194 0.001035 -0.002053 0.000817
# 4 -0.002691 -0.000964 0.001035 0.023366 -0.003505 0.001163
# 5 -0.013775 0.002211 -0.002053 -0.003505 0.072163 -0.018162
# 6 -0.003231 -0.000259 0.000817 0.001163 -0.018162 0.037766
#
#
# Mechanical properties :
#
#
# Convention : Reuss Voigt Hill
#
# Bulk Modulus (GPa) = 43.11755 57.66873 50.39314
# Shear Modulus (GPa) = 24.22858 32.62857 28.42858
#
# Velocity S-wave (km/s) = 3.36411 3.90396 3.64404
# Velocity P-wave (km/s) = 5.93548 6.87447 6.42216
#
# Compressibility (1/GPa) = 0.02319241
#
# Stress axis : x y z
#
# Youngs Moduli (GPa) = 43.67204 98.27368 89.33494
#
# Poissons Ratio (x) = 0.51528 0.23581
# Poissons Ratio (y) = 0.22898 0.23715
# Poissons Ratio (z) = 0.11528 0.26088
#
# Static dielectric constant tensor:
#      x y z
#    x 3.601710 -0.033180 -0.049020 
#    y -0.033180 3.861950 -0.046020 
#    z -0.049020 -0.046020 4.088000 
# 
# 
# High freq. dielectric constant tensor:
#      x y z
#    x 1.825810 -0.001260 -0.002030 
#    y -0.001260 1.852280 0.000170 
#    z -0.002030 0.000170 1.855580 
# 
# From -- ./inp_files/95328.got.cif
#   From: 2010.06.25/outbox.cif.g09.slc.cpg/sg2_48_cif.got.tgz:95328.got - 2010.06.27 13:26:56.
