data_PCOD8014831
_publ_section_title
;
Structure prediction by ZEFSAII (Michael W. Deem and Ramdas Pophale) SiO2 
 PCOD8014831
Probable space group: P -1
;
_chemical_formula_sum "Si O2"
_cell_formula_units_Z 16
_cell_length_a 9.616544
_cell_length_b 7.660870
_cell_length_c 10.894723
_cell_angle_alpha 60.741472
_cell_angle_beta 98.267269
_cell_angle_gamma 100.664178
_cell_volume 686.802468
_symmetry_space_group_name_H-M "P -1"
_symmetry_group_IT_number 2
_symmetry_cell_setting 'triclinic'
loop_
_space_group_symop_operation_xyz
x,y,z
-x,-y,-z
loop_
_atom_site_type_symbol
_atom_site_label
_atom_site_fract_x
_atom_site_fract_y
_atom_site_fract_z
Si Si1 0.088931 0.104172 0.583892
Si Si2 0.305304 0.635294 0.085903
Si Si3 0.308796 0.835283 0.777209
Si Si4 0.395793 0.194861 0.826243
Si Si5 0.805880 0.118198 0.647863
Si Si6 0.837772 0.032312 0.953157
Si Si7 0.303507 0.266539 0.380856
Si Si8 0.622518 0.364296 0.401157
O O1 0.201551 0.285884 0.479363
O O2 0.975741 0.187720 0.631367
O O3 0.160368 0.927157 0.720805
O O4 0.000000 0.000000 0.500000
O O5 0.454172 0.761061 0.102399
O O6 0.174298 0.740807 0.082253
O O7 0.284391 0.411496 0.213789
O O8 0.298928 0.641668 0.934367
O O9 0.357160 0.757655 0.680317
O O10 0.414238 0.024182 0.783806
O O11 0.347376 0.395630 0.692842
O O12 0.268316 0.123461 0.928033
O O13 0.781751 0.018616 0.811536
O O14 0.723168 0.310005 0.544211
O O15 0.736501 0.959647 0.593167
O O16 0.000000 0.000000 0.000000
O O17 0.460776 0.301908 0.443051
#
# Coordination Sequence:
#
# PCOD8014831 Si02
#       8
#     2   2   2   2   2   2   2   2
#     4  10  21  42  61  88 131 169 211 265 320 379
#     4  10  24  42  64  96 128 169 210 266 328 381
#     4  11  21  41  69  89 135 167 210 267 326 373
#     4  10  25  43  65  98 134 166 214 267 323 385
#     4  11  23  41  66  92 131 169 215 266 321 382
#     4  11  24  44  64  95 130 169 216 265 319 383
#     4  10  23  39  63  97 126 164 217 261 320 384
#     4  11  24  40  68 102 124 169 219 262 324 386
#
# _framework density 23.296362999999999
#
# number of rings (size 3 to 8) (size 9 to 14) (size 15 to 20)
#    0.000    1.500    2.500    3.375    5.250    3.000 
#    0.000    7.500    0.000    0.000    0.000    0.000 
#    0.000    0.000    0.000    0.000    0.000    0.000 
#
# Total GULP energy -198292.440967 kJ/mol
# GULP energy per Si atom -12393.277560 kJ/mol
# Density = 2.324334 g / cm^3
# Si number density = 23.296363 Si / 1000 Ang^3
#
#
#
# Elastic Constant Matrix: (Units=GPa)
#
#
# Indices 1 2 3 4 5 6 
#
# 1 130.3144 6.5566 47.2853 -18.3711 2.3277 -2.5224
# 2 6.5566 42.5091 23.0689 -9.7050 -8.9915 -6.7234
# 3 47.2853 23.0689 126.8849 -16.8241 15.8939 8.4504
# 4 -18.3711 -9.7050 -16.8241 31.1769 1.8895 5.1312
# 5 2.3277 -8.9915 15.8939 1.8895 45.7438 -2.9295
# 6 -2.5224 -6.7234 8.4504 5.1312 -2.9295 13.1430
#
#
#
# Elastic Compliance Matrix: (Units=1/GPa)
#
#
# Indices 1 2 3 4 5 6 
#
# 1 0.009580 0.002667 -0.004152 0.003320 0.001659 0.004946
# 2 0.002667 0.036541 -0.010884 0.001642 0.012577 0.028365
# 3 -0.004152 -0.010884 0.014569 0.005818 -0.008505 -0.019899
# 4 0.003320 0.001642 0.005818 0.041168 -0.004811 -0.019408
# 5 0.001659 0.012577 -0.008505 -0.004811 0.028715 0.020500
# 6 0.004946 0.028365 -0.019899 -0.019408 0.020500 0.116487
#
#
# Mechanical properties :
#
#
# Convention : Reuss Voigt Hill
#
# Bulk Modulus (GPa) = 27.81484 50.39223 39.10354
# Shear Modulus (GPa) = 17.61901 32.86592 25.24246
#
# Velocity S-wave (km/s) = 2.75307 3.76010 3.29528
# Velocity P-wave (km/s) = 4.69802 6.36624 5.59466
#
# Compressibility (1/GPa) = 0.03595203
#
# Stress axis : x y z
#
# Youngs Moduli (GPa) = 104.38050 27.36625 68.63701
#
# Poissons Ratio (x) = -0.07298 0.28498
# Poissons Ratio (y) = -0.27836 0.74706
# Poissons Ratio (z) = 0.43339 0.29786
#
# Static dielectric constant tensor:
#      x y z
#    x 5.010090 -0.154360 -0.219310 
#    y -0.154360 3.930780 -0.053510 
#    z -0.219310 -0.053510 4.586980 
# 
# 
# High freq. dielectric constant tensor:
#      x y z
#    x 1.927520 -0.004620 0.007040 
#    y -0.004620 1.894950 0.003220 
#    z 0.007040 0.003220 1.948130 
# 
# From -- ./inp_files/381085.got.cif
#   From: 2010.06.25/outbox.cif.g09.slc.cpg/sg2_191_cif.got.tgz:381085.got - 2010.06.27 13:26:56.
