data_PCOD8014300
_publ_section_title
;
Structure prediction by ZEFSAII (Michael W. Deem and Ramdas Pophale) SiO2 
 PCOD8014300
Probable space group: P -1
;
_chemical_formula_sum "Si O2"
_cell_formula_units_Z 16
_cell_length_a 19.548014
_cell_length_b 12.323319
_cell_length_c 9.826766
_cell_angle_alpha 70.875313
_cell_angle_beta 144.555994
_cell_angle_gamma 136.348149
_cell_volume 716.758829
_symmetry_space_group_name_H-M "P -1"
_symmetry_group_IT_number 2
_symmetry_cell_setting 'triclinic'
loop_
_space_group_symop_operation_xyz
x,y,z
-x,-y,-z
loop_
_atom_site_type_symbol
_atom_site_label
_atom_site_fract_x
_atom_site_fract_y
_atom_site_fract_z
Si Si1 0.631919 0.144991 0.784367
Si Si2 0.901843 0.382442 0.673342
Si Si3 0.863929 0.133627 0.557476
Si Si4 0.962314 0.836952 0.674147
Si Si5 0.528500 0.846830 0.908785
Si Si6 0.517658 0.429820 0.183322
Si Si7 0.761321 0.054608 0.712525
Si Si8 0.879876 0.790989 0.257782
O O1 0.500000 0.000000 0.500000
O O2 0.645084 0.050189 0.948106
O O3 0.497394 0.143246 0.629244
O O4 0.869225 0.374991 0.037968
O O5 0.885560 0.289372 0.549083
O O6 0.722169 0.335712 0.393865
O O7 0.857226 0.263514 0.780647
O O8 0.839701 0.054470 0.700801
O O9 0.077649 0.263877 0.772724
O O10 0.651637 0.926417 0.216620
O O11 0.769007 0.636091 0.541927
O O12 0.936592 0.774628 0.500712
O O13 0.960146 0.973040 0.606858
O O14 0.172660 0.956776 0.037587
O O15 0.559150 0.760956 0.897513
O O16 0.500000 0.500000 0.000000
O O17 0.362966 0.356721 0.079244
#
# Coordination Sequence:
#
# PCOD8014300 Si02
#       8
#     2   2   2   2   2   2   2   2
#     4  11  26  40  67 101 127 174 220 269 328 383
#     4   9  24  44  62  95 135 173 214 262 333 396
#     4  10  22  46  62  93 140 173 210 269 325 398
#     4  10  21  41  66  94 127 172 221 278 318 376
#     4  11  23  41  68  93 132 174 218 270 318 386
#     4  10  23  40  65 101 126 166 223 274 319 377
#     4   9  24  42  62  93 137 165 216 270 329 385
#     4  10  22  40  67  98 127 169 228 266 323 391
#
# _framework density 22.322711000000002
#
# number of rings (size 3 to 8) (size 9 to 14) (size 15 to 20)
#    0.750    1.250    0.000    2.625    7.000    3.000 
#    6.750    0.625    0.000    0.000    0.000    0.000 
#    0.000    0.000    0.000    0.000    0.000    0.000 
#
# Total GULP energy -198264.033064 kJ/mol
# GULP energy per Si atom -12391.502067 kJ/mol
# Density = 2.227190 g / cm^3
# Si number density = 22.322711 Si / 1000 Ang^3
#
#
#
# Elastic Constant Matrix: (Units=GPa)
#
#
# Indices 1 2 3 4 5 6 
#
# 1 141.6523 20.8627 33.8845 -3.9171 24.2817 -0.5760
# 2 20.8627 59.0076 41.1408 2.8418 9.5684 4.4279
# 3 33.8845 41.1408 96.7061 4.5539 21.0310 7.6172
# 4 -3.9171 2.8418 4.5539 39.3818 4.4732 6.7585
# 5 24.2817 9.5684 21.0310 4.4732 33.4670 -4.9217
# 6 -0.5760 4.4279 7.6172 6.7585 -4.9217 24.7412
#
#
#
# Elastic Compliance Matrix: (Units=1/GPa)
#
#
# Indices 1 2 3 4 5 6 
#
# 1 0.008524 -0.001263 -0.001314 0.001824 -0.005350 -0.000733
# 2 -0.001263 0.024336 -0.009789 -0.000540 0.000003 -0.001223
# 3 -0.001314 -0.009789 0.017046 0.000375 -0.007770 -0.005175
# 4 0.001824 -0.000540 0.000375 0.027819 -0.006425 -0.008854
# 5 -0.005350 0.000003 -0.007770 -0.006425 0.041302 0.012239
# 6 -0.000733 -0.001223 -0.005175 -0.008854 0.012239 0.047066
#
#
# Mechanical properties :
#
#
# Convention : Reuss Voigt Hill
#
# Bulk Modulus (GPa) = 39.72544 54.34911 47.03728
# Shear Modulus (GPa) = 25.09815 32.94988 29.02402
#
# Velocity S-wave (km/s) = 3.35674 3.84613 3.60974
# Velocity P-wave (km/s) = 5.73221 6.64255 6.20410
#
# Compressibility (1/GPa) = 0.02517278
#
# Stress axis : x y z
#
# Youngs Moduli (GPa) = 117.31010 41.09114 58.66644
#
# Poissons Ratio (x) = 0.05189 0.07711
# Poissons Ratio (y) = 0.14815 0.57431
# Poissons Ratio (z) = 0.15419 0.40226
#
# Static dielectric constant tensor:
#      x y z
#    x 4.255490 0.208170 0.512690 
#    y 0.208170 3.958970 0.186350 
#    z 0.512690 0.186350 4.174940 
# 
# 
# High freq. dielectric constant tensor:
#      x y z
#    x 1.878930 0.007410 0.028270 
#    y 0.007410 1.863670 -0.001420 
#    z 0.028270 -0.001420 1.866510 
# 
# From -- ./inp_files/333301.got.cif
#   From: 2010.06.25/outbox.cif.g09.slc.cpg/sg2_167_cif.got.tgz:333301.got - 2010.06.27 13:26:56.
