data_PCOD8014867
_publ_section_title
;
Structure prediction by ZEFSAII (Michael W. Deem and Ramdas Pophale) SiO2 
 PCOD8014867
Probable space group: P -1
;
_chemical_formula_sum "Si O2"
_cell_formula_units_Z 12
_cell_length_a 11.927509
_cell_length_b 4.934866
_cell_length_c 9.336387
_cell_angle_alpha 95.309222
_cell_angle_beta 71.922941
_cell_angle_gamma 93.403625
_cell_volume 519.906144
_symmetry_space_group_name_H-M "P -1"
_symmetry_group_IT_number 2
_symmetry_cell_setting 'triclinic'
loop_
_space_group_symop_operation_xyz
x,y,z
-x,-y,-z
loop_
_atom_site_type_symbol
_atom_site_label
_atom_site_fract_x
_atom_site_fract_y
_atom_site_fract_z
Si Si1 0.126122 0.343600 0.594041
Si Si2 0.863884 0.406779 0.706936
Si Si3 0.662919 0.592718 0.954663
Si Si4 0.367548 0.810402 0.285138
Si Si5 0.272943 0.845428 0.614533
Si Si6 0.591701 0.118986 0.151774
O O1 0.127726 0.401831 0.427031
O O2 0.184457 0.592892 0.673087
O O3 0.990277 0.298422 0.696906
O O4 0.196259 0.079518 0.589307
O O5 0.771418 0.149520 0.699147
O O6 0.804185 0.579531 0.867729
O O7 0.629685 0.905440 0.003289
O O8 0.626575 0.422235 0.103116
O O9 0.591378 0.451519 0.839617
O O10 0.369553 0.752914 0.452842
O O11 0.451001 0.074319 0.231670
O O12 0.339872 0.949754 0.733718
#
# Coordination Sequence:
#
# PCOD8014867 Si02
#       6
#     2   2   2   2   2   2
#     4  10  21  42  62  92 118 159 207 254 289 354
#     4   8  21  39  66  89 118 155 214 249 293 345
#     4  10  24  39  64  91 122 159 205 245 307 351
#     4   9  22  41  65  90 117 164 208 247 291 360
#     4  11  24  39  65  90 126 159 200 246 309 359
#     4  12  23  42  59  95 128 158 192 254 310 363
#
# _framework density 23.08109
#
# number of rings (size 3 to 8) (size 9 to 14) (size 15 to 20)
#    1.000    1.000    0.000    2.500    2.333   10.000 
#    0.000   10.833    0.000    0.000    0.000    0.000 
#    0.000    0.000    0.000    0.000    0.000    0.000 
#
# Total GULP energy -148667.386805 kJ/mol
# GULP energy per Si atom -12388.948900 kJ/mol
# Density = 2.302856 g / cm^3
# Si number density = 23.081090 Si / 1000 Ang^3
#
#
#
# Elastic Constant Matrix: (Units=GPa)
#
#
# Indices 1 2 3 4 5 6 
#
# 1 97.8683 7.5256 46.5087 1.9684 -23.0888 19.2614
# 2 7.5256 61.3375 3.0166 17.1179 -7.3379 2.6072
# 3 46.5087 3.0166 81.7544 5.5995 -8.9383 4.3163
# 4 1.9684 17.1179 5.5995 9.0142 18.6720 4.0944
# 5 -23.0888 -7.3379 -8.9383 18.6720 25.3820 -7.8141
# 6 19.2614 2.6072 4.3163 4.0944 -7.8141 29.3260
#
#
#
# Elastic Compliance Matrix: (Units=1/GPa)
#
#
# Indices 1 2 3 4 5 6 
#
# 1 0.017405 -0.003260 -0.009554 0.008258 0.002286 -0.010280
# 2 -0.003260 0.009794 -0.001278 0.018887 -0.016167 -0.005486
# 3 -0.009554 -0.001278 0.016829 0.003367 -0.004958 0.002121
# 4 0.008258 0.018887 0.003367 -0.050268 0.055512 0.014211
# 5 0.002286 -0.016167 -0.004958 0.055512 -0.008672 -0.009396
# 6 -0.010280 -0.005486 0.002121 0.014211 -0.009396 0.036539
#
#
# Mechanical properties :
#
#
# Convention : Reuss Voigt Hill
#
# Bulk Modulus (GPa) = 63.11474 39.45131 51.28303
# Shear Modulus (GPa) = 90.75397 25.00505 57.87951
#
# Velocity S-wave (km/s) = 6.27734 3.29501 5.01309
# Velocity P-wave (km/s) = 8.94115 5.62189 7.46826
#
# Compressibility (1/GPa) = 0.01584416
#
# Stress axis : x y z
#
# Youngs Moduli (GPa) = 57.45431 102.10050 59.41963
#
# Poissons Ratio (x) = 0.33282 0.56770
# Poissons Ratio (y) = 0.18729 0.07597
# Poissons Ratio (z) = 0.54893 0.13053
#
# Static dielectric constant tensor:
#      x y z
#    x 4.191430 0.224770 -0.323790 
#    y 0.224770 3.860280 0.058550 
#    z -0.323790 0.058550 4.260450 
# 
# 
# High freq. dielectric constant tensor:
#      x y z
#    x 1.903100 0.009990 -0.020250 
#    y 0.009990 1.899040 0.001050 
#    z -0.020250 0.001050 1.907330 
# 
# From -- ./inp_files/70729.got.cif
#   From: 2010.06.25/outbox.cif.g09.slc.cpg/sg2_36_cif.got.tgz:70729.got - 2010.06.27 13:26:56.
