data_PCOD8014698
_publ_section_title
;
Structure prediction by ZEFSAII (Michael W. Deem and Ramdas Pophale) SiO2 
 PCOD8014698
Probable space group: P -1
;
_chemical_formula_sum "Si O2"
_cell_formula_units_Z 14
_cell_length_a 7.108275
_cell_length_b 11.807094
_cell_length_c 12.124972
_cell_angle_alpha 39.811318
_cell_angle_beta 116.840086
_cell_angle_gamma 110.587255
_cell_volume 581.334795
_symmetry_space_group_name_H-M "P -1"
_symmetry_group_IT_number 2
_symmetry_cell_setting 'triclinic'
loop_
_space_group_symop_operation_xyz
x,y,z
-x,-y,-z
loop_
_atom_site_type_symbol
_atom_site_label
_atom_site_fract_x
_atom_site_fract_y
_atom_site_fract_z
Si Si1 0.303087 0.875590 0.533769
Si Si2 0.874098 0.643897 0.293139
Si Si3 0.797597 0.419372 0.124701
Si Si4 0.569125 0.507343 0.780752
Si Si5 0.180744 0.169824 0.432931
Si Si6 0.081035 0.698105 0.083267
Si Si7 0.910380 0.914268 0.282418
O O1 0.331254 0.674717 0.736813
O O2 0.165839 0.881276 0.381072
O O3 0.500000 0.000000 0.500000
O O4 0.153397 0.978541 0.508725
O O5 0.668158 0.551480 0.258341
O O6 0.812651 0.803491 0.238623
O O7 0.000000 0.500000 0.500000
O O8 0.025182 0.721091 0.179594
O O9 0.006666 0.306672 0.238919
O O10 0.872897 0.615431 0.030952
O O11 0.641913 0.422084 0.979085
O O12 0.595635 0.725483 0.620850
O O13 0.718979 0.430552 0.780831
O O14 0.193686 0.152092 0.581699
O O15 0.139531 0.882638 0.904190
#
# Coordination Sequence:
#
# PCOD8014698 Si02
#       7
#     2   2   2   2   2   2   2
#     4  11  23  37  67 102 132 167 215 275 335 391
#     4  12  28  45  66  97 137 178 228 271 325 403
#     4  10  21  42  68  99 130 170 221 276 333 385
#     4  11  24  43  72  99 130 183 219 270 341 387
#     4  10  21  41  70  96 133 171 216 277 331 393
#     4  11  24  46  71  97 137 171 225 280 326 392
#     4  11  24  46  65  95 138 175 217 275 329 392
#
# _framework density 24.082509999999999
#
# number of rings (size 3 to 8) (size 9 to 14) (size 15 to 20)
#    0.000    1.143    0.000    9.000    6.000    3.429 
#    0.000    0.000    0.000    0.000    0.000    0.000 
#    0.000    0.000    0.000    0.000    0.000    0.000 
#
# Total GULP energy -173630.180156 kJ/mol
# GULP energy per Si atom -12402.155725 kJ/mol
# Density = 2.402770 g / cm^3
# Si number density = 24.082510 Si / 1000 Ang^3
#
#
#
# Elastic Constant Matrix: (Units=GPa)
#
#
# Indices 1 2 3 4 5 6 
#
# 1 29.2598 4.4550 15.3674 6.9878 -11.2126 17.2674
# 2 4.4550 134.3180 52.5886 -11.1454 0.4213 -3.9045
# 3 15.3674 52.5886 127.2749 -6.7071 -8.0968 5.3118
# 4 6.9878 -11.1454 -6.7071 47.4680 -0.2934 -4.4250
# 5 -11.2126 0.4213 -8.0968 -0.2934 30.1083 1.3561
# 6 17.2674 -3.9045 5.3118 -4.4250 1.3561 37.7573
#
#
#
# Elastic Compliance Matrix: (Units=1/GPa)
#
#
# Indices 1 2 3 4 5 6 
#
# 1 0.072008 -0.002718 -0.005185 -0.015088 0.026899 -0.035217
# 2 -0.002718 0.009250 -0.003641 0.002330 -0.002236 0.003065
# 3 -0.005185 -0.003641 0.010084 0.001405 0.000813 0.000712
# 4 -0.015088 0.002330 0.001405 0.024938 -0.005484 0.010063
# 5 0.026899 -0.002236 0.000813 -0.005484 0.044097 -0.014874
# 6 -0.035217 0.003065 0.000712 0.010063 -0.014874 0.044521
#
#
# Mechanical properties :
#
#
# Convention : Reuss Voigt Hill
#
# Bulk Modulus (GPa) = 14.65148 48.40827 31.52987
# Shear Modulus (GPa) = 19.94105 37.62952 28.78528
#
# Velocity S-wave (km/s) = 2.88067 3.95717 3.46103
# Velocity P-wave (km/s) = 4.14264 6.40496 5.39375
#
# Compressibility (1/GPa) = 0.06825251
#
# Stress axis : x y z
#
# Youngs Moduli (GPa) = 13.88728 108.10511 99.16986
#
# Poissons Ratio (x) = 0.29385 0.51423
# Poissons Ratio (y) = 0.03775 0.36111
# Poissons Ratio (z) = 0.07201 0.39365
#
# Static dielectric constant tensor:
#      x y z
#    x 6.203290 -0.854810 0.067080 
#    y -0.854810 5.395310 -0.132960 
#    z 0.067080 -0.132960 4.370360 
# 
# 
# High freq. dielectric constant tensor:
#      x y z
#    x 1.975500 -0.005540 -0.014290 
#    y -0.005540 1.965660 -0.018990 
#    z -0.014290 -0.018990 1.953330 
# 
# From -- ./inp_files/238531.got.cif
#   From: 2010.06.25/outbox.cif.g09.slc.cpg/sg2_120_cif.got.tgz:238531.got - 2010.06.27 13:26:56.
