data_PCOD8014714
_publ_section_title
;
Structure prediction by ZEFSAII (Michael W. Deem and Ramdas Pophale) SiO2 
 PCOD8014714
Probable space group: P -1
;
_chemical_formula_sum "Si O2"
_cell_formula_units_Z 16
_cell_length_a 12.703644
_cell_length_b 9.223933
_cell_length_c 14.796806
_cell_angle_alpha 103.789747
_cell_angle_beta 112.942920
_cell_angle_gamma 133.532061
_cell_volume 753.469350
_symmetry_space_group_name_H-M "P -1"
_symmetry_group_IT_number 2
_symmetry_cell_setting 'triclinic'
loop_
_space_group_symop_operation_xyz
x,y,z
-x,-y,-z
loop_
_atom_site_type_symbol
_atom_site_label
_atom_site_fract_x
_atom_site_fract_y
_atom_site_fract_z
Si Si1 0.729627 0.725499 0.882967
Si Si2 0.559576 0.735584 0.445234
Si Si3 0.414630 0.559749 0.020277
Si Si4 0.944904 0.856598 0.308951
Si Si5 0.446411 0.678154 0.767288
Si Si6 0.690336 0.155971 0.248626
Si Si7 0.727308 0.521976 0.518935
Si Si8 0.221306 0.756227 0.501016
O O1 0.586017 0.516868 0.716105
O O2 0.650646 0.535177 0.911942
O O3 0.673938 0.839382 0.898149
O O4 0.000000 0.000000 0.000000
O O5 0.420857 0.562629 0.466634
O O6 0.601962 0.954771 0.462722
O O7 0.812767 0.951862 0.570608
O O8 0.600704 0.908636 0.127202
O O9 0.500000 0.500000 0.000000
O O10 0.191657 0.358779 0.857110
O O11 0.783621 0.658970 0.314247
O O12 0.014953 0.110356 0.354625
O O13 0.471484 0.882213 0.832910
O O14 0.422903 0.642016 0.646669
O O15 0.692314 0.118864 0.349572
O O16 0.953066 0.504796 0.359595
O O17 0.772178 0.407203 0.549947
#
# Coordination Sequence:
#
# PCOD8014714 Si02
#       8
#     2   2   2   2   2   2   2   2
#     4  12  27  46  68  98 142 182 228 281 350 404
#     4  12  24  45  69 103 137 179 230 279 344 409
#     4  12  25  44  69 102 140 178 229 281 340 407
#     4  12  24  42  69 103 134 181 229 286 334 404
#     4  11  24  44  69  99 137 178 233 279 344 400
#     4  10  22  42  68 103 136 178 225 288 336 398
#     4  11  24  39  70 104 137 174 229 279 340 404
#     4  10  21  41  70  99 138 176 228 278 340 403
#
# _framework density 21.235105000000001
#
# number of rings (size 3 to 8) (size 9 to 14) (size 15 to 20)
#    0.000    0.750    5.000    2.625    1.750    0.500 
#    0.000    1.875    0.000    0.000    0.000    0.000 
#    0.000    0.000    0.000    0.000    0.000    0.000 
#
# Total GULP energy -198387.882671 kJ/mol
# GULP energy per Si atom -12399.242667 kJ/mol
# Density = 2.118677 g / cm^3
# Si number density = 21.235105 Si / 1000 Ang^3
#
#
#
# Elastic Constant Matrix: (Units=GPa)
#
#
# Indices 1 2 3 4 5 6 
#
# 1 127.4890 52.2257 55.2427 8.2096 9.0721 -7.6880
# 2 52.2257 100.6143 23.6497 7.1946 -2.3977 -4.5276
# 3 55.2427 23.6497 100.1163 2.9985 7.6290 -14.0596
# 4 8.2096 7.1946 2.9985 34.0346 -4.2615 -10.2006
# 5 9.0721 -2.3977 7.6290 -4.2615 37.1644 1.7997
# 6 -7.6880 -4.5276 -14.0596 -10.2006 1.7997 42.0469
#
#
#
# Elastic Compliance Matrix: (Units=1/GPa)
#
#
# Indices 1 2 3 4 5 6 
#
# 1 0.012665 -0.005206 -0.005578 -0.001914 -0.002479 -0.000468
# 2 -0.005206 0.012840 -0.000284 -0.001192 0.002023 -0.000040
# 3 -0.005578 -0.000284 0.013763 0.001170 -0.001537 0.003901
# 4 -0.001914 -0.001192 0.001170 0.032744 0.003532 0.007705
# 5 -0.002479 0.002023 -0.001537 0.003532 0.028417 -0.001109
# 6 -0.000468 -0.000040 0.003901 0.007705 -0.001109 0.026914
#
#
# Mechanical properties :
#
#
# Convention : Reuss Voigt Hill
#
# Bulk Modulus (GPa) = 58.37428 65.60620 61.99024
# Shear Modulus (GPa) = 32.21827 35.78929 34.00378
#
# Velocity S-wave (km/s) = 3.89937 4.10980 4.00597
# Velocity P-wave (km/s) = 6.91539 7.31319 7.11707
#
# Compressibility (1/GPa) = 0.01713083
#
# Stress axis : x y z
#
# Youngs Moduli (GPa) = 78.95792 77.88285 72.65646
#
# Poissons Ratio (x) = 0.40547 0.40528
# Poissons Ratio (y) = 0.41107 0.02067
# Poissons Ratio (z) = 0.44043 0.02215
#
# Static dielectric constant tensor:
#      x y z
#    x 3.949060 -0.179350 0.032140 
#    y -0.179350 4.275280 0.019260 
#    z 0.032140 0.019260 3.386110 
# 
# 
# High freq. dielectric constant tensor:
#      x y z
#    x 1.835580 -0.012190 -0.000290 
#    y -0.012190 1.846790 -0.008930 
#    z -0.000290 -0.008930 1.820030 
# 
# From -- ./inp_files/205218.got.cif
#   From: 2010.06.25/outbox.cif.g09.slc.cpg/sg2_103_cif.got.tgz:205218.got - 2010.06.27 13:26:56.
