data_PCOD8014716
_publ_section_title
;
Structure prediction by ZEFSAII (Michael W. Deem and Ramdas Pophale) SiO2 
 PCOD8014716
Probable space group: P -1
;
_chemical_formula_sum "Si O2"
_cell_formula_units_Z 14
_cell_length_a 6.700563
_cell_length_b 12.907747
_cell_length_c 17.650305
_cell_angle_alpha 22.243377
_cell_angle_beta 89.834291
_cell_angle_gamma 80.422070
_cell_volume 521.026780
_symmetry_space_group_name_H-M "P -1"
_symmetry_group_IT_number 2
_symmetry_cell_setting 'triclinic'
loop_
_space_group_symop_operation_xyz
x,y,z
-x,-y,-z
loop_
_atom_site_type_symbol
_atom_site_label
_atom_site_fract_x
_atom_site_fract_y
_atom_site_fract_z
Si Si1 0.838118 0.830573 0.028928
Si Si2 0.594644 0.643835 0.340851
Si Si3 0.699532 0.590503 0.928191
Si Si4 0.410062 0.356264 0.265738
Si Si5 0.975581 0.350540 0.684938
Si Si6 0.865305 0.348222 0.243266
Si Si7 0.551056 0.702621 0.528319
O O1 0.944993 0.543713 0.166338
O O2 0.877238 0.745628 0.173798
O O3 0.570461 0.999258 0.905135
O O4 0.940810 0.065284 0.846865
O O5 0.500000 0.500000 0.500000
O O6 0.845473 0.578246 0.413962
O O7 0.595946 0.472802 0.377320
O O8 0.773149 0.516556 0.888820
O O9 0.611353 0.946583 0.703933
O O10 0.500000 0.500000 0.000000
O O11 0.895750 0.404871 0.114404
O O12 0.605774 0.456003 0.183786
O O13 0.324264 0.446466 0.290978
O O14 0.500000 0.000000 0.500000
O O15 0.745411 0.639682 0.509389
O O16 0.000000 0.000000 0.500000
#
# Coordination Sequence:
#
# PCOD8014716 Si02
#       7
#     2   2   2   2   2   2   2
#     4  10  23  41  66 104 140 185 242 287 355 427
#     4  11  23  43  69 105 144 177 233 303 370 424
#     4   9  20  40  66  98 141 188 233 294 355 417
#     4   9  20  40  65  95 138 188 234 294 354 421
#     4  10  23  42  72 101 135 193 238 288 359 447
#     4  11  23  40  69 103 144 190 240 295 360 426
#     4  10  21  41  70  99 139 189 234 291 367 429
#
# _framework density 26.870021000000001
#
# number of rings (size 3 to 8) (size 9 to 14) (size 15 to 20)
#    0.000    2.000    0.000    2.143    6.000    4.571 
#    0.000    5.714    3.143    0.000    0.000    0.000 
#    0.000    0.000    0.000    0.000    0.000    0.000 
#
# Total GULP energy -173540.067169 kJ/mol
# GULP energy per Si atom -12395.719083 kJ/mol
# Density = 2.680886 g / cm^3
# Si number density = 26.870021 Si / 1000 Ang^3
#
#
#
# Elastic Constant Matrix: (Units=GPa)
#
#
# Indices 1 2 3 4 5 6 
#
# 1 115.1778 47.2132 16.7307 -1.3614 8.0077 16.7848
# 2 47.2132 196.9720 70.3138 2.5805 -1.4569 15.0798
# 3 16.7307 70.3138 120.1500 -2.7626 9.4966 8.1284
# 4 -1.3614 2.5805 -2.7626 53.2555 8.4498 -0.5795
# 5 8.0077 -1.4569 9.4966 8.4498 38.3052 9.4211
# 6 16.7848 15.0798 8.1284 -0.5795 9.4211 49.5742
#
#
#
# Elastic Compliance Matrix: (Units=1/GPa)
#
#
# Indices 1 2 3 4 5 6 
#
# 1 0.010091 -0.002365 0.000300 0.000652 -0.001830 -0.002391
# 2 -0.002365 0.007192 -0.004002 -0.000989 0.002267 -0.001173
# 3 0.000300 -0.004002 0.010908 0.001273 -0.003187 -0.000052
# 4 0.000652 -0.000989 0.001273 0.019730 -0.005105 0.001072
# 5 -0.001830 0.002267 -0.003187 -0.005105 0.029787 -0.005268
# 6 -0.002391 -0.001173 -0.000052 0.001072 -0.005268 0.022360
#
#
# Mechanical properties :
#
#
# Convention : Reuss Voigt Hill
#
# Bulk Modulus (GPa) = 62.27593 77.86837 70.07215
# Shear Modulus (GPa) = 42.53349 48.09648 45.31498
#
# Velocity S-wave (km/s) = 3.98293 4.23539 4.11110
# Velocity P-wave (km/s) = 6.66173 7.27740 6.97636
#
# Compressibility (1/GPa) = 0.01605757
#
# Stress axis : x y z
#
# Youngs Moduli (GPa) = 99.09335 139.04502 91.67680
#
# Poissons Ratio (x) = 0.32885 -0.02753
# Poissons Ratio (y) = 0.23436 0.36689
# Poissons Ratio (z) = -0.02975 0.55646
#
# Static dielectric constant tensor:
#      x y z
#    x 5.162240 0.400120 -0.250400 
#    y 0.400120 5.917450 0.513290 
#    z -0.250400 0.513290 4.805300 
# 
# 
# High freq. dielectric constant tensor:
#      x y z
#    x 2.095020 0.019030 -0.004840 
#    y 0.019030 2.107770 0.031800 
#    z -0.004840 0.031800 2.074360 
# 
# From -- ./inp_files/590018.got.cif
#   From: 2010.06.25/outbox.cif.g09.slc.cpg/sg2_296_cif.got.tgz:590018.got - 2010.06.27 13:26:56.
