data_PCOD8014609
_publ_section_title
;
Structure prediction by ZEFSAII (Michael W. Deem and Ramdas Pophale) SiO2 
 PCOD8014609
Probable space group: P -1
;
_chemical_formula_sum "Si O2"
_cell_formula_units_Z 14
_cell_length_a 10.476152
_cell_length_b 9.849830
_cell_length_c 12.736023
_cell_angle_alpha 37.576242
_cell_angle_beta 120.938306
_cell_angle_gamma 109.708190
_cell_volume 681.176313
_symmetry_space_group_name_H-M "P -1"
_symmetry_group_IT_number 2
_symmetry_cell_setting 'triclinic'
loop_
_space_group_symop_operation_xyz
x,y,z
-x,-y,-z
loop_
_atom_site_type_symbol
_atom_site_label
_atom_site_fract_x
_atom_site_fract_y
_atom_site_fract_z
Si Si1 0.597566 0.394292 0.455078
Si Si2 0.139510 0.824475 0.632993
Si Si3 0.985991 0.086638 0.058301
Si Si4 0.691352 0.367667 0.742587
Si Si5 0.677682 0.798730 0.583677
Si Si6 0.105566 0.660469 0.497766
Si Si7 0.865179 0.565297 0.983261
O O1 0.685550 0.327866 0.640458
O O2 0.475973 0.621062 0.282638
O O3 0.720968 0.432563 0.397809
O O4 0.504537 0.191377 0.504016
O O5 0.091565 0.674457 0.608380
O O6 0.275871 0.959592 0.573774
O O7 0.189782 0.658477 0.853298
O O8 0.000000 0.000000 0.500000
O O9 0.809862 0.166899 0.962250
O O10 0.079711 0.294525 0.982462
O O11 0.000000 0.000000 0.000000
O O12 0.054913 0.907304 0.281411
O O13 0.748529 0.608917 0.644925
O O14 0.730085 0.714516 0.773766
O O15 0.000000 0.500000 0.500000
O O16 0.000000 0.500000 0.000000
#
# Coordination Sequence:
#
# PCOD8014609 Si02
#       7
#     2   2   2   2   2   2   2
#     4   9  21  42  66  92 138 181 213 267 347 391
#     4  12  24  38  66 100 130 173 224 273 332 393
#     4  12  21  38  66  98 130 171 219 275 327 384
#     4   9  19  39  69  93 128 182 212 264 338 399
#     4  10  21  41  69  92 132 177 220 265 332 403
#     4  12  26  41  63 101 135 172 229 278 325 401
#     4  12  21  41  63  95 132 170 221 273 329 390
#
# _framework density 20.552682000000001
#
# number of rings (size 3 to 8) (size 9 to 14) (size 15 to 20)
#    0.857    0.286    5.714    0.857    2.000    0.571 
#    0.000    2.857    0.000    0.000    0.000    0.000 
#    0.000    0.000    0.000    0.000    0.000    0.000 
#
# Total GULP energy -173497.454143 kJ/mol
# GULP energy per Si atom -12392.675296 kJ/mol
# Density = 2.050590 g / cm^3
# Si number density = 20.552682 Si / 1000 Ang^3
#
#
#
# Elastic Constant Matrix: (Units=GPa)
#
#
# Indices 1 2 3 4 5 6 
#
# 1 107.9466 44.7656 39.7875 -2.4750 -2.3318 5.4100
# 2 44.7656 134.9354 20.6402 9.8300 -6.3984 11.8244
# 3 39.7875 20.6402 104.4186 5.3757 -12.1702 2.6976
# 4 -2.4750 9.8300 5.3757 29.5714 -0.6202 -0.4044
# 5 -2.3318 -6.3984 -12.1702 -0.6202 35.5357 -2.7954
# 6 5.4100 11.8244 2.6976 -0.4044 -2.7954 33.1346
#
#
#
# Elastic Compliance Matrix: (Units=1/GPa)
#
#
# Indices 1 2 3 4 5 6 
#
# 1 0.012457 -0.003719 -0.004309 0.003029 -0.001309 -0.000430
# 2 -0.003719 0.009176 -0.000024 -0.003369 0.001136 -0.002611
# 3 -0.004309 -0.000024 0.011779 -0.002416 0.003708 0.000036
# 4 0.003029 -0.003369 -0.002416 0.035636 -0.000511 0.001296
# 5 -0.001309 0.001136 0.003708 -0.000511 0.029678 0.002004
# 6 -0.000430 -0.002611 0.000036 0.001296 0.002004 0.031364
#
#
# Mechanical properties :
#
#
# Convention : Reuss Voigt Hill
#
# Bulk Modulus (GPa) = 57.77032 61.96525 59.86778
# Shear Modulus (GPa) = 32.90301 35.78884 34.34592
#
# Velocity S-wave (km/s) = 4.00548 4.17744 4.09236
# Velocity P-wave (km/s) = 7.03997 7.31320 7.17789
#
# Compressibility (1/GPa) = 0.01730993
#
# Stress axis : x y z
#
# Youngs Moduli (GPa) = 80.27736 108.97611 84.89740
#
# Poissons Ratio (x) = 0.40524 0.36581
# Poissons Ratio (y) = 0.29852 0.00201
# Poissons Ratio (z) = 0.34590 0.00258
#
# Static dielectric constant tensor:
#      x y z
#    x 3.714940 0.167170 -0.067000 
#    y 0.167170 4.037200 -0.062940 
#    z -0.067000 -0.062940 4.012120 
# 
# 
# High freq. dielectric constant tensor:
#      x y z
#    x 1.781890 0.002570 0.017650 
#    y 0.002570 1.825530 0.007220 
#    z 0.017650 0.007220 1.783540 
# 
# From -- ./inp_files/187737.got.cif
#   From: 2010.06.25/outbox.cif.g09.slc.cpg/sg2_94_cif.got.tgz:187737.got - 2010.06.27 13:26:56.
