data_PCOD8014359
_publ_section_title
;
Structure prediction by ZEFSAII (Michael W. Deem and Ramdas Pophale) SiO2 
 PCOD8014359
Probable space group: P -1
;
_chemical_formula_sum "Si O2"
_cell_formula_units_Z 14
_cell_length_a 8.698223
_cell_length_b 7.546384
_cell_length_c 18.225909
_cell_angle_alpha 117.908191
_cell_angle_beta 139.911005
_cell_angle_gamma 89.008143
_cell_volume 545.261672
_symmetry_space_group_name_H-M "P -1"
_symmetry_group_IT_number 2
_symmetry_cell_setting 'triclinic'
loop_
_space_group_symop_operation_xyz
x,y,z
-x,-y,-z
loop_
_atom_site_type_symbol
_atom_site_label
_atom_site_fract_x
_atom_site_fract_y
_atom_site_fract_z
Si Si1 0.400227 0.489008 0.043685
Si Si2 0.720770 0.170626 0.765446
Si Si3 0.769361 0.328223 0.582938
Si Si4 0.625620 0.213726 0.147129
Si Si5 0.513591 0.601679 0.368852
Si Si6 0.686116 0.924674 0.846695
Si Si7 0.061641 0.061317 0.620397
O O1 0.476221 0.350341 0.100829
O O2 0.588418 0.775446 0.199515
O O3 0.500000 0.500000 0.000000
O O4 0.049850 0.350059 0.887440
O O5 0.569854 0.309316 0.717775
O O6 0.531719 0.883813 0.610960
O O7 0.730755 0.135210 0.849202
O O8 0.674610 0.396646 0.634322
O O9 0.010411 0.592804 0.680931
O O10 0.945610 0.213370 0.641386
O O11 0.509943 0.089745 0.160643
O O12 0.500000 0.000000 0.000000
O O13 0.471203 0.344425 0.300295
O O14 0.872588 0.801427 0.546302
O O15 0.000000 0.000000 0.000000
O O16 0.000000 0.000000 0.500000
#
# Coordination Sequence:
#
# PCOD8014359 Si02
#       7
#     2   2   2   2   2   2   2
#     4  11  22  43  71 103 137 183 243 283 351 429
#     4  11  24  44  74 106 137 186 237 283 355 418
#     4  10  22  43  70 102 140 183 233 285 353 418
#     4  11  24  48  66  96 148 180 225 298 352 413
#     4  11  23  46  75 100 145 182 227 296 348 418
#     4  12  26  46  70 104 143 181 235 294 349 418
#     4  10  21  41  66  99 142 182 226 289 350 410
#
# _framework density 25.675744999999999
#
# number of rings (size 3 to 8) (size 9 to 14) (size 15 to 20)
#    0.000    1.143    1.429    6.857    0.000    1.714 
#   12.857    0.000    0.000    0.000    0.000    0.000 
#    0.000    0.000    0.000    0.000    0.000    0.000 
#
# Total GULP energy -173480.157725 kJ/mol
# GULP energy per Si atom -12391.439838 kJ/mol
# Density = 2.561731 g / cm^3
# Si number density = 25.675745 Si / 1000 Ang^3
#
#
#
# Elastic Constant Matrix: (Units=GPa)
#
#
# Indices 1 2 3 4 5 6 
#
# 1 147.9747 19.0610 46.5426 12.8677 10.4288 24.5577
# 2 19.0610 78.3461 -5.2492 -7.8607 13.6777 21.3490
# 3 46.5426 -5.2492 177.5970 23.0169 37.1150 9.4284
# 4 12.8677 -7.8607 23.0169 34.7808 12.2507 -3.3987
# 5 10.4288 13.6777 37.1150 12.2507 47.7389 10.4596
# 6 24.5577 21.3490 9.4284 -3.3987 10.4596 40.7388
#
#
#
# Elastic Compliance Matrix: (Units=1/GPa)
#
#
# Indices 1 2 3 4 5 6 
#
# 1 0.008522 -0.001650 -0.002033 -0.003358 0.002064 -0.004612
# 2 -0.001650 0.016398 0.001828 0.004448 -0.005536 -0.006229
# 3 -0.002033 0.001828 0.007627 -0.001992 -0.005439 -0.000267
# 4 -0.003358 0.004448 -0.001992 0.036219 -0.009518 0.005620
# 5 0.002064 -0.005536 -0.005439 -0.009518 0.029975 -0.005575
# 6 -0.004612 -0.006229 -0.000267 0.005620 -0.005575 0.032553
#
#
# Mechanical properties :
#
#
# Convention : Reuss Voigt Hill
#
# Bulk Modulus (GPa) = 34.67892 58.29186 46.48539
# Shear Modulus (GPa) = 34.57429 47.55592 41.06511
#
# Velocity S-wave (km/s) = 3.67355 4.30836 4.00356
# Velocity P-wave (km/s) = 5.61508 6.89214 6.28612
#
# Compressibility (1/GPa) = 0.02883596
#
# Stress axis : x y z
#
# Youngs Moduli (GPa) = 117.34408 60.98320 131.11744
#
# Poissons Ratio (x) = 0.10063 0.26662
# Poissons Ratio (y) = 0.19363 -0.23971
# Poissons Ratio (z) = 0.23862 -0.11149
#
# Static dielectric constant tensor:
#      x y z
#    x 4.692800 0.056400 0.226740 
#    y 0.056400 5.050090 0.622430 
#    z 0.226740 0.622430 5.341550 
# 
# 
# High freq. dielectric constant tensor:
#      x y z
#    x 2.038610 0.012920 0.012840 
#    y 0.012920 2.012950 0.017480 
#    z 0.012840 0.017480 2.045420 
# 
# From -- ./inp_files/557511.got.cif
#   From: 2010.06.25/outbox.cif.g09.slc.cpg/sg2_279_cif.got.tgz:557511.got - 2010.06.27 13:26:56.
