data_PCOD8014451
_publ_section_title
;
Structure prediction by ZEFSAII (Michael W. Deem and Ramdas Pophale) SiO2 
 PCOD8014451
Probable space group: P -1
;
_chemical_formula_sum "Si O2"
_cell_formula_units_Z 14
_cell_length_a 9.205474
_cell_length_b 14.543600
_cell_length_c 17.724282
_cell_angle_alpha 159.170782
_cell_angle_beta 124.127298
_cell_angle_gamma 55.893621
_cell_volume 693.123382
_symmetry_space_group_name_H-M "P -1"
_symmetry_group_IT_number 2
_symmetry_cell_setting 'triclinic'
loop_
_space_group_symop_operation_xyz
x,y,z
-x,-y,-z
loop_
_atom_site_type_symbol
_atom_site_label
_atom_site_fract_x
_atom_site_fract_y
_atom_site_fract_z
Si Si1 0.354491 0.667438 0.737493
Si Si2 0.624851 0.398319 0.144548
Si Si3 0.673792 0.187834 0.566922
Si Si4 0.696536 0.913265 0.069221
Si Si5 0.669046 0.622621 0.175828
Si Si6 0.504180 0.859739 0.677329
Si Si7 0.976295 0.490906 0.897829
O O1 0.266969 0.621161 0.758974
O O2 0.358771 0.405904 0.487867
O O3 0.246440 0.911492 0.849748
O O4 0.557332 0.724346 0.854866
O O5 0.434116 0.562972 0.232126
O O6 0.719154 0.532991 0.207467
O O7 0.607141 0.109098 0.889318
O O8 0.624711 0.144802 0.433845
O O9 0.877897 0.236916 0.659946
O O10 0.637795 0.934973 0.409758
O O11 0.604875 0.120658 0.261952
O O12 0.867214 0.750063 0.029817
O O13 0.832313 0.532809 0.101052
O O14 0.500000 0.500000 0.000000
O O15 0.000000 0.500000 0.000000
#
# Coordination Sequence:
#
# PCOD8014451 Si02
#       7
#     2   2   2   2   2   2   2
#     4   9  19  34  63  87 122 155 204 251 299 357
#     4  10  20  37  60  90 119 160 204 250 298 367
#     4  11  21  41  62  88 124 157 205 255 302 355
#     4  10  19  36  58  93 119 158 201 252 302 354
#     4  12  24  38  62  89 123 170 201 242 315 364
#     4  10  16  34  63  88 121 151 205 247 301 352
#     4  12  24  41  62  93 127 157 205 258 295 365
#
# _framework density 20.198423999999999
#
# number of rings (size 3 to 8) (size 9 to 14) (size 15 to 20)
#    0.000    1.429    5.714    3.000    0.000    0.000 
#    0.000    0.714    0.000    0.857    0.000    0.000 
#    0.000    0.000    0.000    0.000    0.000    0.000 
#
# Total GULP energy -173521.011006 kJ/mol
# GULP energy per Si atom -12394.357929 kJ/mol
# Density = 2.015245 g / cm^3
# Si number density = 20.198424 Si / 1000 Ang^3
#
#
#
# Elastic Constant Matrix: (Units=GPa)
#
#
# Indices 1 2 3 4 5 6 
#
# 1 102.8870 37.1632 32.8789 3.7790 3.9647 21.3268
# 2 37.1632 115.7494 39.2174 24.2383 6.7031 26.6046
# 3 32.8789 39.2174 130.9924 15.4456 -1.9503 5.5881
# 4 3.7790 24.2383 15.4456 28.7396 7.6187 5.1910
# 5 3.9647 6.7031 -1.9503 7.6187 26.4623 0.6727
# 6 21.3268 26.6046 5.5881 5.1910 0.6727 39.4387
#
#
#
# Elastic Compliance Matrix: (Units=1/GPa)
#
#
# Indices 1 2 3 4 5 6 
#
# 1 0.012481 -0.002547 -0.002590 0.003418 -0.002271 -0.005075
# 2 -0.002547 0.013440 -0.002113 -0.008591 -0.000546 -0.006249
# 3 -0.002590 -0.002113 0.009341 -0.003972 0.002705 0.001979
# 4 0.003418 -0.008591 -0.003972 0.047227 -0.012188 -0.001498
# 5 -0.002271 -0.000546 0.002705 -0.012188 0.041923 0.002102
# 6 -0.005075 -0.006249 0.001979 -0.001498 0.002102 0.032197
#
#
# Mechanical properties :
#
#
# Convention : Reuss Voigt Hill
#
# Bulk Modulus (GPa) = 48.16766 63.12754 55.64760
# Shear Modulus (GPa) = 28.08487 34.95274 31.51881
#
# Velocity S-wave (km/s) = 3.73292 4.16440 3.95455
# Velocity P-wave (km/s) = 6.51756 7.37865 6.96143
#
# Compressibility (1/GPa) = 0.02076082
#
# Stress axis : x y z
#
# Youngs Moduli (GPa) = 80.11997 74.40381 107.05460
#
# Poissons Ratio (x) = 0.18954 0.27732
# Poissons Ratio (y) = 0.20410 0.22620
# Poissons Ratio (z) = 0.20755 0.15721
#
# Static dielectric constant tensor:
#      x y z
#    x 3.495800 0.452940 -0.019290 
#    y 0.452940 3.897330 0.169330 
#    z -0.019290 0.169330 3.933050 
# 
# 
# High freq. dielectric constant tensor:
#      x y z
#    x 1.757130 0.039350 -0.009150 
#    y 0.039350 1.789500 0.013670 
#    z -0.009150 0.013670 1.801070 
# 
# From -- ./inp_files/74781.got.cif
#   From: 2010.06.25/outbox.cif.g09.slc.cpg/sg2_38_cif.got.tgz:74781.got - 2010.06.27 13:26:56.
