data_PCOD8014744
_publ_section_title
;
Structure prediction by ZEFSAII (Michael W. Deem and Ramdas Pophale) SiO2 
 PCOD8014744
Probable space group: P -1
;
_chemical_formula_sum "Si O2"
_cell_formula_units_Z 14
_cell_length_a 22.921785
_cell_length_b 7.809356
_cell_length_c 7.040263
_cell_angle_alpha 100.285706
_cell_angle_beta 56.990504
_cell_angle_gamma 139.127435
_cell_volume 625.891122
_symmetry_space_group_name_H-M "P -1"
_symmetry_group_IT_number 2
_symmetry_cell_setting 'triclinic'
loop_
_space_group_symop_operation_xyz
x,y,z
-x,-y,-z
loop_
_atom_site_type_symbol
_atom_site_label
_atom_site_fract_x
_atom_site_fract_y
_atom_site_fract_z
Si Si1 0.035935 0.809958 0.931385
Si Si2 0.748574 0.722417 0.842611
Si Si3 0.609384 0.628872 0.740317
Si Si4 0.861739 0.230548 0.962938
Si Si5 0.552139 0.289434 0.409246
Si Si6 0.156877 0.348315 0.605073
Si Si7 0.671551 0.040319 0.452174
O O1 0.967514 0.580821 0.830114
O O2 0.943013 0.703686 0.227312
O O3 0.116342 0.830747 0.893658
O O4 0.121271 0.127679 0.771076
O O5 0.675991 0.644690 0.777234
O O6 0.819438 0.690027 0.650665
O O7 0.669990 0.514595 0.121748
O O8 0.844971 0.062121 0.787455
O O9 0.573170 0.434284 0.592647
O O10 0.685877 0.941514 0.588214
O O11 0.500000 0.500000 0.000000
O O12 0.742282 0.098466 0.163262
O O13 0.500000 0.000000 0.500000
O O14 0.460905 0.209493 0.424388
O O15 0.277411 0.669768 0.527190
#
# Coordination Sequence:
#
# PCOD8014744 Si02
#       7
#     2   2   2   2   2   2   2
#     4   9  21  45  68  94 131 171 219 285 325 386
#     4  12  25  42  67 103 130 178 219 264 334 394
#     4  12  24  42  66  94 138 175 221 266 311 394
#     4  10  21  41  71  94 127 174 221 269 333 387
#     4  12  27  43  66 100 141 173 216 271 323 396
#     4  10  23  40  67  99 132 169 221 273 334 389
#     4  11  22  43  67  98 132 180 214 264 330 389
#
# _framework density 22.368106999999998
#
# number of rings (size 3 to 8) (size 9 to 14) (size 15 to 20)
#    0.000    1.143    2.857    3.000    4.000    2.286 
#    0.000    0.000    0.000    0.000    0.000    0.000 
#    0.000    0.000    0.000    0.000    0.000    0.000 
#
# Total GULP energy -173558.339846 kJ/mol
# GULP energy per Si atom -12397.024275 kJ/mol
# Density = 2.231720 g / cm^3
# Si number density = 22.368107 Si / 1000 Ang^3
#
#
#
# Elastic Constant Matrix: (Units=GPa)
#
#
# Indices 1 2 3 4 5 6 
#
# 1 58.0927 31.7434 25.6522 1.5411 -3.4874 -9.3685
# 2 31.7434 169.1694 68.7101 18.2958 -6.0994 -22.3116
# 3 25.6522 68.7101 122.9003 23.3159 -14.1641 -5.0765
# 4 1.5411 18.2958 23.3159 36.0497 -11.2499 1.4035
# 5 -3.4874 -6.0994 -14.1641 -11.2499 37.0072 -3.4660
# 6 -9.3685 -22.3116 -5.0765 1.4035 -3.4660 34.2845
#
#
#
# Elastic Compliance Matrix: (Units=1/GPa)
#
#
# Indices 1 2 3 4 5 6 
#
# 1 0.020484 -0.002308 -0.003168 0.002667 0.001492 0.003668
# 2 -0.002308 0.008721 -0.003854 -0.002164 -0.000490 0.004513
# 3 -0.003168 -0.003854 0.012098 -0.005047 0.002053 -0.001168
# 4 0.002667 -0.002164 -0.005047 0.034660 0.008311 -0.002005
# 5 0.001492 -0.000490 0.002053 0.008311 0.030689 0.003155
# 6 0.003668 0.004513 -0.001168 -0.002005 0.003155 0.033335
#
#
# Mechanical properties :
#
#
# Convention : Reuss Voigt Hill
#
# Bulk Modulus (GPa) = 44.16011 66.93043 55.54527
# Shear Modulus (GPa) = 30.08516 36.40539 33.24527
#
# Velocity S-wave (km/s) = 3.67141 4.03868 3.85941
# Velocity P-wave (km/s) = 6.14472 7.19271 6.68927
#
# Compressibility (1/GPa) = 0.02264487
#
# Stress axis : x y z
#
# Youngs Moduli (GPa) = 48.81819 114.66508 82.65676
#
# Poissons Ratio (x) = 0.26464 0.26184
# Poissons Ratio (y) = 0.11267 0.31852
# Poissons Ratio (z) = 0.15464 0.44187
#
# Static dielectric constant tensor:
#      x y z
#    x 4.106100 -0.157740 -0.309880 
#    y -0.157740 4.351270 -0.042360 
#    z -0.309880 -0.042360 4.071430 
# 
# 
# High freq. dielectric constant tensor:
#      x y z
#    x 1.876850 -0.011680 -0.022150 
#    y -0.011680 1.900900 -0.002890 
#    z -0.022150 -0.002890 1.872150 
# 
# From -- ./inp_files/46868.got.cif
#   From: 2010.06.25/outbox.cif.g09.slc.cpg/sg2_24_cif.got.tgz:46868.got - 2010.06.27 13:26:56.
