data_PCOD8014658
_publ_section_title
;
Structure prediction by ZEFSAII (Michael W. Deem and Ramdas Pophale) SiO2 
 PCOD8014658
Probable space group: P -1
;
_chemical_formula_sum "Si O2"
_cell_formula_units_Z 16
_cell_length_a 11.625829
_cell_length_b 7.632580
_cell_length_c 11.512299
_cell_angle_alpha 123.613120
_cell_angle_beta 108.907881
_cell_angle_gamma 57.244358
_cell_volume 715.018605
_symmetry_space_group_name_H-M "P -1"
_symmetry_group_IT_number 2
_symmetry_cell_setting 'triclinic'
loop_
_space_group_symop_operation_xyz
x,y,z
-x,-y,-z
loop_
_atom_site_type_symbol
_atom_site_label
_atom_site_fract_x
_atom_site_fract_y
_atom_site_fract_z
Si Si1 0.988579 0.603829 0.660976
Si Si2 0.468378 0.209929 0.158897
Si Si3 0.711987 0.701662 0.282247
Si Si4 0.801806 0.140241 0.765866
Si Si5 0.517251 0.227562 0.610553
Si Si6 0.363252 0.774019 0.574884
Si Si7 0.214912 0.533242 0.323044
Si Si8 0.375331 0.487036 0.013087
O O1 0.900601 0.524275 0.686055
O O2 0.000000 0.500000 0.500000
O O3 0.136590 0.506582 0.730971
O O4 0.927038 0.884704 0.732695
O O5 0.595388 0.198775 0.270319
O O6 0.340261 0.277453 0.229708
O O7 0.422283 0.437347 0.145550
O O8 0.500000 0.000000 0.000000
O O9 0.614997 0.621239 0.297021
O O10 0.706442 0.955222 0.399945
O O11 0.658268 0.706217 0.133220
O O12 0.665202 0.125326 0.679524
O O13 0.844160 0.283656 0.736912
O O14 0.765948 0.269594 0.929139
O O15 0.514266 0.362707 0.534435
O O16 0.500000 0.000000 0.500000
O O17 0.259650 0.660711 0.487612
O O18 0.500000 0.500000 0.000000
#
# Coordination Sequence:
#
# PCOD8014658 Si02
#       8
#     2   2   2   2   2   2   2   2
#     4  12  27  43  71  98 139 190 228 281 352 412
#     4  11  23  40  68 104 133 179 221 289 354 398
#     4  11  23  40  68 104 136 180 233 282 348 409
#     4  10  23  45  67  99 139 182 226 292 348 403
#     4   9  18  35  67  97 130 169 221 295 334 383
#     4  10  21  41  70 100 141 171 233 298 343 393
#     4  10  25  44  68 103 139 179 238 284 341 418
#     4  11  23  42  68  99 139 175 228 285 348 417
#
# _framework density 22.377040000000001
#
# number of rings (size 3 to 8) (size 9 to 14) (size 15 to 20)
#    0.000    1.500    2.500    2.625    7.000    3.500 
#    0.000    2.500    2.750    0.000    0.000    0.000 
#    0.000    0.000    0.000    0.000    0.000    0.000 
#
# Total GULP energy -198212.162220 kJ/mol
# GULP energy per Si atom -12388.260139 kJ/mol
# Density = 2.232611 g / cm^3
# Si number density = 22.377040 Si / 1000 Ang^3
#
#
#
# Elastic Constant Matrix: (Units=GPa)
#
#
# Indices 1 2 3 4 5 6 
#
# 1 84.6298 26.1375 27.3370 -9.5871 -18.2504 -5.6615
# 2 26.1375 74.7329 32.1912 1.0038 -8.2226 -10.1184
# 3 27.3370 32.1912 125.7644 2.6828 -2.9401 -6.8991
# 4 -9.5871 1.0038 2.6828 42.4774 0.7200 2.1856
# 5 -18.2504 -8.2226 -2.9401 0.7200 34.1032 0.2610
# 6 -5.6615 -10.1184 -6.8991 2.1856 0.2610 29.2277
#
#
#
# Elastic Compliance Matrix: (Units=1/GPa)
#
#
# Indices 1 2 3 4 5 6 
#
# 1 0.015727 -0.003615 -0.002351 0.003614 0.007259 0.000905
# 2 -0.003615 0.016853 -0.003213 -0.001272 0.001844 0.004454
# 3 -0.002351 -0.003213 0.009319 -0.001060 -0.001213 0.000722
# 4 0.003614 -0.001272 -0.001060 0.024531 0.001032 -0.001834
# 5 0.007259 0.001844 -0.001213 0.001032 0.033515 0.001382
# 6 0.000905 0.004454 0.000722 -0.001834 0.001382 0.036227
#
#
# Mechanical properties :
#
#
# Convention : Reuss Voigt Hill
#
# Bulk Modulus (GPa) = 42.48128 50.71762 46.59945
# Shear Modulus (GPa) = 30.79242 34.45910 32.62576
#
# Velocity S-wave (km/s) = 3.71357 3.92845 3.82252
# Velocity P-wave (km/s) = 6.11662 6.57961 6.35233
#
# Compressibility (1/GPa) = 0.02353978
#
# Stress axis : x y z
#
# Youngs Moduli (GPa) = 63.58300 59.33810 107.31065
#
# Poissons Ratio (x) = 0.21452 0.25229
# Poissons Ratio (y) = 0.22987 0.34481
# Poissons Ratio (z) = 0.14948 0.19067
#
# Static dielectric constant tensor:
#      x y z
#    x 4.535340 0.372450 -0.399400 
#    y 0.372450 4.620110 0.018900 
#    z -0.399400 0.018900 4.836790 
# 
# 
# High freq. dielectric constant tensor:
#      x y z
#    x 1.860120 0.016120 -0.002610 
#    y 0.016120 1.880590 0.009130 
#    z -0.002610 0.009130 1.907230 
# 
# From -- ./inp_files/418154.got.cif
#   From: 2010.06.25/outbox.cif.g09.slc.cpg/sg2_210_cif.got.tgz:418154.got - 2010.06.27 13:26:56.
