data_PCOD8014746
_publ_section_title
;
Structure prediction by ZEFSAII (Michael W. Deem and Ramdas Pophale) SiO2 
 PCOD8014746
Probable space group: P -1
;
_chemical_formula_sum "Si O2"
_cell_formula_units_Z 16
_cell_length_a 13.411602
_cell_length_b 9.291349
_cell_length_c 21.824150
_cell_angle_alpha 147.845966
_cell_angle_beta 144.844012
_cell_angle_gamma 33.336941
_cell_volume 736.696377
_symmetry_space_group_name_H-M "P -1"
_symmetry_group_IT_number 2
_symmetry_cell_setting 'triclinic'
loop_
_space_group_symop_operation_xyz
x,y,z
-x,-y,-z
loop_
_atom_site_type_symbol
_atom_site_label
_atom_site_fract_x
_atom_site_fract_y
_atom_site_fract_z
Si Si1 0.194712 0.750650 0.065250
Si Si2 0.659727 0.332894 0.688777
Si Si3 0.467099 0.350477 0.728360
Si Si4 0.563515 0.666050 0.541106
Si Si5 0.958360 0.622285 0.712654
Si Si6 0.726748 0.319489 0.057062
Si Si7 0.974937 0.304983 0.364346
Si Si8 0.889327 0.677874 0.948661
O O1 0.419894 0.548753 0.127744
O O2 0.122424 0.034615 0.178312
O O3 0.180761 0.839094 0.018828
O O4 0.061805 0.581193 0.949257
O O5 0.568072 0.294233 0.692125
O O6 0.498157 0.399329 0.579791
O O7 0.712447 0.610247 0.816839
O O8 0.868156 0.045918 0.673614
O O9 0.249180 0.633790 0.721710
O O10 0.467330 0.033063 0.634331
O O11 0.500000 0.500000 0.500000
O O12 0.801797 0.505376 0.609292
O O13 0.178665 0.458168 0.794135
O O14 0.979471 0.589434 0.639023
O O15 0.500000 0.500000 0.000000
O O16 0.783473 0.047204 0.036907
O O17 0.000000 0.500000 0.500000
O O18 0.000000 0.500000 0.000000
#
# Coordination Sequence:
#
# PCOD8014746 Si02
#       8
#     2   2   2   2   2   2   2   2
#     4  10  21  41  71  95 134 185 217 274 358 415
#     4  12  23  44  67  96 142 176 229 286 341 415
#     4  11  22  43  69  95 132 178 228 279 346 409
#     4  11  24  39  66  93 131 184 226 277 338 404
#     4  10  21  42  66  95 134 175 229 274 336 420
#     4  11  24  44  72 103 139 181 230 286 354 424
#     4  12  22  40  71  97 127 183 231 275 340 406
#     4  11  22  42  69 101 134 183 229 282 350 414
#
# _framework density 21.718581
#
# number of rings (size 3 to 8) (size 9 to 14) (size 15 to 20)
#    0.000    1.000    5.000    4.125    5.250    0.000 
#    2.250    1.875    0.000    0.000    0.000    0.000 
#    0.000    0.000    0.000    0.000    0.000    0.000 
#
# Total GULP energy -198229.132055 kJ/mol
# GULP energy per Si atom -12389.320753 kJ/mol
# Density = 2.166915 g / cm^3
# Si number density = 21.718581 Si / 1000 Ang^3
#
#
#
# Elastic Constant Matrix: (Units=GPa)
#
#
# Indices 1 2 3 4 5 6 
#
# 1 131.4464 45.8813 58.8494 -1.0170 10.6916 11.0943
# 2 45.8813 86.5428 34.2029 -21.4738 20.7040 1.8169
# 3 58.8494 34.2029 123.0690 -31.9408 22.6147 4.5559
# 4 -1.0170 -21.4738 -31.9408 35.3289 -6.8529 0.8104
# 5 10.6916 20.7040 22.6147 -6.8529 49.0722 -9.9988
# 6 11.0943 1.8169 4.5559 0.8104 -9.9988 35.8343
#
#
#
# Elastic Compliance Matrix: (Units=1/GPa)
#
#
# Indices 1 2 3 4 5 6 
#
# 1 0.013252 -0.006990 -0.007198 -0.010027 0.001535 -0.002178
# 2 -0.006990 0.018812 0.002459 0.012308 -0.006046 -0.001068
# 3 -0.007198 0.002459 0.015613 0.014476 -0.004968 -0.001595
# 4 -0.010027 0.012308 0.014476 0.047986 -0.003254 -0.001353
# 5 0.001535 -0.006046 -0.004968 -0.003254 0.026018 0.007796
# 6 -0.002178 -0.001068 -0.001595 -0.001353 0.007796 0.031043
#
#
# Mechanical properties :
#
#
# Convention : Reuss Voigt Hill
#
# Bulk Modulus (GPa) = 41.28980 68.76949 55.02964
# Shear Modulus (GPa) = 27.13649 37.52204 32.32926
#
# Velocity S-wave (km/s) = 3.53860 4.16101 3.86236
# Velocity P-wave (km/s) = 5.97898 7.40391 6.72927
#
# Compressibility (1/GPa) = 0.02421906
#
# Stress axis : x y z
#
# Youngs Moduli (GPa) = 75.46314 53.15811 64.04974
#
# Poissons Ratio (x) = 0.37159 0.46102
# Poissons Ratio (y) = 0.52751 -0.15753
# Poissons Ratio (z) = 0.54317 -0.13074
#
# Static dielectric constant tensor:
#      x y z
#    x 4.299690 -0.551890 0.213420 
#    y -0.551890 5.130930 -0.545010 
#    z 0.213420 -0.545010 4.751710 
# 
# 
# High freq. dielectric constant tensor:
#      x y z
#    x 1.861210 -0.009870 0.005950 
#    y -0.009870 1.830540 -0.043830 
#    z 0.005950 -0.043830 1.864210 
# 
# From -- ./inp_files/594259.got.cif
#   From: 2010.06.25/outbox.cif.g09.slc.cpg/sg2_298_cif.got.tgz:594259.got - 2010.06.27 13:26:56.
