data_PCOD8014167
_publ_section_title
;
Structure prediction by ZEFSAII (Michael W. Deem and Ramdas Pophale) SiO2 
 PCOD8014167
Probable space group: P -1
;
_chemical_formula_sum "Si O2"
_cell_formula_units_Z 16
_cell_length_a 23.958845
_cell_length_b 24.171029
_cell_length_c 9.127076
_cell_angle_alpha 151.250994
_cell_angle_beta 143.635701
_cell_angle_gamma 17.655935
_cell_volume 754.383796
_symmetry_space_group_name_H-M "P -1"
_symmetry_group_IT_number 2
_symmetry_cell_setting 'triclinic'
loop_
_space_group_symop_operation_xyz
x,y,z
-x,-y,-z
loop_
_atom_site_type_symbol
_atom_site_label
_atom_site_fract_x
_atom_site_fract_y
_atom_site_fract_z
Si Si1 0.479797 0.010899 0.654743
Si Si2 0.046576 0.462483 0.841790
Si Si3 0.579573 0.396746 0.271111
Si Si4 0.277390 0.858759 0.562304
Si Si5 0.704659 0.957287 0.180528
Si Si6 0.997014 0.043096 0.759920
Si Si7 0.428269 0.851396 0.346420
Si Si8 0.080526 0.186834 0.186726
O O1 0.264221 0.264041 0.826873
O O2 0.500000 0.000000 0.500000
O O3 0.545741 0.815867 0.407459
O O4 0.609553 0.972071 0.901760
O O5 0.986336 0.412290 0.500447
O O6 0.000000 0.500000 0.000000
O O7 0.923650 0.694927 0.054196
O O8 0.500000 0.500000 0.500000
O O9 0.485820 0.593256 0.427317
O O10 0.804987 0.173817 0.237286
O O11 0.498204 0.356759 0.961569
O O12 0.301221 0.908096 0.582347
O O13 0.153194 0.879398 0.297886
O O14 0.181172 0.035876 0.900141
O O15 0.590965 0.070109 0.353542
O O16 0.000000 0.000000 0.500000
O O17 0.938793 0.239904 0.076718
O O18 0.227785 0.051628 0.312773
#
# Coordination Sequence:
#
# PCOD8014167 Si02
#       8
#     2   2   2   2   2   2   2   2
#     4  11  25  44  69 101 131 167 227 276 323 393
#     4  11  23  43  69  93 131 179 214 264 344 389
#     4  11  20  38  67  87 128 173 211 270 329 376
#     4  11  23  39  60  96 129 164 220 275 314 388
#     4  12  25  43  65  95 139 171 219 271 330 398
#     4   9  18  36  60  94 117 158 217 262 317 379
#     4  10  21  41  65  93 127 173 213 268 327 390
#     4   9  18  38  63  90 122 164 221 266 315 384
#
# _framework density 21.209361000000001
#
# number of rings (size 3 to 8) (size 9 to 14) (size 15 to 20)
#    0.000    1.500    6.250    1.875    0.000    4.500 
#    0.000    2.500    0.000    0.000    0.000    0.000 
#    0.000    0.000    0.000    0.000    0.000    0.000 
#
# Total GULP energy -198212.216683 kJ/mol
# GULP energy per Si atom -12388.263543 kJ/mol
# Density = 2.116109 g / cm^3
# Si number density = 21.209361 Si / 1000 Ang^3
#
#
#
# Elastic Constant Matrix: (Units=GPa)
#
#
# Indices 1 2 3 4 5 6 
#
# 1 120.4790 23.4786 12.9985 1.1664 12.9842 10.9348
# 2 23.4786 66.9731 -9.7085 5.7712 7.1702 0.1188
# 3 12.9985 -9.7085 49.7146 3.8579 5.4615 6.3886
# 4 1.1664 5.7712 3.8579 36.9035 3.5790 11.1547
# 5 12.9842 7.1702 5.4615 3.5790 44.4058 0.7603
# 6 10.9348 0.1188 6.3886 11.1547 0.7603 31.5027
#
#
#
# Elastic Compliance Matrix: (Units=1/GPa)
#
#
# Indices 1 2 3 4 5 6 
#
# 1 0.009851 -0.003793 -0.002795 0.001806 -0.002011 -0.003429
# 2 -0.003793 0.017446 0.004686 -0.003367 -0.002039 0.001542
# 3 -0.002795 0.004686 0.022555 -0.001884 -0.002512 -0.002894
# 4 0.001806 -0.003367 -0.001884 0.031380 -0.002088 -0.011293
# 5 -0.002011 -0.002039 -0.002512 -0.002088 0.023891 0.001378
# 6 -0.003429 0.001542 -0.002894 -0.011293 0.001378 0.037480
#
#
# Mechanical properties :
#
#
# Convention : Reuss Voigt Hill
#
# Bulk Modulus (GPa) = 21.71651 32.30042 27.00846
# Shear Modulus (GPa) = 30.91071 36.58894 33.74982
#
# Velocity S-wave (km/s) = 3.82174 4.15798 3.99340
# Velocity P-wave (km/s) = 5.45304 6.18984 5.83308
#
# Compressibility (1/GPa) = 0.04604792
#
# Stress axis : x y z
#
# Youngs Moduli (GPa) = 101.50836 57.31968 44.33667
#
# Poissons Ratio (x) = 0.21741 0.12392
# Poissons Ratio (y) = 0.38501 -0.20775
# Poissons Ratio (z) = 0.28371 -0.26859
#
# Static dielectric constant tensor:
#      x y z
#    x 3.953650 -0.187900 0.513190 
#    y -0.187900 4.091430 0.102090 
#    z 0.513190 0.102090 4.646790 
# 
# 
# High freq. dielectric constant tensor:
#      x y z
#    x 1.820640 0.009060 0.021090 
#    y 0.009060 1.825210 -0.011490 
#    z 0.021090 -0.011490 1.837810 
# 
# From -- ./inp_files/355592.got.cif
#   From: 2010.06.25/outbox.cif.g09.slc.cpg/sg2_178_cif.got.tgz:355592.got - 2010.06.27 13:26:56.
