data_PCOD8014974
_publ_section_title
;
Structure prediction by ZEFSAII (Michael W. Deem and Ramdas Pophale) SiO2 
 PCOD8014974
Probable space group: P -1
;
_chemical_formula_sum "Si O2"
_cell_formula_units_Z 16
_cell_length_a 21.408901
_cell_length_b 17.970454
_cell_length_c 11.483249
_cell_angle_alpha 138.496910
_cell_angle_beta 148.666260
_cell_angle_gamma 19.281052
_cell_volume 715.092463
_symmetry_space_group_name_H-M "P -1"
_symmetry_group_IT_number 2
_symmetry_cell_setting 'triclinic'
loop_
_space_group_symop_operation_xyz
x,y,z
-x,-y,-z
loop_
_atom_site_type_symbol
_atom_site_label
_atom_site_fract_x
_atom_site_fract_y
_atom_site_fract_z
Si Si1 0.970419 0.321023 0.137168
Si Si2 0.109720 0.000423 0.092396
Si Si3 0.007789 0.216226 0.655614
Si Si4 0.327121 0.938527 0.061224
Si Si5 0.459974 0.204651 0.109586
Si Si6 0.588477 0.736205 0.625527
Si Si7 0.340479 0.161570 0.659655
Si Si8 0.694026 0.276319 0.129770
O O1 0.057834 0.360393 0.394806
O O2 0.927458 0.259714 0.094009
O O3 0.216304 0.085523 0.173974
O O4 0.708863 0.550656 0.918343
O O5 0.384519 0.808144 0.355179
O O6 0.102511 0.951625 0.896253
O O7 0.000000 0.000000 0.000000
O O8 0.859940 0.458030 0.694315
O O9 0.827366 0.258126 0.400705
O O10 0.099151 0.125825 0.825919
O O11 0.240510 0.025001 0.709918
O O12 0.428118 0.726705 0.994040
O O13 0.558830 0.821036 0.241425
O O14 0.417817 0.225145 0.203047
O O15 0.343848 0.195273 0.840834
O O16 0.530299 0.895998 0.644874
O O17 0.500000 0.500000 0.000000
#
# Coordination Sequence:
#
# PCOD8014974 Si02
#       8
#     2   2   2   2   2   2   2   2
#     4  10  21  42  64  91 131 165 214 267 312 380
#     4  10  22  40  65  92 126 169 213 263 323 372
#     4  11  23  42  66  96 129 170 210 258 325 376
#     4  10  22  41  64  95 127 168 211 262 321 376
#     4  11  23  41  65  96 127 168 212 260 322 376
#     4  11  22  44  65  93 133 166 212 268 310 379
#     4  10  23  41  67  94 126 171 215 258 320 376
#     4  11  22  41  65  94 127 163 218 263 309 382
#
# _framework density 22.374727
#
# number of rings (size 3 to 8) (size 9 to 14) (size 15 to 20)
#    0.000    1.500    2.500    2.250    0.000    4.000 
#    4.500    1.875    0.000    0.000    0.000    0.000 
#    0.000    0.000    0.000    0.000    0.000    0.000 
#
# Total GULP energy -198301.280547 kJ/mol
# GULP energy per Si atom -12393.830034 kJ/mol
# Density = 2.232380 g / cm^3
# Si number density = 22.374727 Si / 1000 Ang^3
#
#
#
# Elastic Constant Matrix: (Units=GPa)
#
#
# Indices 1 2 3 4 5 6 
#
# 1 96.5644 24.1697 32.3528 0.7910 16.0498 17.3109
# 2 24.1697 72.8463 10.9312 -5.6178 10.7857 5.6804
# 3 32.3528 10.9312 84.4843 8.6929 3.8518 4.3025
# 4 0.7910 -5.6178 8.6929 36.5682 2.9914 -7.1693
# 5 16.0498 10.7857 3.8518 2.9914 35.4453 7.3156
# 6 17.3109 5.6804 4.3025 -7.1693 7.3156 40.5615
#
#
#
# Elastic Compliance Matrix: (Units=1/GPa)
#
#
# Indices 1 2 3 4 5 6 
#
# 1 0.014124 -0.003075 -0.004578 -0.000227 -0.004030 -0.004425
# 2 -0.003075 0.015640 -0.001021 0.003091 -0.003605 0.000427
# 3 -0.004578 -0.001021 0.014043 -0.003541 0.001205 -0.000236
# 4 -0.000227 0.003091 -0.003541 0.030223 -0.004273 0.006153
# 5 -0.004030 -0.003605 0.001205 -0.004273 0.032289 -0.004482
# 6 -0.004425 0.000427 -0.000236 0.006153 -0.004482 0.028404
#
#
# Mechanical properties :
#
#
# Convention : Reuss Voigt Hill
#
# Bulk Modulus (GPa) = 37.79629 43.20026 40.49827
# Shear Modulus (GPa) = 31.07665 34.94444 33.01054
#
# Velocity S-wave (km/s) = 3.73086 3.95623 3.84519
# Velocity P-wave (km/s) = 5.95720 6.34181 6.15251
#
# Compressibility (1/GPa) = 0.02645763
#
# Stress axis : x y z
#
# Youngs Moduli (GPa) = 70.79956 63.93927 71.20786
#
# Poissons Ratio (x) = 0.19662 0.32602
# Poissons Ratio (y) = 0.21772 0.07273
# Poissons Ratio (z) = 0.32415 0.06531
#
# Static dielectric constant tensor:
#      x y z
#    x 3.162630 -0.448860 -0.852690 
#    y -0.448860 3.936550 -0.092220 
#    z -0.852690 -0.092220 3.928180 
# 
# 
# High freq. dielectric constant tensor:
#      x y z
#    x 1.874760 0.018490 -0.016110 
#    y 0.018490 1.893530 0.015910 
#    z -0.016110 0.015910 1.884830 
# 
# From -- ./inp_files/273564.got.cif
#   From: 2010.06.25/outbox.cif.g09.slc.cpg/sg2_137_cif.got.tgz:273564.got - 2010.06.27 13:26:56.
