data_PCOD8014206
_publ_section_title
;
Structure prediction by ZEFSAII (Michael W. Deem and Ramdas Pophale) SiO2 
 PCOD8014206
Probable space group: P -1
;
_chemical_formula_sum "Si O2"
_cell_formula_units_Z 16
_cell_length_a 11.721118
_cell_length_b 17.126708
_cell_length_c 8.726673
_cell_angle_alpha 146.826536
_cell_angle_beta 125.692729
_cell_angle_gamma 52.617870
_cell_volume 750.176161
_symmetry_space_group_name_H-M "P -1"
_symmetry_group_IT_number 2
_symmetry_cell_setting 'triclinic'
loop_
_space_group_symop_operation_xyz
x,y,z
-x,-y,-z
loop_
_atom_site_type_symbol
_atom_site_label
_atom_site_fract_x
_atom_site_fract_y
_atom_site_fract_z
Si Si1 0.304318 0.333648 0.551083
Si Si2 0.809523 0.330312 0.920869
Si Si3 0.097264 0.147434 0.979696
Si Si4 0.324109 0.679980 0.700099
Si Si5 0.406188 0.792850 0.268117
Si Si6 0.607419 0.647318 0.693973
Si Si7 0.230008 0.118040 0.705989
Si Si8 0.925049 0.161233 0.430532
O O1 0.423177 0.253320 0.636229
O O2 0.377935 0.347157 0.467770
O O3 0.218280 0.493491 0.809120
O O4 0.194945 0.231444 0.286855
O O5 0.667331 0.284033 0.785887
O O6 0.850644 0.274328 0.690668
O O7 0.937527 0.258701 0.022833
O O8 0.161936 0.093586 0.775696
O O9 0.088115 0.003795 0.828294
O O10 0.435476 0.692286 0.671135
O O11 0.315163 0.513532 0.443452
O O12 0.161358 0.777649 0.692462
O O13 0.383173 0.734803 0.988951
O O14 0.349469 0.969290 0.511464
O O15 0.689971 0.753099 0.016879
O O16 0.096014 0.156842 0.543275
#
# Coordination Sequence:
#
# PCOD8014206 Si02
#       8
#     2   2   2   2   2   2   2   2
#     4  11  24  38  67  93 120 161 205 254 300 353
#     4  11  20  41  65  92 121 157 208 250 300 360
#     4  10  21  41  65  96 120 156 205 253 304 357
#     4  11  26  41  60  88 129 165 200 248 306 363
#     4  12  23  40  62  94 123 159 207 252 298 361
#     4  10  24  43  61  90 125 161 202 252 302 363
#     4  10  22  42  66  91 121 158 209 252 296 364
#     4  11  22  42  66  89 123 166 195 250 313 360
#
# _framework density 21.328323999999999
#
# number of rings (size 3 to 8) (size 9 to 14) (size 15 to 20)
#    0.000    1.250    3.750    2.250    5.250    2.500 
#    0.000    0.000    0.000    0.000    0.000    0.000 
#    0.000    0.000    0.000    0.000    0.000    0.000 
#
# Total GULP energy -198489.184169 kJ/mol
# GULP energy per Si atom -12405.574011 kJ/mol
# Density = 2.127978 g / cm^3
# Si number density = 21.328324 Si / 1000 Ang^3
#
#
#
# Elastic Constant Matrix: (Units=GPa)
#
#
# Indices 1 2 3 4 5 6 
#
# 1 73.0896 -88.0861 -73.6941 56.8563 49.8292 14.6209
# 2 -88.0861 448.8214 352.5579 -118.6296 -96.7866 -74.5264
# 3 -73.6941 352.5579 414.3526 -100.4128 -92.7403 -56.2976
# 4 56.8563 -118.6296 -100.4128 81.7543 39.1215 14.0612
# 5 49.8292 -96.7866 -92.7403 39.1215 70.1806 19.1019
# 6 14.6209 -74.5264 -56.2976 14.0612 19.1019 34.2051
#
#
#
# Elastic Compliance Matrix: (Units=1/GPa)
#
#
# Indices 1 2 3 4 5 6 
#
# 1 0.044430 -0.001027 -0.002421 -0.024455 -0.021702 -0.003042
# 2 -0.001027 0.009699 -0.005480 0.005964 0.000932 0.009580
# 3 -0.002421 -0.005480 0.007754 0.001615 0.003754 -0.000902
# 4 -0.024455 0.005964 0.001615 0.035819 0.005493 0.008314
# 5 -0.021702 0.000932 0.003754 0.005493 0.033840 -0.003671
# 6 -0.003042 0.009580 -0.000902 0.008314 -0.003671 0.048557
#
#
# Mechanical properties :
#
#
# Convention : Reuss Voigt Hill
#
# Bulk Modulus (GPa) = 22.71267 146.42432 84.56850
# Shear Modulus (GPa) = 23.51496 86.92707 55.22102
#
# Velocity S-wave (km/s) = 3.32403 6.39102 5.09383
# Velocity P-wave (km/s) = 5.04028 11.10233 8.62166
#
# Compressibility (1/GPa) = 0.04402829
#
# Stress axis : x y z
#
# Youngs Moduli (GPa) = 22.50720 103.10351 128.95964
#
# Poissons Ratio (x) = 0.10592 0.31217
# Poissons Ratio (y) = 0.02312 0.70665
# Poissons Ratio (z) = 0.05448 0.56497
#
# Static dielectric constant tensor:
#      x y z
#    x 3.767890 -0.224910 0.034010 
#    y -0.224910 3.846500 0.041690 
#    z 0.034010 0.041690 3.955580 
# 
# 
# High freq. dielectric constant tensor:
#      x y z
#    x 1.823570 -0.015400 0.004750 
#    y -0.015400 1.840410 0.003380 
#    z 0.004750 0.003380 1.853190 
# 
# From -- ./inp_files/182525.got.cif
#   From: 2010.06.25/outbox.cif.g09.slc.cpg/sg2_92_cif.got.tgz:182525.got - 2010.06.27 13:26:56.
