data_PCOD8014668
_publ_section_title
;
Structure prediction by ZEFSAII (Michael W. Deem and Ramdas Pophale) SiO2 
 PCOD8014668
Probable space group: P -1
;
_chemical_formula_sum "Si O2"
_cell_formula_units_Z 14
_cell_length_a 8.158000
_cell_length_b 9.793096
_cell_length_c 14.162447
_cell_angle_alpha 59.554259
_cell_angle_beta 62.091031
_cell_angle_gamma 110.108090
_cell_volume 557.607987
_symmetry_space_group_name_H-M "P -1"
_symmetry_group_IT_number 2
_symmetry_cell_setting 'triclinic'
loop_
_space_group_symop_operation_xyz
x,y,z
-x,-y,-z
loop_
_atom_site_type_symbol
_atom_site_label
_atom_site_fract_x
_atom_site_fract_y
_atom_site_fract_z
Si Si1 0.369784 0.190290 0.069430
Si Si2 0.116508 0.700053 0.244748
Si Si3 0.484689 0.665699 0.405337
Si Si4 0.928911 0.069431 0.577850
Si Si5 0.365733 0.900979 0.737552
Si Si6 0.532065 0.375970 0.775645
Si Si7 0.053001 0.549794 0.114592
O O1 0.307121 0.975351 0.120401
O O2 0.153225 0.083835 0.251493
O O3 0.341044 0.294802 0.950206
O O4 0.691722 0.409001 0.947675
O O5 0.317204 0.682560 0.207991
O O6 0.988350 0.615500 0.201457
O O7 0.852990 0.518052 0.452432
O O8 0.500000 0.500000 0.500000
O O9 0.641289 0.770722 0.223071
O O10 0.616292 0.895699 0.351301
O O11 0.234508 0.346089 0.416868
O O12 0.679657 0.032344 0.630176
O O13 0.000000 0.000000 0.500000
O O14 0.233281 0.735730 0.736404
O O15 0.146347 0.726124 0.943325
#
# Coordination Sequence:
#
# PCOD8014668 Si02
#       7
#     2   2   2   2   2   2   2
#     4  10  21  41  70 103 133 177 243 280 336 421
#     4  11  20  41  70  99 133 180 232 283 338 418
#     4  12  25  41  67 105 139 182 231 285 350 416
#     4  11  23  41  70 104 136 179 235 284 342 416
#     4  10  21  44  66 100 147 176 224 290 354 414
#     4  11  21  43  69  96 131 183 228 286 341 401
#     4   9  20  38  71 102 132 184 225 286 359 410
#
# _framework density 25.107244999999999
#
# number of rings (size 3 to 8) (size 9 to 14) (size 15 to 20)
#    0.000    1.429    2.857    4.714    0.000    2.286 
#    5.143    7.143    0.000    0.000    0.000    0.000 
#    0.000    0.000    0.000    0.000    0.000    0.000 
#
# Total GULP energy -173434.158248 kJ/mol
# GULP energy per Si atom -12388.154161 kJ/mol
# Density = 2.505010 g / cm^3
# Si number density = 25.107245 Si / 1000 Ang^3
#
#
#
# Elastic Constant Matrix: (Units=GPa)
#
#
# Indices 1 2 3 4 5 6 
#
# 1 41.3484 34.2401 18.2264 -1.2093 13.1721 0.1780
# 2 34.2401 132.6311 36.8299 12.1697 12.3392 1.6526
# 3 18.2264 36.8299 119.2368 21.9156 14.5215 -7.7445
# 4 -1.2093 12.1697 21.9156 55.6359 9.2585 1.9266
# 5 13.1721 12.3392 14.5215 9.2585 17.8308 6.1359
# 6 0.1780 1.6526 -7.7445 1.9266 6.1359 27.6311
#
#
#
# Elastic Compliance Matrix: (Units=1/GPa)
#
#
# Indices 1 2 3 4 5 6 
#
# 1 0.041428 -0.008383 -0.001155 0.007987 -0.030085 0.006035
# 2 -0.008383 0.010221 -0.001865 -0.001994 0.002163 -0.001421
# 3 -0.001155 -0.001865 0.010824 -0.002912 -0.006836 0.004874
# 4 0.007987 -0.001994 -0.002912 0.022008 -0.013849 0.000792
# 5 -0.030085 0.002163 -0.006836 -0.013849 0.097310 -0.022495
# 6 0.006035 -0.001421 0.004874 0.000792 -0.022495 0.042543
#
#
# Mechanical properties :
#
#
# Convention : Reuss Voigt Hill
#
# Bulk Modulus (GPa) = 25.21061 52.42322 38.81691
# Shear Modulus (GPa) = 19.20401 33.81424 26.50913
#
# Velocity S-wave (km/s) = 2.76865 3.67385 3.25289
# Velocity P-wave (km/s) = 4.50372 6.23869 5.44081
#
# Compressibility (1/GPa) = 0.03966584
#
# Stress axis : x y z
#
# Youngs Moduli (GPa) = 24.13845 97.83540 92.39092
#
# Poissons Ratio (x) = 0.82018 0.10673
# Poissons Ratio (y) = 0.20236 0.17230
# Poissons Ratio (z) = 0.02788 0.18245
#
# Static dielectric constant tensor:
#      x y z
#    x 3.836530 -0.516930 0.888010 
#    y -0.516930 2.595350 2.469170 
#    z 0.888010 2.469170 3.948440 
# 
# 
# High freq. dielectric constant tensor:
#      x y z
#    x 1.953680 0.015230 0.003110 
#    y 0.015230 2.012760 0.009220 
#    z 0.003110 0.009220 2.021340 
# 
# From -- ./inp_files/500022.got.cif
#   From: 2010.06.25/outbox.cif.g09.slc.cpg/sg2_251_cif.got.tgz:500022.got - 2010.06.27 13:26:56.
