data_PCOD8014870
_publ_section_title
;
Structure prediction by ZEFSAII (Michael W. Deem and Ramdas Pophale) SiO2 
 PCOD8014870
Probable space group: P -1
;
_chemical_formula_sum "Si O2"
_cell_formula_units_Z 16
_cell_length_a 10.170943
_cell_length_b 18.954772
_cell_length_c 11.110970
_cell_angle_alpha 136.532146
_cell_angle_beta 105.469609
_cell_angle_gamma 39.786103
_cell_volume 707.655490
_symmetry_space_group_name_H-M "P -1"
_symmetry_group_IT_number 2
_symmetry_cell_setting 'triclinic'
loop_
_space_group_symop_operation_xyz
x,y,z
-x,-y,-z
loop_
_atom_site_type_symbol
_atom_site_label
_atom_site_fract_x
_atom_site_fract_y
_atom_site_fract_z
Si Si1 0.332461 0.199375 0.563469
Si Si2 0.774342 0.509291 0.177780
Si Si3 0.863927 0.168562 0.013745
Si Si4 0.136802 0.877684 0.504530
Si Si5 0.186801 0.571174 0.655525
Si Si6 0.096828 0.186137 0.653076
Si Si7 0.372276 0.829776 0.881917
Si Si8 0.351695 0.068607 0.169821
O O1 0.189002 0.402041 0.760074
O O2 0.116297 0.262156 0.650247
O O3 0.427261 0.096153 0.329062
O O4 0.597164 0.043817 0.518119
O O5 0.461389 0.678188 0.327544
O O6 0.917686 0.413103 0.225825
O O7 0.923468 0.334120 0.908610
O O8 0.724616 0.370625 0.214215
O O9 0.631417 0.238462 0.083719
O O10 0.018380 0.033997 0.765543
O O11 0.071912 0.041854 0.017869
O O12 0.053688 0.815216 0.441363
O O13 0.000000 0.000000 0.500000
O O14 0.445292 0.338983 0.386107
O O15 0.968873 0.713106 0.670160
O O16 0.462095 0.885140 0.011375
O O17 0.500000 0.000000 0.000000
#
# Coordination Sequence:
#
# PCOD8014870 Si02
#       8
#     2   2   2   2   2   2   2   2
#     4  11  25  46  66  94 135 173 218 266 320 384
#     4  12  24  43  70  95 132 168 220 269 322 386
#     4  10  22  40  64  93 130 163 207 261 325 378
#     4  12  23  43  68  97 129 170 216 269 326 379
#     4  11  23  40  68  97 126 169 212 261 324 385
#     4  11  25  45  68  95 130 176 217 268 322 378
#     4  10  21  42  62  92 129 166 205 263 317 384
#     4  11  24  40  66  94 130 167 214 263 317 382
#
# _framework density 22.609871999999999
#
# number of rings (size 3 to 8) (size 9 to 14) (size 15 to 20)
#    0.000    1.000    2.500    4.125    1.750    3.000 
#    4.500    0.000    0.000    0.000    0.000    0.000 
#    0.000    0.000    0.000    0.000    0.000    0.000 
#
# Total GULP energy -198426.130943 kJ/mol
# GULP energy per Si atom -12401.633184 kJ/mol
# Density = 2.255841 g / cm^3
# Si number density = 22.609872 Si / 1000 Ang^3
#
#
#
# Elastic Constant Matrix: (Units=GPa)
#
#
# Indices 1 2 3 4 5 6 
#
# 1 106.5439 12.1751 -1.2260 13.0414 12.9999 12.1956
# 2 12.1751 55.6621 -3.5005 -1.8732 4.0211 13.0282
# 3 -1.2260 -3.5005 74.4760 4.4376 5.1470 -1.4946
# 4 13.0414 -1.8732 4.4376 26.2004 13.1669 5.6910
# 5 12.9999 4.0211 5.1470 13.1669 39.6968 -2.4094
# 6 12.1956 13.0282 -1.4946 5.6910 -2.4094 31.6878
#
#
#
# Elastic Compliance Matrix: (Units=1/GPa)
#
#
# Indices 1 2 3 4 5 6 
#
# 1 0.010642 -0.001563 0.000423 -0.003659 -0.002347 -0.002954
# 2 -0.001563 0.021127 0.000697 0.006481 -0.004448 -0.009554
# 3 0.000423 0.000697 0.013681 -0.001908 -0.001323 0.000438
# 4 -0.003659 0.006481 -0.001908 0.052022 -0.017194 -0.011997
# 5 -0.002347 -0.004448 -0.001323 -0.017194 0.032785 0.008250
# 6 -0.002954 -0.009554 0.000438 -0.011997 0.008250 0.039425
#
#
# Mechanical properties :
#
#
# Convention : Reuss Voigt Hill
#
# Bulk Modulus (GPa) = 22.44076 27.95325 25.19701
# Shear Modulus (GPa) = 26.96528 34.79921 30.88225
#
# Velocity S-wave (km/s) = 3.45720 3.92741 3.69978
# Velocity P-wave (km/s) = 5.08754 5.74075 5.42399
#
# Compressibility (1/GPa) = 0.04456177
#
# Stress axis : x y z
#
# Youngs Moduli (GPa) = 93.96970 47.33305 73.09527
#
# Poissons Ratio (x) = 0.07399 -0.03089
# Poissons Ratio (y) = 0.14689 -0.05093
# Poissons Ratio (z) = -0.03972 -0.03298
#
# Static dielectric constant tensor:
#      x y z
#    x 4.534360 0.162270 0.200420 
#    y 0.162270 4.319160 0.085770 
#    z 0.200420 0.085770 3.999800 
# 
# 
# High freq. dielectric constant tensor:
#      x y z
#    x 1.901830 0.015850 0.007730 
#    y 0.015850 1.883660 -0.003140 
#    z 0.007730 -0.003140 1.897840 
# 
# From -- ./inp_files/70883.got.cif
#   From: 2010.06.25/outbox.cif.g09.slc.cpg/sg2_36_cif.got.tgz:70883.got - 2010.06.27 13:26:56.
