data_PCOD8014920
_publ_section_title
;
Structure prediction by ZEFSAII (Michael W. Deem and Ramdas Pophale) SiO2 
 PCOD8014920
Probable space group: P -1
;
_chemical_formula_sum "Si O2"
_cell_formula_units_Z 14
_cell_length_a 17.512777
_cell_length_b 9.129090
_cell_length_c 14.590341
_cell_angle_alpha 46.866551
_cell_angle_beta 23.216557
_cell_angle_gamma 50.361389
_cell_volume 670.675533
_symmetry_space_group_name_H-M "P -1"
_symmetry_group_IT_number 2
_symmetry_cell_setting 'triclinic'
loop_
_space_group_symop_operation_xyz
x,y,z
-x,-y,-z
loop_
_atom_site_type_symbol
_atom_site_label
_atom_site_fract_x
_atom_site_fract_y
_atom_site_fract_z
Si Si1 0.027760 0.534285 0.849159
Si Si2 0.910010 0.932933 0.723378
Si Si3 0.210828 0.755862 0.868783
Si Si4 0.835886 0.848033 0.356625
Si Si5 0.615698 0.797307 0.977692
Si Si6 0.927584 0.726736 0.504955
Si Si7 0.404105 0.400452 0.401261
O O1 0.224638 0.406904 0.666224
O O2 0.042106 0.766905 0.703774
O O3 0.000000 0.500000 0.000000
O O4 0.845853 0.447233 0.032386
O O5 0.708925 0.831941 0.961071
O O6 0.000000 0.000000 0.500000
O O7 0.894464 0.132993 0.719184
O O8 0.420306 0.733134 0.693808
O O9 0.222835 0.928450 0.705874
O O10 0.054317 0.799519 0.102363
O O11 0.829279 0.828861 0.481118
O O12 0.675280 0.697669 0.561735
O O13 0.463162 0.624723 0.220497
O O14 0.772904 0.733447 0.754647
O O15 0.500000 0.000000 0.000000
O O16 0.000000 0.500000 0.500000
#
# Coordination Sequence:
#
# PCOD8014920 Si02
#       7
#     2   2   2   2   2   2   2
#     4  11  23  41  68  95 130 176 225 276 329 400
#     4  10  22  43  67  92 135 179 213 269 344 394
#     4  10  21  42  63  94 130 174 219 271 343 393
#     4  10  23  40  64  94 136 169 215 284 334 389
#     4  11  24  43  66  98 135 177 222 275 336 402
#     4  11  24  41  68  97 131 176 228 270 329 399
#     4  11  22  40  68  92 130 176 222 268 340 399
#
# _framework density 20.874476000000001
#
# number of rings (size 3 to 8) (size 9 to 14) (size 15 to 20)
#    0.000    1.429    1.429    3.857    8.000    1.143 
#    5.143    0.000    0.000    0.000    0.000    0.000 
#    0.000    0.000    0.000    0.000    0.000    0.000 
#
# Total GULP energy -173541.607219 kJ/mol
# GULP energy per Si atom -12395.829087 kJ/mol
# Density = 2.082696 g / cm^3
# Si number density = 20.874476 Si / 1000 Ang^3
#
#
#
# Elastic Constant Matrix: (Units=GPa)
#
#
# Indices 1 2 3 4 5 6 
#
# 1 141.2133 59.2427 51.4477 -4.7599 -7.7374 4.4435
# 2 59.2427 145.6501 31.9049 -12.3899 -12.1567 4.0935
# 3 51.4477 31.9049 73.6009 -7.8990 -20.5420 9.6816
# 4 -4.7599 -12.3899 -7.8990 40.3774 -2.5812 -5.4257
# 5 -7.7374 -12.1567 -20.5420 -2.5812 32.3998 -2.3873
# 6 4.4435 4.0935 9.6816 -5.4257 -2.3873 43.7502
#
#
#
# Elastic Compliance Matrix: (Units=1/GPa)
#
#
# Indices 1 2 3 4 5 6 
#
# 1 0.010857 -0.003212 -0.007326 -0.001287 -0.003324 0.000478
# 2 -0.003212 0.008700 -0.000652 0.002318 0.002274 0.000068
# 3 -0.007326 -0.000652 0.023444 0.003922 0.012947 -0.003190
# 4 -0.001287 0.002318 0.003922 0.026795 0.005380 0.002663
# 5 -0.003324 0.002274 0.012947 0.005380 0.039567 0.000086
# 6 0.000478 0.000068 -0.003190 0.002663 0.000086 0.023843
#
#
# Mechanical properties :
#
#
# Convention : Reuss Voigt Hill
#
# Bulk Modulus (GPa) = 48.49042 71.73943 60.11492
# Shear Modulus (GPa) = 30.77673 37.83010 34.30342
#
# Velocity S-wave (km/s) = 3.84392 4.26169 4.05818
# Velocity P-wave (km/s) = 6.55598 7.65883 7.12877
#
# Compressibility (1/GPa) = 0.02062263
#
# Stress axis : x y z
#
# Youngs Moduli (GPa) = 92.10303 114.94267 42.65405
#
# Poissons Ratio (x) = 0.36918 0.31248
# Poissons Ratio (y) = 0.29582 0.02780
# Poissons Ratio (z) = 0.67475 0.07492
#
# Static dielectric constant tensor:
#      x y z
#    x 3.300380 0.164160 0.016770 
#    y 0.164160 4.112850 -0.029510 
#    z 0.016770 -0.029510 4.034670 
# 
# 
# High freq. dielectric constant tensor:
#      x y z
#    x 1.826700 0.000320 -0.012020 
#    y 0.000320 1.833470 -0.019340 
#    z -0.012020 -0.019340 1.802750 
# 
# From -- ./inp_files/134822.got.cif
#   From: 2010.06.25/outbox.cif.g09.slc.cpg/sg2_68_cif.got.tgz:134822.got - 2010.06.27 13:26:56.
