data_PCOD8014114
_publ_section_title
;
Structure prediction by ZEFSAII (Michael W. Deem and Ramdas Pophale) SiO2 
 PCOD8014114
Probable space group: P -1
;
_chemical_formula_sum "Si O2"
_cell_formula_units_Z 16
_cell_length_a 11.508539
_cell_length_b 9.156781
_cell_length_c 17.026478
_cell_angle_alpha 37.557468
_cell_angle_beta 44.537954
_cell_angle_gamma 47.433967
_cell_volume 740.616876
_symmetry_space_group_name_H-M "P -1"
_symmetry_group_IT_number 2
_symmetry_cell_setting 'triclinic'
loop_
_space_group_symop_operation_xyz
x,y,z
-x,-y,-z
loop_
_atom_site_type_symbol
_atom_site_label
_atom_site_fract_x
_atom_site_fract_y
_atom_site_fract_z
Si Si1 0.106890 0.212680 0.158250
Si Si2 0.673139 0.724819 0.832695
Si Si3 0.720240 0.180139 0.026799
Si Si4 0.816868 0.721579 0.079778
Si Si5 0.735032 0.858845 0.301106
Si Si6 0.917018 0.787067 0.403813
Si Si7 0.342280 0.003570 0.437824
Si Si8 0.673507 0.496889 0.372450
O O1 0.240524 0.161793 0.186601
O O2 0.969940 0.475851 0.126950
O O3 0.210522 0.235832 0.017992
O O4 0.031995 0.971872 0.292960
O O5 0.474953 0.762959 0.935053
O O6 0.688443 0.864162 0.686493
O O7 0.773326 0.437498 0.891239
O O8 0.844721 0.975388 0.997310
O O9 0.738377 0.092562 0.145732
O O10 0.652994 0.668507 0.229443
O O11 0.868089 0.842606 0.313382
O O12 0.789836 0.605631 0.330796
O O13 0.541322 0.898580 0.409114
O O14 0.745840 0.826309 0.521209
O O15 0.000000 0.500000 0.500000
O O16 0.243490 0.784610 0.572770
O O17 0.500000 0.500000 0.500000
#
# Coordination Sequence:
#
# PCOD8014114 Si02
#       8
#     2   2   2   2   2   2   2   2
#     4  11  26  42  61  94 135 169 209 262 323 391
#     4  10  23  41  65  98 128 163 211 271 319 370
#     4   9  21  43  68  93 120 165 219 261 312 378
#     4  10  22  43  64  96 124 173 213 255 319 383
#     4   9  21  41  67  89 118 165 220 267 310 378
#     4  12  27  42  58  94 133 169 209 263 328 383
#     4  10  21  41  65  89 122 167 219 265 317 372
#     4   9  18  39  68  93 115 158 222 263 304 372
#
# _framework density 21.603611999999998
#
# number of rings (size 3 to 8) (size 9 to 14) (size 15 to 20)
#    0.000    2.000    1.250    1.125    7.000    3.500 
#    0.000    0.000    0.000    0.000    0.000    0.000 
#    0.000    0.000    0.000    0.000    0.000    0.000 
#
# Total GULP energy -198263.728644 kJ/mol
# GULP energy per Si atom -12391.483040 kJ/mol
# Density = 2.155444 g / cm^3
# Si number density = 21.603612 Si / 1000 Ang^3
#
#
#
# Elastic Constant Matrix: (Units=GPa)
#
#
# Indices 1 2 3 4 5 6 
#
# 1 123.7781 32.7638 42.4129 -16.4646 13.5474 18.3533
# 2 32.7638 124.9860 34.5618 -17.2447 0.7929 16.1296
# 3 42.4129 34.5618 92.0278 -4.0828 3.9171 10.5084
# 4 -16.4646 -17.2447 -4.0828 42.4016 5.4673 -0.9713
# 5 13.5474 0.7929 3.9171 5.4673 25.4509 -3.1259
# 6 18.3533 16.1296 10.5084 -0.9713 -3.1259 24.2312
#
#
#
# Elastic Compliance Matrix: (Units=1/GPa)
#
#
# Indices 1 2 3 4 5 6 
#
# 1 0.012328 -0.000289 -0.004066 0.005126 -0.008037 -0.008213
# 2 -0.000289 0.010060 -0.002829 0.003737 -0.001172 -0.005252
# 3 -0.004066 -0.002829 0.013846 -0.001460 0.000304 -0.001061
# 4 0.005126 0.003737 -0.001460 0.028027 -0.009356 -0.005821
# 5 -0.008037 -0.001172 0.000304 -0.009356 0.047096 0.012436
# 6 -0.008213 -0.005252 -0.001061 -0.005821 0.012436 0.052817
#
#
# Mechanical properties :
#
#
# Convention : Reuss Voigt Hill
#
# Bulk Modulus (GPa) = 45.73431 62.25209 53.99320
# Shear Modulus (GPa) = 26.90615 33.82030 30.36322
#
# Velocity S-wave (km/s) = 3.53292 3.96092 3.75303
# Velocity P-wave (km/s) = 6.15286 7.05668 6.62021
#
# Compressibility (1/GPa) = 0.02186542
#
# Stress axis : x y z
#
# Youngs Moduli (GPa) = 81.11639 99.40394 72.22277
#
# Poissons Ratio (x) = 0.02875 0.29363
# Poissons Ratio (y) = 0.02346 0.20435
# Poissons Ratio (z) = 0.32979 0.28126
#
# Static dielectric constant tensor:
#      x y z
#    x 3.609700 0.256810 -0.068750 
#    y 0.256810 4.341600 -0.113880 
#    z -0.068750 -0.113880 4.104870 
# 
# 
# High freq. dielectric constant tensor:
#      x y z
#    x 1.816570 0.018670 0.000610 
#    y 0.018670 1.862300 -0.002430 
#    z 0.000610 -0.002430 1.864230 
# 
# From -- ./inp_files/514879.got.cif
#   From: 2010.06.25/outbox.cif.g09.slc.cpg/sg2_258_cif.got.tgz:514879.got - 2010.06.27 13:26:56.
