data_PCOD8014550
_publ_section_title
;
Structure prediction by ZEFSAII (Michael W. Deem and Ramdas Pophale) SiO2 
 PCOD8014550
Probable space group: P -1
;
_chemical_formula_sum "Si O2"
_cell_formula_units_Z 16
_cell_length_a 12.581936
_cell_length_b 9.101282
_cell_length_c 9.394159
_cell_angle_alpha 96.469382
_cell_angle_beta 46.070134
_cell_angle_gamma 93.503576
_cell_volume 769.585733
_symmetry_space_group_name_H-M "P -1"
_symmetry_group_IT_number 2
_symmetry_cell_setting 'triclinic'
loop_
_space_group_symop_operation_xyz
x,y,z
-x,-y,-z
loop_
_atom_site_type_symbol
_atom_site_label
_atom_site_fract_x
_atom_site_fract_y
_atom_site_fract_z
Si Si1 0.845050 0.587522 0.144266
Si Si2 0.154982 0.579202 0.360443
Si Si3 0.657370 0.058711 0.048374
Si Si4 0.670782 0.921310 0.710749
Si Si5 0.075209 0.901399 0.539751
Si Si6 0.333068 0.597992 0.923924
Si Si7 0.896517 0.900429 0.986092
Si Si8 0.321544 0.402995 0.406249
O O1 0.737808 0.481430 0.150659
O O2 0.865443 0.746402 0.072504
O O3 0.762127 0.618940 0.371429
O O4 0.000000 0.500000 0.000000
O O5 0.130413 0.753532 0.394834
O O6 0.243357 0.540633 0.416737
O O7 0.000000 0.500000 0.500000
O O8 0.259036 0.529323 0.126311
O O9 0.481613 0.045732 0.226842
O O10 0.704072 0.228176 0.026375
O O11 0.741117 0.981207 0.095591
O O12 0.692221 0.986434 0.855665
O O13 0.701410 0.746632 0.678469
O O14 0.789771 0.004172 0.512475
O O15 0.000000 0.000000 0.500000
O O16 0.972948 0.862845 0.761627
O O17 0.506335 0.562042 0.743684
O O18 0.000000 0.000000 0.000000
#
# Coordination Sequence:
#
# PCOD8014550 Si02
#       8
#     2   2   2   2   2   2   2   2
#     4  12  26  46  64  93 137 178 218 269 331 400
#     4  12  24  39  63 100 128 169 219 272 328 387
#     4  10  22  42  67  98 130 173 209 280 325 393
#     4  10  21  41  68  95 134 163 221 266 338 378
#     4  12  22  40  65  96 129 172 220 273 327 390
#     4  11  23  44  68  95 131 170 221 270 336 388
#     4  12  25  42  66  97 132 176 224 266 331 397
#     4  11  25  43  67  95 131 176 218 273 329 392
#
# _framework density 20.790406000000001
#
# number of rings (size 3 to 8) (size 9 to 14) (size 15 to 20)
#    0.000    0.750    2.500    5.250    1.750    1.000 
#    0.000    6.875    0.000    0.000    0.000    0.000 
#    0.000    0.000    0.000    0.000    0.000    0.000 
#
# Total GULP energy -198373.203124 kJ/mol
# GULP energy per Si atom -12398.325195 kJ/mol
# Density = 2.074309 g / cm^3
# Si number density = 20.790406 Si / 1000 Ang^3
#
#
#
# Elastic Constant Matrix: (Units=GPa)
#
#
# Indices 1 2 3 4 5 6 
#
# 1 149.5188 87.2848 48.0098 -2.1624 -11.9132 -10.2662
# 2 87.2848 138.4457 39.8695 -2.9632 -11.8753 -1.0881
# 3 48.0098 39.8695 116.5807 -10.3493 -20.0811 -18.9218
# 4 -2.1624 -2.9632 -10.3493 34.6857 8.0032 4.9864
# 5 -11.9132 -11.8753 -20.0811 8.0032 31.9635 -7.4288
# 6 -10.2662 -1.0881 -18.9218 4.9864 -7.4288 39.9980
#
#
#
# Elastic Compliance Matrix: (Units=1/GPa)
#
#
# Indices 1 2 3 4 5 6 
#
# 1 0.011341 -0.006474 -0.001959 -0.001061 0.001366 0.002194
# 2 -0.006474 0.011792 -0.001604 0.000331 0.000397 -0.002067
# 3 -0.001959 -0.001604 0.012441 0.000668 0.007885 0.006720
# 4 -0.001061 0.000331 0.000668 0.031912 -0.009151 -0.005626
# 5 0.001366 0.000397 0.007885 -0.009151 0.042226 0.013075
# 6 0.002194 -0.002067 0.006720 -0.005626 0.013075 0.031817
#
#
# Mechanical properties :
#
#
# Convention : Reuss Voigt Hill
#
# Bulk Modulus (GPa) = 64.52056 83.87482 74.19769
# Shear Modulus (GPa) = 29.98149 36.62150 33.30150
#
# Velocity S-wave (km/s) = 3.80160 4.20153 4.00656
# Velocity P-wave (km/s) = 7.09723 7.99799 7.56103
#
# Compressibility (1/GPa) = 0.01549894
#
# Stress axis : x y z
#
# Youngs Moduli (GPa) = 88.17862 84.80668 80.37717
#
# Poissons Ratio (x) = 0.54904 0.15745
# Poissons Ratio (y) = 0.57086 0.12896
# Poissons Ratio (z) = 0.17274 0.13606
#
# Static dielectric constant tensor:
#      x y z
#    x 3.856190 0.077370 -0.188080 
#    y 0.077370 3.892480 -0.027830 
#    z -0.188080 -0.027830 4.001590 
# 
# 
# High freq. dielectric constant tensor:
#      x y z
#    x 1.820950 0.006790 -0.014830 
#    y 0.006790 1.827750 -0.001230 
#    z -0.014830 -0.001230 1.823440 
# 
# From -- ./inp_files/243531.got.cif
#   From: 2010.06.25/outbox.cif.g09.slc.cpg/sg2_122_cif.got.tgz:243531.got - 2010.06.27 13:26:56.
