data_PCOD8014001
_publ_section_title
;
Structure prediction by ZEFSAII (Michael W. Deem and Ramdas Pophale) SiO2 
 PCOD8014001
Probable space group: P -1
;
_chemical_formula_sum "Si O2"
_cell_formula_units_Z 10
_cell_length_a 11.092675
_cell_length_b 12.817653
_cell_length_c 9.743597
_cell_angle_alpha 146.229766
_cell_angle_beta 39.105220
_cell_angle_gamma 145.941966
_cell_volume 413.959620
_symmetry_space_group_name_H-M "P -1"
_symmetry_group_IT_number 2
_symmetry_cell_setting 'triclinic'
loop_
_space_group_symop_operation_xyz
x,y,z
-x,-y,-z
loop_
_atom_site_type_symbol
_atom_site_label
_atom_site_fract_x
_atom_site_fract_y
_atom_site_fract_z
Si Si1 0.976651 0.771944 0.231006
Si Si2 0.403385 0.268226 0.610499
Si Si3 0.746422 0.322292 0.561132
Si Si4 0.320583 0.647934 0.805372
Si Si5 0.441740 0.888163 0.227174
O O1 0.802689 0.689650 0.163368
O O2 0.873675 0.601708 0.263022
O O3 0.000000 0.000000 0.500000
O O4 0.205436 0.782839 0.997005
O O5 0.584737 0.396536 0.712385
O O6 0.519956 0.353439 0.452165
O O7 0.306583 0.004831 0.422297
O O8 0.703972 0.296470 0.732582
O O9 0.000000 0.500000 0.500000
O O10 0.679816 0.082404 0.292991
O O11 0.469860 0.765538 0.938463
#
# Coordination Sequence:
#
# PCOD8014001 Si02
#       5
#     2   2   2   2   2
#     4  11  23  37  62  98 129 159 211 261 320 374
#     4  10  21  41  64  90 128 165 210 259 314 377
#     4   9  20  36  67  86 126 178 201 254 329 361
#     4  11  23  39  67  94 125 164 208 267 316 367
#     4   9  20  39  62  93 127 164 211 263 309 376
#
# _framework density 24.156943999999999
#
# number of rings (size 3 to 8) (size 9 to 14) (size 15 to 20)
#    1.200    0.800    2.000    1.200    5.600    0.000 
#    0.000    1.000    0.000    3.600    0.000    0.000 
#    0.000    0.000    0.000    0.000    0.000    0.000 
#
# Total GULP energy -123882.281633 kJ/mol
# GULP energy per Si atom -12388.228163 kJ/mol
# Density = 2.410196 g / cm^3
# Si number density = 24.156944 Si / 1000 Ang^3
#
#
#
# Elastic Constant Matrix: (Units=GPa)
#
#
# Indices 1 2 3 4 5 6 
#
# 1 111.2494 25.9196 23.2645 -13.7151 -5.8400 -4.4057
# 2 25.9196 114.1604 17.0545 0.4605 14.8481 1.3514
# 3 23.2645 17.0545 46.8168 7.0081 -3.3202 1.8412
# 4 -13.7151 0.4605 7.0081 33.8022 -9.0834 4.6182
# 5 -5.8400 14.8481 -3.3202 -9.0834 26.2969 -10.9335
# 6 -4.4057 1.3514 1.8412 4.6182 -10.9335 37.2082
#
#
#
# Elastic Compliance Matrix: (Units=1/GPa)
#
#
# Indices 1 2 3 4 5 6 
#
# 1 0.012434 -0.003037 -0.005835 0.007961 0.007811 0.003178
# 2 -0.003037 0.011148 -0.002664 -0.002996 -0.009624 -0.003089
# 3 -0.005835 -0.002664 0.026433 -0.007539 0.000615 -0.000786
# 4 0.007961 -0.002996 -0.007539 0.038642 0.016465 0.001466
# 5 0.007811 -0.009624 0.000615 0.016465 0.057675 0.016148
# 6 0.003178 -0.003089 -0.000786 0.001466 0.016148 0.031966
#
#
# Mechanical properties :
#
#
# Convention : Reuss Voigt Hill
#
# Bulk Modulus (GPa) = 37.11717 44.96710 41.04213
# Shear Modulus (GPa) = 23.76977 33.19397 28.48187
#
# Velocity S-wave (km/s) = 3.14024 3.71090 3.43743
# Velocity P-wave (km/s) = 5.34289 6.08408 5.72549
#
# Compressibility (1/GPa) = 0.02694171
#
# Stress axis : x y z
#
# Youngs Moduli (GPa) = 80.42476 89.70570 37.83131
#
# Poissons Ratio (x) = 0.27243 0.22075
# Poissons Ratio (y) = 0.24425 0.10079
# Poissons Ratio (z) = 0.46930 0.23900
#
# Static dielectric constant tensor:
#      x y z
#    x 4.894790 -0.039210 -0.050560 
#    y -0.039210 4.330320 0.136140 
#    z -0.050560 0.136140 3.812210 
# 
# 
# High freq. dielectric constant tensor:
#      x y z
#    x 1.969840 -0.007780 0.008100 
#    y -0.007780 1.964400 0.017730 
#    z 0.008100 0.017730 1.914780 
# 
# From -- ./inp_files/250920.got.cif
#   From: 2010.06.25/outbox.cif.g09.slc.cpg/sg2_126_cif.got.tgz:250920.got - 2010.06.27 13:26:56.
