data_PCOD8014639
_publ_section_title
;
Structure prediction by ZEFSAII (Michael W. Deem and Ramdas Pophale) SiO2 
 PCOD8014639
Probable space group: P -1
;
_chemical_formula_sum "Si O2"
_cell_formula_units_Z 12
_cell_length_a 8.926242
_cell_length_b 11.958234
_cell_length_c 9.197462
_cell_angle_alpha 140.935373
_cell_angle_beta 99.471106
_cell_angle_gamma 71.171798
_cell_volume 579.470261
_symmetry_space_group_name_H-M "P -1"
_symmetry_group_IT_number 2
_symmetry_cell_setting 'triclinic'
loop_
_space_group_symop_operation_xyz
x,y,z
-x,-y,-z
loop_
_atom_site_type_symbol
_atom_site_label
_atom_site_fract_x
_atom_site_fract_y
_atom_site_fract_z
Si Si1 0.051484 0.587800 0.870617
Si Si2 0.718735 0.759621 0.562353
Si Si3 0.679522 0.893336 0.387496
Si Si4 0.343722 0.818793 0.553466
Si Si5 0.124754 0.064760 0.993470
Si Si6 0.789455 0.486619 0.879956
O O1 0.186082 0.461820 0.655354
O O2 0.919948 0.482697 0.773214
O O3 0.125055 0.619667 0.069185
O O4 0.972917 0.788716 0.992143
O O5 0.768305 0.850436 0.514701
O O6 0.529967 0.794323 0.577333
O O7 0.771766 0.844111 0.797578
O O8 0.500000 0.000000 0.500000
O O9 0.742178 0.026147 0.426435
O O10 0.689203 0.700485 0.113877
O O11 0.330249 0.618203 0.305079
O O12 0.250084 0.886911 0.757055
O O13 0.000000 0.000000 0.000000
#
# Coordination Sequence:
#
# PCOD8014639 Si02
#       6
#     2   2   2   2   2   2
#     4  10  22  42  65  93 132 166 212 272 304 387
#     4  10  23  42  63  95 131 167 214 264 319 377
#     4   9  20  39  65  95 127 162 210 269 305 375
#     4  11  23  42  69  93 129 171 213 265 316 378
#     4  12  25  42  63  95 133 174 211 256 325 384
#     4  10  21  41  69  97 124 166 219 261 323 363
#
# _framework density 20.708570000000002
#
# number of rings (size 3 to 8) (size 9 to 14) (size 15 to 20)
#    0.000    1.667    1.667    2.000    2.333    6.667 
#    3.000    1.667    0.000    0.000    0.000    0.000 
#    0.000    0.000    0.000    0.000    0.000    0.000 
#
# Total GULP energy -148784.217349 kJ/mol
# GULP energy per Si atom -12398.684779 kJ/mol
# Density = 2.066144 g / cm^3
# Si number density = 20.708570 Si / 1000 Ang^3
#
#
#
# Elastic Constant Matrix: (Units=GPa)
#
#
# Indices 1 2 3 4 5 6 
#
# 1 119.5767 41.9673 50.4798 1.6028 -8.8500 4.6255
# 2 41.9673 68.2875 44.5819 8.2519 -4.6342 -2.7009
# 3 50.4798 44.5819 112.8193 10.0681 -15.9835 4.7912
# 4 1.6028 8.2519 10.0681 25.4187 0.5457 -6.6654
# 5 -8.8500 -4.6342 -15.9835 0.5457 36.7188 1.4379
# 6 4.6255 -2.7009 4.7912 -6.6654 1.4379 26.7510
#
#
#
# Elastic Compliance Matrix: (Units=1/GPa)
#
#
# Indices 1 2 3 4 5 6 
#
# 1 0.011642 -0.005383 -0.003054 0.001783 0.000833 -0.001610
# 2 -0.005383 0.022740 -0.006624 -0.003437 -0.001402 0.003632
# 3 -0.003054 -0.006624 0.014088 -0.004393 0.004783 -0.004015
# 4 0.001783 -0.003437 -0.004393 0.045179 -0.003040 0.011552
# 5 0.000833 -0.001402 0.004783 -0.003040 0.029522 -0.003487
# 6 -0.001610 0.003632 -0.004015 0.011552 -0.003487 0.041812
#
#
# Mechanical properties :
#
#
# Convention : Reuss Voigt Hill
#
# Bulk Modulus (GPa) = 54.50296 63.86018 59.18157
# Shear Modulus (GPa) = 24.84839 28.68800 26.76819
#
# Velocity S-wave (km/s) = 3.46773 3.72603 3.59920
# Velocity P-wave (km/s) = 6.51227 7.02962 6.77588
#
# Compressibility (1/GPa) = 0.01834763
#
# Stress axis : x y z
#
# Youngs Moduli (GPa) = 85.89880 43.97470 70.98258
#
# Poissons Ratio (x) = 0.23672 0.21681
# Poissons Ratio (y) = 0.46240 0.47016
# Poissons Ratio (z) = 0.26237 0.29127
#
# Static dielectric constant tensor:
#      x y z
#    x 3.713310 0.188970 -0.280640 
#    y 0.188970 4.618500 -0.143890 
#    z -0.280640 -0.143890 3.716690 
# 
# 
# High freq. dielectric constant tensor:
#      x y z
#    x 1.805100 -0.001360 -0.022530 
#    y -0.001360 1.811420 0.001360 
#    z -0.022530 0.001360 1.815960 
# 
# From -- ./inp_files/60807.got.cif
#   From: 2010.06.25/outbox.cif.g09.slc.cpg/sg2_31_cif.got.tgz:60807.got - 2010.06.27 13:26:56.
