data_PCOD8014155
_publ_section_title
;
Structure prediction by ZEFSAII (Michael W. Deem and Ramdas Pophale) SiO2 
 PCOD8014155
Probable space group: P -1
;
_chemical_formula_sum "Si O2"
_cell_formula_units_Z 12
_cell_length_a 5.361481
_cell_length_b 11.596865
_cell_length_c 10.259690
_cell_angle_alpha 76.640331
_cell_angle_beta 87.221222
_cell_angle_gamma 121.258406
_cell_volume 519.565469
_symmetry_space_group_name_H-M "P -1"
_symmetry_group_IT_number 2
_symmetry_cell_setting 'triclinic'
loop_
_space_group_symop_operation_xyz
x,y,z
-x,-y,-z
loop_
_atom_site_type_symbol
_atom_site_label
_atom_site_fract_x
_atom_site_fract_y
_atom_site_fract_z
Si Si1 0.324578 0.804930 0.674544
Si Si2 0.973958 0.780329 0.329689
Si Si3 0.642882 0.924182 0.380756
Si Si4 0.377677 0.392991 0.832402
Si Si5 0.335515 0.616059 0.920500
Si Si6 0.145196 0.441666 0.420115
O O1 0.603317 0.882702 0.546440
O O2 0.400439 0.762534 0.821596
O O3 0.068714 0.656583 0.663194
O O4 0.206377 0.907277 0.679110
O O5 0.865657 0.888376 0.317856
O O6 0.938456 0.728070 0.192555
O O7 0.767091 0.647555 0.467573
O O8 0.317373 0.848716 0.341255
O O9 0.414494 0.540200 0.828312
O O10 0.590580 0.423226 0.695995
O O11 0.448310 0.333689 0.973146
O O12 0.000000 0.500000 0.000000
O O13 0.000000 0.500000 0.500000
#
# Coordination Sequence:
#
# PCOD8014155 Si02
#       6
#     2   2   2   2   2   2
#     4  10  21  41  65  92 129 166 219 263 318 390
#     4  11  23  41  64  95 129 165 216 267 324 382
#     4  10  24  41  67  93 126 174 215 269 319 376
#     4  11  23  38  64  95 129 169 214 266 332 386
#     4  11  23  40  63  94 129 172 211 265 328 387
#     4  11  21  38  69 101 130 164 210 280 334 374
#
# _framework density 23.096222999999998
#
# number of rings (size 3 to 8) (size 9 to 14) (size 15 to 20)
#    0.000    1.333    1.667    4.500    2.333    7.333 
#    0.000    1.667    0.000    0.000    0.000    0.000 
#    0.000    0.000    0.000    0.000    0.000    0.000 
#
# Total GULP energy -148759.654776 kJ/mol
# GULP energy per Si atom -12396.637898 kJ/mol
# Density = 2.304366 g / cm^3
# Si number density = 23.096223 Si / 1000 Ang^3
#
#
#
# Elastic Constant Matrix: (Units=GPa)
#
#
# Indices 1 2 3 4 5 6 
#
# 1 92.1633 27.8780 43.5367 2.3562 12.2537 -23.0050
# 2 27.8780 87.9397 43.4093 3.8624 19.7335 -16.5193
# 3 43.5367 43.4093 111.9138 2.3790 25.7875 -7.7634
# 4 2.3562 3.8624 2.3790 38.9461 -5.6421 6.1231
# 5 12.2537 19.7335 25.7875 -5.6421 39.1309 -0.4387
# 6 -23.0050 -16.5193 -7.7634 6.1231 -0.4387 31.3742
#
#
#
# Elastic Compliance Matrix: (Units=1/GPa)
#
#
# Indices 1 2 3 4 5 6 
#
# 1 0.016405 0.000007 -0.005065 -0.002759 -0.002074 0.011289
# 2 0.000007 0.016575 -0.004437 -0.003516 -0.005851 0.008238
# 3 -0.005065 -0.004437 0.013667 -0.000435 -0.005276 -0.002657
# 4 -0.002759 -0.003516 -0.000435 0.028719 0.006958 -0.009489
# 5 -0.002074 -0.005851 -0.005276 0.006958 0.033559 -0.006796
# 6 0.011289 0.008238 -0.002657 -0.009489 -0.006796 0.045588
#
#
# Mechanical properties :
#
#
# Convention : Reuss Voigt Hill
#
# Bulk Modulus (GPa) = 36.15802 57.96277 47.06039
# Shear Modulus (GPa) = 27.36403 33.70310 30.53357
#
# Velocity S-wave (km/s) = 3.44580 3.82415 3.63990
# Velocity P-wave (km/s) = 5.61434 6.68203 6.17132
#
# Compressibility (1/GPa) = 0.02765638
#
# Stress axis : x y z
#
# Youngs Moduli (GPa) = 60.95759 60.33358 73.16674
#
# Poissons Ratio (x) = -0.00040 0.37057
# Poissons Ratio (y) = -0.00041 0.32465
# Poissons Ratio (z) = 0.30874 0.26771
#
# Static dielectric constant tensor:
#      x y z
#    x 4.228290 -0.058980 0.233910 
#    y -0.058980 4.373260 0.116940 
#    z 0.233910 0.116940 4.279910 
# 
# 
# High freq. dielectric constant tensor:
#      x y z
#    x 1.908890 -0.005370 0.022570 
#    y -0.005370 1.913230 0.016440 
#    z 0.022570 0.016440 1.901410 
# 
# From -- ./inp_files/36129.got.cif
#   From: 2010.06.25/outbox.cif.g09.slc.cpg/sg2_19_cif.got.tgz:36129.got - 2010.06.27 13:26:56.
