data_PCOD8014936
_publ_section_title
;
Structure prediction by ZEFSAII (Michael W. Deem and Ramdas Pophale) SiO2 
 PCOD8014936
Probable space group: P -1
;
_chemical_formula_sum "Si O2"
_cell_formula_units_Z 16
_cell_length_a 8.577235
_cell_length_b 8.246765
_cell_length_c 10.816511
_cell_angle_alpha 90.104598
_cell_angle_beta 106.233592
_cell_angle_gamma 99.989603
_cell_volume 722.433153
_symmetry_space_group_name_H-M "P -1"
_symmetry_group_IT_number 2
_symmetry_cell_setting 'triclinic'
loop_
_space_group_symop_operation_xyz
x,y,z
-x,-y,-z
loop_
_atom_site_type_symbol
_atom_site_label
_atom_site_fract_x
_atom_site_fract_y
_atom_site_fract_z
Si Si1 0.504909 0.483470 0.300312
Si Si2 0.694310 0.050017 0.020149
Si Si3 0.235366 0.249319 0.096177
Si Si4 0.922967 0.362026 0.079076
Si Si5 0.243990 0.018082 0.464761
Si Si6 0.428106 0.727646 0.472048
Si Si7 0.214015 0.387504 0.820686
Si Si8 0.890917 0.958478 0.297109
O O1 0.370417 0.336214 0.219960
O O2 0.421159 0.628132 0.341438
O O3 0.611617 0.405785 0.426419
O O4 0.615910 0.560937 0.212351
O O5 0.796029 0.032683 0.167341
O O6 0.752229 0.242941 0.995572
O O7 0.744051 0.939434 0.919655
O O8 0.500000 0.000000 0.000000
O O9 0.059036 0.245544 0.124097
O O10 0.256013 0.342074 0.969475
O O11 0.884652 0.458487 0.195103
O O12 0.000000 0.500000 0.000000
O O13 0.389417 0.167495 0.464063
O O14 0.209780 0.016577 0.602688
O O15 0.292469 0.843837 0.437588
O O16 0.082253 0.045235 0.352642
O O17 0.105749 0.234202 0.726242
#
# Coordination Sequence:
#
# PCOD8014936 Si02
#       8
#     2   2   2   2   2   2   2   2
#     4  11  22  41  64 100 133 175 217 282 333 398
#     4  11  24  43  70 104 133 177 220 271 342 411
#     4  10  23  40  66  97 136 172 217 272 331 409
#     4  10  23  42  63  99 136 170 217 269 335 395
#     4  10  22  46  62  95 126 182 226 278 325 394
#     4  10  24  41  66  95 132 170 233 275 335 379
#     4  10  21  42  63  97 134 172 218 268 342 403
#     4  10  23  41  70  91 133 174 227 271 329 400
#
# _framework density 22.147378
#
# number of rings (size 3 to 8) (size 9 to 14) (size 15 to 20)
#    0.000    1.750    1.250    1.500    7.000    3.000 
#    0.000    0.625    0.000    0.000    0.000    0.000 
#    0.000    0.000    0.000    0.000    0.000    0.000 
#
# Total GULP energy -198367.979582 kJ/mol
# GULP energy per Si atom -12397.998724 kJ/mol
# Density = 2.209697 g / cm^3
# Si number density = 22.147378 Si / 1000 Ang^3
#
#
#
# Elastic Constant Matrix: (Units=GPa)
#
#
# Indices 1 2 3 4 5 6 
#
# 1 102.7050 40.0236 48.9254 7.8623 -11.8795 -4.4848
# 2 40.0236 117.6677 30.6774 24.8170 -10.7402 -1.6495
# 3 48.9254 30.6774 89.5506 21.2120 -5.7625 -8.0448
# 4 7.8623 24.8170 21.2120 30.1786 -6.4672 -4.0809
# 5 -11.8795 -10.7402 -5.7625 -6.4672 34.2591 14.8657
# 6 -4.4848 -1.6495 -8.0448 -4.0809 14.8657 41.3137
#
#
#
# Elastic Compliance Matrix: (Units=1/GPa)
#
#
# Indices 1 2 3 4 5 6 
#
# 1 0.015102 -0.003857 -0.008101 0.005689 0.004189 -0.001037
# 2 -0.003857 0.011690 0.000105 -0.008579 0.001260 -0.001232
# 3 -0.008101 0.000105 0.018224 -0.011059 -0.002944 0.002640
# 4 0.005689 -0.008579 -0.011059 0.047893 0.006193 0.000624
# 5 0.004189 0.001260 -0.002944 0.006193 0.037299 -0.012877
# 6 -0.001037 -0.001232 0.002640 0.000624 -0.012877 0.029253
#
#
# Mechanical properties :
#
#
# Convention : Reuss Voigt Hill
#
# Bulk Modulus (GPa) = 46.92427 61.01959 53.97193
# Shear Modulus (GPa) = 26.27830 33.83673 30.05752
#
# Velocity S-wave (km/s) = 3.44833 3.91295 3.68796
# Velocity P-wave (km/s) = 6.08998 6.93010 6.52358
#
# Compressibility (1/GPa) = 0.02131093
#
# Stress axis : x y z
#
# Youngs Moduli (GPa) = 66.21452 85.54238 54.87220
#
# Poissons Ratio (x) = 0.32993 0.44452
# Poissons Ratio (y) = 0.25538 -0.00576
# Poissons Ratio (z) = 0.53640 -0.00898
#
# Static dielectric constant tensor:
#      x y z
#    x 4.380430 -0.251650 -0.250090 
#    y -0.251650 4.367880 0.322940 
#    z -0.250090 0.322940 3.786610 
# 
# 
# High freq. dielectric constant tensor:
#      x y z
#    x 1.880210 -0.001060 -0.018160 
#    y -0.001060 1.884460 0.017610 
#    z -0.018160 0.017610 1.856150 
# 
# From -- ./inp_files/376128.got.cif
#   From: 2010.06.25/outbox.cif.g09.slc.cpg/sg2_189_cif.got.tgz:376128.got - 2010.06.27 13:26:56.
