data_PCOD8014178
_publ_section_title
;
Structure prediction by ZEFSAII (Michael W. Deem and Ramdas Pophale) SiO2 
 PCOD8014178
Probable space group: P -1
;
_chemical_formula_sum "Si O2"
_cell_formula_units_Z 14
_cell_length_a 11.863647
_cell_length_b 8.590948
_cell_length_c 17.287730
_cell_angle_alpha 73.735257
_cell_angle_beta 158.260484
_cell_angle_gamma 104.902575
_cell_volume 626.468901
_symmetry_space_group_name_H-M "P -1"
_symmetry_group_IT_number 2
_symmetry_cell_setting 'triclinic'
loop_
_space_group_symop_operation_xyz
x,y,z
-x,-y,-z
loop_
_atom_site_type_symbol
_atom_site_label
_atom_site_fract_x
_atom_site_fract_y
_atom_site_fract_z
Si Si1 0.682027 0.205889 0.300250
Si Si2 0.296837 0.606591 0.411491
Si Si3 0.124404 0.367165 0.989931
Si Si4 0.721073 0.017244 0.027906
Si Si5 0.102309 0.285560 0.158401
Si Si6 0.825520 0.816985 0.265807
Si Si7 0.830307 0.481519 0.250148
O O1 0.476234 0.332109 0.200680
O O2 0.480171 0.066298 0.154150
O O3 0.860733 0.306488 0.334327
O O4 0.924988 0.117138 0.523723
O O5 0.500000 0.500000 0.500000
O O6 0.530585 0.713738 0.595691
O O7 0.096631 0.491939 0.355050
O O8 0.072203 0.708096 0.196692
O O9 0.028027 0.283230 0.020142
O O10 0.068663 0.560782 0.932815
O O11 0.512789 0.136392 0.930012
O O12 0.881963 0.885761 0.205483
O O13 0.983860 0.120052 0.141731
O O14 0.865250 0.623528 0.315637
O O15 0.500000 0.500000 0.000000
#
# Coordination Sequence:
#
# PCOD8014178 Si02
#       7
#     2   2   2   2   2   2   2
#     4  12  24  42  69  97 129 171 228 267 330 382
#     4  10  22  38  64  97 129 166 209 268 326 380
#     4  10  21  41  65  94 126 168 221 274 310 390
#     4  11  25  43  63  96 136 174 215 274 324 401
#     4  10  23  41  65  94 132 171 215 263 338 386
#     4  11  25  42  66  96 131 174 222 270 331 379
#     4  12  22  43  72  97 129 169 224 277 318 383
#
# _framework density 22.347477999999999
#
# number of rings (size 3 to 8) (size 9 to 14) (size 15 to 20)
#    0.000    1.143    2.857    2.571    2.000    5.143 
#    0.000    5.000    0.000    0.000    0.000    0.000 
#    0.000    0.000    0.000    0.000    0.000    0.000 
#
# Total GULP energy -173629.610155 kJ/mol
# GULP energy per Si atom -12402.115011 kJ/mol
# Density = 2.229661 g / cm^3
# Si number density = 22.347478 Si / 1000 Ang^3
#
#
#
# Elastic Constant Matrix: (Units=GPa)
#
#
# Indices 1 2 3 4 5 6 
#
# 1 102.7343 29.2278 41.4469 20.5902 -0.3193 18.3222
# 2 29.2278 75.6045 27.5736 23.8087 0.6380 23.3303
# 3 41.4469 27.5736 121.3319 17.4380 -14.5198 24.0932
# 4 20.5902 23.8087 17.4380 32.1942 1.2564 7.3153
# 5 -0.3193 0.6380 -14.5198 1.2564 50.8336 -0.1940
# 6 18.3222 23.3303 24.0932 7.3153 -0.1940 32.1976
#
#
#
# Elastic Compliance Matrix: (Units=1/GPa)
#
#
# Indices 1 2 3 4 5 6 
#
# 1 0.012795 -0.001446 -0.002811 -0.004881 -0.000595 -0.003024
# 2 -0.001446 0.021263 -0.000323 -0.011980 -0.000116 -0.011622
# 3 -0.002811 -0.000323 0.011247 -0.002837 0.003246 -0.005918
# 4 -0.004881 -0.011980 -0.002837 0.043827 -0.001760 0.003613
# 5 -0.000595 -0.000116 0.003246 -0.001760 0.020635 -0.001482
# 6 -0.003024 -0.011622 -0.005918 0.003613 -0.001482 0.044799
#
#
# Mechanical properties :
#
#
# Convention : Reuss Voigt Hill
#
# Bulk Modulus (GPa) = 27.66582 55.12972 41.39777
# Shear Modulus (GPa) = 28.44539 36.47324 32.45931
#
# Velocity S-wave (km/s) = 3.57160 4.04430 3.81528
# Velocity P-wave (km/s) = 5.42357 6.82139 6.16225
#
# Compressibility (1/GPa) = 0.03614569
#
# Stress axis : x y z
#
# Youngs Moduli (GPa) = 78.15435 47.02935 88.91218
#
# Poissons Ratio (x) = 0.06799 0.24997
# Poissons Ratio (y) = 0.11299 0.02869
# Poissons Ratio (z) = 0.21973 0.01518
#
# Static dielectric constant tensor:
#      x y z
#    x 4.198610 -0.020770 -0.187880 
#    y -0.020770 3.725500 0.006400 
#    z -0.187880 0.006400 4.582180 
# 
# 
# High freq. dielectric constant tensor:
#      x y z
#    x 1.895920 -0.004020 -0.006780 
#    y -0.004020 1.851400 -0.000700 
#    z -0.006780 -0.000700 1.891510 
# 
# From -- ./inp_files/189481.got.cif
#   From: 2010.06.25/outbox.cif.g09.slc.cpg/sg2_95_cif.got.tgz:189481.got - 2010.06.27 13:26:56.
