data_PCOD8014819
_publ_section_title
;
Structure prediction by ZEFSAII (Michael W. Deem and Ramdas Pophale) SiO2 
 PCOD8014819
Probable space group: P -1
;
_chemical_formula_sum "Si O2"
_cell_formula_units_Z 14
_cell_length_a 12.654983
_cell_length_b 13.784548
_cell_length_c 10.482518
_cell_angle_alpha 69.550721
_cell_angle_beta 144.787236
_cell_angle_gamma 134.675427
_cell_volume 626.745756
_symmetry_space_group_name_H-M "P -1"
_symmetry_group_IT_number 2
_symmetry_cell_setting 'triclinic'
loop_
_space_group_symop_operation_xyz
x,y,z
-x,-y,-z
loop_
_atom_site_type_symbol
_atom_site_label
_atom_site_fract_x
_atom_site_fract_y
_atom_site_fract_z
Si Si1 0.952572 0.484909 0.107298
Si Si2 0.372053 0.461430 0.251919
Si Si3 0.198538 0.763969 0.763028
Si Si4 0.149710 0.967825 0.732953
Si Si5 0.993285 0.118342 0.083257
Si Si6 0.551779 0.787297 0.685298
Si Si7 0.617925 0.480940 0.235665
O O1 0.227603 0.652914 0.375227
O O2 0.863226 0.330476 0.128407
O O3 0.000000 0.500000 0.000000
O O4 0.685293 0.445324 0.884982
O O5 0.500000 0.500000 0.500000
O O6 0.066550 0.265639 0.038462
O O7 0.591818 0.517587 0.335737
O O8 0.149858 0.865127 0.692187
O O9 0.964368 0.624050 0.489971
O O10 0.513160 0.868287 0.975296
O O11 0.982426 0.876248 0.742091
O O12 0.000000 0.000000 0.500000
O O13 0.240100 0.150614 0.255877
O O14 0.675654 0.946876 0.796802
O O15 0.550325 0.701843 0.839327
O O16 0.500000 0.500000 0.000000
#
# Coordination Sequence:
#
# PCOD8014819 Si02
#       7
#     2   2   2   2   2   2   2
#     4  11  22  39  67  92 128 166 219 276 316 390
#     4  11  23  40  66  96 125 175 219 265 328 385
#     4  10  25  43  59 103 126 164 227 260 327 394
#     4  11  25  41  67  92 130 175 210 273 325 385
#     4  10  21  42  60  90 131 162 218 260 320 392
#     4   9  22  40  62  94 125 170 211 269 327 379
#     4  10  22  41  66  92 132 170 214 271 326 393
#
# _framework density 22.337606000000001
#
# number of rings (size 3 to 8) (size 9 to 14) (size 15 to 20)
#    0.000    1.714    0.000    4.286    8.000    1.714 
#    0.000    2.857    0.000    0.000    0.000    0.000 
#    0.000    0.000    0.000    0.000    0.000    0.000 
#
# Total GULP energy -173490.609625 kJ/mol
# GULP energy per Si atom -12392.186402 kJ/mol
# Density = 2.228676 g / cm^3
# Si number density = 22.337606 Si / 1000 Ang^3
#
#
#
# Elastic Constant Matrix: (Units=GPa)
#
#
# Indices 1 2 3 4 5 6 
#
# 1 47.9667 15.7355 16.3646 -5.8485 -0.2250 4.6084
# 2 15.7355 108.3958 53.6453 -8.4813 7.7877 -0.8295
# 3 16.3646 53.6453 106.6260 -6.5211 6.2661 5.9253
# 4 -5.8485 -8.4813 -6.5211 43.3818 1.9016 0.7930
# 5 -0.2250 7.7877 6.2661 1.9016 31.9892 -5.5723
# 6 4.6084 -0.8295 5.9253 0.7930 -5.5723 37.5222
#
#
#
# Elastic Compliance Matrix: (Units=1/GPa)
#
#
# Indices 1 2 3 4 5 6 
#
# 1 0.022812 -0.002098 -0.002195 0.002357 0.000530 -0.002472
# 2 -0.002098 0.012724 -0.005954 0.001368 -0.001822 0.001180
# 3 -0.002195 -0.005954 0.012956 0.000593 -0.001513 -0.002145
# 4 0.002357 0.001368 0.000593 0.023837 -0.002052 -0.001161
# 5 0.000530 -0.001822 -0.001513 -0.002052 0.033011 0.005079
# 6 -0.002472 0.001180 -0.002145 -0.001161 0.005079 0.028098
#
#
# Mechanical properties :
#
#
# Convention : Reuss Voigt Hill
#
# Bulk Modulus (GPa) = 35.71840 48.27549 41.99695
# Shear Modulus (GPa) = 30.62510 34.39484 32.50997
#
# Velocity S-wave (km/s) = 3.70673 3.92825 3.81910
# Velocity P-wave (km/s) = 5.86044 6.49873 6.18782
#
# Compressibility (1/GPa) = 0.02799678
#
# Stress axis : x y z
#
# Youngs Moduli (GPa) = 43.83585 78.59303 77.18647
#
# Poissons Ratio (x) = 0.16486 0.16946
# Poissons Ratio (y) = 0.09195 0.45960
# Poissons Ratio (z) = 0.09624 0.46798
#
# Static dielectric constant tensor:
#      x y z
#    x 3.801550 0.231120 0.016070 
#    y 0.231120 4.028540 0.491100 
#    z 0.016070 0.491100 3.917180 
# 
# 
# High freq. dielectric constant tensor:
#      x y z
#    x 1.864570 0.005000 0.004930 
#    y 0.005000 1.895060 0.013630 
#    z 0.004930 0.013630 1.878260 
# 
# From -- ./inp_files/455653.got.cif
#   From: 2010.06.25/outbox.cif.g09.slc.cpg/sg2_228_cif.got.tgz:455653.got - 2010.06.27 13:26:56.
