data_PCOD8014313
_publ_section_title
;
Structure prediction by ZEFSAII (Michael W. Deem and Ramdas Pophale) SiO2 
 PCOD8014313
Probable space group: P -1
;
_chemical_formula_sum "Si O2"
_cell_formula_units_Z 16
_cell_length_a 12.431209
_cell_length_b 11.814852
_cell_length_c 11.926731
_cell_angle_alpha 88.742262
_cell_angle_beta 61.813643
_cell_angle_gamma 141.094803
_cell_volume 688.987732
_symmetry_space_group_name_H-M "P -1"
_symmetry_group_IT_number 2
_symmetry_cell_setting 'triclinic'
loop_
_space_group_symop_operation_xyz
x,y,z
-x,-y,-z
loop_
_atom_site_type_symbol
_atom_site_label
_atom_site_fract_x
_atom_site_fract_y
_atom_site_fract_z
Si Si1 0.863315 0.085931 0.044228
Si Si2 0.958948 0.096120 0.554265
Si Si3 0.139686 0.295208 0.127295
Si Si4 0.332729 0.012079 0.481589
Si Si5 0.717358 0.836627 0.902357
Si Si6 0.280943 0.579496 0.383227
Si Si7 0.006502 0.479636 0.338173
Si Si8 0.039229 0.467355 0.866372
O O1 0.114596 0.273056 0.003171
O O2 0.592413 0.858779 0.260657
O O3 0.903328 0.233581 0.952425
O O4 0.814887 0.951014 0.976286
O O5 0.225438 0.398133 0.399868
O O6 0.000000 0.000000 0.500000
O O7 0.720136 0.953691 0.601313
O O8 0.882685 0.043242 0.723211
O O9 0.192308 0.217319 0.155497
O O10 0.394133 0.583015 0.038609
O O11 0.854935 0.105170 0.319709
O O12 0.653728 0.289833 0.338401
O O13 0.263470 0.822199 0.501996
O O14 0.064293 0.455355 0.577983
O O15 0.254373 0.622186 0.275652
O O16 0.106476 0.580494 0.158613
O O17 0.000000 0.500000 0.000000
#
# Coordination Sequence:
#
# PCOD8014313 Si02
#       8
#     2   2   2   2   2   2   2   2
#     4  12  25  43  66 103 138 180 235 285 340 411
#     4  11  22  42  68 100 137 185 230 282 347 415
#     4  11  24  44  69  98 140 183 228 286 343 407
#     4  11  22  42  69  99 137 187 228 281 353 409
#     4  11  24  43  69  99 137 183 230 282 344 406
#     4  10  23  41  67  97 136 176 230 287 343 407
#     4  10  21  41  66  95 131 181 228 284 348 406
#     4  12  25  41  66 101 142 181 231 287 345 409
#
# _framework density 23.222474999999999
#
# number of rings (size 3 to 8) (size 9 to 14) (size 15 to 20)
#    0.000    1.000    1.250    6.000    1.750    1.500 
#    2.250    1.250    0.000    0.000    0.000    0.000 
#    0.000    0.000    0.000    0.000    0.000    0.000 
#
# Total GULP energy -198328.734650 kJ/mol
# GULP energy per Si atom -12395.545916 kJ/mol
# Density = 2.316962 g / cm^3
# Si number density = 23.222475 Si / 1000 Ang^3
#
#
#
# Elastic Constant Matrix: (Units=GPa)
#
#
# Indices 1 2 3 4 5 6 
#
# 1 99.8424 37.4777 31.7898 4.8262 26.1059 -4.3267
# 2 37.4777 114.9534 28.9233 6.2155 2.5533 4.8477
# 3 31.7898 28.9233 88.0212 7.6847 4.4119 4.2317
# 4 4.8262 6.2155 7.6847 41.9245 7.2843 13.1505
# 5 26.1059 2.5533 4.4119 7.2843 38.9493 7.0826
# 6 -4.3267 4.8477 4.2317 13.1505 7.0826 47.9349
#
#
#
# Elastic Compliance Matrix: (Units=1/GPa)
#
#
# Indices 1 2 3 4 5 6 
#
# 1 0.015712 -0.004045 -0.004012 0.000199 -0.010518 0.003681
# 2 -0.004045 0.010566 -0.002010 -0.000739 0.002647 -0.001445
# 3 -0.004012 -0.002010 0.013582 -0.001679 0.001808 -0.001165
# 4 0.000199 -0.000739 -0.001679 0.026968 -0.003738 -0.006605
# 5 -0.010518 0.002647 0.001808 -0.003738 0.034023 -0.005378
# 6 0.003681 -0.001445 -0.001165 -0.006605 -0.005378 0.024050
#
#
# Mechanical properties :
#
#
# Convention : Reuss Voigt Hill
#
# Bulk Modulus (GPa) = 50.69626 55.46650 53.08138
# Shear Modulus (GPa) = 32.97946 39.40348 36.19147
#
# Velocity S-wave (km/s) = 3.77258 4.12367 3.95203
# Velocity P-wave (km/s) = 6.39176 6.82712 6.61302
#
# Compressibility (1/GPa) = 0.01972532
#
# Stress axis : x y z
#
# Youngs Moduli (GPa) = 63.64653 94.64549 73.62540
#
# Poissons Ratio (x) = 0.38287 0.29542
# Poissons Ratio (y) = 0.25747 0.14795
# Poissons Ratio (z) = 0.25538 0.19019
#
# Static dielectric constant tensor:
#      x y z
#    x 4.334140 -0.062250 0.220430 
#    y -0.062250 4.283680 -0.010390 
#    z 0.220430 -0.010390 3.977500 
# 
# 
# High freq. dielectric constant tensor:
#      x y z
#    x 1.924180 0.000300 0.016890 
#    y 0.000300 1.925390 0.008900 
#    z 0.016890 0.008900 1.907760 
# 
# From -- ./inp_files/428139.got.cif
#   From: 2010.06.25/outbox.cif.g09.slc.cpg/sg2_215_cif.got.tgz:428139.got - 2010.06.27 13:26:56.
