data_PCOD8014425
_publ_section_title
;
Structure prediction by ZEFSAII (Michael W. Deem and Ramdas Pophale) SiO2 
 PCOD8014425
Probable space group: P -1
;
_chemical_formula_sum "Si O2"
_cell_formula_units_Z 16
_cell_length_a 11.989794
_cell_length_b 14.415599
_cell_length_c 9.481035
_cell_angle_alpha 57.557531
_cell_angle_beta 55.129179
_cell_angle_gamma 103.407130
_cell_volume 713.074375
_symmetry_space_group_name_H-M "P -1"
_symmetry_group_IT_number 2
_symmetry_cell_setting 'triclinic'
loop_
_space_group_symop_operation_xyz
x,y,z
-x,-y,-z
loop_
_atom_site_type_symbol
_atom_site_label
_atom_site_fract_x
_atom_site_fract_y
_atom_site_fract_z
Si Si1 0.386878 0.771334 0.156781
Si Si2 0.502107 0.157945 0.289885
Si Si3 0.227029 0.776773 0.743886
Si Si4 0.260570 0.482230 0.652431
Si Si5 0.508546 0.473683 0.304706
Si Si6 0.183293 0.135639 0.640406
Si Si7 0.900734 0.836280 0.617650
Si Si8 0.799912 0.175185 0.575487
O O1 0.371562 0.655367 0.358876
O O2 0.200512 0.745541 0.350839
O O3 0.382064 0.729801 0.030714
O O4 0.607085 0.966838 0.885946
O O5 0.684321 0.271472 0.189954
O O6 0.291007 0.092509 0.540139
O O7 0.413678 0.983086 0.459979
O O8 0.209128 0.744103 0.615684
O O9 0.996274 0.670008 0.054650
O O10 0.324842 0.409150 0.590053
O O11 0.345973 0.523978 0.717171
O O12 0.383479 0.334382 0.384311
O O13 0.650499 0.663513 0.983221
O O14 0.066144 0.120053 0.606838
O O15 0.000000 0.000000 0.000000
O O16 0.993858 0.773329 0.631211
O O17 0.000000 0.000000 0.500000
#
# Coordination Sequence:
#
# PCOD8014425 Si02
#       8
#     2   2   2   2   2   2   2   2
#     4  10  23  40  64  97 134 177 225 284 334 419
#     4  10  23  44  65  96 137 179 224 278 356 400
#     4  10  21  41  67  94 133 176 226 286 330 421
#     4  11  23  41  69  99 138 180 230 283 354 399
#     4  11  26  43  67 104 143 179 235 286 343 424
#     4  12  28  43  71 105 139 180 230 289 350 413
#     4  12  25  46  74  98 143 185 229 285 351 415
#     4  10  22  40  65  98 128 180 233 270 341 406
#
# _framework density 22.438053
#
# number of rings (size 3 to 8) (size 9 to 14) (size 15 to 20)
#    0.000    1.250    1.250    4.125    7.000    6.000 
#    0.000    0.000    0.000    0.000    0.000    0.000 
#    0.000    0.000    0.000    0.000    0.000    0.000 
#
# Total GULP energy -198331.574789 kJ/mol
# GULP energy per Si atom -12395.723424 kJ/mol
# Density = 2.238698 g / cm^3
# Si number density = 22.438053 Si / 1000 Ang^3
#
#
#
# Elastic Constant Matrix: (Units=GPa)
#
#
# Indices 1 2 3 4 5 6 
#
# 1 125.0445 39.7531 43.3446 16.7013 10.5192 14.4455
# 2 39.7531 84.8571 29.4000 20.9880 7.2040 13.0328
# 3 43.3446 29.4000 117.1946 16.7995 14.2732 12.9290
# 4 16.7013 20.9880 16.7995 37.9355 -2.1751 -3.8726
# 5 10.5192 7.2040 14.2732 -2.1751 41.7641 9.7691
# 6 14.4455 13.0328 12.9290 -3.8726 9.7691 34.6559
#
#
#
# Elastic Compliance Matrix: (Units=1/GPa)
#
#
# Indices 1 2 3 4 5 6 
#
# 1 0.010440 -0.003116 -0.002429 -0.002076 -0.000839 -0.002269
# 2 -0.003116 0.016425 -0.001194 -0.007752 -0.000861 -0.005056
# 3 -0.002429 -0.001194 0.010773 -0.003412 -0.002520 -0.002228
# 4 -0.002076 -0.007752 -0.003412 0.034063 0.002920 0.008037
# 5 -0.000839 -0.000861 -0.002520 0.002920 0.026619 -0.005563
# 6 -0.002269 -0.005056 -0.002228 0.008037 -0.005563 0.035000
#
#
# Mechanical properties :
#
#
# Convention : Reuss Voigt Hill
#
# Bulk Modulus (GPa) = 41.39248 61.34349 51.36798
# Shear Modulus (GPa) = 32.28924 37.17766 34.73345
#
# Velocity S-wave (km/s) = 3.79758 4.07492 3.93869
# Velocity P-wave (km/s) = 6.14136 7.03835 6.60510
#
# Compressibility (1/GPa) = 0.02415898
#
# Stress axis : x y z
#
# Youngs Moduli (GPa) = 95.78687 60.88305 92.82618
#
# Poissons Ratio (x) = 0.18970 0.22551
# Poissons Ratio (y) = 0.29845 0.11084
# Poissons Ratio (z) = 0.23270 0.07270
#
# Static dielectric constant tensor:
#      x y z
#    x 4.197630 0.132260 0.057600 
#    y 0.132260 4.010060 0.307550 
#    z 0.057600 0.307550 4.142130 
# 
# 
# High freq. dielectric constant tensor:
#      x y z
#    x 1.886400 -0.001030 0.003890 
#    y -0.001030 1.873570 0.013560 
#    z 0.003890 0.013560 1.893810 
# 
# From -- ./inp_files/222839.got.cif
#   From: 2010.06.25/outbox.cif.g09.slc.cpg/sg2_112_cif.got.tgz:222839.got - 2010.06.27 13:26:56.
