data_PCOD8014975
_publ_section_title
;
Structure prediction by ZEFSAII (Michael W. Deem and Ramdas Pophale) SiO2 
 PCOD8014975
Probable space group: P -1
;
_chemical_formula_sum "Si O2"
_cell_formula_units_Z 16
_cell_length_a 11.001723
_cell_length_b 9.573459
_cell_length_c 12.929267
_cell_angle_alpha 134.492271
_cell_angle_beta 111.526117
_cell_angle_gamma 46.246652
_cell_volume 683.113695
_symmetry_space_group_name_H-M "P -1"
_symmetry_group_IT_number 2
_symmetry_cell_setting 'triclinic'
loop_
_space_group_symop_operation_xyz
x,y,z
-x,-y,-z
loop_
_atom_site_type_symbol
_atom_site_label
_atom_site_fract_x
_atom_site_fract_y
_atom_site_fract_z
Si Si1 0.599212 0.617099 0.699946
Si Si2 0.942521 0.529476 0.327969
Si Si3 0.566879 0.760471 0.329276
Si Si4 0.236361 0.789356 0.639199
Si Si5 0.371519 0.580012 0.185890
Si Si6 0.088937 0.337469 0.838584
Si Si7 0.937623 0.855661 0.665619
Si Si8 0.469033 0.137681 0.854431
O O1 0.406566 0.718024 0.704041
O O2 0.711575 0.403240 0.537491
O O3 0.692307 0.486403 0.770608
O O4 0.593499 0.854681 0.799267
O O5 0.771643 0.565939 0.281973
O O6 0.010243 0.509886 0.221762
O O7 0.902992 0.766642 0.503126
O O8 0.077616 0.266361 0.300139
O O9 0.503733 0.618610 0.285347
O O10 0.468697 0.882111 0.252421
O O11 0.500000 0.000000 0.500000
O O12 0.129650 0.762596 0.673770
O O13 0.107748 0.084768 0.712370
O O14 0.204193 0.834342 0.209180
O O15 0.479631 0.333274 0.017014
O O16 0.275469 0.250132 0.849220
O O17 0.000000 0.500000 0.000000
#
# Coordination Sequence:
#
# PCOD8014975 Si02
#       8
#     2   2   2   2   2   2   2   2
#     4  10  23  40  67  92 132 169 222 265 326 384
#     4  10  23  41  63  97 127 173 218 264 321 388
#     4  11  23  42  69  90 128 176 218 267 323 388
#     4  10  22  39  64  96 126 173 220 266 316 393
#     4  12  23  41  65  97 131 171 214 272 330 379
#     4  10  21  42  64  91 135 172 209 264 334 387
#     4  11  23  39  64  97 133 164 219 268 323 385
#     4  10  24  41  64  97 128 166 221 274 320 384
#
# _framework density 23.422160000000002
#
# number of rings (size 3 to 8) (size 9 to 14) (size 15 to 20)
#    0.000    1.500    1.250    3.000    7.000    3.000 
#    0.000   10.625    0.000    0.000    0.000    0.000 
#    0.000    0.000    0.000    0.000    0.000    0.000 
#
# Total GULP energy -198395.488961 kJ/mol
# GULP energy per Si atom -12399.718060 kJ/mol
# Density = 2.336885 g / cm^3
# Si number density = 23.422160 Si / 1000 Ang^3
#
#
#
# Elastic Constant Matrix: (Units=GPa)
#
#
# Indices 1 2 3 4 5 6 
#
# 1 47.8380 17.1072 12.9502 6.2172 -1.1169 16.8933
# 2 17.1072 150.8711 70.6684 10.2232 -15.0751 34.4901
# 3 12.9502 70.6684 156.5264 19.3247 -4.0091 26.9243
# 4 6.2172 10.2232 19.3247 39.9731 8.9824 -4.0945
# 5 -1.1169 -15.0751 -4.0091 8.9824 33.6589 -4.4665
# 6 16.8933 34.4901 26.9243 -4.0945 -4.4665 36.3150
#
#
#
# Elastic Compliance Matrix: (Units=1/GPa)
#
#
# Indices 1 2 3 4 5 6 
#
# 1 0.026226 0.000262 0.000845 -0.006160 0.000920 -0.013657
# 2 0.000262 0.010296 -0.002895 -0.002964 0.004059 -0.007589
# 3 0.000845 -0.002895 0.008980 -0.004290 0.000316 -0.004746
# 4 -0.006160 -0.002964 -0.004290 0.032010 -0.009078 0.011353
# 5 0.000920 0.004059 0.000316 -0.009078 0.033836 -0.001379
# 6 -0.013657 -0.007589 -0.004746 0.011353 -0.001379 0.045727
#
#
# Mechanical properties :
#
#
# Convention : Reuss Voigt Hill
#
# Bulk Modulus (GPa) = 23.85147 61.85412 42.85280
# Shear Modulus (GPa) = 28.63284 38.95671 33.79478
#
# Velocity S-wave (km/s) = 3.50017 4.08271 3.80261
# Velocity P-wave (km/s) = 5.15173 6.97785 6.13314
#
# Compressibility (1/GPa) = 0.04192613
#
# Stress axis : x y z
#
# Youngs Moduli (GPa) = 38.12975 97.12846 111.36129
#
# Poissons Ratio (x) = -0.02541 -0.09413
# Poissons Ratio (y) = -0.00998 0.32236
# Poissons Ratio (z) = -0.03223 0.28116
#
# Static dielectric constant tensor:
#      x y z
#    x 4.544770 0.116750 -0.050730 
#    y 0.116750 4.446520 -0.086130 
#    z -0.050730 -0.086130 4.410730 
# 
# 
# High freq. dielectric constant tensor:
#      x y z
#    x 1.935130 0.013530 0.003930 
#    y 0.013530 1.930380 0.002040 
#    z 0.003930 0.002040 1.914850 
# 
# From -- ./inp_files/382504.got.cif
#   From: 2010.06.25/outbox.cif.g09.slc.cpg/sg2_192_cif.got.tgz:382504.got - 2010.06.27 13:26:56.
