data_PCOD8014045
_publ_section_title
;
Structure prediction by ZEFSAII (Michael W. Deem and Ramdas Pophale) SiO2 
 PCOD8014045
Probable space group: P -1
;
_chemical_formula_sum "Si O2"
_cell_formula_units_Z 14
_cell_length_a 8.605074
_cell_length_b 9.163903
_cell_length_c 15.199347
_cell_angle_alpha 84.265572
_cell_angle_beta 41.556922
_cell_angle_gamma 60.398092
_cell_volume 611.062986
_symmetry_space_group_name_H-M "P -1"
_symmetry_group_IT_number 2
_symmetry_cell_setting 'triclinic'
loop_
_space_group_symop_operation_xyz
x,y,z
-x,-y,-z
loop_
_atom_site_type_symbol
_atom_site_label
_atom_site_fract_x
_atom_site_fract_y
_atom_site_fract_z
Si Si1 0.890373 0.957548 0.634612
Si Si2 0.963752 0.447877 0.923576
Si Si3 0.561535 0.625680 0.388620
Si Si4 0.214806 0.818631 0.983364
Si Si5 0.433036 0.857281 0.062752
Si Si6 0.299878 0.256878 0.330705
Si Si7 0.639671 0.592611 0.547890
O O1 0.645837 0.933595 0.707541
O O2 0.203914 0.772700 0.552049
O O3 0.726915 0.104372 0.776412
O O4 0.000000 0.000000 0.500000
O O5 0.301222 0.320907 0.745553
O O6 0.866146 0.319264 0.976028
O O7 0.739890 0.638402 0.948642
O O8 0.000000 0.500000 0.000000
O O9 0.723185 0.606525 0.412710
O O10 0.616352 0.434330 0.345885
O O11 0.556088 0.697422 0.808306
O O12 0.209808 0.880205 0.081609
O O13 0.000000 0.000000 0.000000
O O14 0.500000 0.000000 0.000000
O O15 0.462488 0.229996 0.357597
O O16 0.938341 0.415251 0.481632
#
# Coordination Sequence:
#
# PCOD8014045 Si02
#       7
#     2   2   2   2   2   2   2
#     4  11  25  43  68  98 140 182 231 289 356 419
#     4  12  26  45  72 103 143 187 238 292 353 432
#     4  10  22  39  67  97 131 174 233 276 350 409
#     4  12  27  44  72 102 142 185 244 290 355 423
#     4  12  26  47  73 104 147 189 234 297 360 421
#     4  10  21  41  64  94 133 176 227 283 349 408
#     4   9  20  38  66  93 128 173 224 284 340 417
#
# _framework density 22.910895
#
# number of rings (size 3 to 8) (size 9 to 14) (size 15 to 20)
#    0.000    1.143    1.429    3.857    8.000    3.429 
#    0.000    1.429    0.000    0.000    0.000    0.000 
#    0.000    0.000    0.000    0.000    0.000    0.000 
#
# Total GULP energy -173472.648869 kJ/mol
# GULP energy per Si atom -12390.903491 kJ/mol
# Density = 2.285875 g / cm^3
# Si number density = 22.910895 Si / 1000 Ang^3
#
#
#
# Elastic Constant Matrix: (Units=GPa)
#
#
# Indices 1 2 3 4 5 6 
#
# 1 187.0025 54.0298 51.5930 -11.7656 36.5406 27.9531
# 2 54.0298 111.3682 26.3212 -20.0876 -1.7939 17.3368
# 3 51.5930 26.3212 128.8635 -30.2676 14.5116 23.2808
# 4 -11.7656 -20.0876 -30.2676 37.8067 -1.6858 -6.0233
# 5 36.5406 -1.7939 14.5116 -1.6858 45.1232 -0.8513
# 6 27.9531 17.3368 23.2808 -6.0233 -0.8513 42.7297
#
#
#
# Elastic Compliance Matrix: (Units=1/GPa)
#
#
# Indices 1 2 3 4 5 6 
#
# 1 0.008593 -0.003583 -0.001634 -0.001411 -0.006696 -0.003610
# 2 -0.003583 0.011959 0.000149 0.005230 0.003491 -0.001783
# 3 -0.001634 0.000149 0.011168 0.007780 -0.002048 -0.004021
# 4 -0.001411 0.005230 0.007780 0.034944 0.000145 -0.000509
# 5 -0.006696 0.003491 -0.002048 0.000145 0.028475 0.004668
# 6 -0.003610 -0.001783 -0.004021 -0.000509 0.004668 0.028700
#
#
# Mechanical properties :
#
#
# Convention : Reuss Voigt Hill
#
# Bulk Modulus (GPa) = 46.32765 76.79135 61.55950
# Shear Modulus (GPa) = 35.41846 44.81794 40.11820
#
# Velocity S-wave (km/s) = 3.93609 4.42768 4.18910
# Velocity P-wave (km/s) = 6.39701 7.72847 7.09405
#
# Compressibility (1/GPa) = 0.02158538
#
# Stress axis : x y z
#
# Youngs Moduli (GPa) = 116.37737 83.61593 89.54017
#
# Poissons Ratio (x) = 0.29960 0.14628
# Poissons Ratio (y) = 0.41699 -0.01337
# Poissons Ratio (z) = 0.19012 -0.01248
#
# Static dielectric constant tensor:
#      x y z
#    x 4.657820 0.137240 0.060200 
#    y 0.137240 4.086480 0.154750 
#    z 0.060200 0.154750 4.214830 
# 
# 
# High freq. dielectric constant tensor:
#      x y z
#    x 1.929700 0.003600 0.005890 
#    y 0.003600 1.881950 -0.003690 
#    z 0.005890 -0.003690 1.908700 
# 
# From -- ./inp_files/245759.got.cif
#   From: 2010.06.25/outbox.cif.g09.slc.cpg/sg2_123_cif.got.tgz:245759.got - 2010.06.27 13:26:56.
