data_PCOD8014664
_publ_section_title
;
Structure prediction by ZEFSAII (Michael W. Deem and Ramdas Pophale) SiO2 
 PCOD8014664
Probable space group: P -1
;
_chemical_formula_sum "Si O2"
_cell_formula_units_Z 12
_cell_length_a 5.374565
_cell_length_b 12.106669
_cell_length_c 8.314257
_cell_angle_alpha 84.296720
_cell_angle_beta 60.899445
_cell_angle_gamma 102.654431
_cell_volume 447.563611
_symmetry_space_group_name_H-M "P -1"
_symmetry_group_IT_number 2
_symmetry_cell_setting 'triclinic'
loop_
_space_group_symop_operation_xyz
x,y,z
-x,-y,-z
loop_
_atom_site_type_symbol
_atom_site_label
_atom_site_fract_x
_atom_site_fract_y
_atom_site_fract_z
Si Si1 0.218427 0.629292 0.413675
Si Si2 0.258463 0.404202 0.900127
Si Si3 0.862665 0.986973 0.218892
Si Si4 0.541226 0.886316 0.815330
Si Si5 0.306246 0.653325 0.741292
Si Si6 0.035599 0.777955 0.231510
O O1 0.450141 0.638559 0.190250
O O2 0.389343 0.653844 0.527270
O O3 0.074010 0.732254 0.406053
O O4 0.000000 0.500000 0.500000
O O5 0.362610 0.543484 0.829057
O O6 0.057003 0.340886 0.823208
O O7 0.052438 0.361383 0.129176
O O8 0.109124 0.060397 0.259231
O O9 0.568294 0.030542 0.290522
O O10 0.791523 0.849274 0.307244
O O11 0.000000 0.000000 0.000000
O O12 0.510647 0.767409 0.747883
O O13 0.341516 0.865841 0.045133
#
# Coordination Sequence:
#
# PCOD8014664 Si02
#       6
#     2   2   2   2   2   2
#     4  12  25  41  67 105 138 185 229 288 354 419
#     4  10  23  44  66  96 140 183 235 281 355 415
#     4  10  21  41  70 102 136 184 240 284 344 420
#     4  10  23  41  69 103 137 186 232 288 351 413
#     4  10  23  45  65 102 141 181 232 291 349 413
#     4  10  22  39  66  99 133 183 233 282 349 414
#
# _framework density 26.811834999999999
#
# number of rings (size 3 to 8) (size 9 to 14) (size 15 to 20)
#    0.000    1.667    1.667    2.500    9.333    2.000 
#    0.000    1.667    0.000    0.000    0.000    0.000 
#    0.000    0.000    0.000    0.000    0.000    0.000 
#
# Total GULP energy -148708.595037 kJ/mol
# GULP energy per Si atom -12392.382920 kJ/mol
# Density = 2.675081 g / cm^3
# Si number density = 26.811835 Si / 1000 Ang^3
#
#
#
# Elastic Constant Matrix: (Units=GPa)
#
#
# Indices 1 2 3 4 5 6 
#
# 1 127.4080 45.3576 10.0288 -3.2182 12.1241 -8.1297
# 2 45.3576 154.5202 20.7603 -2.1274 17.8856 -10.9981
# 3 10.0288 20.7603 51.0734 -5.8161 2.3652 -7.2555
# 4 -3.2182 -2.1274 -5.8161 27.2261 -8.2753 11.6156
# 5 12.1241 17.8856 2.3652 -8.2753 29.2618 -0.4263
# 6 -8.1297 -10.9981 -7.2555 11.6156 -0.4263 39.3841
#
#
#
# Elastic Compliance Matrix: (Units=1/GPa)
#
#
# Indices 1 2 3 4 5 6 
#
# 1 0.008977 -0.002181 -0.000644 -0.000532 -0.002467 0.001256
# 2 -0.002181 0.008094 -0.002646 -0.002397 -0.004479 0.001981
# 3 -0.000644 -0.002646 0.021439 0.003848 0.001268 0.001957
# 4 -0.000532 -0.002397 0.003848 0.047727 0.014668 -0.013988
# 5 -0.002467 -0.004479 0.001268 0.014668 0.041901 -0.005399
# 6 0.001256 0.001981 0.001957 -0.013988 -0.005399 0.030631
#
#
# Mechanical properties :
#
#
# Convention : Reuss Voigt Hill
#
# Bulk Modulus (GPa) = 36.27413 53.92168 45.09790
# Shear Modulus (GPa) = 27.94844 36.29806 32.12325
#
# Velocity S-wave (km/s) = 3.23211 3.68340 3.46511
# Velocity P-wave (km/s) = 5.24283 6.18423 5.73289
#
# Compressibility (1/GPa) = 0.02756786
#
# Stress axis : x y z
#
# Youngs Moduli (GPa) = 111.39091 123.55222 46.64392
#
# Poissons Ratio (x) = 0.26948 0.03005
# Poissons Ratio (y) = 0.24295 0.12341
# Poissons Ratio (z) = 0.07176 0.32689
#
# Static dielectric constant tensor:
#      x y z
#    x 4.836940 -0.272390 -0.022230 
#    y -0.272390 5.649780 -0.165940 
#    z -0.022230 -0.165940 4.847390 
# 
# 
# High freq. dielectric constant tensor:
#      x y z
#    x 2.065890 -0.001940 -0.001610 
#    y -0.001940 2.095260 -0.006460 
#    z -0.001610 -0.006460 2.056220 
# 
# From -- ./inp_files/59972.got.cif
#   From: 2010.06.25/outbox.cif.g09.slc.cpg/sg2_30_cif.got.tgz:59972.got - 2010.06.27 13:26:56.
