data_PCOD8014271
_publ_section_title
;
Structure prediction by ZEFSAII (Michael W. Deem and Ramdas Pophale) SiO2 
 PCOD8014271
Probable space group: P -1
;
_chemical_formula_sum "Si O2"
_cell_formula_units_Z 12
_cell_length_a 9.158648
_cell_length_b 16.208245
_cell_length_c 15.239758
_cell_angle_alpha 161.199976
_cell_angle_beta 134.362246
_cell_angle_gamma 46.062646
_cell_volume 516.179645
_symmetry_space_group_name_H-M "P -1"
_symmetry_group_IT_number 2
_symmetry_cell_setting 'triclinic'
loop_
_space_group_symop_operation_xyz
x,y,z
-x,-y,-z
loop_
_atom_site_type_symbol
_atom_site_label
_atom_site_fract_x
_atom_site_fract_y
_atom_site_fract_z
Si Si1 0.069665 0.405784 0.260334
Si Si2 0.693500 0.426463 0.238652
Si Si3 0.285791 0.248225 0.849092
Si Si4 0.741991 0.135947 0.129612
Si Si5 0.415946 0.863701 0.651906
Si Si6 0.936350 0.420969 0.755091
O O1 0.236243 0.603330 0.544639
O O2 0.021300 0.406348 0.136856
O O3 0.860972 0.521884 0.340887
O O4 0.128126 0.112346 0.021139
O O5 0.799227 0.185137 0.100470
O O6 0.612138 0.646440 0.497623
O O7 0.501639 0.354851 0.028675
O O8 0.153074 0.258397 0.714519
O O9 0.333613 0.958234 0.615380
O O10 0.158811 0.403251 0.029211
O O11 0.499786 0.085925 0.971200
O O12 0.228394 0.770355 0.532596
#
# Coordination Sequence:
#
# PCOD8014271 Si02
#       6
#     2   2   2   2   2   2
#     4  12  26  39  67  97 131 163 212 261 314 371
#     4  10  22  42  66  95 124 172 209 258 314 379
#     4   9  21  43  68  86 128 169 215 257 320 372
#     4  11  24  42  64  95 132 169 206 257 316 379
#     4  10  21  41  66  91 125 174 211 252 320 376
#     4  10  23  42  62  96 125 168 212 267 311 374
#
# _framework density 23.247720999999999
#
# number of rings (size 3 to 8) (size 9 to 14) (size 15 to 20)
#    0.000    1.667    1.667    1.500    7.000    2.000 
#    0.000    0.833    0.000    0.000    0.000    0.000 
#    0.000    0.000    0.000    0.000    0.000    0.000 
#
# Total GULP energy -148710.742330 kJ/mol
# GULP energy per Si atom -12392.561861 kJ/mol
# Density = 2.319481 g / cm^3
# Si number density = 23.247721 Si / 1000 Ang^3
#
#
#
# Elastic Constant Matrix: (Units=GPa)
#
#
# Indices 1 2 3 4 5 6 
#
# 1 47.7630 58.4791 20.6774 -3.4959 21.5280 11.6797
# 2 58.4791 166.2228 34.6994 15.0940 15.5776 11.1552
# 3 20.6774 34.6994 86.2101 11.9723 18.9759 2.1372
# 4 -3.4959 15.0940 11.9723 30.4765 -0.1204 2.1791
# 5 21.5280 15.5776 18.9759 -0.1204 18.2220 6.3587
# 6 11.6797 11.1552 2.1372 2.1791 6.3587 24.2804
#
#
#
# Elastic Compliance Matrix: (Units=1/GPa)
#
#
# Indices 1 2 3 4 5 6 
#
# 1 0.106843 -0.030750 0.005730 0.025811 -0.100976 -0.013644
# 2 -0.030750 0.015927 -0.003242 -0.010188 0.025308 0.002046
# 3 0.005730 -0.003242 0.017241 -0.004870 -0.023295 0.003753
# 4 0.025811 -0.010188 -0.004870 0.043219 -0.013783 -0.007575
# 5 -0.100976 0.025308 -0.023295 -0.013783 0.179029 -0.006652
# 6 -0.013644 0.002046 0.003753 -0.007575 -0.006652 0.048900
#
#
# Mechanical properties :
#
#
# Convention : Reuss Voigt Hill
#
# Bulk Modulus (GPa) = 11.97770 58.65643 35.31707
# Shear Modulus (GPa) = 10.09058 27.01844 18.55451
#
# Velocity S-wave (km/s) = 2.08564 3.41280 2.82817
# Velocity P-wave (km/s) = 3.31108 6.38870 5.08816
#
# Compressibility (1/GPa) = 0.08348846
#
# Stress axis : x y z
#
# Youngs Moduli (GPa) = 9.35950 62.78616 58.00263
#
# Poissons Ratio (x) = 1.93068 -0.33238
# Poissons Ratio (y) = 0.28781 0.18802
# Poissons Ratio (z) = -0.05363 0.20353
#
# Static dielectric constant tensor:
#      x y z
#    x 3.819870 -0.150530 0.389470 
#    y -0.150530 4.633580 0.146600 
#    z 0.389470 0.146600 4.147660 
# 
# 
# High freq. dielectric constant tensor:
#      x y z
#    x 1.883010 -0.005040 0.029040 
#    y -0.005040 1.934410 0.010820 
#    z 0.029040 0.010820 1.912660 
# 
# From -- ./inp_files/23165.got.cif
#   From: 2010.06.25/outbox.cif.g09.slc.cpg/sg2_12_cif.got.tgz:23165.got - 2010.06.27 13:26:56.
