data_PCOD8014444
_publ_section_title
;
Structure prediction by ZEFSAII (Michael W. Deem and Ramdas Pophale) SiO2 
 PCOD8014444
Probable space group: P -1
;
_chemical_formula_sum "Si O2"
_cell_formula_units_Z 16
_cell_length_a 13.528665
_cell_length_b 13.585418
_cell_length_c 10.921837
_cell_angle_alpha 32.826624
_cell_angle_beta 130.419097
_cell_angle_gamma 140.083407
_cell_volume 698.213279
_symmetry_space_group_name_H-M "P -1"
_symmetry_group_IT_number 2
_symmetry_cell_setting 'triclinic'
loop_
_space_group_symop_operation_xyz
x,y,z
-x,-y,-z
loop_
_atom_site_type_symbol
_atom_site_label
_atom_site_fract_x
_atom_site_fract_y
_atom_site_fract_z
Si Si1 0.456331 0.779777 0.438285
Si Si2 0.191102 0.479249 0.688212
Si Si3 0.469838 0.691552 0.266330
Si Si4 0.224532 0.037208 0.439671
Si Si5 0.403980 0.144400 0.044703
Si Si6 0.173795 0.641945 0.945374
Si Si7 0.130709 0.854677 0.290167
Si Si8 0.715397 0.535918 0.963621
O O1 0.297482 0.554270 0.573466
O O2 0.491532 0.803364 0.297252
O O3 0.592562 0.796840 0.610463
O O4 0.456073 0.980103 0.286874
O O5 0.154783 0.658946 0.503552
O O6 0.043234 0.240851 0.794962
O O7 0.284891 0.462739 0.891710
O O8 0.500000 0.500000 0.500000
O O9 0.607702 0.857314 0.111588
O O10 0.300381 0.630940 0.143117
O O11 0.187024 0.214603 0.267128
O O12 0.205176 0.879778 0.700057
O O13 0.139409 0.918996 0.370880
O O14 0.245200 0.058589 0.081131
O O15 0.536290 0.389489 0.930445
O O16 0.185895 0.559149 0.908242
O O17 0.000000 0.500000 0.000000
#
# Coordination Sequence:
#
# PCOD8014444 Si02
#       8
#     2   2   2   2   2   2   2   2
#     4  11  21  39  70  96 130 189 226 280 343 411
#     4  10  22  40  67  98 137 172 233 283 347 413
#     4  11  24  44  68 102 139 178 235 287 337 413
#     4  12  24  42  71  98 138 179 232 280 355 408
#     4  10  21  41  67  95 136 179 231 278 338 413
#     4  11  26  47  72  98 144 186 227 288 350 413
#     4  10  22  41  67  99 134 183 219 288 358 405
#     4  11  23  44  67 101 133 177 233 287 333 420
#
# _framework density 22.915634000000001
#
# number of rings (size 3 to 8) (size 9 to 14) (size 15 to 20)
#    0.000    1.250    3.750    2.625    1.750    7.000 
#    2.250    0.000    0.000    0.000    0.000    0.000 
#    0.000    0.000    0.000    0.000    0.000    0.000 
#
# Total GULP energy -198210.935129 kJ/mol
# GULP energy per Si atom -12388.183446 kJ/mol
# Density = 2.286348 g / cm^3
# Si number density = 22.915634 Si / 1000 Ang^3
#
#
#
# Elastic Constant Matrix: (Units=GPa)
#
#
# Indices 1 2 3 4 5 6 
#
# 1 60.6472 46.8094 25.0629 -7.2262 -22.1865 12.2257
# 2 46.8094 131.9190 36.5172 -7.2170 -17.8762 1.3250
# 3 25.0629 36.5172 99.1494 -12.7715 -13.2262 6.4848
# 4 -7.2262 -7.2170 -12.7715 38.5606 -0.7457 -6.8159
# 5 -22.1865 -17.8762 -13.2262 -0.7457 27.3461 -2.9792
# 6 12.2257 1.3250 6.4848 -6.8159 -2.9792 28.1514
#
#
#
# Elastic Compliance Matrix: (Units=1/GPa)
#
#
# Indices 1 2 3 4 5 6 
#
# 1 0.033453 -0.008499 -0.001652 0.002558 0.019652 -0.011048
# 2 -0.008499 0.011153 -0.002181 0.000430 -0.000239 0.003747
# 3 -0.001652 -0.002181 0.012197 0.003227 0.003125 -0.000877
# 4 0.002558 0.000430 0.003227 0.028659 0.005312 0.005626
# 5 0.019652 -0.000239 0.003125 0.005312 0.053765 -0.002267
# 6 -0.011048 0.003747 -0.000877 0.005626 -0.002267 0.041468
#
#
# Mechanical properties :
#
#
# Convention : Reuss Voigt Hill
#
# Bulk Modulus (GPa) = 31.11561 56.49938 43.80750
# Shear Modulus (GPa) = 23.14039 31.03338 27.08689
#
# Velocity S-wave (km/s) = 3.18120 3.68400 3.44179
# Velocity P-wave (km/s) = 5.20588 6.54253 5.91210
#
# Compressibility (1/GPa) = 0.03213821
#
# Stress axis : x y z
#
# Youngs Moduli (GPa) = 29.89308 89.65951 81.98927
#
# Poissons Ratio (x) = 0.76200 0.13547
# Poissons Ratio (y) = 0.25405 0.17883
# Poissons Ratio (z) = 0.04939 0.19556
#
# Static dielectric constant tensor:
#      x y z
#    x 4.253190 0.017120 -0.013260 
#    y 0.017120 4.146480 -0.162950 
#    z -0.013260 -0.162950 4.278850 
# 
# 
# High freq. dielectric constant tensor:
#      x y z
#    x 1.892320 -0.008820 0.006160 
#    y -0.008820 1.897870 -0.009700 
#    z 0.006160 -0.009700 1.918990 
# 
# From -- ./inp_files/455428.got.cif
#   From: 2010.06.25/outbox.cif.g09.slc.cpg/sg2_228_cif.got.tgz:455428.got - 2010.06.27 13:26:56.
