data_PCOD8014528
_publ_section_title
;
Structure prediction by ZEFSAII (Michael W. Deem and Ramdas Pophale) SiO2 
 PCOD8014528
Probable space group: P -1
;
_chemical_formula_sum "Si O2"
_cell_formula_units_Z 16
_cell_length_a 11.177827
_cell_length_b 9.649097
_cell_length_c 18.122183
_cell_angle_alpha 48.912304
_cell_angle_beta 146.242711
_cell_angle_gamma 145.243652
_cell_volume 617.116460
_symmetry_space_group_name_H-M "P -1"
_symmetry_group_IT_number 2
_symmetry_cell_setting 'triclinic'
loop_
_space_group_symop_operation_xyz
x,y,z
-x,-y,-z
loop_
_atom_site_type_symbol
_atom_site_label
_atom_site_fract_x
_atom_site_fract_y
_atom_site_fract_z
Si Si1 0.050938 0.882799 0.794689
Si Si2 0.671941 0.112708 0.718504
Si Si3 0.453681 0.174149 0.379453
Si Si4 0.660785 0.302894 0.008227
Si Si5 0.137214 0.366278 0.476017
Si Si6 0.629443 0.232165 0.184971
Si Si7 0.794395 0.717819 0.011111
Si Si8 0.267506 0.186047 0.484521
O O1 0.094392 0.689984 0.906930
O O2 0.370474 0.144378 0.867634
O O3 0.849525 0.895300 0.738343
O O4 0.914722 0.807332 0.670503
O O5 0.556815 0.246622 0.580558
O O6 0.019937 0.306161 0.828082
O O7 0.541130 0.866639 0.691084
O O8 0.565357 0.023492 0.779587
O O9 0.703035 0.451673 0.436412
O O10 0.500000 0.000000 0.500000
O O11 0.610702 0.179636 0.106584
O O12 0.748298 0.565270 0.968470
O O13 0.354849 0.378772 0.527314
O O14 0.950138 0.408753 0.320219
O O15 0.923675 0.091093 0.490944
O O16 0.502409 0.369284 0.078845
O O17 0.000000 0.000000 0.000000
#
# Coordination Sequence:
#
# PCOD8014528 Si02
#       8
#     2   2   2   2   2   2   2   2
#     4  11  25  43  65  96 136 171 219 273 331 389
#     4  10  23  41  66  98 131 173 220 267 332 387
#     4  12  26  41  62 101 138 171 214 277 329 389
#     4  11  24  42  68  97 128 177 221 268 330 392
#     4  10  24  40  69  98 128 177 220 267 335 386
#     4  10  21  41  68  91 128 171 219 268 314 394
#     4  10  23  40  66  97 131 170 215 269 324 392
#     4  10  21  44  67  95 133 173 220 271 326 403
#
# _framework density 25.927033999999999
#
# number of rings (size 3 to 8) (size 9 to 14) (size 15 to 20)
#    0.000    1.500    2.500    1.125    5.250    4.500 
#    0.000    0.000    0.000    7.500    0.000    0.000 
#    0.000    0.000    0.000    0.000    0.000    0.000 
#
# Total GULP energy -198258.317322 kJ/mol
# GULP energy per Si atom -12391.144833 kJ/mol
# Density = 2.586802 g / cm^3
# Si number density = 25.927034 Si / 1000 Ang^3
#
#
#
# Elastic Constant Matrix: (Units=GPa)
#
#
# Indices 1 2 3 4 5 6 
#
# 1 72.6524 18.7270 28.9536 5.3523 27.8989 -20.9802
# 2 18.7270 122.8494 49.8076 3.1231 19.5791 -43.7968
# 3 28.9536 49.8076 172.4441 16.4430 57.7928 -5.2545
# 4 5.3523 3.1231 16.4430 46.7070 -7.8420 -2.0763
# 5 27.8989 19.5791 57.7928 -7.8420 53.5275 -8.4123
# 6 -20.9802 -43.7968 -5.2545 -2.0763 -8.4123 38.8601
#
#
#
# Elastic Compliance Matrix: (Units=1/GPa)
#
#
# Indices 1 2 3 4 5 6 
#
# 1 0.020837 0.002940 -0.000113 -0.003765 -0.010467 0.012081
# 2 0.002940 0.016803 -0.005414 0.001610 0.001580 0.020221
# 3 -0.000113 -0.005414 0.012242 -0.006521 -0.013351 -0.007746
# 4 -0.003765 0.001610 -0.006521 0.026306 0.012749 0.003065
# 5 -0.010467 0.001580 -0.013351 0.012749 0.040432 0.003759
# 6 0.012081 0.020221 -0.007746 0.003065 0.003759 0.054976
#
#
# Mechanical properties :
#
#
# Convention : Reuss Voigt Hill
#
# Bulk Modulus (GPa) = 22.36714 62.54693 42.45704
# Shear Modulus (GPa) = 26.08625 45.84942 35.96784
#
# Velocity S-wave (km/s) = 3.17541 4.20980 3.72865
# Velocity P-wave (km/s) = 4.70000 6.91422 5.91170
#
# Compressibility (1/GPa) = 0.04470844
#
# Stress axis : x y z
#
# Youngs Moduli (GPa) = 47.99245 59.51302 81.68757
#
# Poissons Ratio (x) = -0.17498 0.00921
# Poissons Ratio (y) = -0.14111 0.44226
# Poissons Ratio (z) = 0.00541 0.32220
#
# Static dielectric constant tensor:
#      x y z
#    x 4.882190 -0.234090 0.533840 
#    y -0.234090 4.570370 -0.122400 
#    z 0.533840 -0.122400 5.877180 
# 
# 
# High freq. dielectric constant tensor:
#      x y z
#    x 2.022900 -0.008790 0.025350 
#    y -0.008790 2.052650 -0.007640 
#    z 0.025350 -0.007640 2.069810 
# 
# From -- ./inp_files/261485.got.cif
#   From: 2010.06.25/outbox.cif.g09.slc.cpg/sg2_131_cif.got.tgz:261485.got - 2010.06.27 13:26:56.
