data_PCOD8014917
_publ_section_title
;
Structure prediction by ZEFSAII (Michael W. Deem and Ramdas Pophale) SiO2 
 PCOD8014917
Probable space group: P -1
;
_chemical_formula_sum "Si O2"
_cell_formula_units_Z 16
_cell_length_a 7.094203
_cell_length_b 17.976372
_cell_length_c 11.047595
_cell_angle_alpha 143.708984
_cell_angle_beta 115.176093
_cell_angle_gamma 79.553310
_cell_volume 719.534893
_symmetry_space_group_name_H-M "P -1"
_symmetry_group_IT_number 2
_symmetry_cell_setting 'triclinic'
loop_
_space_group_symop_operation_xyz
x,y,z
-x,-y,-z
loop_
_atom_site_type_symbol
_atom_site_label
_atom_site_fract_x
_atom_site_fract_y
_atom_site_fract_z
Si Si1 0.927552 0.612186 0.974402
Si Si2 0.233365 0.299053 0.457640
Si Si3 0.103210 0.869821 0.676252
Si Si4 0.128484 0.037275 0.460661
Si Si5 0.582910 0.766383 0.059734
Si Si6 0.284205 0.672182 0.348193
Si Si7 0.138636 0.558487 0.729784
Si Si8 0.804891 0.849134 0.984112
O O1 0.761485 0.695652 0.053661
O O2 0.802833 0.464877 0.786563
O O3 0.994179 0.614423 0.855007
O O4 0.149518 0.672485 0.189663
O O5 0.461991 0.297348 0.575842
O O6 0.214374 0.444253 0.666857
O O7 0.038438 0.187004 0.318822
O O8 0.219232 0.270597 0.271722
O O9 0.268784 0.786205 0.585915
O O10 0.945497 0.854056 0.494941
O O11 0.233104 0.025438 0.934208
O O12 0.376295 0.108186 0.669554
O O13 0.000000 0.000000 0.500000
O O14 0.053943 0.901555 0.181128
O O15 0.340522 0.675832 0.891646
O O16 0.619574 0.808603 0.984407
O O17 0.000000 0.500000 0.500000
#
# Coordination Sequence:
#
# PCOD8014917 Si02
#       8
#     2   2   2   2   2   2   2   2
#     4  11  23  41  62  96 129 167 214 260 315 385
#     4  12  24  41  65  96 133 171 211 263 327 380
#     4  10  21  42  63  93 131 163 216 264 307 381
#     4   8  18  39  68  93 123 174 214 259 317 374
#     4  11  21  44  70  90 131 170 211 272 323 368
#     4  11  24  38  65  94 129 170 209 260 321 383
#     4  12  28  41  65  98 130 169 218 266 320 393
#     4   9  22  39  70  90 128 178 209 262 321 374
#
# _framework density 22.236585999999999
#
# number of rings (size 3 to 8) (size 9 to 14) (size 15 to 20)
#    0.750    0.750    3.750    1.125    3.500    2.000 
#    0.000    2.500    0.000    6.750    0.000    0.000 
#    0.000    0.000    0.000    0.000    0.000    0.000 
#
# Total GULP energy -198237.755223 kJ/mol
# GULP energy per Si atom -12389.859701 kJ/mol
# Density = 2.218597 g / cm^3
# Si number density = 22.236586 Si / 1000 Ang^3
#
#
#
# Elastic Constant Matrix: (Units=GPa)
#
#
# Indices 1 2 3 4 5 6 
#
# 1 57.1601 3.3793 11.0900 -3.5660 8.0405 8.7806
# 2 3.3793 57.9929 -2.5622 2.2462 8.6628 22.6976
# 3 11.0900 -2.5622 94.4945 -3.2226 10.1000 7.4449
# 4 -3.5660 2.2462 -3.2226 37.1594 4.2933 2.5728
# 5 8.0405 8.6628 10.1000 4.2933 32.6941 0.9259
# 6 8.7806 22.6976 7.4449 2.5728 0.9259 27.7357
#
#
#
# Elastic Compliance Matrix: (Units=1/GPa)
#
#
# Indices 1 2 3 4 5 6 
#
# 1 0.019736 0.002791 -0.000901 0.002857 -0.005453 -0.008374
# 2 0.002791 0.028111 0.003358 0.001569 -0.008680 -0.024645
# 3 -0.000901 0.003358 0.011742 0.001621 -0.004349 -0.005620
# 4 0.002857 0.001569 0.001621 0.028180 -0.005176 -0.005065
# 5 -0.005453 -0.008680 -0.004349 -0.005176 0.035988 0.009276
# 6 -0.008374 -0.024645 -0.005620 -0.005065 0.009276 0.060543
#
#
# Mechanical properties :
#
#
# Convention : Reuss Voigt Hill
#
# Bulk Modulus (GPa) = 14.26816 25.94020 20.10418
# Shear Modulus (GPa) = 25.35950 32.70052 29.03001
#
# Velocity S-wave (km/s) = 3.38070 3.83896 3.61710
# Velocity P-wave (km/s) = 4.65503 5.59831 5.14832
#
# Compressibility (1/GPa) = 0.07008612
#
# Stress axis : x y z
#
# Youngs Moduli (GPa) = 50.66870 35.57348 85.16264
#
# Poissons Ratio (x) = -0.09930 0.07669
# Poissons Ratio (y) = -0.14144 -0.28594
# Poissons Ratio (z) = 0.04563 -0.11944
#
# Static dielectric constant tensor:
#      x y z
#    x 3.662150 0.013860 -0.043720 
#    y 0.013860 4.085550 0.193160 
#    z -0.043720 0.193160 4.427840 
# 
# 
# High freq. dielectric constant tensor:
#      x y z
#    x 1.844260 0.010020 -0.004950 
#    y 0.010020 1.882830 0.007790 
#    z -0.004950 0.007790 1.888010 
# 
# From -- ./inp_files/370138.got.cif
#   From: 2010.06.25/outbox.cif.g09.slc.cpg/sg2_186_cif.got.tgz:370138.got - 2010.06.27 13:26:56.
