data_PCOD8014559
_publ_section_title
;
Structure prediction by ZEFSAII (Michael W. Deem and Ramdas Pophale) SiO2 
 PCOD8014559
Probable space group: P -1
;
_chemical_formula_sum "Si O2"
_cell_formula_units_Z 16
_cell_length_a 12.715576
_cell_length_b 11.655422
_cell_length_c 7.976265
_cell_angle_alpha 72.196068
_cell_angle_beta 131.698183
_cell_angle_gamma 132.802721
_cell_volume 624.096751
_symmetry_space_group_name_H-M "P -1"
_symmetry_group_IT_number 2
_symmetry_cell_setting 'triclinic'
loop_
_space_group_symop_operation_xyz
x,y,z
-x,-y,-z
loop_
_atom_site_type_symbol
_atom_site_label
_atom_site_fract_x
_atom_site_fract_y
_atom_site_fract_z
Si Si1 0.677585 0.527961 0.545629
Si Si2 0.681724 0.338873 0.142505
Si Si3 0.157887 0.344866 0.987913
Si Si4 0.973951 0.894993 0.308384
Si Si5 0.066507 0.724726 0.707589
Si Si6 0.769036 0.141157 0.838312
Si Si7 0.471972 0.789355 0.595671
Si Si8 0.693728 0.797147 0.328823
O O1 0.516103 0.333772 0.430432
O O2 0.628143 0.620965 0.351973
O O3 0.869669 0.577282 0.656064
O O4 0.688003 0.569094 0.735649
O O5 0.770963 0.523565 0.140424
O O6 0.839614 0.338593 0.244328
O O7 0.635892 0.285563 0.309093
O O8 0.490386 0.223540 0.876866
O O9 0.119625 0.191524 0.931994
O O10 0.962573 0.279838 0.886497
O O11 0.038263 0.807019 0.499137
O O12 0.818512 0.880389 0.254418
O O13 0.168543 0.086322 0.420944
O O14 0.204547 0.858535 0.934972
O O15 0.635144 0.178379 0.651496
O O16 0.681984 0.964041 0.763485
#
# Coordination Sequence:
#
# PCOD8014559 Si02
#       8
#     2   2   2   2   2   2   2   2
#     4  10  23  44  64  91 133 175 212 263 323 383
#     4  12  24  40  69 102 127 166 220 269 317 381
#     4  11  24  41  67  96 127 169 219 264 319 383
#     4  10  22  43  67  93 129 173 216 263 321 385
#     4  10  21  41  68  96 130 168 214 268 324 381
#     4  10  23  42  64  99 135 168 209 268 329 381
#     4  11  23  39  65  95 134 171 211 264 324 381
#     4  10  24  43  64  94 133 171 213 266 323 382
#
# _framework density 25.637049000000001
#
# number of rings (size 3 to 8) (size 9 to 14) (size 15 to 20)
#    0.000    1.500    0.000    4.500    0.000   12.500 
#    0.000    1.250    0.000    0.000    0.000    0.000 
#    0.000    0.000    0.000    0.000    0.000    0.000 
#
# Total GULP energy -198408.909759 kJ/mol
# GULP energy per Si atom -12400.556860 kJ/mol
# Density = 2.557870 g / cm^3
# Si number density = 25.637049 Si / 1000 Ang^3
#
#
#
# Elastic Constant Matrix: (Units=GPa)
#
#
# Indices 1 2 3 4 5 6 
#
# 1 67.9556 5.2778 14.1180 -0.4103 -3.4975 -4.7174
# 2 5.2778 112.0486 22.9019 16.4081 -13.3738 -7.9546
# 3 14.1180 22.9019 92.5464 14.2938 -22.0375 -7.2307
# 4 -0.4103 16.4081 14.2938 36.4388 -11.6953 -5.4239
# 5 -3.4975 -13.3738 -22.0375 -11.6953 28.9323 6.3031
# 6 -4.7174 -7.9546 -7.2307 -5.4239 6.3031 35.2059
#
#
#
# Elastic Compliance Matrix: (Units=1/GPa)
#
#
# Indices 1 2 3 4 5 6 
#
# 1 0.015361 -0.000332 -0.002322 0.001548 0.000188 0.001711
# 2 -0.000332 0.010002 -0.001369 -0.003158 0.002027 0.001085
# 3 -0.002322 -0.001369 0.013933 -0.001993 0.008816 0.000356
# 4 0.001548 -0.003158 -0.001993 0.033275 0.010138 0.002396
# 5 0.000188 0.002027 0.008816 0.010138 0.047344 -0.004620
# 6 0.001711 0.001085 0.000356 0.002396 -0.004620 0.030148
#
#
# Mechanical properties :
#
#
# Convention : Reuss Voigt Hill
#
# Bulk Modulus (GPa) = 31.99927 39.68288 35.84107
# Shear Modulus (GPa) = 29.66903 35.46559 32.56731
#
# Velocity S-wave (km/s) = 3.40556 3.72341 3.56802
# Velocity P-wave (km/s) = 5.28891 5.83072 5.56641
#
# Compressibility (1/GPa) = 0.03125072
#
# Stress axis : x y z
#
# Youngs Moduli (GPa) = 65.09788 99.98379 71.77016
#
# Poissons Ratio (x) = 0.03317 0.16665
# Poissons Ratio (y) = 0.02160 0.09827
# Poissons Ratio (z) = 0.15115 0.13689
#
# Static dielectric constant tensor:
#      x y z
#    x 4.419690 0.106830 -0.013870 
#    y 0.106830 4.659200 0.302930 
#    z -0.013870 0.302930 4.799190 
# 
# 
# High freq. dielectric constant tensor:
#      x y z
#    x 2.017160 0.004180 0.003910 
#    y 0.004180 2.027380 0.011950 
#    z 0.003910 0.011950 2.032480 
# 
# From -- ./inp_files/307418.got.cif
#   From: 2010.06.25/outbox.cif.g09.slc.cpg/sg2_154_cif.got.tgz:307418.got - 2010.06.27 13:26:56.
