data_PCOD8014085
_publ_section_title
;
Structure prediction by ZEFSAII (Michael W. Deem and Ramdas Pophale) SiO2 
 PCOD8014085
Probable space group: P -1
;
_chemical_formula_sum "Si O2"
_cell_formula_units_Z 16
_cell_length_a 12.787643
_cell_length_b 21.475171
_cell_length_c 18.000305
_cell_angle_alpha 17.546349
_cell_angle_beta 40.189949
_cell_angle_gamma 30.404761
_cell_volume 696.723480
_symmetry_space_group_name_H-M "P -1"
_symmetry_group_IT_number 2
_symmetry_cell_setting 'triclinic'
loop_
_space_group_symop_operation_xyz
x,y,z
-x,-y,-z
loop_
_atom_site_type_symbol
_atom_site_label
_atom_site_fract_x
_atom_site_fract_y
_atom_site_fract_z
Si Si1 0.522208 0.172589 0.689610
Si Si2 0.754921 0.545373 0.782841
Si Si3 0.110152 0.569995 0.809457
Si Si4 0.308947 0.651884 0.369660
Si Si5 0.737366 0.257284 0.363112
Si Si6 0.098006 0.279767 0.764852
Si Si7 0.688003 0.203064 0.293448
Si Si8 0.114110 0.443352 0.787220
O O1 0.438884 0.456445 0.449548
O O2 0.630018 0.144563 0.584488
O O3 0.319141 0.195777 0.767018
O O4 0.711844 0.885659 0.961890
O O5 0.493009 0.826030 0.588860
O O6 0.911009 0.444184 0.742673
O O7 0.862058 0.576350 0.759328
O O8 0.717724 0.334835 0.059271
O O9 0.302231 0.514601 0.818037
O O10 0.190925 0.405038 0.875062
O O11 0.931314 0.896642 0.513316
O O12 0.000000 0.500000 0.000000
O O13 0.500000 0.500000 0.500000
O O14 0.130191 0.639757 0.508723
O O15 0.172581 0.978216 0.049809
O O16 0.625393 0.380470 0.202457
O O17 0.000000 0.000000 0.500000
O O18 0.000000 0.500000 0.500000
#
# Coordination Sequence:
#
# PCOD8014085 Si02
#       8
#     2   2   2   2   2   2   2   2
#     4  12  24  44  70 103 141 182 235 294 353 421
#     4  11  23  44  69  94 139 187 232 293 351 425
#     4  11  22  38  66 104 136 179 235 292 356 423
#     4  12  24  44  71 105 137 185 238 291 357 424
#     4  10  21  41  64  98 137 180 228 292 353 415
#     4  12  27  47  71 102 146 187 234 295 359 425
#     4  10  22  43  67  95 136 189 234 286 356 419
#     4  12  22  41  70 105 143 181 239 299 354 422
#
# _framework density 22.964635000000001
#
# number of rings (size 3 to 8) (size 9 to 14) (size 15 to 20)
#    0.000    0.750    2.500    7.125    0.000    1.000 
#    0.000    1.250    0.000    0.000    0.000    0.000 
#    0.000    0.000    0.000    0.000    0.000    0.000 
#
# Total GULP energy -198231.638818 kJ/mol
# GULP energy per Si atom -12389.477426 kJ/mol
# Density = 2.291237 g / cm^3
# Si number density = 22.964635 Si / 1000 Ang^3
#
#
#
# Elastic Constant Matrix: (Units=GPa)
#
#
# Indices 1 2 3 4 5 6 
#
# 1 106.0218 27.7365 15.1638 4.6890 -0.5812 -8.0877
# 2 27.7365 115.8990 25.9415 34.3169 -2.1009 -4.2540
# 3 15.1638 25.9415 113.6748 16.5443 -2.2116 10.4503
# 4 4.6890 34.3169 16.5443 36.6759 2.8990 -4.5517
# 5 -0.5812 -2.1009 -2.2116 2.8990 31.5441 3.1266
# 6 -8.0877 -4.2540 10.4503 -4.5517 3.1266 43.9186
#
#
#
# Elastic Compliance Matrix: (Units=1/GPa)
#
#
# Indices 1 2 3 4 5 6 
#
# 1 0.010411 -0.002770 -0.001283 0.002154 -0.000500 0.002213
# 2 -0.002770 0.012916 -0.000824 -0.011554 0.001852 -0.000392
# 3 -0.001283 -0.000824 0.010079 -0.004118 0.001327 -0.003236
# 4 0.002154 -0.011554 -0.004118 0.040674 -0.005237 0.004845
# 5 -0.000500 0.001852 0.001327 -0.005237 0.032697 -0.003099
# 6 0.002213 -0.000392 -0.003236 0.004845 -0.003099 0.024632
#
#
# Mechanical properties :
#
#
# Convention : Reuss Voigt Hill
#
# Bulk Modulus (GPa) = 42.28173 52.58659 47.43416
# Shear Modulus (GPa) = 33.54632 40.21130 36.87881
#
# Velocity S-wave (km/s) = 3.82616 4.18905 4.01171
# Velocity P-wave (km/s) = 6.16206 6.80780 6.49296
#
# Compressibility (1/GPa) = 0.02365088
#
# Stress axis : x y z
#
# Youngs Moduli (GPa) = 96.05209 77.42413 99.21715
#
# Poissons Ratio (x) = 0.21445 0.12733
# Poissons Ratio (y) = 0.26605 0.08179
# Poissons Ratio (z) = 0.12327 0.06382
#
# Static dielectric constant tensor:
#      x y z
#    x 4.908500 0.232020 -0.238060 
#    y 0.232020 4.151450 0.266260 
#    z -0.238060 0.266260 4.020120 
# 
# 
# High freq. dielectric constant tensor:
#      x y z
#    x 1.912130 -0.003790 -0.003110 
#    y -0.003790 1.918180 0.022920 
#    z -0.003110 0.022920 1.893150 
# 
# From -- ./inp_files/570686.got.cif
#   From: 2010.06.25/outbox.cif.g09.slc.cpg/sg2_286_cif.got.tgz:570686.got - 2010.06.27 13:26:56.
