data_PCOD8014727
_publ_section_title
;
Structure prediction by ZEFSAII (Michael W. Deem and Ramdas Pophale) SiO2 
 PCOD8014727
Probable space group: P -1
;
_chemical_formula_sum "Si O2"
_cell_formula_units_Z 14
_cell_length_a 8.721963
_cell_length_b 9.385783
_cell_length_c 8.758193
_cell_angle_alpha 110.289293
_cell_angle_beta 66.722194
_cell_angle_gamma 94.857887
_cell_volume 616.600320
_symmetry_space_group_name_H-M "P -1"
_symmetry_group_IT_number 2
_symmetry_cell_setting 'triclinic'
loop_
_space_group_symop_operation_xyz
x,y,z
-x,-y,-z
loop_
_atom_site_type_symbol
_atom_site_label
_atom_site_fract_x
_atom_site_fract_y
_atom_site_fract_z
Si Si1 0.687189 0.584647 0.383727
Si Si2 0.504300 0.341950 0.227980
Si Si3 0.225762 0.887334 0.097196
Si Si4 0.167051 0.906690 0.458328
Si Si5 0.239595 0.214300 0.082693
Si Si6 0.081048 0.634860 0.603029
Si Si7 0.160169 0.167091 0.764946
O O1 0.566369 0.514688 0.277240
O O2 0.584165 0.691289 0.586646
O O3 0.766514 0.434774 0.382423
O O4 0.827069 0.681965 0.286973
O O5 0.370364 0.330769 0.139806
O O6 0.661701 0.224398 0.094856
O O7 0.275172 0.864837 0.248513
O O8 0.032717 0.856673 0.129931
O O9 0.266480 0.057878 0.105027
O O10 0.138272 0.750310 0.495725
O O11 0.248721 0.021268 0.587679
O O12 0.000000 0.000000 0.500000
O O13 0.050968 0.281283 0.201025
O O14 0.267909 0.185884 0.881843
O O15 0.000000 0.500000 0.500000
#
# Coordination Sequence:
#
# PCOD8014727 Si02
#       7
#     2   2   2   2   2   2   2
#     4  11  26  48  69  99 141 187 223 279 344 413
#     4  11  26  47  66  96 150 183 217 279 360 404
#     4  11  23  45  72 101 138 177 228 290 338 403
#     4  10  21  41  71 102 131 173 230 282 331 397
#     4  12  24  42  71 106 136 178 230 287 341 402
#     4  12  22  41  75 102 132 177 234 281 333 399
#     4  11  24  44  74 102 133 177 243 280 328 406
#
# _framework density 22.705147
#
# number of rings (size 3 to 8) (size 9 to 14) (size 15 to 20)
#    0.000    0.857    4.286    4.286    2.000    4.000 
#    5.143    1.429    0.000    0.000    0.000    0.000 
#    0.000    0.000    0.000    0.000    0.000    0.000 
#
# Total GULP energy -173580.248600 kJ/mol
# GULP energy per Si atom -12398.589186 kJ/mol
# Density = 2.265347 g / cm^3
# Si number density = 22.705147 Si / 1000 Ang^3
#
#
#
# Elastic Constant Matrix: (Units=GPa)
#
#
# Indices 1 2 3 4 5 6 
#
# 1 82.1600 31.8781 56.9801 2.9456 15.8723 8.5463
# 2 31.8781 138.8576 62.3213 -10.7247 14.6571 -12.4653
# 3 56.9801 62.3213 150.4126 22.3921 26.7909 7.7831
# 4 2.9456 -10.7247 22.3921 33.0068 -0.0179 5.9783
# 5 15.8723 14.6571 26.7909 -0.0179 44.6311 6.8792
# 6 8.5463 -12.4653 7.7831 5.9783 6.8792 15.0922
#
#
#
# Elastic Compliance Matrix: (Units=1/GPa)
#
#
# Indices 1 2 3 4 5 6 
#
# 1 0.018102 -0.002070 -0.005884 0.003516 -0.000682 -0.010008
# 2 -0.002070 0.011689 -0.005134 0.005243 -0.001909 0.012268
# 3 -0.005884 -0.005134 0.013253 -0.009751 -0.003853 -0.002124
# 4 0.003516 0.005243 -0.009751 0.040231 0.004537 -0.010636
# 5 -0.000682 -0.001909 -0.003853 0.004537 0.027690 -0.013622
# 6 -0.010008 0.012268 -0.002124 -0.010636 -0.013622 0.093577
#
#
# Mechanical properties :
#
#
# Convention : Reuss Voigt Hill
#
# Bulk Modulus (GPa) = 59.28628 74.86546 67.07587
# Shear Modulus (GPa) = 21.15606 33.22939 27.19273
#
# Velocity S-wave (km/s) = 3.05581 3.82975 3.46446
# Velocity P-wave (km/s) = 6.21439 7.25261 6.75348
#
# Compressibility (1/GPa) = 0.01686731
#
# Stress axis : x y z
#
# Youngs Moduli (GPa) = 55.24309 85.55160 75.45728
#
# Poissons Ratio (x) = 0.17707 0.44399
# Poissons Ratio (y) = 0.11434 0.38742
# Poissons Ratio (z) = 0.32505 0.43924
#
# Static dielectric constant tensor:
#      x y z
#    x 4.237810 -0.000040 0.098460 
#    y -0.000040 4.054790 0.202610 
#    z 0.098460 0.202610 4.729030 
# 
# 
# High freq. dielectric constant tensor:
#      x y z
#    x 1.880670 0.015770 0.011790 
#    y 0.015770 1.889060 0.012310 
#    z 0.011790 0.012310 1.917140 
# 
# From -- ./inp_files/159554.got.cif
#   From: 2010.06.25/outbox.cif.g09.slc.cpg/sg2_80_cif.got.tgz:159554.got - 2010.06.27 13:26:56.
