data_PCOD8014024
_publ_section_title
;
Structure prediction by ZEFSAII (Michael W. Deem and Ramdas Pophale) SiO2 
 PCOD8014024
Probable space group: P -1
;
_chemical_formula_sum "Si O2"
_cell_formula_units_Z 14
_cell_length_a 6.751177
_cell_length_b 17.203112
_cell_length_c 14.015548
_cell_angle_alpha 148.625766
_cell_angle_beta 49.275794
_cell_angle_gamma 118.883177
_cell_volume 630.862582
_symmetry_space_group_name_H-M "P -1"
_symmetry_group_IT_number 2
_symmetry_cell_setting 'triclinic'
loop_
_space_group_symop_operation_xyz
x,y,z
-x,-y,-z
loop_
_atom_site_type_symbol
_atom_site_label
_atom_site_fract_x
_atom_site_fract_y
_atom_site_fract_z
Si Si1 0.090458 0.857468 0.255591
Si Si2 0.035638 0.784684 0.550099
Si Si3 0.065398 0.870694 0.060181
Si Si4 0.466740 0.448942 0.807720
Si Si5 0.606478 0.650362 0.655939
Si Si6 0.329522 0.299343 0.098992
Si Si7 0.008382 0.342708 0.759787
O O1 0.965706 0.870486 0.201686
O O2 0.002552 0.716685 0.190161
O O3 0.408583 0.831041 0.120612
O O4 0.000000 0.000000 0.500000
O O5 0.848019 0.679969 0.545916
O O6 0.344874 0.707964 0.385269
O O7 0.975521 0.790735 0.462031
O O8 0.980655 0.957031 0.785296
O O9 0.374142 0.797762 0.877480
O O10 0.911745 0.775465 0.939438
O O11 0.650856 0.563543 0.834527
O O12 0.275832 0.413220 0.743387
O O13 0.261603 0.529687 0.039676
O O14 0.500000 0.500000 0.500000
O O15 0.723610 0.630924 0.705625
#
# Coordination Sequence:
#
# PCOD8014024 Si02
#       7
#     2   2   2   2   2   2   2
#     4  10  21  41  64  92 130 167 207 257 320 375
#     4  12  24  39  67  95 127 168 212 264 322 374
#     4  11  25  42  66  98 128 166 214 267 321 377
#     4  10  23  40  63  93 127 171 212 261 315 378
#     4  11  25  45  68  91 127 172 217 265 315 377
#     4  10  24  43  64  94 128 167 217 260 314 385
#     4  10  22  41  64  92 131 168 215 262 309 381
#
# _framework density 22.191838000000001
#
# number of rings (size 3 to 8) (size 9 to 14) (size 15 to 20)
#    0.000    1.429    1.429    2.571    2.000   11.429 
#    0.000    0.000    0.000    0.000    0.000    0.000 
#    0.000    0.000    0.000    0.000    0.000    0.000 
#
# Total GULP energy -173567.705587 kJ/mol
# GULP energy per Si atom -12397.693256 kJ/mol
# Density = 2.214133 g / cm^3
# Si number density = 22.191838 Si / 1000 Ang^3
#
#
#
# Elastic Constant Matrix: (Units=GPa)
#
#
# Indices 1 2 3 4 5 6 
#
# 1 95.5392 31.1551 41.5169 -3.4673 20.7203 11.1509
# 2 31.1551 81.1576 25.1980 0.3675 1.1862 11.4207
# 3 41.5169 25.1980 112.9995 10.8827 0.6574 0.2382
# 4 -3.4673 0.3675 10.8827 34.4721 -2.4625 7.0142
# 5 20.7203 1.1862 0.6574 -2.4625 38.8212 -1.0434
# 6 11.1509 11.4207 0.2382 7.0142 -1.0434 30.0779
#
#
#
# Elastic Compliance Matrix: (Units=1/GPa)
#
#
# Indices 1 2 3 4 5 6 
#
# 1 0.016931 -0.003760 -0.005719 0.004162 -0.008724 -0.006077
# 2 -0.003760 0.015016 -0.002077 0.001144 0.001535 -0.004505
# 3 -0.005719 -0.002077 0.011865 -0.004931 0.002711 0.004059
# 4 0.004162 0.001144 -0.004931 0.032906 -0.000344 -0.009624
# 5 -0.008724 0.001535 0.002711 -0.000344 0.030402 0.003765
# 6 -0.006077 -0.004505 0.004059 -0.009624 0.003765 0.039553
#
#
# Mechanical properties :
#
#
# Convention : Reuss Voigt Hill
#
# Bulk Modulus (GPa) = 48.30972 53.93737 51.12354
# Shear Modulus (GPa) = 28.29916 33.46268 30.88092
#
# Velocity S-wave (km/s) = 3.57488 3.88736 3.73439
# Velocity P-wave (km/s) = 6.23346 6.67132 6.45611
#
# Compressibility (1/GPa) = 0.02069977
#
# Stress axis : x y z
#
# Youngs Moduli (GPa) = 59.06424 66.59513 84.28471
#
# Poissons Ratio (x) = 0.25039 0.48205
# Poissons Ratio (y) = 0.22207 0.17503
# Poissons Ratio (z) = 0.33781 0.13829
#
# Static dielectric constant tensor:
#      x y z
#    x 3.935240 -0.079900 -0.057340 
#    y -0.079900 3.894410 0.004120 
#    z -0.057340 0.004120 4.122580 
# 
# 
# High freq. dielectric constant tensor:
#      x y z
#    x 1.872340 0.004320 -0.000900 
#    y 0.004320 1.862190 0.003030 
#    z -0.000900 0.003030 1.887900 
# 
# From -- ./inp_files/72635.got.cif
#   From: 2010.06.25/outbox.cif.g09.slc.cpg/sg2_37_cif.got.tgz:72635.got - 2010.06.27 13:26:56.
