data_PCOD8014514
_publ_section_title
;
Structure prediction by ZEFSAII (Michael W. Deem and Ramdas Pophale) SiO2 
 PCOD8014514
Probable space group: P -1
;
_chemical_formula_sum "Si O2"
_cell_formula_units_Z 16
_cell_length_a 9.372826
_cell_length_b 8.315355
_cell_length_c 15.564780
_cell_angle_alpha 69.721150
_cell_angle_beta 38.851529
_cell_angle_gamma 79.836383
_cell_volume 704.750867
_symmetry_space_group_name_H-M "P -1"
_symmetry_group_IT_number 2
_symmetry_cell_setting 'triclinic'
loop_
_space_group_symop_operation_xyz
x,y,z
-x,-y,-z
loop_
_atom_site_type_symbol
_atom_site_label
_atom_site_fract_x
_atom_site_fract_y
_atom_site_fract_z
Si Si1 0.945407 0.815640 0.134220
Si Si2 0.724221 0.236105 0.877418
Si Si3 0.572682 0.686180 0.469700
Si Si4 0.074246 0.804542 0.902276
Si Si5 0.587114 0.761620 0.643826
Si Si6 0.820254 0.148250 0.451422
Si Si7 0.084285 0.434835 0.383768
Si Si8 0.208533 0.131082 0.141875
O O1 0.793904 0.746251 0.298516
O O2 0.200164 0.804154 0.053480
O O3 0.868533 0.002541 0.120701
O O4 0.929489 0.708160 0.070418
O O5 0.862711 0.412307 0.739382
O O6 0.765172 0.070835 0.832012
O O7 0.455487 0.252055 0.006384
O O8 0.500000 0.500000 0.500000
O O9 0.648209 0.698414 0.531476
O O10 0.371869 0.801599 0.532329
O O11 0.310847 0.734841 0.786153
O O12 0.919350 0.801412 0.892157
O O13 0.681563 0.642021 0.692776
O O14 0.717824 0.955680 0.566954
O O15 0.874762 0.286629 0.477346
O O16 0.063605 0.158652 0.288280
O O17 0.000000 0.500000 0.500000
#
# Coordination Sequence:
#
# PCOD8014514 Si02
#       8
#     2   2   2   2   2   2   2   2
#     4  10  21  41  68  96 134 175 224 278 342 398
#     4  10  23  45  68  94 141 180 221 277 347 412
#     4  12  24  43  70 101 141 181 224 283 353 403
#     4  10  21  41  68 103 130 171 230 285 326 403
#     4  12  24  45  70 102 137 181 236 284 332 413
#     4  12  24  43  72  99 134 181 235 278 343 408
#     4  12  27  46  65 100 142 179 229 286 346 403
#     4  10  22  43  72 101 129 184 227 274 341 416
#
# _framework density 22.703057000000001
#
# number of rings (size 3 to 8) (size 9 to 14) (size 15 to 20)
#    0.000    1.000    2.500    5.250    1.750    2.500 
#    4.500    1.250    0.000    0.000    0.000    0.000 
#    0.000    0.000    0.000    0.000    0.000    0.000 
#
# Total GULP energy -198292.705559 kJ/mol
# GULP energy per Si atom -12393.294097 kJ/mol
# Density = 2.265138 g / cm^3
# Si number density = 22.703057 Si / 1000 Ang^3
#
#
#
# Elastic Constant Matrix: (Units=GPa)
#
#
# Indices 1 2 3 4 5 6 
#
# 1 94.2775 25.5478 14.7773 9.1397 -6.0608 -13.6897
# 2 25.5478 76.9436 12.0085 -4.9544 2.2597 -0.0439
# 3 14.7773 12.0085 78.7829 24.2856 -0.0469 -4.9874
# 4 9.1397 -4.9544 24.2856 26.7262 -1.3468 1.1979
# 5 -6.0608 2.2597 -0.0469 -1.3468 37.4640 3.5567
# 6 -13.6897 -0.0439 -4.9874 1.1979 3.5567 44.5209
#
#
#
# Elastic Compliance Matrix: (Units=1/GPa)
#
#
# Indices 1 2 3 4 5 6 
#
# 1 0.013136 -0.004831 0.000306 -0.005757 0.001823 0.004078
# 2 -0.004831 0.015847 -0.004259 0.008490 -0.001240 -0.002076
# 3 0.000306 -0.004259 0.019147 -0.018447 -0.000597 0.002779
# 4 -0.005757 0.008490 -0.018447 0.058025 0.001140 -0.005481
# 5 0.001823 -0.001240 -0.000597 0.001140 0.027265 -0.001716
# 6 0.004078 -0.002076 0.002779 -0.005481 -0.001716 0.024309
#
#
# Mechanical properties :
#
#
# Convention : Reuss Voigt Hill
#
# Bulk Modulus (GPa) = 32.71948 39.40791 36.06369
# Shear Modulus (GPa) = 26.95662 34.92024 30.93843
#
# Velocity S-wave (km/s) = 3.44954 3.92615 3.69554
# Velocity P-wave (km/s) = 5.50536 6.16024 5.84198
#
# Compressibility (1/GPa) = 0.03056284
#
# Stress axis : x y z
#
# Youngs Moduli (GPa) = 76.12930 63.10254 52.22776
#
# Poissons Ratio (x) = 0.30486 -0.01600
# Poissons Ratio (y) = 0.36779 0.22242
# Poissons Ratio (z) = -0.02333 0.26874
#
# Static dielectric constant tensor:
#      x y z
#    x 4.349580 -0.232850 0.041470 
#    y -0.232850 4.064550 0.131700 
#    z 0.041470 0.131700 3.928290 
# 
# 
# High freq. dielectric constant tensor:
#      x y z
#    x 1.908730 -0.012110 0.000040 
#    y -0.012110 1.890720 0.013890 
#    z 0.000040 0.013890 1.895840 
# 
# From -- ./inp_files/494587.got.cif
#   From: 2010.06.25/outbox.cif.g09.slc.cpg/sg2_248_cif.got.tgz:494587.got - 2010.06.27 13:26:56.
