data_PCOD8014403
_publ_section_title
;
Structure prediction by ZEFSAII (Michael W. Deem and Ramdas Pophale) SiO2 
 PCOD8014403
Probable space group: P -1
;
_chemical_formula_sum "Si O2"
_cell_formula_units_Z 12
_cell_length_a 20.302644
_cell_length_b 14.629777
_cell_length_c 8.626889
_cell_angle_alpha 42.457724
_cell_angle_beta 124.527130
_cell_angle_gamma 157.810656
_cell_volume 581.279010
_symmetry_space_group_name_H-M "P -1"
_symmetry_group_IT_number 2
_symmetry_cell_setting 'triclinic'
loop_
_space_group_symop_operation_xyz
x,y,z
-x,-y,-z
loop_
_atom_site_type_symbol
_atom_site_label
_atom_site_fract_x
_atom_site_fract_y
_atom_site_fract_z
Si Si1 0.065792 0.723889 0.195942
Si Si2 0.262273 0.411839 0.994651
Si Si3 0.587356 0.318762 0.690822
Si Si4 0.555080 0.719478 0.206987
Si Si5 0.301132 0.709055 0.884693
Si Si6 0.833280 0.832436 0.144686
O O1 0.000000 0.500000 0.500000
O O2 0.886164 0.484416 0.143639
O O3 0.248689 0.971393 0.020322
O O4 0.119995 0.936770 0.110036
O O5 0.367877 0.458322 0.174899
O O6 0.340599 0.681873 0.814424
O O7 0.299458 0.435987 0.833659
O O8 0.027944 0.043963 0.165042
O O9 0.425383 0.130197 0.827601
O O10 0.712640 0.634946 0.390341
O O11 0.489653 0.089359 0.703501
O O12 0.733605 0.446811 0.821938
O O13 0.500000 0.500000 0.500000
#
# Coordination Sequence:
#
# PCOD8014403 Si02
#       6
#     2   2   2   2   2   2
#     4  11  25  42  62  93 132 164 203 258 315 368
#     4   9  22  40  62  94 118 163 210 256 304 368
#     4  10  21  41  67  92 121 164 212 257 307 364
#     4  11  23  40  64  94 125 166 207 254 312 372
#     4   9  22  42  61  93 122 163 206 262 301 368
#     4  10  21  42  66  91 121 167 211 256 306 367
#
# _framework density 20.644131000000002
#
# number of rings (size 3 to 8) (size 9 to 14) (size 15 to 20)
#    0.000    2.000    1.667    0.000    4.667    5.333 
#   24.000    0.000    0.000    0.000    0.000    0.000 
#    0.000    0.000    0.000    0.000    0.000    0.000 
#
# Total GULP energy -148698.444430 kJ/mol
# GULP energy per Si atom -12391.537036 kJ/mol
# Density = 2.059714 g / cm^3
# Si number density = 20.644131 Si / 1000 Ang^3
#
#
#
# Elastic Constant Matrix: (Units=GPa)
#
#
# Indices 1 2 3 4 5 6 
#
# 1 109.8098 64.6380 66.2651 13.1145 -5.1500 -0.1898
# 2 64.6380 127.3100 55.7263 25.9408 8.7632 -3.3225
# 3 66.2651 55.7263 154.0775 7.7518 -0.4372 9.6826
# 4 13.1145 25.9408 7.7518 15.1645 3.8717 8.0933
# 5 -5.1500 8.7632 -0.4372 3.8717 30.5122 -2.1210
# 6 -0.1898 -3.3225 9.6826 8.0933 -2.1210 40.0724
#
#
#
# Elastic Compliance Matrix: (Units=1/GPa)
#
#
# Indices 1 2 3 4 5 6 
#
# 1 0.015914 -0.005372 -0.004788 -0.004395 0.004852 0.001931
# 2 -0.005372 0.018198 -0.003342 -0.028500 -0.002013 0.007941
# 3 -0.004788 -0.003342 0.009646 0.007394 -0.000938 -0.004173
# 4 -0.004395 -0.028500 0.007394 0.134817 -0.011783 -0.032023
# 5 0.004852 -0.002013 -0.000938 -0.011783 0.035956 0.004366
# 6 0.001931 0.007941 -0.004173 -0.032023 0.004366 0.033329
#
#
# Mechanical properties :
#
#
# Convention : Reuss Voigt Hill
#
# Bulk Modulus (GPa) = 59.68864 84.93958 72.31411
# Shear Modulus (GPa) = 17.82855 30.78768 24.30812
#
# Velocity S-wave (km/s) = 2.94192 3.86599 3.43517
# Velocity P-wave (km/s) = 6.36520 7.82060 7.13013
#
# Compressibility (1/GPa) = 0.01675361
#
# Stress axis : x y z
#
# Youngs Moduli (GPa) = 62.83836 54.94970 103.67281
#
# Poissons Ratio (x) = 0.29520 0.49635
# Poissons Ratio (y) = 0.33758 0.34651
# Poissons Ratio (z) = 0.30085 0.18366
#
# Static dielectric constant tensor:
#      x y z
#    x 3.936500 -0.100120 0.089350 
#    y -0.100120 3.828210 0.162360 
#    z 0.089350 0.162360 3.526500 
# 
# 
# High freq. dielectric constant tensor:
#      x y z
#    x 1.814920 -0.005580 0.007140 
#    y -0.005580 1.811310 0.012510 
#    z 0.007140 0.012510 1.792720 
# 
# From -- ./inp_files/145587.got.cif
#   From: 2010.06.25/outbox.cif.g09.slc.cpg/sg2_73_cif.got.tgz:145587.got - 2010.06.27 13:26:56.
