data_PCOD8014473
_publ_section_title
;
Structure prediction by ZEFSAII (Michael W. Deem and Ramdas Pophale) SiO2 
 PCOD8014473
Probable space group: P -1
;
_chemical_formula_sum "Si O2"
_cell_formula_units_Z 16
_cell_length_a 23.091217
_cell_length_b 5.374706
_cell_length_c 8.081278
_cell_angle_alpha 60.793088
_cell_angle_beta 124.817059
_cell_angle_gamma 132.519802
_cell_volume 598.186686
_symmetry_space_group_name_H-M "P -1"
_symmetry_group_IT_number 2
_symmetry_cell_setting 'triclinic'
loop_
_space_group_symop_operation_xyz
x,y,z
-x,-y,-z
loop_
_atom_site_type_symbol
_atom_site_label
_atom_site_fract_x
_atom_site_fract_y
_atom_site_fract_z
Si Si1 0.878090 0.585416 0.903414
Si Si2 0.706303 0.066781 0.391632
Si Si3 0.594387 0.670714 0.038218
Si Si4 0.875973 0.710340 0.501545
Si Si5 0.009765 0.580535 0.679586
Si Si6 0.394962 0.750306 0.286963
Si Si7 0.219493 0.156111 0.172147
Si Si8 0.575170 0.084529 0.354688
O O1 0.892441 0.817988 0.689134
O O2 0.840468 0.700524 0.950567
O O3 0.816531 0.180972 0.889510
O O4 0.964639 0.638234 0.098284
O O5 0.776188 0.478531 0.371333
O O6 0.632340 0.937618 0.455796
O O7 0.666846 0.952441 0.185727
O O8 0.759608 0.910572 0.586832
O O9 0.600376 0.339604 0.151451
O O10 0.500000 0.500000 0.000000
O O11 0.602614 0.893074 0.819822
O O12 0.922013 0.503851 0.632032
O O13 0.915254 0.012717 0.331830
O O14 0.000000 0.500000 0.500000
O O15 0.310767 0.457860 0.149994
O O16 0.397804 0.681755 0.509969
O O17 0.474685 0.793810 0.300729
#
# Coordination Sequence:
#
# PCOD8014473 Si02
#       8
#     2   2   2   2   2   2   2   2
#     4  11  27  48  76 104 151 187 239 289 365 430
#     4  11  24  44  71  95 146 183 238 292 355 420
#     4  10  23  41  64  99 134 184 238 294 353 416
#     4  10  26  46  72 110 140 190 232 299 359 430
#     4  11  27  47  77 109 142 183 240 293 367 437
#     4  10  21  41  67  97 138 183 240 293 352 410
#     4  11  25  46  72 109 139 197 242 293 352 426
#     4  10  22  44  64  96 138 187 236 295 350 421
#
# _framework density 26.747502000000001
#
# number of rings (size 3 to 8) (size 9 to 14) (size 15 to 20)
#    0.000    1.500    1.250    1.875    8.750    4.000 
#    6.750    0.000    0.000    0.000    0.000    0.000 
#    0.000    0.000    0.000    0.000    0.000    0.000 
#
# Total GULP energy -198211.959016 kJ/mol
# GULP energy per Si atom -12388.247438 kJ/mol
# Density = 2.668662 g / cm^3
# Si number density = 26.747502 Si / 1000 Ang^3
#
#
#
# Elastic Constant Matrix: (Units=GPa)
#
#
# Indices 1 2 3 4 5 6 
#
# 1 108.2515 2.9666 -5.8312 1.5316 23.6916 2.6297
# 2 2.9666 16.2182 -7.6766 -0.4076 -6.7963 0.9289
# 3 -5.8312 -7.6766 78.4720 -1.4754 15.7136 3.8836
# 4 1.5316 -0.4076 -1.4754 43.8023 1.6405 1.2927
# 5 23.6916 -6.7963 15.7136 1.6405 28.2031 -3.8635
# 6 2.6297 0.9289 3.8836 1.2927 -3.8635 38.9918
#
#
#
# Elastic Compliance Matrix: (Units=1/GPa)
#
#
# Indices 1 2 3 4 5 6 
#
# 1 0.012873 -0.006763 0.003361 0.000224 -0.014672 -0.002503
# 2 -0.006763 0.073192 0.002183 0.000140 0.022189 0.000689
# 3 0.003361 0.002183 0.015676 0.000950 -0.011499 -0.003011
# 4 0.000224 0.000140 0.000950 0.022969 -0.002169 -0.001089
# 5 -0.014672 0.022189 -0.011499 -0.002169 0.060716 0.007694
# 6 -0.002503 0.000689 -0.003011 -0.001089 0.007694 0.026897
#
#
# Mechanical properties :
#
#
# Convention : Reuss Voigt Hill
#
# Bulk Modulus (GPa) = 10.07025 20.20657 15.13841
# Shear Modulus (GPa) = 20.17250 36.43165 28.30207
#
# Velocity S-wave (km/s) = 2.74922 3.69461 3.25640
# Velocity P-wave (km/s) = 3.72165 5.07653 4.45095
#
# Compressibility (1/GPa) = 0.09930241
#
# Stress axis : x y z
#
# Youngs Moduli (GPa) = 77.68316 13.66270 63.79088
#
# Poissons Ratio (x) = 0.09240 -0.21440
# Poissons Ratio (y) = 0.52538 -0.13925
# Poissons Ratio (z) = -0.26109 -0.02982
#
# Static dielectric constant tensor:
#      x y z
#    x 6.294030 2.641260 -0.438560 
#    y 2.641260 8.607050 -1.693500 
#    z -0.438560 -1.693500 5.788310 
# 
# 
# High freq. dielectric constant tensor:
#      x y z
#    x 2.047810 0.017330 0.020700 
#    y 0.017330 2.089540 -0.005930 
#    z 0.020700 -0.005930 2.079670 
# 
# From -- ./inp_files/350981.got.cif
#   From: 2010.06.25/outbox.cif.g09.slc.cpg/sg2_176_cif.got.tgz:350981.got - 2010.06.27 13:26:56.
