data_PCOD8014908
_publ_section_title
;
Structure prediction by ZEFSAII (Michael W. Deem and Ramdas Pophale) SiO2 
 PCOD8014908
Probable space group: P -1
;
_chemical_formula_sum "Si O2"
_cell_formula_units_Z 16
_cell_length_a 11.832932
_cell_length_b 14.412581
_cell_length_c 12.625391
_cell_angle_alpha 62.105507
_cell_angle_beta 85.908827
_cell_angle_gamma 33.147105
_cell_volume 779.030891
_symmetry_space_group_name_H-M "P -1"
_symmetry_group_IT_number 2
_symmetry_cell_setting 'triclinic'
loop_
_space_group_symop_operation_xyz
x,y,z
-x,-y,-z
loop_
_atom_site_type_symbol
_atom_site_label
_atom_site_fract_x
_atom_site_fract_y
_atom_site_fract_z
Si Si1 0.824760 0.629386 0.837416
Si Si2 0.856012 0.969584 0.801712
Si Si3 0.225176 0.257435 0.819866
Si Si4 0.951840 0.013071 0.376980
Si Si5 0.645711 0.479909 0.460479
Si Si6 0.352037 0.453077 0.160027
Si Si7 0.505377 0.900257 0.324517
Si Si8 0.802178 0.476524 0.648183
O O1 0.697621 0.619638 0.848286
O O2 0.009725 0.493983 0.791050
O O3 0.571410 0.924694 0.708562
O O4 0.000000 0.500000 0.000000
O O5 0.921420 0.997988 0.691341
O O6 0.576647 0.254274 0.723869
O O7 0.774659 0.926120 0.779716
O O8 0.110527 0.737572 0.987698
O O9 0.298795 0.260465 0.707496
O O10 0.106412 0.244914 0.796689
O O11 0.500000 0.000000 0.000000
O O12 0.647593 0.252962 0.219657
O O13 0.000000 0.000000 0.500000
O O14 0.108012 0.768514 0.496246
O O15 0.500000 0.500000 0.500000
O O16 0.804907 0.401944 0.586621
O O17 0.365822 0.439049 0.293553
O O18 0.669913 0.701298 0.511094
#
# Coordination Sequence:
#
# PCOD8014908 Si02
#       8
#     2   2   2   2   2   2   2   2
#     4  11  22  40  65  95 132 166 209 263 320 371
#     4  10  21  42  63  92 127 165 209 262 317 375
#     4  11  22  37  62  91 126 168 207 255 314 375
#     4  11  23  42  65  93 125 162 213 261 320 381
#     4   9  20  40  63  85 119 161 201 258 312 370
#     4  11  22  40  66  93 126 167 209 266 315 377
#     4  11  21  42  63  91 132 167 211 265 312 380
#     4  10  23  41  61  90 128 161 212 259 313 381
#
# _framework density 20.538336999999999
#
# number of rings (size 3 to 8) (size 9 to 14) (size 15 to 20)
#    0.000    1.500    2.500    3.750    1.750    2.000 
#    9.000    6.875    0.000    0.000    0.000    0.000 
#    0.000    0.000    0.000    0.000    0.000    0.000 
#
# Total GULP energy -198223.411044 kJ/mol
# GULP energy per Si atom -12388.963190 kJ/mol
# Density = 2.049159 g / cm^3
# Si number density = 20.538337 Si / 1000 Ang^3
#
#
#
# Elastic Constant Matrix: (Units=GPa)
#
#
# Indices 1 2 3 4 5 6 
#
# 1 94.9022 44.8205 25.9591 -8.8630 10.9978 14.7188
# 2 44.8205 125.0292 49.2268 1.6333 -0.5838 17.3267
# 3 25.9591 49.2268 103.4842 -7.0805 3.9209 17.5134
# 4 -8.8630 1.6333 -7.0805 30.7948 -7.6151 -3.1204
# 5 10.9978 -0.5838 3.9209 -7.6151 38.1494 -1.2269
# 6 14.7188 17.3267 17.5134 -3.1204 -1.2269 39.7056
#
#
#
# Elastic Compliance Matrix: (Units=1/GPa)
#
#
# Indices 1 2 3 4 5 6 
#
# 1 0.013906 -0.004421 -0.000567 0.002946 -0.003522 -0.002853
# 2 -0.004421 0.011568 -0.004348 -0.002733 0.001299 -0.001666
# 3 -0.000567 -0.004348 0.012630 0.002434 -0.000821 -0.003297
# 4 0.002946 -0.002733 0.002434 0.035728 0.006055 0.002022
# 5 -0.003522 0.001299 -0.000821 0.006055 0.028620 0.002461
# 6 -0.002853 -0.001666 -0.003297 0.002022 0.002461 0.028659
#
#
# Mechanical properties :
#
#
# Convention : Reuss Voigt Hill
#
# Bulk Modulus (GPa) = 51.46633 62.60313 57.03473
# Shear Modulus (GPa) = 31.99793 35.29058 33.64425
#
# Velocity S-wave (km/s) = 3.95138 4.14971 4.05176
# Velocity P-wave (km/s) = 6.77724 7.31487 7.05118
#
# Compressibility (1/GPa) = 0.01943018
#
# Stress axis : x y z
#
# Youngs Moduli (GPa) = 71.91038 86.44874 79.17956
#
# Poissons Ratio (x) = 0.38222 0.04492
# Poissons Ratio (y) = 0.31794 0.34426
# Poissons Ratio (z) = 0.04080 0.37587
#
# Static dielectric constant tensor:
#      x y z
#    x 3.944270 0.007830 -0.014740 
#    y 0.007830 4.082900 -0.182280 
#    z -0.014740 -0.182280 3.817760 
# 
# 
# High freq. dielectric constant tensor:
#      x y z
#    x 1.812770 -0.003440 0.011500 
#    y -0.003440 1.793240 -0.007250 
#    z 0.011500 -0.007250 1.808050 
# 
# From -- ./inp_files/433812.got.cif
#   From: 2010.06.25/outbox.cif.g09.slc.cpg/sg2_217_cif.got.tgz:433812.got - 2010.06.27 13:26:56.
