data_PCOD8014928
_publ_section_title
;
Structure prediction by ZEFSAII (Michael W. Deem and Ramdas Pophale) SiO2 
 PCOD8014928
Probable space group: P -1
;
_chemical_formula_sum "Si O2"
_cell_formula_units_Z 16
_cell_length_a 17.439042
_cell_length_b 8.200873
_cell_length_c 13.135953
_cell_angle_alpha 31.611635
_cell_angle_beta 131.508196
_cell_angle_gamma 119.576463
_cell_volume 725.311736
_symmetry_space_group_name_H-M "P -1"
_symmetry_group_IT_number 2
_symmetry_cell_setting 'triclinic'
loop_
_space_group_symop_operation_xyz
x,y,z
-x,-y,-z
loop_
_atom_site_type_symbol
_atom_site_label
_atom_site_fract_x
_atom_site_fract_y
_atom_site_fract_z
Si Si1 0.268382 0.193005 0.228429
Si Si2 0.983497 0.370412 0.760034
Si Si3 0.343953 0.716549 0.706627
Si Si4 0.175946 0.142964 0.736132
Si Si5 0.943306 0.411080 0.096442
Si Si6 0.497854 0.888208 0.893622
Si Si7 0.198311 0.348192 0.865583
Si Si8 0.616855 0.255989 0.932211
O O1 0.351847 0.402879 0.226613
O O2 0.308007 0.848551 0.493662
O O3 0.157648 0.325308 0.110640
O O4 0.259728 0.165024 0.113461
O O5 0.875502 0.500313 0.535639
O O6 0.977469 0.580857 0.744874
O O7 0.076971 0.443694 0.733149
O O8 0.000000 0.000000 0.000000
O O9 0.406757 0.957682 0.691793
O O10 0.245159 0.666376 0.715587
O O11 0.411018 0.370575 0.935362
O O12 0.210719 0.131886 0.890638
O O13 0.087272 0.931323 0.757559
O O14 0.278306 0.012604 0.828925
O O15 0.000000 0.500000 0.000000
O O16 0.545756 0.196751 0.803418
O O17 0.450936 0.747852 0.025295
#
# Coordination Sequence:
#
# PCOD8014928 Si02
#       8
#     2   2   2   2   2   2   2   2
#     4  10  24  41  66  96 129 167 222 262 318 385
#     4  11  25  41  68 100 128 173 219 254 319 392
#     4  11  23  42  69  94 125 176 211 270 323 377
#     4  11  23  41  67  92 132 175 203 270 324 372
#     4  10  23  41  61  95 134 166 215 258 320 390
#     4  10  22  42  67  93 128 169 219 263 333 376
#     4  11  23  42  66  95 134 163 218 261 315 385
#     4  10  21  42  63  95 131 165 215 271 319 388
#
# _framework density 22.059479
#
# number of rings (size 3 to 8) (size 9 to 14) (size 15 to 20)
#    0.000    1.500    2.500    1.500    5.250    2.000 
#    0.000    5.000    0.000    0.000    0.000    0.000 
#    0.000    0.000    0.000    0.000    0.000    0.000 
#
# Total GULP energy -198350.023034 kJ/mol
# GULP energy per Si atom -12396.876440 kJ/mol
# Density = 2.200927 g / cm^3
# Si number density = 22.059479 Si / 1000 Ang^3
#
#
#
# Elastic Constant Matrix: (Units=GPa)
#
#
# Indices 1 2 3 4 5 6 
#
# 1 100.0523 21.6446 15.0168 2.9403 -14.0528 10.9007
# 2 21.6446 120.8450 30.2650 25.2378 -8.0834 4.4121
# 3 15.0168 30.2650 95.3858 10.9798 -14.2704 6.3576
# 4 2.9403 25.2378 10.9798 26.2267 -7.1147 -3.0840
# 5 -14.0528 -8.0834 -14.2704 -7.1147 22.2302 5.1904
# 6 10.9007 4.4121 6.3576 -3.0840 5.1904 33.3743
#
#
#
# Elastic Compliance Matrix: (Units=1/GPa)
#
#
# Indices 1 2 3 4 5 6 
#
# 1 0.012105 -0.001889 0.000090 0.002259 0.008889 -0.004895
# 2 -0.001889 0.011251 -0.002251 -0.010229 -0.001555 -0.001145
# 3 0.000090 -0.002251 0.012751 -0.001487 0.007766 -0.003506
# 4 0.002259 -0.010229 -0.001487 0.052197 0.012580 0.003765
# 5 0.008889 -0.001555 0.007766 0.012580 0.062004 -0.012658
# 6 -0.004895 -0.001145 -0.003506 0.003765 -0.012658 0.034698
#
#
# Mechanical properties :
#
#
# Convention : Reuss Voigt Hill
#
# Bulk Modulus (GPa) = 35.70685 50.01508 42.86096
# Shear Modulus (GPa) = 24.69824 32.99002 28.84413
#
# Velocity S-wave (km/s) = 3.34970 3.87137 3.61994
# Velocity P-wave (km/s) = 5.58412 6.53494 6.07815
#
# Compressibility (1/GPa) = 0.02800583
#
# Stress axis : x y z
#
# Youngs Moduli (GPa) = 82.60781 88.87789 78.42762
#
# Poissons Ratio (x) = 0.16790 -0.00703
# Poissons Ratio (y) = 0.15606 0.17657
# Poissons Ratio (z) = -0.00741 0.20009
#
# Static dielectric constant tensor:
#      x y z
#    x 4.049580 0.170100 -0.030890 
#    y 0.170100 4.455220 0.337360 
#    z -0.030890 0.337360 3.637160 
# 
# 
# High freq. dielectric constant tensor:
#      x y z
#    x 1.876290 0.011310 -0.006630 
#    y 0.011310 1.886550 0.020800 
#    z -0.006630 0.020800 1.835270 
# 
# From -- ./inp_files/273526.got.cif
#   From: 2010.06.25/outbox.cif.g09.slc.cpg/sg2_137_cif.got.tgz:273526.got - 2010.06.27 13:26:56.
