data_PCOD8014520
_publ_section_title
;
Structure prediction by ZEFSAII (Michael W. Deem and Ramdas Pophale) SiO2 
 PCOD8014520
Probable space group: P -1
;
_chemical_formula_sum "Si O2"
_cell_formula_units_Z 14
_cell_length_a 8.972513
_cell_length_b 8.891454
_cell_length_c 9.631007
_cell_angle_alpha 82.400145
_cell_angle_beta 117.860621
_cell_angle_gamma 78.735242
_cell_volume 643.679148
_symmetry_space_group_name_H-M "P -1"
_symmetry_group_IT_number 2
_symmetry_cell_setting 'triclinic'
loop_
_space_group_symop_operation_xyz
x,y,z
-x,-y,-z
loop_
_atom_site_type_symbol
_atom_site_label
_atom_site_fract_x
_atom_site_fract_y
_atom_site_fract_z
Si Si1 0.930766 0.820529 0.723015
Si Si2 0.777612 0.182431 0.614720
Si Si3 0.440693 0.158590 0.368022
Si Si4 0.629141 0.889080 0.961852
Si Si5 0.570204 0.611526 0.115722
Si Si6 0.219756 0.844095 0.056783
Si Si7 0.884669 0.389759 0.425847
O O1 0.767437 0.753536 0.705432
O O2 0.039473 0.718674 0.659359
O O3 0.853514 0.001489 0.617370
O O4 0.060527 0.807279 0.911498
O O5 0.572354 0.256109 0.466160
O O6 0.800513 0.191510 0.787349
O O7 0.888362 0.282940 0.575518
O O8 0.473593 0.116911 0.225292
O O9 0.500000 0.000000 0.500000
O O10 0.787152 0.969161 0.991300
O O11 0.685256 0.709748 0.070577
O O12 0.500000 0.000000 0.000000
O O13 0.407253 0.734577 0.103253
O O14 0.689306 0.500973 0.296349
O O15 0.500000 0.500000 0.000000
O O16 0.000000 0.500000 0.500000
#
# Coordination Sequence:
#
# PCOD8014520 Si02
#       7
#     2   2   2   2   2   2   2
#     4  11  24  45  72 101 139 173 238 283 337 409
#     4  11  25  46  74 100 140 177 231 289 344 400
#     4  10  21  41  68 105 133 167 227 289 341 384
#     4  10  22  39  73  98 131 182 238 277 329 410
#     4  11  24  46  67  98 146 187 228 271 351 418
#     4  11  23  44  73 103 131 184 234 287 335 407
#     4  12  29  47  67 104 141 185 224 285 349 411
#
# _framework density 21.749967000000002
#
# number of rings (size 3 to 8) (size 9 to 14) (size 15 to 20)
#    0.000    1.143    4.286    1.714    6.000    1.714 
#    2.571    1.429    0.000    0.000    0.000    0.000 
#    0.000    0.000    0.000    0.000    0.000    0.000 
#
# Total GULP energy -173545.438561 kJ/mol
# GULP energy per Si atom -12396.102754 kJ/mol
# Density = 2.170046 g / cm^3
# Si number density = 21.749967 Si / 1000 Ang^3
#
#
#
# Elastic Constant Matrix: (Units=GPa)
#
#
# Indices 1 2 3 4 5 6 
#
# 1 120.8982 52.1023 72.8833 6.8652 0.6357 6.0662
# 2 52.1023 104.7865 47.6383 3.1554 -6.2199 9.4079
# 3 72.8833 47.6383 128.9747 8.2417 -8.2967 10.6342
# 4 6.8652 3.1554 8.2417 27.7610 1.4362 10.1155
# 5 0.6357 -6.2199 -8.2967 1.4362 47.1988 -3.9044
# 6 6.0662 9.4079 10.6342 10.1155 -3.9044 30.4435
#
#
#
# Elastic Compliance Matrix: (Units=1/GPa)
#
#
# Indices 1 2 3 4 5 6 
#
# 1 0.014017 -0.004172 -0.006489 -0.001332 -0.001758 0.000980
# 2 -0.004172 0.012877 -0.002182 0.001109 0.001120 -0.002611
# 3 -0.006489 -0.002182 0.012578 -0.001349 0.001908 -0.001733
# 4 -0.001332 0.001109 -0.001349 0.041786 -0.002487 -0.013809
# 5 -0.001758 0.001120 0.001908 -0.002487 0.022017 0.002987
# 6 0.000980 -0.002611 -0.001733 -0.013809 0.002987 0.039036
#
#
# Mechanical properties :
#
#
# Convention : Reuss Voigt Hill
#
# Bulk Modulus (GPa) = 72.53589 77.76746 75.15167
# Shear Modulus (GPa) = 28.97008 33.21635 31.09322
#
# Velocity S-wave (km/s) = 3.65356 3.91217 3.78507
# Velocity P-wave (km/s) = 7.15684 7.49931 7.33007
#
# Compressibility (1/GPa) = 0.01378628
#
# Stress axis : x y z
#
# Youngs Moduli (GPa) = 71.34381 77.65684 79.50284
#
# Poissons Ratio (x) = 0.32396 0.51587
# Poissons Ratio (y) = 0.29763 0.17351
# Poissons Ratio (z) = 0.46292 0.16949
#
# Static dielectric constant tensor:
#      x y z
#    x 4.170440 0.237670 -0.111510 
#    y 0.237670 4.692400 -0.202060 
#    z -0.111510 -0.202060 4.070590 
# 
# 
# High freq. dielectric constant tensor:
#      x y z
#    x 1.863840 0.007740 -0.001480 
#    y 0.007740 1.841730 0.007850 
#    z -0.001480 0.007850 1.866730 
# 
# From -- ./inp_files/158164.got.cif
#   From: 2010.06.25/outbox.cif.g09.slc.cpg/sg2_80_cif.got.tgz:158164.got - 2010.06.27 13:26:56.
