data_PCOD8014518
_publ_section_title
;
Structure prediction by ZEFSAII (Michael W. Deem and Ramdas Pophale) SiO2 
 PCOD8014518
Probable space group: P -1
;
_chemical_formula_sum "Si O2"
_cell_formula_units_Z 14
_cell_length_a 11.940192
_cell_length_b 14.760844
_cell_length_c 12.056694
_cell_angle_alpha 152.752014
_cell_angle_beta 137.706675
_cell_angle_gamma 51.433764
_cell_volume 650.640403
_symmetry_space_group_name_H-M "P -1"
_symmetry_group_IT_number 2
_symmetry_cell_setting 'triclinic'
loop_
_space_group_symop_operation_xyz
x,y,z
-x,-y,-z
loop_
_atom_site_type_symbol
_atom_site_label
_atom_site_fract_x
_atom_site_fract_y
_atom_site_fract_z
Si Si1 0.812820 0.933142 0.321749
Si Si2 0.383931 0.303662 0.666336
Si Si3 0.946230 0.518739 0.665842
Si Si4 0.026967 0.231232 0.241161
Si Si5 0.570908 0.247082 0.538901
Si Si6 0.760265 0.648884 0.172769
Si Si7 0.364805 0.346428 0.295672
O O1 0.831140 0.794697 0.288965
O O2 0.726341 0.126523 0.501114
O O3 0.710821 0.819804 0.025631
O O4 0.000000 0.000000 0.500000
O O5 0.215269 0.338463 0.514961
O O6 0.484631 0.172731 0.513277
O O7 0.319508 0.215041 0.642553
O O8 0.500000 0.500000 0.000000
O O9 0.007342 0.723904 0.865219
O O10 0.780975 0.532763 0.632231
O O11 0.905426 0.340780 0.352276
O O12 0.093187 0.470733 0.802729
O O13 0.000000 0.000000 0.000000
O O14 0.442232 0.222390 0.315395
O O15 0.622486 0.483787 0.841226
O O16 0.500000 0.500000 0.500000
#
# Coordination Sequence:
#
# PCOD8014518 Si02
#       7
#     2   2   2   2   2   2   2
#     4  12  28  44  67  98 136 181 230 270 327 406
#     4   9  20  41  70  96 130 166 216 276 339 389
#     4  10  23  42  69  95 140 173 217 279 331 400
#     4  10  21  41  68 104 131 171 221 272 337 398
#     4  11  23  46  69  96 135 171 228 284 331 391
#     4  10  23  45  68  99 132 179 221 270 345 398
#     4  12  25  44  70  97 133 182 223 275 337 389
#
# _framework density 21.517264000000001
#
# number of rings (size 3 to 8) (size 9 to 14) (size 15 to 20)
#    0.000    1.429    2.857    1.286    2.000    7.429 
#    0.000    0.000    0.000    0.000    0.000    0.000 
#    0.000    0.000    0.000    0.000    0.000    0.000 
#
# Total GULP energy -173480.625682 kJ/mol
# GULP energy per Si atom -12391.473263 kJ/mol
# Density = 2.146829 g / cm^3
# Si number density = 21.517264 Si / 1000 Ang^3
#
#
#
# Elastic Constant Matrix: (Units=GPa)
#
#
# Indices 1 2 3 4 5 6 
#
# 1 195.6080 65.9604 59.6387 3.0794 -12.7772 -1.7391
# 2 65.9604 113.6132 44.2178 -4.5473 -1.3556 19.5693
# 3 59.6387 44.2178 91.1772 -7.1626 0.5701 12.1194
# 4 3.0794 -4.5473 -7.1626 35.5096 -1.2331 -2.2623
# 5 -12.7772 -1.3556 0.5701 -1.2331 31.4442 0.1295
# 6 -1.7391 19.5693 12.1194 -2.2623 0.1295 40.5274
#
#
#
# Elastic Compliance Matrix: (Units=1/GPa)
#
#
# Indices 1 2 3 4 5 6 
#
# 1 0.007746 -0.003541 -0.003908 -0.001612 0.002990 0.003111
# 2 -0.003541 0.013080 -0.003223 0.000959 -0.000756 -0.005448
# 3 -0.003908 -0.003223 0.015741 0.002835 -0.001888 -0.003154
# 4 -0.001612 0.000959 0.002835 0.029027 0.000472 0.000239
# 5 0.002990 -0.000756 -0.001888 0.000472 0.033033 0.000979
# 6 0.003111 -0.005448 -0.003154 0.000239 0.000979 0.028392
#
#
# Mechanical properties :
#
#
# Convention : Reuss Voigt Hill
#
# Bulk Modulus (GPa) = 65.69301 82.22580 73.95940
# Shear Modulus (GPa) = 32.58639 36.86835 34.72737
#
# Velocity S-wave (km/s) = 3.89579 4.14385 4.02173
# Velocity P-wave (km/s) = 7.12972 7.82254 7.48415
#
# Compressibility (1/GPa) = 0.01522232
#
# Stress axis : x y z
#
# Youngs Moduli (GPa) = 129.09490 76.45526 63.52852
#
# Poissons Ratio (x) = 0.27071 0.24830
# Poissons Ratio (y) = 0.45710 0.20475
# Poissons Ratio (z) = 0.50456 0.24641
#
# Static dielectric constant tensor:
#      x y z
#    x 4.403340 0.073410 -0.217840 
#    y 0.073410 3.776350 -0.223170 
#    z -0.217840 -0.223170 3.836580 
# 
# 
# High freq. dielectric constant tensor:
#      x y z
#    x 1.869520 0.002480 -0.011590 
#    y 0.002480 1.835850 -0.021610 
#    z -0.011590 -0.021610 1.836920 
# 
# From -- ./inp_files/70621.got.cif
#   From: 2010.06.25/outbox.cif.g09.slc.cpg/sg2_36_cif.got.tgz:70621.got - 2010.06.27 13:26:56.
