data_PCOD8014402
_publ_section_title
;
Structure prediction by ZEFSAII (Michael W. Deem and Ramdas Pophale) SiO2 
 PCOD8014402
Probable space group: P -1
;
_chemical_formula_sum "Si O2"
_cell_formula_units_Z 14
_cell_length_a 19.797720
_cell_length_b 11.065027
_cell_length_c 9.436474
_cell_angle_alpha 67.980345
_cell_angle_beta 40.951112
_cell_angle_gamma 36.491701
_cell_volume 647.059737
_symmetry_space_group_name_H-M "P -1"
_symmetry_group_IT_number 2
_symmetry_cell_setting 'triclinic'
loop_
_space_group_symop_operation_xyz
x,y,z
-x,-y,-z
loop_
_atom_site_type_symbol
_atom_site_label
_atom_site_fract_x
_atom_site_fract_y
_atom_site_fract_z
Si Si1 0.124344 0.865420 0.215391
Si Si2 0.096032 0.540803 0.083092
Si Si3 0.689837 0.612517 0.931064
Si Si4 0.139072 0.650869 0.683731
Si Si5 0.540683 0.497557 0.779059
Si Si6 0.263959 0.977978 0.367412
Si Si7 0.009197 0.345587 0.353480
O O1 0.177650 0.660769 0.182216
O O2 0.323632 0.737383 0.947245
O O3 0.000000 0.000000 0.500000
O O4 0.989212 0.077050 0.213619
O O5 0.292012 0.367374 0.941436
O O6 0.087993 0.394586 0.142713
O O7 0.120346 0.572176 0.875556
O O8 0.896474 0.811155 0.352859
O O9 0.811079 0.589129 0.656826
O O10 0.463248 0.847968 0.135898
O O11 0.366887 0.457019 0.395552
O O12 0.057844 0.675446 0.657666
O O13 0.683031 0.231588 0.602898
O O14 0.500000 0.500000 0.000000
O O15 0.184330 0.091629 0.284392
#
# Coordination Sequence:
#
# PCOD8014402 Si02
#       7
#     2   2   2   2   2   2   2
#     4  11  20  38  65  95 116 153 204 257 312 365
#     4  11  26  39  59  91 129 173 201 247 312 365
#     4  10  21  41  67  92 120 155 213 261 303 366
#     4  12  23  40  61  92 133 157 203 259 309 365
#     4  11  21  36  65  96 117 153 204 257 313 361
#     4  10  22  41  66  92 121 159 210 260 306 363
#     4  11  22  41  63  88 121 172 217 248 291 362
#
# _framework density 21.636334000000002
#
# number of rings (size 3 to 8) (size 9 to 14) (size 15 to 20)
#    0.000    1.143    2.857    5.571    0.000    5.714 
#    0.000    2.857    0.000    6.000    0.000    0.000 
#    0.000    0.000    0.000    0.000    0.000    0.000 
#
# Total GULP energy -173528.690779 kJ/mol
# GULP energy per Si atom -12394.906484 kJ/mol
# Density = 2.158709 g / cm^3
# Si number density = 21.636334 Si / 1000 Ang^3
#
#
#
# Elastic Constant Matrix: (Units=GPa)
#
#
# Indices 1 2 3 4 5 6 
#
# 1 103.7036 35.1671 48.1690 -4.0317 -31.4015 -15.7999
# 2 35.1671 72.0016 54.2589 -14.2262 -16.1517 -16.8111
# 3 48.1690 54.2589 92.3901 -11.1130 -25.3239 -12.0607
# 4 -4.0317 -14.2262 -11.1130 36.2096 -2.4044 4.3701
# 5 -31.4015 -16.1517 -25.3239 -2.4044 39.0623 0.6142
# 6 -15.7999 -16.8111 -12.0607 4.3701 0.6142 32.9231
#
#
#
# Elastic Compliance Matrix: (Units=1/GPa)
#
#
# Indices 1 2 3 4 5 6 
#
# 1 0.015583 -0.001129 -0.004265 -0.000030 0.009212 0.005172
# 2 -0.001129 0.028277 -0.013651 0.005965 0.002174 0.008063
# 3 -0.004265 -0.013651 0.022708 0.001637 0.005765 -0.001024
# 4 -0.000030 0.005965 0.001637 0.030888 0.005414 -0.000570
# 5 0.009212 0.002174 0.005765 0.005414 0.037878 0.006218
# 6 0.005172 0.008063 -0.001024 -0.000570 0.006218 0.036558
#
#
# Mechanical properties :
#
#
# Convention : Reuss Voigt Hill
#
# Bulk Modulus (GPa) = 35.11654 60.36504 47.74079
# Shear Modulus (GPa) = 22.78179 30.33903 26.56041
#
# Velocity S-wave (km/s) = 3.24843 3.74869 3.50749
# Velocity P-wave (km/s) = 5.50775 6.83355 6.20615
#
# Compressibility (1/GPa) = 0.02847661
#
# Stress axis : x y z
#
# Youngs Moduli (GPa) = 64.17326 35.36493 44.03737
#
# Poissons Ratio (x) = 0.03993 0.18781
# Poissons Ratio (y) = 0.07246 0.60117
# Poissons Ratio (z) = 0.27369 0.48278
#
# Static dielectric constant tensor:
#      x y z
#    x 4.110910 0.162670 -0.264950 
#    y 0.162670 3.907010 0.026220 
#    z -0.264950 0.026220 3.735700 
# 
# 
# High freq. dielectric constant tensor:
#      x y z
#    x 1.861700 0.003540 -0.030020 
#    y 0.003540 1.839680 0.009210 
#    z -0.030020 0.009210 1.839320 
# 
# From -- ./inp_files/346019.got.cif
#   From: 2010.06.25/outbox.cif.g09.slc.cpg/sg2_174_cif.got.tgz:346019.got - 2010.06.27 13:26:56.
