data_PCOD8014204
_publ_section_title
;
Structure prediction by ZEFSAII (Michael W. Deem and Ramdas Pophale) SiO2 
 PCOD8014204
Probable space group: P -1
;
_chemical_formula_sum "Si O2"
_cell_formula_units_Z 12
_cell_length_a 12.377523
_cell_length_b 10.484912
_cell_length_c 16.540335
_cell_angle_alpha 51.457791
_cell_angle_beta 150.584346
_cell_angle_gamma 144.623492
_cell_volume 580.983271
_symmetry_space_group_name_H-M "P -1"
_symmetry_group_IT_number 2
_symmetry_cell_setting 'triclinic'
loop_
_space_group_symop_operation_xyz
x,y,z
-x,-y,-z
loop_
_atom_site_type_symbol
_atom_site_label
_atom_site_fract_x
_atom_site_fract_y
_atom_site_fract_z
Si Si1 0.638669 0.117823 0.630151
Si Si2 0.733733 0.595170 0.989836
Si Si3 0.851918 0.295851 0.923038
Si Si4 0.702198 0.453001 0.628697
Si Si5 0.652171 0.221706 0.147556
Si Si6 0.296806 0.677951 0.679125
O O1 0.585050 0.284848 0.541560
O O2 0.004174 0.263685 0.823379
O O3 0.500000 0.000000 0.500000
O O4 0.469812 0.930409 0.664514
O O5 0.533011 0.325166 0.984491
O O6 0.479462 0.360034 0.164981
O O7 0.887524 0.667553 0.972031
O O8 0.657273 0.303169 0.731632
O O9 0.630528 0.054611 0.922971
O O10 0.000000 0.500000 0.000000
O O11 0.500000 0.500000 0.500000
O O12 0.060707 0.698251 0.750692
O O13 0.797525 0.341953 0.282282
O O14 0.000000 0.500000 0.500000
#
# Coordination Sequence:
#
# PCOD8014204 Si02
#       6
#     2   2   2   2   2   2
#     4  10  21  41  65  95 133 168 216 268 321 386
#     4  10  23  41  65  95 130 168 214 270 326 384
#     4  10  22  42  63  91 127 172 216 261 322 386
#     4  10  23  43  61  93 132 169 215 268 322 386
#     4  10  21  42  65  90 128 166 218 267 314 397
#     4  12  22  40  64  97 131 167 214 268 334 387
#
# _framework density 20.654639
#
# number of rings (size 3 to 8) (size 9 to 14) (size 15 to 20)
#    0.000    2.000    3.333    3.000    0.000    6.000 
#    6.000    0.000    0.000    0.000    0.000    0.000 
#    0.000    0.000    0.000    0.000    0.000    0.000 
#
# Total GULP energy -148692.799731 kJ/mol
# GULP energy per Si atom -12391.066644 kJ/mol
# Density = 2.060763 g / cm^3
# Si number density = 20.654639 Si / 1000 Ang^3
#
#
#
# Elastic Constant Matrix: (Units=GPa)
#
#
# Indices 1 2 3 4 5 6 
#
# 1 98.2769 58.5974 52.2274 -8.8432 12.0672 -6.1502
# 2 58.5974 163.4174 44.5193 -5.7331 4.0510 11.1282
# 3 52.2274 44.5193 80.3341 2.2110 20.1041 -13.1209
# 4 -8.8432 -5.7331 2.2110 33.2113 -7.3753 -15.2459
# 5 12.0672 4.0510 20.1041 -7.3753 36.1378 -7.4819
# 6 -6.1502 11.1282 -13.1209 -15.2459 -7.4819 46.0441
#
#
#
# Elastic Compliance Matrix: (Units=1/GPa)
#
#
# Indices 1 2 3 4 5 6 
#
# 1 0.018326 -0.003897 -0.009892 0.006684 0.001822 0.003080
# 2 -0.003897 0.008527 -0.003035 -0.000707 0.001167 -0.003491
# 3 -0.009892 -0.003035 0.023692 -0.005811 -0.010188 0.002584
# 4 0.006684 -0.000707 -0.005811 0.042100 0.012869 0.015439
# 5 0.001822 0.001167 -0.010188 0.012869 0.036736 0.007288
# 6 0.003080 -0.003491 0.002584 0.015439 0.007288 0.030006
#
#
# Mechanical properties :
#
#
# Convention : Reuss Voigt Hill
#
# Bulk Modulus (GPa) = 59.17486 72.52408 65.84947
# Shear Modulus (GPa) = 25.16769 35.52425 30.34597
#
# Velocity S-wave (km/s) = 3.49449 4.15169 3.83718
# Velocity P-wave (km/s) = 6.70774 7.62699 7.18209
#
# Compressibility (1/GPa) = 0.01689907
#
# Stress axis : x y z
#
# Youngs Moduli (GPa) = 54.56709 117.26885 42.20785
#
# Poissons Ratio (x) = 0.45699 0.41750
# Poissons Ratio (y) = 0.21265 0.12809
# Poissons Ratio (z) = 0.53975 0.35589
#
# Static dielectric constant tensor:
#      x y z
#    x 3.795470 0.404310 -0.108660 
#    y 0.404310 3.681390 -0.267160 
#    z -0.108660 -0.267160 3.602580 
# 
# 
# High freq. dielectric constant tensor:
#      x y z
#    x 1.813160 0.006740 -0.015320 
#    y 0.006740 1.825800 -0.013610 
#    z -0.015320 -0.013610 1.786130 
# 
# From -- ./inp_files/512851.got.cif
#   From: 2010.06.25/outbox.cif.g09.slc.cpg/sg2_257_cif.got.tgz:512851.got - 2010.06.27 13:26:56.
