data_PCOD8014487
_publ_section_title
;
Structure prediction by ZEFSAII (Michael W. Deem and Ramdas Pophale) SiO2 
 PCOD8014487
Probable space group: P -1
;
_chemical_formula_sum "Si O2"
_cell_formula_units_Z 16
_cell_length_a 18.825421
_cell_length_b 14.009260
_cell_length_c 12.041045
_cell_angle_alpha 32.242099
_cell_angle_beta 50.154952
_cell_angle_gamma 28.586494
_cell_volume 743.134771
_symmetry_space_group_name_H-M "P -1"
_symmetry_group_IT_number 2
_symmetry_cell_setting 'triclinic'
loop_
_space_group_symop_operation_xyz
x,y,z
-x,-y,-z
loop_
_atom_site_type_symbol
_atom_site_label
_atom_site_fract_x
_atom_site_fract_y
_atom_site_fract_z
Si Si1 0.186147 0.807993 0.622650
Si Si2 0.326739 0.857899 0.291658
Si Si3 0.849734 0.425050 0.460857
Si Si4 0.689454 0.730539 0.086357
Si Si5 0.703106 0.324089 0.835751
Si Si6 0.857183 0.731636 0.327246
Si Si7 0.514759 0.173444 0.269678
Si Si8 0.496088 0.624346 0.137920
O O1 0.188068 0.932122 0.387583
O O2 0.212145 0.563132 0.799993
O O3 0.329547 0.658812 0.701527
O O4 0.021932 0.081574 0.584078
O O5 0.500000 0.500000 0.500000
O O6 0.344126 0.884946 0.118496
O O7 0.279307 0.119848 0.141471
O O8 0.738187 0.639718 0.255522
O O9 0.768515 0.397220 0.640462
O O10 0.877905 0.552273 0.385526
O O11 0.500000 0.000000 0.000000
O O12 0.635396 0.476479 0.876004
O O13 0.542915 0.501149 0.760183
O O14 0.844848 0.949875 0.070598
O O15 0.000000 0.500000 0.500000
O O16 0.691858 0.963245 0.334341
O O17 0.500000 0.000000 0.500000
O O18 0.508062 0.200514 0.115173
#
# Coordination Sequence:
#
# PCOD8014487 Si02
#       8
#     2   2   2   2   2   2   2   2
#     4  11  26  43  68 104 140 181 229 285 347 408
#     4  10  21  41  67  99 131 178 229 281 331 408
#     4  12  28  45  68 106 144 182 228 287 354 409
#     4  12  23  42  72 100 137 182 236 280 339 419
#     4  11  25  44  72  97 143 181 235 284 341 417
#     4  11  26  46  70 103 142 182 232 289 349 409
#     4  11  23  44  70 104 131 182 236 286 337 420
#     4  10  21  41  69  97 135 176 231 278 342 401
#
# _framework density 21.530414
#
# number of rings (size 3 to 8) (size 9 to 14) (size 15 to 20)
#    0.000    1.000    3.750    4.125    5.250    3.000 
#    0.000    0.000    0.000    0.000    0.000    0.000 
#    0.000    0.000    0.000    0.000    0.000    0.000 
#
# Total GULP energy -198268.375814 kJ/mol
# GULP energy per Si atom -12391.773488 kJ/mol
# Density = 2.148141 g / cm^3
# Si number density = 21.530414 Si / 1000 Ang^3
#
#
#
# Elastic Constant Matrix: (Units=GPa)
#
#
# Indices 1 2 3 4 5 6 
#
# 1 106.8415 34.8452 60.2608 -13.6935 9.1864 14.8171
# 2 34.8452 126.6866 53.0060 -1.6865 -3.3493 14.2887
# 3 60.2608 53.0060 129.5361 -4.8353 -12.8841 8.8783
# 4 -13.6935 -1.6865 -4.8353 36.4072 2.3140 -6.0048
# 5 9.1864 -3.3493 -12.8841 2.3140 50.0984 -9.2111
# 6 14.8171 14.2887 8.8783 -6.0048 -9.2111 33.3273
#
#
#
# Elastic Compliance Matrix: (Units=1/GPa)
#
#
# Indices 1 2 3 4 5 6 
#
# 1 0.015276 -0.000834 -0.006810 0.004272 -0.005809 -0.005456
# 2 -0.000834 0.009952 -0.003556 -0.000824 -0.000661 -0.003280
# 3 -0.006810 -0.003556 0.012618 -0.000967 0.004728 0.002323
# 4 0.004272 -0.000824 -0.000967 0.029607 -0.001802 0.003548
# 5 -0.005809 -0.000661 0.004728 -0.001802 0.023722 0.007838
# 6 -0.005456 -0.003280 0.002323 0.003548 0.007838 0.036024
#
#
# Mechanical properties :
#
#
# Convention : Reuss Voigt Hill
#
# Bulk Modulus (GPa) = 64.73901 73.25422 68.99661
# Shear Modulus (GPa) = 32.31078 38.29672 35.30375
#
# Velocity S-wave (km/s) = 3.87810 4.22207 4.05373
# Velocity P-wave (km/s) = 7.08426 7.60692 7.35024
#
# Compressibility (1/GPa) = 0.01544664
#
# Stress axis : x y z
#
# Youngs Moduli (GPa) = 65.46257 100.47924 79.25309
#
# Poissons Ratio (x) = 0.08379 0.53968
# Poissons Ratio (y) = 0.05459 0.28185
# Poissons Ratio (z) = 0.44577 0.35733
#
# Static dielectric constant tensor:
#      x y z
#    x 4.120610 0.257870 -0.218940 
#    y 0.257870 4.292380 0.125390 
#    z -0.218940 0.125390 4.271190 
# 
# 
# High freq. dielectric constant tensor:
#      x y z
#    x 1.842620 0.008190 -0.013940 
#    y 0.008190 1.845000 0.001990 
#    z -0.013940 0.001990 1.857240 
# 
# From -- ./inp_files/471862.got.cif
#   From: 2010.06.25/outbox.cif.g09.slc.cpg/sg2_236_cif.got.tgz:471862.got - 2010.06.27 13:26:56.
